MODEL 1
REMARK VINA RESULT:      -5.3      0.000      0.000
REMARK  7 active torsions:
REMARK  status: ('A' for Active; 'I' for Inactive)
REMARK    1  A    between atoms: C_6  and  O_7 
REMARK    2  A    between atoms: O_7  and  C_8 
REMARK    3  A    between atoms: C_8  and  C_9 
REMARK    4  A    between atoms: C_9  and  C_11 
REMARK    5  A    between atoms: C_9  and  O_16 
REMARK    6  A    between atoms: C_11  and  O_12 
REMARK    7  A    between atoms: O_12  and  C_13 
REMARK       I    between atoms: C_13  and  N_15 
ROOT
ATOM      1  C   LIG d   1       5.148  -3.841  -5.919  0.00  0.00     0.119 C 
ATOM      2  H   LIG d   1       5.072  -2.836  -6.336  0.00  0.00     0.072 H 
ATOM      3  H   LIG d   1       6.197  -4.136  -5.871  0.00  0.00     0.072 H 
ENDROOT
BRANCH   1   4
ATOM      4  O   LIG d   1       4.589  -3.856  -4.605  0.00  0.00    -0.489 OA
BRANCH   4   5
ATOM      5  C   LIG d   1       4.614  -2.688  -3.910  0.00  0.00     0.121 A 
ATOM      6  C   LIG d   1       5.294  -1.591  -4.418  0.00  0.00    -0.019 A 
ATOM      7  C   LIG d   1       5.317  -0.405  -3.709  0.00  0.00    -0.040 A 
ATOM      8  H   LIG d   1       5.803  -1.662  -5.368  0.00  0.00     0.065 H 
ATOM      9  C   LIG d   1       4.662  -0.311  -2.495  0.00  0.00     0.041 A 
ATOM     10  H   LIG d   1       5.847   0.449  -4.105  0.00  0.00     0.063 H 
ATOM     11  C   LIG d   1       3.983  -1.404  -1.986  0.00  0.00    -0.040 A 
ATOM     12 CL   LIG d   1       4.694   1.180  -1.605  0.00  0.00    -0.084 Cl
ATOM     13  C   LIG d   1       3.958  -2.591  -2.691  0.00  0.00    -0.019 A 
ATOM     14  H   LIG d   1       3.473  -1.329  -1.038  0.00  0.00     0.063 H 
ATOM     15  H   LIG d   1       3.428  -3.445  -2.294  0.00  0.00     0.065 H 
ENDBRANCH   4   5
ENDBRANCH   1   4
BRANCH   1  16
ATOM     16  C   LIG d   1       4.383  -4.821  -6.810  0.00  0.00     0.123 C 
ATOM     17  H   LIG d   1       4.211  -4.367  -7.786  0.00  0.00     0.066 H 
BRANCH  16  18
ATOM     18  C   LIG d   1       5.203  -6.102  -6.981  0.00  0.00     0.123 C 
ATOM     19  H   LIG d   1       5.433  -6.247  -8.037  0.00  0.00     0.072 H 
ATOM     20  H   LIG d   1       6.131  -6.017  -6.417  0.00  0.00     0.072 H 
BRANCH  18  21
ATOM     21  O   LIG d   1       4.452  -7.217  -6.499  0.00  0.00    -0.448 OA
BRANCH  21  22
ATOM     22  C   LIG d   1       4.977  -7.909  -5.470  0.00  0.00     0.398 C 
ATOM     23  O   LIG d   1       4.265  -8.623  -4.792  0.00  0.00    -0.227 OA
ATOM     24  N   LIG d   1       6.292  -7.808  -5.192  0.00  0.00    -0.295 N 
ATOM     25  H   LIG d   1       6.861  -7.239  -5.732  0.00  0.00     0.148 HD
ATOM     26  H   LIG d   1       6.670  -8.306  -4.450  0.00  0.00     0.148 HD
ENDBRANCH  21  22
ENDBRANCH  18  21
ENDBRANCH  16  18
BRANCH  16  27
ATOM     27  O   LIG d   1       3.128  -5.137  -6.204  0.00  0.00    -0.385 OA
ATOM     28  H   LIG d   1       2.587  -5.752  -6.719  0.00  0.00     0.210 HD
ENDBRANCH  16  27
ENDBRANCH   1  16
TORSDOF 7
ENDMDL
MODEL 2
REMARK VINA RESULT:      -5.2      5.054      6.912
REMARK  7 active torsions:
REMARK  status: ('A' for Active; 'I' for Inactive)
REMARK    1  A    between atoms: C_6  and  O_7 
REMARK    2  A    between atoms: O_7  and  C_8 
REMARK    3  A    between atoms: C_8  and  C_9 
REMARK    4  A    between atoms: C_9  and  C_11 
REMARK    5  A    between atoms: C_9  and  O_16 
REMARK    6  A    between atoms: C_11  and  O_12 
REMARK    7  A    between atoms: O_12  and  C_13 
REMARK       I    between atoms: C_13  and  N_15 
ROOT
ATOM      1  C   LIG d   1       4.967  -1.286  -5.283  0.00  0.00     0.119 C 
ATOM      2  H   LIG d   1       5.064  -2.039  -6.065  0.00  0.00     0.072 H 
ATOM      3  H   LIG d   1       5.955  -0.916  -5.010  0.00  0.00     0.072 H 
ENDROOT
BRANCH   1   4
ATOM      4  O   LIG d   1       4.168  -0.202  -5.761  0.00  0.00    -0.489 OA
BRANCH   4   5
ATOM      5  C   LIG d   1       3.715  -0.286  -7.040  0.00  0.00     0.121 A 
ATOM      6  C   LIG d   1       3.041   0.784  -7.609  0.00  0.00    -0.019 A 
ATOM      7  C   LIG d   1       2.581   0.697  -8.909  0.00  0.00    -0.040 A 
ATOM      8  H   LIG d   1       2.877   1.686  -7.038  0.00  0.00     0.065 H 
ATOM      9  C   LIG d   1       2.794  -0.456  -9.643  0.00  0.00     0.041 A 
ATOM     10  H   LIG d   1       2.056   1.530  -9.353  0.00  0.00     0.063 H 
ATOM     11  C   LIG d   1       3.467  -1.525  -9.077  0.00  0.00    -0.040 A 
ATOM     12 CL   LIG d   1       2.216  -0.564 -11.276  0.00  0.00    -0.084 Cl
ATOM     13  C   LIG d   1       3.927  -1.441  -7.777  0.00  0.00    -0.019 A 
ATOM     14  H   LIG d   1       3.632  -2.424  -9.651  0.00  0.00     0.063 H 
ATOM     15  H   LIG d   1       4.452  -2.275  -7.335  0.00  0.00     0.065 H 
ENDBRANCH   4   5
ENDBRANCH   1   4
BRANCH   1  16
ATOM     16  C   LIG d   1       4.299  -1.909  -4.056  0.00  0.00     0.123 C 
ATOM     17  H   LIG d   1       4.413  -2.992  -4.091  0.00  0.00     0.066 H 
BRANCH  16  18
ATOM     18  C   LIG d   1       4.959  -1.368  -2.786  0.00  0.00     0.123 C 
ATOM     19  H   LIG d   1       5.260  -2.202  -2.150  0.00  0.00     0.072 H 
ATOM     20  H   LIG d   1       5.837  -0.781  -3.055  0.00  0.00     0.072 H 
BRANCH  18  21
ATOM     21  O   LIG d   1       4.032  -0.542  -2.080  0.00  0.00    -0.448 OA
BRANCH  21  22
ATOM     22  C   LIG d   1       4.235   0.787  -2.132  0.00  0.00     0.398 C 
ATOM     23  O   LIG d   1       4.847   1.344  -1.242  0.00  0.00    -0.227 OA
ATOM     24  N   LIG d   1       3.759   1.502  -3.171  0.00  0.00    -0.295 N 
ATOM     25  H   LIG d   1       3.270   1.059  -3.882  0.00  0.00     0.148 HD
ATOM     26  H   LIG d   1       3.905   2.461  -3.208  0.00  0.00     0.148 HD
ENDBRANCH  21  22
ENDBRANCH  18  21
ENDBRANCH  16  18
BRANCH  16  27
ATOM     27  O   LIG d   1       2.909  -1.577  -4.048  0.00  0.00    -0.385 OA
ATOM     28  H   LIG d   1       2.646  -0.972  -4.756  0.00  0.00     0.210 HD
ENDBRANCH  16  27
ENDBRANCH   1  16
TORSDOF 7
ENDMDL
MODEL 3
REMARK VINA RESULT:      -5.2      5.892      7.751
REMARK  7 active torsions:
REMARK  status: ('A' for Active; 'I' for Inactive)
REMARK    1  A    between atoms: C_6  and  O_7 
REMARK    2  A    between atoms: O_7  and  C_8 
REMARK    3  A    between atoms: C_8  and  C_9 
REMARK    4  A    between atoms: C_9  and  C_11 
REMARK    5  A    between atoms: C_9  and  O_16 
REMARK    6  A    between atoms: C_11  and  O_12 
REMARK    7  A    between atoms: O_12  and  C_13 
REMARK       I    between atoms: C_13  and  N_15 
ROOT
ATOM      1  C   LIG d   1       2.536   0.250  -6.165  0.00  0.00     0.119 C 
ATOM      2  H   LIG d   1       1.613   0.595  -5.700  0.00  0.00     0.072 H 
ATOM      3  H   LIG d   1       2.329  -0.631  -6.773  0.00  0.00     0.072 H 
ENDROOT
BRANCH   1   4
ATOM      4  O   LIG d   1       3.069   1.284  -6.993  0.00  0.00    -0.489 OA
BRANCH   4   5
ATOM      5  C   LIG d   1       3.302   0.975  -8.296  0.00  0.00     0.121 A 
ATOM      6  C   LIG d   1       3.638   1.973  -9.198  0.00  0.00    -0.019 A 
ATOM      7  C   LIG d   1       3.875   1.655 -10.522  0.00  0.00    -0.040 A 
ATOM      8  H   LIG d   1       3.718   2.998  -8.866  0.00  0.00     0.065 H 
ATOM      9  C   LIG d   1       3.779   0.343 -10.947  0.00  0.00     0.041 A 
ATOM     10  H   LIG d   1       4.137   2.433 -11.224  0.00  0.00     0.063 H 
ATOM     11  C   LIG d   1       3.444  -0.655 -10.048  0.00  0.00    -0.040 A 
ATOM     12 CL   LIG d   1       4.076  -0.054 -12.611  0.00  0.00    -0.084 Cl
ATOM     13  C   LIG d   1       3.205  -0.341  -8.725  0.00  0.00    -0.019 A 
ATOM     14  H   LIG d   1       3.369  -1.679 -10.382  0.00  0.00     0.063 H 
ATOM     15  H   LIG d   1       2.944  -1.120  -8.023  0.00  0.00     0.065 H 
ENDBRANCH   4   5
ENDBRANCH   1   4
BRANCH   1  16
ATOM     16  C   LIG d   1       3.552  -0.108  -5.078  0.00  0.00     0.123 C 
ATOM     17  H   LIG d   1       4.522   0.319  -5.333  0.00  0.00     0.066 H 
BRANCH  16  18
ATOM     18  C   LIG d   1       3.084   0.458  -3.736  0.00  0.00     0.123 C 
ATOM     19  H   LIG d   1       2.038   0.758  -3.813  0.00  0.00     0.072 H 
ATOM     20  H   LIG d   1       3.187  -0.305  -2.965  0.00  0.00     0.072 H 
BRANCH  18  21
ATOM     21  O   LIG d   1       3.881   1.593  -3.393  0.00  0.00    -0.448 OA
BRANCH  21  22
ATOM     22  C   LIG d   1       5.012   1.359  -2.702  0.00  0.00     0.398 C 
ATOM     23  O   LIG d   1       4.959   1.110  -1.514  0.00  0.00    -0.227 OA
ATOM     24  N   LIG d   1       6.205   1.402  -3.328  0.00  0.00    -0.295 N 
ATOM     25  H   LIG d   1       6.249   1.601  -4.276  0.00  0.00     0.148 HD
ATOM     26  H   LIG d   1       7.021   1.234  -2.830  0.00  0.00     0.148 HD
ENDBRANCH  21  22
ENDBRANCH  18  21
ENDBRANCH  16  18
BRANCH  16  27
ATOM     27  O   LIG d   1       3.667  -1.529  -4.982  0.00  0.00    -0.385 OA
ATOM     28  H   LIG d   1       3.088  -2.012  -5.588  0.00  0.00     0.210 HD
ENDBRANCH  16  27
ENDBRANCH   1  16
TORSDOF 7
ENDMDL
MODEL 4
REMARK VINA RESULT:      -5.2      5.429      6.748
REMARK  7 active torsions:
REMARK  status: ('A' for Active; 'I' for Inactive)
REMARK    1  A    between atoms: C_6  and  O_7 
REMARK    2  A    between atoms: O_7  and  C_8 
REMARK    3  A    between atoms: C_8  and  C_9 
REMARK    4  A    between atoms: C_9  and  C_11 
REMARK    5  A    between atoms: C_9  and  O_16 
REMARK    6  A    between atoms: C_11  and  O_12 
REMARK    7  A    between atoms: O_12  and  C_13 
REMARK       I    between atoms: C_13  and  N_15 
ROOT
ATOM      1  C   LIG d   1       2.672   0.247  -8.217  0.00  0.00     0.119 C 
ATOM      2  H   LIG d   1       2.997  -0.793  -8.244  0.00  0.00     0.072 H 
ATOM      3  H   LIG d   1       1.583   0.286  -8.164  0.00  0.00     0.072 H 
ENDROOT
BRANCH   1   4
ATOM      4  O   LIG d   1       3.227   0.891  -7.069  0.00  0.00    -0.489 OA
BRANCH   4   5
ATOM      5  C   LIG d   1       3.340   0.146  -5.938  0.00  0.00     0.121 A 
ATOM      6  C   LIG d   1       2.503   0.389  -4.859  0.00  0.00    -0.019 A 
ATOM      7  C   LIG d   1       2.621  -0.370  -3.710  0.00  0.00    -0.040 A 
ATOM      8  H   LIG d   1       1.758   1.169  -4.917  0.00  0.00     0.065 H 
ATOM      9  C   LIG d   1       3.571  -1.372  -3.635  0.00  0.00     0.041 A 
ATOM     10  H   LIG d   1       1.969  -0.180  -2.870  0.00  0.00     0.063 H 
ATOM     11  C   LIG d   1       4.407  -1.616  -4.711  0.00  0.00    -0.040 A 
ATOM     12 CL   LIG d   1       3.718  -2.323  -2.191  0.00  0.00    -0.084 Cl
ATOM     13  C   LIG d   1       4.294  -0.859  -5.861  0.00  0.00    -0.019 A 
ATOM     14  H   LIG d   1       5.149  -2.398  -4.651  0.00  0.00     0.063 H 
ATOM     15  H   LIG d   1       4.946  -1.050  -6.700  0.00  0.00     0.065 H 
ENDBRANCH   4   5
ENDBRANCH   1   4
BRANCH   1  16
ATOM     16  C   LIG d   1       3.147   0.963  -9.483  0.00  0.00     0.123 C 
ATOM     17  H   LIG d   1       2.284   1.335 -10.035  0.00  0.00     0.066 H 
BRANCH  16  18
ATOM     18  C   LIG d   1       4.050   2.136  -9.097  0.00  0.00     0.123 C 
ATOM     19  H   LIG d   1       3.559   3.074  -9.360  0.00  0.00     0.072 H 
ATOM     20  H   LIG d   1       4.237   2.112  -8.024  0.00  0.00     0.072 H 
BRANCH  18  21
ATOM     21  O   LIG d   1       5.290   2.035  -9.800  0.00  0.00    -0.448 OA
BRANCH  21  22
ATOM     22  C   LIG d   1       6.385   1.752  -9.070  0.00  0.00     0.398 C 
ATOM     23  O   LIG d   1       7.486   1.805  -9.581  0.00  0.00    -0.227 OA
ATOM     24  N   LIG d   1       6.259   1.408  -7.773  0.00  0.00    -0.295 N 
ATOM     25  H   LIG d   1       5.381   1.365  -7.364  0.00  0.00     0.148 HD
ATOM     26  H   LIG d   1       7.049   1.204  -7.246  0.00  0.00     0.148 HD
ENDBRANCH  21  22
ENDBRANCH  18  21
ENDBRANCH  16  18
BRANCH  16  27
ATOM     27  O   LIG d   1       3.878   0.048 -10.302  0.00  0.00    -0.385 OA
ATOM     28  H   LIG d   1       4.254   0.448 -11.099  0.00  0.00     0.210 HD
ENDBRANCH  16  27
ENDBRANCH   1  16
TORSDOF 7
ENDMDL
MODEL 5
REMARK VINA RESULT:      -5.1      5.977      7.490
REMARK  7 active torsions:
REMARK  status: ('A' for Active; 'I' for Inactive)
REMARK    1  A    between atoms: C_6  and  O_7 
REMARK    2  A    between atoms: O_7  and  C_8 
REMARK    3  A    between atoms: C_8  and  C_9 
REMARK    4  A    between atoms: C_9  and  C_11 
REMARK    5  A    between atoms: C_9  and  O_16 
REMARK    6  A    between atoms: C_11  and  O_12 
REMARK    7  A    between atoms: O_12  and  C_13 
REMARK       I    between atoms: C_13  and  N_15 
ROOT
ATOM      1  C   LIG d   1       3.386   0.139  -4.833  0.00  0.00     0.119 C 
ATOM      2  H   LIG d   1       2.705  -0.712  -4.828  0.00  0.00     0.072 H 
ATOM      3  H   LIG d   1       4.378  -0.191  -5.143  0.00  0.00     0.072 H 
ENDROOT
BRANCH   1   4
ATOM      4  O   LIG d   1       2.907   1.127  -5.747  0.00  0.00    -0.489 OA
BRANCH   4   5
ATOM      5  C   LIG d   1       2.929   0.808  -7.069  0.00  0.00     0.121 A 
ATOM      6  C   LIG d   1       2.891   1.811  -8.026  0.00  0.00    -0.019 A 
ATOM      7  C   LIG d   1       2.914   1.484  -9.369  0.00  0.00    -0.040 A 
ATOM      8  H   LIG d   1       2.848   2.846  -7.723  0.00  0.00     0.065 H 
ATOM      9  C   LIG d   1       2.975   0.158  -9.758  0.00  0.00     0.041 A 
ATOM     10  H   LIG d   1       2.884   2.265 -10.114  0.00  0.00     0.063 H 
ATOM     11  C   LIG d   1       3.013  -0.844  -8.804  0.00  0.00    -0.040 A 
ATOM     12 CL   LIG d   1       3.002  -0.251 -11.445  0.00  0.00    -0.084 Cl
ATOM     13  C   LIG d   1       2.989  -0.521  -7.461  0.00  0.00    -0.019 A 
ATOM     14  H   LIG d   1       3.060  -1.878  -9.110  0.00  0.00     0.063 H 
ATOM     15  H   LIG d   1       3.019  -1.303  -6.717  0.00  0.00     0.065 H 
ENDBRANCH   4   5
ENDBRANCH   1   4
BRANCH   1  16
ATOM     16  C   LIG d   1       3.464   0.740  -3.429  0.00  0.00     0.123 C 
ATOM     17  H   LIG d   1       2.580   0.449  -2.860  0.00  0.00     0.066 H 
BRANCH  16  18
ATOM     18  C   LIG d   1       4.718   0.222  -2.721  0.00  0.00     0.123 C 
ATOM     19  H   LIG d   1       4.473  -0.033  -1.689  0.00  0.00     0.072 H 
ATOM     20  H   LIG d   1       5.086  -0.664  -3.236  0.00  0.00     0.072 H 
BRANCH  18  21
ATOM     21  O   LIG d   1       5.726   1.235  -2.735  0.00  0.00    -0.448 OA
BRANCH  21  22
ATOM     22  C   LIG d   1       6.790   1.026  -3.532  0.00  0.00     0.398 C 
ATOM     23  O   LIG d   1       7.144   1.888  -4.312  0.00  0.00    -0.227 OA
ATOM     24  N   LIG d   1       7.464  -0.139  -3.464  0.00  0.00    -0.295 N 
ATOM     25  H   LIG d   1       7.183  -0.827  -2.842  0.00  0.00     0.148 HD
ATOM     26  H   LIG d   1       8.232  -0.290  -4.038  0.00  0.00     0.148 HD
ENDBRANCH  21  22
ENDBRANCH  18  21
ENDBRANCH  16  18
BRANCH  16  27
ATOM     27  O   LIG d   1       3.522   2.164  -3.521  0.00  0.00    -0.385 OA
ATOM     28  H   LIG d   1       3.544   2.613  -2.664  0.00  0.00     0.210 HD
ENDBRANCH  16  27
ENDBRANCH   1  16
TORSDOF 7
ENDMDL
MODEL 6
REMARK VINA RESULT:      -5.0      6.473      8.787
REMARK  7 active torsions:
REMARK  status: ('A' for Active; 'I' for Inactive)
REMARK    1  A    between atoms: C_6  and  O_7 
REMARK    2  A    between atoms: O_7  and  C_8 
REMARK    3  A    between atoms: C_8  and  C_9 
REMARK    4  A    between atoms: C_9  and  C_11 
REMARK    5  A    between atoms: C_9  and  O_16 
REMARK    6  A    between atoms: C_11  and  O_12 
REMARK    7  A    between atoms: O_12  and  C_13 
REMARK       I    between atoms: C_13  and  N_15 
ROOT
ATOM      1  C   LIG d   1       8.251   1.580  -4.951  0.00  0.00     0.119 C 
ATOM      2  H   LIG d   1       8.383   0.498  -4.974  0.00  0.00     0.072 H 
ATOM      3  H   LIG d   1       7.880   1.922  -5.917  0.00  0.00     0.072 H 
ENDROOT
BRANCH   1   4
ATOM      4  O   LIG d   1       7.312   1.924  -3.932  0.00  0.00    -0.489 OA
BRANCH   4   5
ATOM      5  C   LIG d   1       6.476   0.940  -3.504  0.00  0.00     0.121 A 
ATOM      6  C   LIG d   1       6.733  -0.382  -3.837  0.00  0.00    -0.019 A 
ATOM      7  C   LIG d   1       5.882  -1.380  -3.401  0.00  0.00    -0.040 A 
ATOM      8  H   LIG d   1       7.598  -0.632  -4.433  0.00  0.00     0.065 H 
ATOM      9  C   LIG d   1       4.777  -1.061  -2.633  0.00  0.00     0.041 A 
ATOM     10  H   LIG d   1       6.082  -2.409  -3.660  0.00  0.00     0.063 H 
ATOM     11  C   LIG d   1       4.519   0.257  -2.300  0.00  0.00    -0.040 A 
ATOM     12 CL   LIG d   1       3.709  -2.317  -2.087  0.00  0.00    -0.084 Cl
ATOM     13  C   LIG d   1       5.366   1.257  -2.735  0.00  0.00    -0.019 A 
ATOM     14  H   LIG d   1       3.656   0.504  -1.701  0.00  0.00     0.063 H 
ATOM     15  H   LIG d   1       5.166   2.287  -2.476  0.00  0.00     0.065 H 
ENDBRANCH   4   5
ENDBRANCH   1   4
BRANCH   1  16
ATOM     16  C   LIG d   1       9.594   2.251  -4.654  0.00  0.00     0.123 C 
ATOM     17  H   LIG d   1      10.152   2.373  -5.582  0.00  0.00     0.066 H 
BRANCH  16  18
ATOM     18  C   LIG d   1       9.350   3.623  -4.021  0.00  0.00     0.123 C 
ATOM     19  H   LIG d   1       9.946   4.374  -4.541  0.00  0.00     0.072 H 
ATOM     20  H   LIG d   1       8.294   3.878  -4.103  0.00  0.00     0.072 H 
BRANCH  18  21
ATOM     21  O   LIG d   1       9.726   3.587  -2.644  0.00  0.00    -0.448 OA
BRANCH  21  22
ATOM     22  C   LIG d   1      10.503   4.590  -2.195  0.00  0.00     0.398 C 
ATOM     23  O   LIG d   1      10.494   5.665  -2.760  0.00  0.00    -0.227 OA
ATOM     24  N   LIG d   1      11.293   4.400  -1.119  0.00  0.00    -0.295 N 
ATOM     25  H   LIG d   1      11.302   3.542  -0.668  0.00  0.00     0.148 HD
ATOM     26  H   LIG d   1      11.854   5.123  -0.796  0.00  0.00     0.148 HD
ENDBRANCH  21  22
ENDBRANCH  18  21
ENDBRANCH  16  18
BRANCH  16  27
ATOM     27  O   LIG d   1      10.345   1.437  -3.751  0.00  0.00    -0.385 OA
ATOM     28  H   LIG d   1       9.991   1.419  -2.850  0.00  0.00     0.210 HD
ENDBRANCH  16  27
ENDBRANCH   1  16
TORSDOF 7
ENDMDL
MODEL 7
REMARK VINA RESULT:      -5.0      5.438      7.053
REMARK  7 active torsions:
REMARK  status: ('A' for Active; 'I' for Inactive)
REMARK    1  A    between atoms: C_6  and  O_7 
REMARK    2  A    between atoms: O_7  and  C_8 
REMARK    3  A    between atoms: C_8  and  C_9 
REMARK    4  A    between atoms: C_9  and  C_11 
REMARK    5  A    between atoms: C_9  and  O_16 
REMARK    6  A    between atoms: C_11  and  O_12 
REMARK    7  A    between atoms: O_12  and  C_13 
REMARK       I    between atoms: C_13  and  N_15 
ROOT
ATOM      1  C   LIG d   1       3.104   0.178  -5.839  0.00  0.00     0.119 C 
ATOM      2  H   LIG d   1       2.568  -0.701  -6.196  0.00  0.00     0.072 H 
ATOM      3  H   LIG d   1       4.167  -0.053  -5.757  0.00  0.00     0.072 H 
ENDROOT
BRANCH   1   4
ATOM      4  O   LIG d   1       2.922   1.255  -6.759  0.00  0.00    -0.489 OA
BRANCH   4   5
ATOM      5  C   LIG d   1       3.146   0.990  -8.073  0.00  0.00     0.121 A 
ATOM      6  C   LIG d   1       2.780  -0.238  -8.606  0.00  0.00    -0.019 A 
ATOM      7  C   LIG d   1       3.010  -0.505  -9.943  0.00  0.00    -0.040 A 
ATOM      8  H   LIG d   1       2.313  -0.982  -7.979  0.00  0.00     0.065 H 
ATOM      9  C   LIG d   1       3.603   0.450 -10.748  0.00  0.00     0.041 A 
ATOM     10  H   LIG d   1       2.725  -1.460 -10.358  0.00  0.00     0.063 H 
ATOM     11  C   LIG d   1       3.969   1.675 -10.218  0.00  0.00    -0.040 A 
ATOM     12 CL   LIG d   1       3.891   0.112 -12.426  0.00  0.00    -0.084 Cl
ATOM     13  C   LIG d   1       3.742   1.946  -8.883  0.00  0.00    -0.019 A 
ATOM     14  H   LIG d   1       4.432   2.419 -10.848  0.00  0.00     0.063 H 
ATOM     15  H   LIG d   1       4.027   2.902  -8.469  0.00  0.00     0.065 H 
ENDBRANCH   4   5
ENDBRANCH   1   4
BRANCH   1  16
ATOM     16  C   LIG d   1       2.564   0.583  -4.466  0.00  0.00     0.123 C 
ATOM     17  H   LIG d   1       1.536   0.931  -4.569  0.00  0.00     0.066 H 
BRANCH  16  18
ATOM     18  C   LIG d   1       2.601  -0.623  -3.526  0.00  0.00     0.123 C 
ATOM     19  H   LIG d   1       1.817  -0.524  -2.776  0.00  0.00     0.072 H 
ATOM     20  H   LIG d   1       2.441  -1.536  -4.100  0.00  0.00     0.072 H 
BRANCH  18  21
ATOM     21  O   LIG d   1       3.874  -0.685  -2.880  0.00  0.00    -0.448 OA
BRANCH  21  22
ATOM     22  C   LIG d   1       4.605  -1.799  -3.073  0.00  0.00     0.398 C 
ATOM     23  O   LIG d   1       4.051  -2.865  -3.253  0.00  0.00    -0.227 OA
ATOM     24  N   LIG d   1       5.951  -1.731  -3.065  0.00  0.00    -0.295 N 
ATOM     25  H   LIG d   1       6.394  -0.880  -2.921  0.00  0.00     0.148 HD
ATOM     26  H   LIG d   1       6.478  -2.534  -3.204  0.00  0.00     0.148 HD
ENDBRANCH  21  22
ENDBRANCH  18  21
ENDBRANCH  16  18
BRANCH  16  27
ATOM     27  O   LIG d   1       3.370   1.633  -3.926  0.00  0.00    -0.385 OA
ATOM     28  H   LIG d   1       3.067   1.959  -3.068  0.00  0.00     0.210 HD
ENDBRANCH  16  27
ENDBRANCH   1  16
TORSDOF 7
ENDMDL
MODEL 8
REMARK VINA RESULT:      -4.8      5.124      6.307
REMARK  7 active torsions:
REMARK  status: ('A' for Active; 'I' for Inactive)
REMARK    1  A    between atoms: C_6  and  O_7 
REMARK    2  A    between atoms: O_7  and  C_8 
REMARK    3  A    between atoms: C_8  and  C_9 
REMARK    4  A    between atoms: C_9  and  C_11 
REMARK    5  A    between atoms: C_9  and  O_16 
REMARK    6  A    between atoms: C_11  and  O_12 
REMARK    7  A    between atoms: O_12  and  C_13 
REMARK       I    between atoms: C_13  and  N_15 
ROOT
ATOM      1  C   LIG d   1       4.043  -1.468  -7.792  0.00  0.00     0.119 C 
ATOM      2  H   LIG d   1       5.088  -1.334  -7.510  0.00  0.00     0.072 H 
ATOM      3  H   LIG d   1       3.711  -2.462  -7.491  0.00  0.00     0.072 H 
ENDROOT
BRANCH   1   4
ATOM      4  O   LIG d   1       3.243  -0.481  -7.139  0.00  0.00    -0.489 OA
BRANCH   4   5
ATOM      5  C   LIG d   1       3.562  -0.179  -5.853  0.00  0.00     0.121 A 
ATOM      6  C   LIG d   1       4.808  -0.519  -5.348  0.00  0.00    -0.019 A 
ATOM      7  C   LIG d   1       5.130  -0.210  -4.040  0.00  0.00    -0.040 A 
ATOM      8  H   LIG d   1       5.528  -1.022  -5.977  0.00  0.00     0.065 H 
ATOM      9  C   LIG d   1       4.212   0.439  -3.235  0.00  0.00     0.041 A 
ATOM     10  H   LIG d   1       6.101  -0.476  -3.647  0.00  0.00     0.063 H 
ATOM     11  C   LIG d   1       2.968   0.779  -3.737  0.00  0.00    -0.040 A 
ATOM     12 CL   LIG d   1       4.618   0.825  -1.592  0.00  0.00    -0.084 Cl
ATOM     13  C   LIG d   1       2.642   0.471  -5.043  0.00  0.00    -0.019 A 
ATOM     14  H   LIG d   1       2.252   1.285  -3.107  0.00  0.00     0.063 H 
ATOM     15  H   LIG d   1       1.671   0.737  -5.436  0.00  0.00     0.065 H 
ENDBRANCH   4   5
ENDBRANCH   1   4
BRANCH   1  16
ATOM     16  C   LIG d   1       3.900  -1.319  -9.308  0.00  0.00     0.123 C 
ATOM     17  H   LIG d   1       3.369  -2.183  -9.709  0.00  0.00     0.066 H 
BRANCH  16  18
ATOM     18  C   LIG d   1       3.114  -0.045  -9.624  0.00  0.00     0.123 C 
ATOM     19  H   LIG d   1       2.378  -0.256 -10.401  0.00  0.00     0.072 H 
ATOM     20  H   LIG d   1       2.604   0.299  -8.725  0.00  0.00     0.072 H 
BRANCH  18  21
ATOM     21  O   LIG d   1       4.012   0.968 -10.081  0.00  0.00    -0.448 OA
BRANCH  21  22
ATOM     22  C   LIG d   1       4.202   2.026  -9.271  0.00  0.00     0.398 C 
ATOM     23  O   LIG d   1       5.242   2.651  -9.322  0.00  0.00    -0.227 OA
ATOM     24  N   LIG d   1       3.237   2.393  -8.403  0.00  0.00    -0.295 N 
ATOM     25  H   LIG d   1       2.407   1.895  -8.362  0.00  0.00     0.148 HD
ATOM     26  H   LIG d   1       3.374   3.156  -7.819  0.00  0.00     0.148 HD
ENDBRANCH  21  22
ENDBRANCH  18  21
ENDBRANCH  16  18
BRANCH  16  27
ATOM     27  O   LIG d   1       5.197  -1.239  -9.903  0.00  0.00    -0.385 OA
ATOM     28  H   LIG d   1       5.780  -0.588  -9.490  0.00  0.00     0.210 HD
ENDBRANCH  16  27
ENDBRANCH   1  16
TORSDOF 7
ENDMDL
MODEL 9
REMARK VINA RESULT:      -4.6     12.544     14.659
REMARK  7 active torsions:
REMARK  status: ('A' for Active; 'I' for Inactive)
REMARK    1  A    between atoms: C_6  and  O_7 
REMARK    2  A    between atoms: O_7  and  C_8 
REMARK    3  A    between atoms: C_8  and  C_9 
REMARK    4  A    between atoms: C_9  and  C_11 
REMARK    5  A    between atoms: C_9  and  O_16 
REMARK    6  A    between atoms: C_11  and  O_12 
REMARK    7  A    between atoms: O_12  and  C_13 
REMARK       I    between atoms: C_13  and  N_15 
ROOT
ATOM      1  C   LIG d   1      10.228   8.711  -0.369  0.00  0.00     0.119 C 
ATOM      2  H   LIG d   1      10.562   8.650   0.667  0.00  0.00     0.072 H 
ATOM      3  H   LIG d   1      11.092   8.664  -1.033  0.00  0.00     0.072 H 
ENDROOT
BRANCH   1   4
ATOM      4  O   LIG d   1       9.350   7.621  -0.652  0.00  0.00    -0.489 OA
BRANCH   4   5
ATOM      5  C   LIG d   1       9.797   6.678  -1.523  0.00  0.00     0.121 A 
ATOM      6  C   LIG d   1       9.479   6.769  -2.870  0.00  0.00    -0.019 A 
ATOM      7  C   LIG d   1       9.935   5.809  -3.753  0.00  0.00    -0.040 A 
ATOM      8  H   LIG d   1       8.879   7.592  -3.230  0.00  0.00     0.065 H 
ATOM      9  C   LIG d   1      10.709   4.758  -3.294  0.00  0.00     0.041 A 
ATOM     10  H   LIG d   1       9.688   5.880  -4.802  0.00  0.00     0.063 H 
ATOM     11  C   LIG d   1      11.027   4.665  -1.950  0.00  0.00    -0.040 A 
ATOM     12 CL   LIG d   1      11.280   3.552  -4.405  0.00  0.00    -0.084 Cl
ATOM     13  C   LIG d   1      10.572   5.622  -1.065  0.00  0.00    -0.019 A 
ATOM     14  H   LIG d   1      11.630   3.844  -1.594  0.00  0.00     0.063 H 
ATOM     15  H   LIG d   1      10.820   5.550  -0.016  0.00  0.00     0.065 H 
ENDBRANCH   4   5
ENDBRANCH   1   4
BRANCH   1  16
ATOM     16  C   LIG d   1       9.489  10.032  -0.588  0.00  0.00     0.123 C 
ATOM     17  H   LIG d   1       9.533  10.629   0.323  0.00  0.00     0.066 H 
BRANCH  16  18
ATOM     18  C   LIG d   1      10.149  10.803  -1.734  0.00  0.00     0.123 C 
ATOM     19  H   LIG d   1       9.996  11.872  -1.587  0.00  0.00     0.072 H 
ATOM     20  H   LIG d   1      11.217  10.587  -1.749  0.00  0.00     0.072 H 
BRANCH  18  21
ATOM     21  O   LIG d   1       9.565  10.405  -2.975  0.00  0.00    -0.448 OA
BRANCH  21  22
ATOM     22  C   LIG d   1       8.819  11.320  -3.622  0.00  0.00     0.398 C 
ATOM     23  O   LIG d   1       9.173  11.734  -4.708  0.00  0.00    -0.227 OA
ATOM     24  N   LIG d   1       7.681  11.778  -3.064  0.00  0.00    -0.295 N 
ATOM     25  H   LIG d   1       7.398  11.449  -2.198  0.00  0.00     0.148 HD
ATOM     26  H   LIG d   1       7.144  12.439  -3.530  0.00  0.00     0.148 HD
ENDBRANCH  21  22
ENDBRANCH  18  21
ENDBRANCH  16  18
BRANCH  16  27
ATOM     27  O   LIG d   1       8.124   9.766  -0.917  0.00  0.00    -0.385 OA
ATOM     28  H   LIG d   1       7.970   9.609  -1.859  0.00  0.00     0.210 HD
ENDBRANCH  16  27
ENDBRANCH   1  16
TORSDOF 7
ENDMDL
MODEL 10
REMARK VINA RESULT:      -4.6     11.317     13.864
REMARK  7 active torsions:
REMARK  status: ('A' for Active; 'I' for Inactive)
REMARK    1  A    between atoms: C_6  and  O_7 
REMARK    2  A    between atoms: O_7  and  C_8 
REMARK    3  A    between atoms: C_8  and  C_9 
REMARK    4  A    between atoms: C_9  and  C_11 
REMARK    5  A    between atoms: C_9  and  O_16 
REMARK    6  A    between atoms: C_11  and  O_12 
REMARK    7  A    between atoms: O_12  and  C_13 
REMARK       I    between atoms: C_13  and  N_15 
ROOT
ATOM      1  C   LIG d   1      10.124   6.817  -1.091  0.00  0.00     0.119 C 
ATOM      2  H   LIG d   1       9.419   6.005  -0.912  0.00  0.00     0.072 H 
ATOM      3  H   LIG d   1      10.965   6.726  -0.404  0.00  0.00     0.072 H 
ENDROOT
BRANCH   1   4
ATOM      4  O   LIG d   1      10.599   6.748  -2.436  0.00  0.00    -0.489 OA
BRANCH   4   5
ATOM      5  C   LIG d   1      10.155   5.712  -3.196  0.00  0.00     0.121 A 
ATOM      6  C   LIG d   1       9.867   5.908  -4.539  0.00  0.00    -0.019 A 
ATOM      7  C   LIG d   1       9.416   4.853  -5.309  0.00  0.00    -0.040 A 
ATOM      8  H   LIG d   1       9.999   6.884  -4.983  0.00  0.00     0.065 H 
ATOM      9  C   LIG d   1       9.252   3.602  -4.742  0.00  0.00     0.041 A 
ATOM     10  H   LIG d   1       9.192   5.006  -6.354  0.00  0.00     0.063 H 
ATOM     11  C   LIG d   1       9.538   3.404  -3.402  0.00  0.00    -0.040 A 
ATOM     12 CL   LIG d   1       8.683   2.279  -5.711  0.00  0.00    -0.084 Cl
ATOM     13  C   LIG d   1       9.989   4.456  -2.629  0.00  0.00    -0.019 A 
ATOM     14  H   LIG d   1       9.409   2.428  -2.962  0.00  0.00     0.063 H 
ATOM     15  H   LIG d   1      10.212   4.302  -1.584  0.00  0.00     0.065 H 
ENDBRANCH   4   5
ENDBRANCH   1   4
BRANCH   1  16
ATOM     16  C   LIG d   1       9.424   8.158  -0.866  0.00  0.00     0.123 C 
ATOM     17  H   LIG d   1       9.657   8.526   0.133  0.00  0.00     0.066 H 
BRANCH  16  18
ATOM     18  C   LIG d   1       9.910   9.169  -1.907  0.00  0.00     0.123 C 
ATOM     19  H   LIG d   1      11.000   9.205  -1.896  0.00  0.00     0.072 H 
ATOM     20  H   LIG d   1       9.566   8.866  -2.895  0.00  0.00     0.072 H 
BRANCH  18  21
ATOM     21  O   LIG d   1       9.387  10.462  -1.597  0.00  0.00    -0.448 OA
BRANCH  21  22
ATOM     22  C   LIG d   1       9.071  11.259  -2.634  0.00  0.00     0.398 C 
ATOM     23  O   LIG d   1       9.950  11.738  -3.323  0.00  0.00    -0.227 OA
ATOM     24  N   LIG d   1       7.779  11.526  -2.909  0.00  0.00    -0.295 N 
ATOM     25  H   LIG d   1       7.076  11.144  -2.360  0.00  0.00     0.148 HD
ATOM     26  H   LIG d   1       7.550  12.100  -3.657  0.00  0.00     0.148 HD
ENDBRANCH  21  22
ENDBRANCH  18  21
ENDBRANCH  16  18
BRANCH  16  27
ATOM     27  O   LIG d   1       8.011   7.986  -0.993  0.00  0.00    -0.385 OA
ATOM     28  H   LIG d   1       7.701   7.100  -0.761  0.00  0.00     0.210 HD
ENDBRANCH  16  27
ENDBRANCH   1  16
TORSDOF 7
ENDMDL
