MODEL 1
REMARK VINA RESULT:      -6.9      0.000      0.000
REMARK  4 active torsions:
REMARK  status: ('A' for Active; 'I' for Inactive)
REMARK    1  A    between atoms: C_1  and  C_2 
REMARK    2  A    between atoms: C_2  and  C_34 
REMARK    3  A    between atoms: C_19  and  C_20 
REMARK    4  A    between atoms: C_19  and  C_21 
ROOT
ATOM      1  C   LIG d   1      10.762  -5.772  -3.509  0.00  0.00     0.123 C 
ATOM      2  C   LIG d   1      10.342  -4.582  -2.687  0.00  0.00    -0.041 C 
ATOM      3  C   LIG d   1       9.215  -3.934  -2.990  0.00  0.00    -0.049 C 
ATOM      4  C   LIG d   1       8.418  -4.429  -4.124  0.00  0.00     0.040 A 
ATOM      5  C   LIG d   1       8.655  -5.723  -4.614  0.00  0.00     0.131 A 
ATOM      6  C   LIG d   1       7.933  -6.231  -5.684  0.00  0.00    -0.019 A 
ATOM      7  C   LIG d   1       6.941  -5.497  -6.310  0.00  0.00    -0.049 A 
ATOM      8  C   LIG d   1       6.686  -4.209  -5.828  0.00  0.00     0.004 A 
ATOM      9  C   LIG d   1       7.425  -3.666  -4.744  0.00  0.00     0.058 A 
ATOM     10  N   LIG d   1       6.954  -2.406  -4.524  0.00  0.00    -0.357 N 
ATOM     11  H   LIG d   1       7.284  -1.800  -3.843  0.00  0.00     0.166 HD
ATOM     12  C   LIG d   1       5.945  -2.123  -5.409  0.00  0.00     0.026 A 
ATOM     13  C   LIG d   1       5.740  -3.184  -6.219  0.00  0.00    -0.016 A 
ATOM     14  C   LIG d   1       4.701  -3.228  -7.308  0.00  0.00     0.005 C 
ATOM     15  C   LIG d   1       4.194  -1.826  -7.582  0.00  0.00     0.119 C 
ATOM     16  C   LIG d   1       3.869  -1.070  -6.287  0.00  0.00     0.002 C 
ATOM     17  H   LIG d   1       3.161  -1.639  -5.686  0.00  0.00     0.034 H 
ATOM     18  C   LIG d   1       5.166  -0.835  -5.498  0.00  0.00     0.011 C 
ATOM     19  C   LIG d   1       3.303   0.317  -6.639  0.00  0.00    -0.017 C 
ATOM     20  C   LIG d   1       3.318   0.481  -8.156  0.00  0.00     0.114 C 
ATOM     21  C   LIG d   1       2.930   1.867  -8.636  0.00  0.00    -0.021 C 
ATOM     22  C   LIG d   1       3.918   2.124  -9.812  0.00  0.00    -0.035 C 
ATOM     23  C   LIG d   1       5.202   1.406  -9.306  0.00  0.00     0.016 C 
ATOM     24  N   LIG d   1       4.711   0.226  -8.622  0.00  0.00    -0.285 N 
ATOM     25  C   LIG d   1       5.234  -0.999  -8.348  0.00  0.00     0.240 C 
ATOM     26  O   LIG d   1       6.344  -1.375  -8.657  0.00  0.00    -0.273 OA
ATOM     27  C   LIG d   1       2.475  -0.631  -8.752  0.00  0.00     0.237 C 
ATOM     28  O   LIG d   1       1.490  -0.450  -9.437  0.00  0.00    -0.273 OA
ATOM     29  N   LIG d   1       2.973  -1.873  -8.416  0.00  0.00    -0.299 N 
ATOM     30  O   LIG d   1       9.619  -6.467  -4.008  0.00  0.00    -0.482 OA
ATOM     31  H   LIG d   1      10.950  -4.254  -1.856  0.00  0.00     0.061 H 
ATOM     32  H   LIG d   1       8.899  -3.073  -2.420  0.00  0.00     0.062 H 
ATOM     33  H   LIG d   1       8.151  -7.229  -6.036  0.00  0.00     0.065 H 
ATOM     34  H   LIG d   1       6.386  -5.904  -7.143  0.00  0.00     0.062 H 
ATOM     35  H   LIG d   1       3.870  -3.859  -6.991  0.00  0.00     0.034 H 
ATOM     36  H   LIG d   1       5.143  -3.639  -8.215  0.00  0.00     0.034 H 
ATOM     37  H   LIG d   1       3.916   1.093  -6.180  0.00  0.00     0.029 H 
ATOM     38  H   LIG d   1       2.278   0.392  -6.273  0.00  0.00     0.029 H 
ATOM     39  H   LIG d   1       1.898   1.876  -8.990  0.00  0.00     0.029 H 
ATOM     40  H   LIG d   1       3.069   2.602  -7.844  0.00  0.00     0.029 H 
ATOM     41  H   LIG d   1       3.554   1.671 -10.735  0.00  0.00     0.028 H 
ATOM     42  H   LIG d   1       4.095   3.192  -9.947  0.00  0.00     0.028 H 
ATOM     43  H   LIG d   1       5.836   1.122 -10.147  0.00  0.00     0.046 H 
ATOM     44  H   LIG d   1       5.751   2.047  -8.617  0.00  0.00     0.046 H 
ATOM     45  H   LIG d   1       2.557  -2.703  -8.697  0.00  0.00     0.150 HD
ENDROOT
BRANCH   1  46
ATOM     46  C   LIG d   1      11.617  -5.296  -4.685  0.00  0.00    -0.021 C 
ATOM     47  H   LIG d   1      11.454  -4.231  -4.846  0.00  0.00     0.027 H 
ATOM     48  H   LIG d   1      12.670  -5.474  -4.465  0.00  0.00     0.027 H 
ATOM     49  H   LIG d   1      11.337  -5.846  -5.584  0.00  0.00     0.027 H 
ENDBRANCH   1  46
BRANCH   1  50
ATOM     50  C   LIG d   1      11.587  -6.721  -2.637  0.00  0.00    -0.021 C 
ATOM     51  H   LIG d   1      11.482  -6.436  -1.591  0.00  0.00     0.027 H 
ATOM     52  H   LIG d   1      11.230  -7.742  -2.773  0.00  0.00     0.027 H 
ATOM     53  H   LIG d   1      12.635  -6.661  -2.927  0.00  0.00     0.027 H 
ENDBRANCH   1  50
BRANCH  18  54
ATOM     54  C   LIG d   1       4.824  -0.350  -4.088  0.00  0.00    -0.054 C 
ATOM     55  H   LIG d   1       5.744  -0.156  -3.537  0.00  0.00     0.024 H 
ATOM     56  H   LIG d   1       4.237   0.566  -4.151  0.00  0.00     0.024 H 
ATOM     57  H   LIG d   1       4.247  -1.116  -3.570  0.00  0.00     0.024 H 
ENDBRANCH  18  54
BRANCH  18  58
ATOM     58  C   LIG d   1       6.011   0.223  -6.210  0.00  0.00    -0.054 C 
ATOM     59  H   LIG d   1       5.471   1.170  -6.224  0.00  0.00     0.024 H 
ATOM     60  H   LIG d   1       6.954   0.351  -5.679  0.00  0.00     0.024 H 
ATOM     61  H   LIG d   1       6.209  -0.098  -7.232  0.00  0.00     0.024 H 
ENDBRANCH  18  58
TORSDOF 4
ENDMDL
MODEL 2
REMARK VINA RESULT:      -6.8      3.722      5.200
REMARK  4 active torsions:
REMARK  status: ('A' for Active; 'I' for Inactive)
REMARK    1  A    between atoms: C_1  and  C_2 
REMARK    2  A    between atoms: C_2  and  C_34 
REMARK    3  A    between atoms: C_19  and  C_20 
REMARK    4  A    between atoms: C_19  and  C_21 
ROOT
ATOM      1  C   LIG d   1      14.879  -0.977  -4.271  0.00  0.00     0.123 C 
ATOM      2  C   LIG d   1      14.233  -2.275  -3.864  0.00  0.00    -0.041 C 
ATOM      3  C   LIG d   1      12.953  -2.499  -4.163  0.00  0.00    -0.049 C 
ATOM      4  C   LIG d   1      12.223  -1.454  -4.901  0.00  0.00     0.040 A 
ATOM      5  C   LIG d   1      12.949  -0.449  -5.559  0.00  0.00     0.131 A 
ATOM      6  C   LIG d   1      12.307   0.559  -6.263  0.00  0.00    -0.019 A 
ATOM      7  C   LIG d   1      10.927   0.617  -6.360  0.00  0.00    -0.049 A 
ATOM      8  C   LIG d   1      10.190  -0.383  -5.718  0.00  0.00     0.004 A 
ATOM      9  C   LIG d   1      10.829  -1.414  -4.980  0.00  0.00     0.058 A 
ATOM     10  N   LIG d   1       9.850  -2.213  -4.470  0.00  0.00    -0.357 N 
ATOM     11  H   LIG d   1      10.002  -2.995  -3.917  0.00  0.00     0.166 HD
ATOM     12  C   LIG d   1       8.619  -1.747  -4.855  0.00  0.00     0.026 A 
ATOM     13  C   LIG d   1       8.768  -0.642  -5.615  0.00  0.00    -0.016 A 
ATOM     14  C   LIG d   1       7.625   0.131  -6.218  0.00  0.00     0.005 C 
ATOM     15  C   LIG d   1       6.325  -0.292  -5.562  0.00  0.00     0.119 C 
ATOM     16  C   LIG d   1       6.206  -1.819  -5.457  0.00  0.00     0.002 C 
ATOM     17  H   LIG d   1       6.323  -2.274  -6.441  0.00  0.00     0.034 H 
ATOM     18  C   LIG d   1       7.282  -2.347  -4.497  0.00  0.00     0.011 C 
ATOM     19  C   LIG d   1       4.842  -2.178  -4.843  0.00  0.00    -0.017 C 
ATOM     20  C   LIG d   1       4.107  -0.887  -4.494  0.00  0.00     0.114 C 
ATOM     21  C   LIG d   1       2.809  -1.096  -3.736  0.00  0.00    -0.021 C 
ATOM     22  C   LIG d   1       2.823   0.055  -2.687  0.00  0.00    -0.035 C 
ATOM     23  C   LIG d   1       4.340   0.159  -2.355  0.00  0.00     0.016 C 
ATOM     24  N   LIG d   1       5.004  -0.080  -3.621  0.00  0.00    -0.285 N 
ATOM     25  C   LIG d   1       6.209   0.276  -4.143  0.00  0.00     0.240 C 
ATOM     26  O   LIG d   1       7.055   0.933  -3.575  0.00  0.00    -0.273 OA
ATOM     27  C   LIG d   1       3.945  -0.085  -5.772  0.00  0.00     0.237 C 
ATOM     28  O   LIG d   1       2.877   0.248  -6.240  0.00  0.00    -0.273 OA
ATOM     29  N   LIG d   1       5.170   0.216  -6.333  0.00  0.00    -0.299 N 
ATOM     30  O   LIG d   1      14.306  -0.491  -5.485  0.00  0.00    -0.482 OA
ATOM     31  H   LIG d   1      14.804  -3.021  -3.330  0.00  0.00     0.061 H 
ATOM     32  H   LIG d   1      12.466  -3.418  -3.872  0.00  0.00     0.062 H 
ATOM     33  H   LIG d   1      12.901   1.319  -6.749  0.00  0.00     0.065 H 
ATOM     34  H   LIG d   1      10.438   1.408  -6.912  0.00  0.00     0.062 H 
ATOM     35  H   LIG d   1       7.575  -0.071  -7.288  0.00  0.00     0.034 H 
ATOM     36  H   LIG d   1       7.783   1.197  -6.058  0.00  0.00     0.034 H 
ATOM     37  H   LIG d   1       4.989  -2.772  -3.940  0.00  0.00     0.029 H 
ATOM     38  H   LIG d   1       4.259  -2.748  -5.567  0.00  0.00     0.029 H 
ATOM     39  H   LIG d   1       1.953  -0.998  -4.404  0.00  0.00     0.029 H 
ATOM     40  H   LIG d   1       2.802  -2.069  -3.245  0.00  0.00     0.029 H 
ATOM     41  H   LIG d   1       2.453   0.985  -3.122  0.00  0.00     0.028 H 
ATOM     42  H   LIG d   1       2.246  -0.216  -1.802  0.00  0.00     0.028 H 
ATOM     43  H   LIG d   1       4.580   1.155  -1.982  0.00  0.00     0.046 H 
ATOM     44  H   LIG d   1       4.623  -0.599  -1.625  0.00  0.00     0.046 H 
ATOM     45  H   LIG d   1       5.264   0.714  -7.160  0.00  0.00     0.150 HD
ENDROOT
BRANCH   1  46
ATOM     46  C   LIG d   1      14.672   0.060  -3.165  0.00  0.00    -0.021 C 
ATOM     47  H   LIG d   1      15.637   0.462  -2.858  0.00  0.00     0.027 H 
ATOM     48  H   LIG d   1      14.042   0.868  -3.538  0.00  0.00     0.027 H 
ATOM     49  H   LIG d   1      14.187  -0.413  -2.310  0.00  0.00     0.027 H 
ENDBRANCH   1  46
BRANCH   1  50
ATOM     50  C   LIG d   1      16.379  -1.203  -4.477  0.00  0.00    -0.021 C 
ATOM     51  H   LIG d   1      16.538  -1.773  -5.391  0.00  0.00     0.027 H 
ATOM     52  H   LIG d   1      16.883  -0.239  -4.556  0.00  0.00     0.027 H 
ATOM     53  H   LIG d   1      16.782  -1.755  -3.628  0.00  0.00     0.027 H 
ENDBRANCH   1  50
BRANCH  18  54
ATOM     54  C   LIG d   1       7.362  -3.870  -4.610  0.00  0.00    -0.054 C 
ATOM     55  H   LIG d   1       7.475  -4.303  -3.616  0.00  0.00     0.024 H 
ATOM     56  H   LIG d   1       6.449  -4.249  -5.070  0.00  0.00     0.024 H 
ATOM     57  H   LIG d   1       8.219  -4.145  -5.224  0.00  0.00     0.024 H 
ENDBRANCH  18  54
BRANCH  18  58
ATOM     58  C   LIG d   1       6.918  -1.960  -3.062  0.00  0.00    -0.054 C 
ATOM     59  H   LIG d   1       7.809  -2.011  -2.436  0.00  0.00     0.024 H 
ATOM     60  H   LIG d   1       6.522  -0.945  -3.049  0.00  0.00     0.024 H 
ATOM     61  H   LIG d   1       6.165  -2.650  -2.680  0.00  0.00     0.024 H 
ENDBRANCH  18  58
TORSDOF 4
ENDMDL
MODEL 3
REMARK VINA RESULT:      -6.7      3.783      5.889
REMARK  4 active torsions:
REMARK  status: ('A' for Active; 'I' for Inactive)
REMARK    1  A    between atoms: C_1  and  C_2 
REMARK    2  A    between atoms: C_2  and  C_34 
REMARK    3  A    between atoms: C_19  and  C_20 
REMARK    4  A    between atoms: C_19  and  C_21 
ROOT
ATOM      1  C   LIG d   1       4.747   0.451  -2.910  0.00  0.00     0.123 C 
ATOM      2  C   LIG d   1       3.581   1.138  -3.570  0.00  0.00    -0.041 C 
ATOM      3  C   LIG d   1       3.104   0.668  -4.724  0.00  0.00    -0.049 C 
ATOM      4  C   LIG d   1       3.743  -0.526  -5.301  0.00  0.00     0.040 A 
ATOM      5  C   LIG d   1       4.564  -1.322  -4.487  0.00  0.00     0.131 A 
ATOM      6  C   LIG d   1       5.192  -2.454  -4.985  0.00  0.00    -0.019 A 
ATOM      7  C   LIG d   1       5.032  -2.859  -6.299  0.00  0.00    -0.049 A 
ATOM      8  C   LIG d   1       4.209  -2.082  -7.120  0.00  0.00     0.004 A 
ATOM      9  C   LIG d   1       3.570  -0.912  -6.632  0.00  0.00     0.058 A 
ATOM     10  N   LIG d   1       2.859  -0.378  -7.665  0.00  0.00    -0.357 N 
ATOM     11  H   LIG d   1       2.328   0.432  -7.615  0.00  0.00     0.166 HD
ATOM     12  C   LIG d   1       3.006  -1.156  -8.785  0.00  0.00     0.026 A 
ATOM     13  C   LIG d   1       3.811  -2.203  -8.508  0.00  0.00    -0.016 A 
ATOM     14  C   LIG d   1       4.186  -3.269  -9.505  0.00  0.00     0.005 C 
ATOM     15  C   LIG d   1       3.832  -2.802 -10.904  0.00  0.00     0.119 C 
ATOM     16  C   LIG d   1       2.422  -2.198 -10.967  0.00  0.00     0.002 C 
ATOM     17  H   LIG d   1       1.690  -2.911 -10.588  0.00  0.00     0.034 H 
ATOM     18  C   LIG d   1       2.385  -0.907 -10.137  0.00  0.00     0.011 C 
ATOM     19  C   LIG d   1       2.106  -1.805 -12.421  0.00  0.00    -0.017 C 
ATOM     20  C   LIG d   1       3.331  -2.096 -13.284  0.00  0.00     0.114 C 
ATOM     21  C   LIG d   1       3.212  -1.610 -14.716  0.00  0.00    -0.021 C 
ATOM     22  C   LIG d   1       4.634  -1.052 -15.020  0.00  0.00    -0.035 C 
ATOM     23  C   LIG d   1       5.040  -0.460 -13.640  0.00  0.00     0.016 C 
ATOM     24  N   LIG d   1       4.491  -1.389 -12.672  0.00  0.00    -0.285 N 
ATOM     25  C   LIG d   1       4.812  -1.730 -11.395  0.00  0.00     0.240 C 
ATOM     26  O   LIG d   1       5.726  -1.260 -10.751  0.00  0.00    -0.273 OA
ATOM     27  C   LIG d   1       3.642  -3.576 -13.165  0.00  0.00     0.237 C 
ATOM     28  O   LIG d   1       3.659  -4.349 -14.100  0.00  0.00    -0.273 OA
ATOM     29  N   LIG d   1       3.903  -3.930 -11.857  0.00  0.00    -0.299 N 
ATOM     30  O   LIG d   1       4.730  -0.949  -3.189  0.00  0.00    -0.482 OA
ATOM     31  H   LIG d   1       3.133   2.008  -3.112  0.00  0.00     0.061 H 
ATOM     32  H   LIG d   1       2.274   1.150  -5.220  0.00  0.00     0.062 H 
ATOM     33  H   LIG d   1       5.823  -3.036  -4.329  0.00  0.00     0.065 H 
ATOM     34  H   LIG d   1       5.527  -3.743  -6.676  0.00  0.00     0.062 H 
ATOM     35  H   LIG d   1       3.640  -4.185  -9.279  0.00  0.00     0.034 H 
ATOM     36  H   LIG d   1       5.256  -3.461  -9.446  0.00  0.00     0.034 H 
ATOM     37  H   LIG d   1       1.866  -0.743 -12.471  0.00  0.00     0.029 H 
ATOM     38  H   LIG d   1       1.259  -2.392 -12.777  0.00  0.00     0.029 H 
ATOM     39  H   LIG d   1       2.971  -2.437 -15.384  0.00  0.00     0.029 H 
ATOM     40  H   LIG d   1       2.461  -0.823 -14.795  0.00  0.00     0.029 H 
ATOM     41  H   LIG d   1       5.312  -1.853 -15.318  0.00  0.00     0.028 H 
ATOM     42  H   LIG d   1       4.593  -0.274 -15.783  0.00  0.00     0.028 H 
ATOM     43  H   LIG d   1       6.126  -0.416 -13.550  0.00  0.00     0.046 H 
ATOM     44  H   LIG d   1       4.607   0.531 -13.508  0.00  0.00     0.046 H 
ATOM     45  H   LIG d   1       4.110  -4.838 -11.586  0.00  0.00     0.150 HD
ENDROOT
BRANCH   1  46
ATOM     46  C   LIG d   1       6.052   1.054  -3.437  0.00  0.00    -0.021 C 
ATOM     47  H   LIG d   1       6.565   1.573  -2.628  0.00  0.00     0.027 H 
ATOM     48  H   LIG d   1       6.691   0.258  -3.822  0.00  0.00     0.027 H 
ATOM     49  H   LIG d   1       5.829   1.760  -4.238  0.00  0.00     0.027 H 
ENDBRANCH   1  46
BRANCH   1  50
ATOM     50  C   LIG d   1       4.668   0.665  -1.397  0.00  0.00    -0.021 C 
ATOM     51  H   LIG d   1       3.636   0.551  -1.068  0.00  0.00     0.027 H 
ATOM     52  H   LIG d   1       5.293  -0.073  -0.894  0.00  0.00     0.027 H 
ATOM     53  H   LIG d   1       5.020   1.667  -1.153  0.00  0.00     0.027 H 
ENDBRANCH   1  50
BRANCH  18  54
ATOM     54  C   LIG d   1       0.934  -0.460  -9.954  0.00  0.00    -0.054 C 
ATOM     55  H   LIG d   1       0.884   0.309  -9.184  0.00  0.00     0.024 H 
ATOM     56  H   LIG d   1       0.556  -0.059 -10.894  0.00  0.00     0.024 H 
ATOM     57  H   LIG d   1       0.325  -1.313  -9.654  0.00  0.00     0.024 H 
ENDBRANCH  18  54
BRANCH  18  58
ATOM     58  C   LIG d   1       3.168   0.189 -10.863  0.00  0.00    -0.054 C 
ATOM     59  H   LIG d   1       4.236  -0.012 -10.780  0.00  0.00     0.024 H 
ATOM     60  H   LIG d   1       2.882   0.202 -11.914  0.00  0.00     0.024 H 
ATOM     61  H   LIG d   1       2.943   1.155 -10.412  0.00  0.00     0.024 H 
ENDBRANCH  18  58
TORSDOF 4
ENDMDL
MODEL 4
REMARK VINA RESULT:      -6.7      8.189     11.792
REMARK  4 active torsions:
REMARK  status: ('A' for Active; 'I' for Inactive)
REMARK    1  A    between atoms: C_1  and  C_2 
REMARK    2  A    between atoms: C_2  and  C_34 
REMARK    3  A    between atoms: C_19  and  C_20 
REMARK    4  A    between atoms: C_19  and  C_21 
ROOT
ATOM      1  C   LIG d   1      10.429   5.536 -12.397  0.00  0.00     0.123 C 
ATOM      2  C   LIG d   1      10.293   4.193 -11.728  0.00  0.00    -0.041 C 
ATOM      3  C   LIG d   1       9.993   4.128 -10.430  0.00  0.00    -0.049 C 
ATOM      4  C   LIG d   1       9.793   5.393  -9.703  0.00  0.00     0.040 A 
ATOM      5  C   LIG d   1       9.576   6.573 -10.432  0.00  0.00     0.131 A 
ATOM      6  C   LIG d   1       9.388   7.790  -9.792  0.00  0.00    -0.019 A 
ATOM      7  C   LIG d   1       9.394   7.897  -8.412  0.00  0.00    -0.049 A 
ATOM      8  C   LIG d   1       9.599   6.729  -7.672  0.00  0.00     0.004 A 
ATOM      9  C   LIG d   1       9.808   5.477  -8.309  0.00  0.00     0.058 A 
ATOM     10  N   LIG d   1       9.989   4.549  -7.328  0.00  0.00    -0.357 N 
ATOM     11  H   LIG d   1      10.159   3.606  -7.478  0.00  0.00     0.166 HD
ATOM     12  C   LIG d   1       9.896   5.146  -6.096  0.00  0.00     0.026 A 
ATOM     13  C   LIG d   1       9.656   6.466  -6.249  0.00  0.00    -0.016 A 
ATOM     14  C   LIG d   1       9.488   7.432  -5.106  0.00  0.00     0.005 C 
ATOM     15  C   LIG d   1       9.974   6.788  -3.821  0.00  0.00     0.119 C 
ATOM     16  C   LIG d   1       9.440   5.358  -3.660  0.00  0.00     0.002 C 
ATOM     17  H   LIG d   1       8.352   5.352  -3.722  0.00  0.00     0.034 H 
ATOM     18  C   LIG d   1      10.039   4.467  -4.758  0.00  0.00     0.011 C 
ATOM     19  C   LIG d   1       9.918   4.790  -2.312  0.00  0.00    -0.017 C 
ATOM     20  C   LIG d   1      10.808   5.826  -1.632  0.00  0.00     0.114 C 
ATOM     21  C   LIG d   1      11.476   5.335  -0.361  0.00  0.00    -0.021 C 
ATOM     22  C   LIG d   1      12.906   5.944  -0.454  0.00  0.00    -0.035 C 
ATOM     23  C   LIG d   1      13.174   5.884  -1.986  0.00  0.00     0.016 C 
ATOM     24  N   LIG d   1      11.891   6.187  -2.589  0.00  0.00    -0.285 N 
ATOM     25  C   LIG d   1      11.504   6.715  -3.782  0.00  0.00     0.240 C 
ATOM     26  O   LIG d   1      12.251   7.067  -4.670  0.00  0.00    -0.273 OA
ATOM     27  C   LIG d   1       9.989   7.089  -1.442  0.00  0.00     0.237 C 
ATOM     28  O   LIG d   1       9.756   7.599  -0.366  0.00  0.00    -0.273 OA
ATOM     29  N   LIG d   1       9.543   7.584  -2.651  0.00  0.00    -0.299 N 
ATOM     30  O   LIG d   1       9.558   6.490 -11.789  0.00  0.00    -0.482 OA
ATOM     31  H   LIG d   1      10.438   3.286 -12.298  0.00  0.00     0.061 H 
ATOM     32  H   LIG d   1       9.899   3.177  -9.928  0.00  0.00     0.062 H 
ATOM     33  H   LIG d   1       9.233   8.676 -10.389  0.00  0.00     0.065 H 
ATOM     34  H   LIG d   1       9.246   8.851  -7.926  0.00  0.00     0.062 H 
ATOM     35  H   LIG d   1       8.434   7.694  -5.005  0.00  0.00     0.034 H 
ATOM     36  H   LIG d   1      10.068   8.333  -5.303  0.00  0.00     0.034 H 
ATOM     37  H   LIG d   1      10.484   3.873  -2.478  0.00  0.00     0.029 H 
ATOM     38  H   LIG d   1       9.053   4.580  -1.682  0.00  0.00     0.029 H 
ATOM     39  H   LIG d   1      10.952   5.711   0.518  0.00  0.00     0.029 H 
ATOM     40  H   LIG d   1      11.518   4.246  -0.345  0.00  0.00     0.029 H 
ATOM     41  H   LIG d   1      12.916   6.974  -0.095  0.00  0.00     0.028 H 
ATOM     42  H   LIG d   1      13.627   5.335   0.094  0.00  0.00     0.028 H 
ATOM     43  H   LIG d   1      13.915   6.631  -2.272  0.00  0.00     0.046 H 
ATOM     44  H   LIG d   1      13.508   4.888  -2.275  0.00  0.00     0.046 H 
ATOM     45  H   LIG d   1       8.993   8.379  -2.727  0.00  0.00     0.150 HD
ENDROOT
BRANCH   1  46
ATOM     46  C   LIG d   1      11.875   6.020 -12.267  0.00  0.00    -0.021 C 
ATOM     47  H   LIG d   1      12.015   6.914 -12.874  0.00  0.00     0.027 H 
ATOM     48  H   LIG d   1      12.089   6.250 -11.223  0.00  0.00     0.027 H 
ATOM     49  H   LIG d   1      12.552   5.238 -12.613  0.00  0.00     0.027 H 
ENDBRANCH   1  46
BRANCH   1  50
ATOM     50  C   LIG d   1      10.073   5.400 -13.878  0.00  0.00    -0.021 C 
ATOM     51  H   LIG d   1      10.960   5.586 -14.483  0.00  0.00     0.027 H 
ATOM     52  H   LIG d   1       9.706   4.392 -14.072  0.00  0.00     0.027 H 
ATOM     53  H   LIG d   1       9.300   6.124 -14.134  0.00  0.00     0.027 H 
ENDBRANCH   1  50
BRANCH  18  54
ATOM     54  C   LIG d   1       9.300   3.127  -4.787  0.00  0.00    -0.054 C 
ATOM     55  H   LIG d   1       9.897   2.372  -4.278  0.00  0.00     0.024 H 
ATOM     56  H   LIG d   1       8.339   3.232  -4.283  0.00  0.00     0.024 H 
ATOM     57  H   LIG d   1       9.136   2.824  -5.821  0.00  0.00     0.024 H 
ENDBRANCH  18  54
BRANCH  18  58
ATOM     58  C   LIG d   1      11.521   4.224  -4.466  0.00  0.00    -0.054 C 
ATOM     59  H   LIG d   1      11.885   3.407  -5.089  0.00  0.00     0.024 H 
ATOM     60  H   LIG d   1      12.087   5.129  -4.687  0.00  0.00     0.024 H 
ATOM     61  H   LIG d   1      11.646   3.964  -3.415  0.00  0.00     0.024 H 
ENDBRANCH  18  58
TORSDOF 4
ENDMDL
MODEL 5
REMARK VINA RESULT:      -6.6      3.236      4.809
REMARK  4 active torsions:
REMARK  status: ('A' for Active; 'I' for Inactive)
REMARK    1  A    between atoms: C_1  and  C_2 
REMARK    2  A    between atoms: C_2  and  C_34 
REMARK    3  A    between atoms: C_19  and  C_20 
REMARK    4  A    between atoms: C_19  and  C_21 
ROOT
ATOM      1  C   LIG d   1      10.488   1.289  -5.535  0.00  0.00     0.123 C 
ATOM      2  C   LIG d   1       9.526   2.409  -5.832  0.00  0.00    -0.041 C 
ATOM      3  C   LIG d   1       8.273   2.127  -6.191  0.00  0.00    -0.049 C 
ATOM      4  C   LIG d   1       7.880   0.710  -6.271  0.00  0.00     0.040 A 
ATOM      5  C   LIG d   1       8.684  -0.258  -5.648  0.00  0.00     0.131 A 
ATOM      6  C   LIG d   1       8.358  -1.606  -5.700  0.00  0.00    -0.019 A 
ATOM      7  C   LIG d   1       7.226  -2.059  -6.353  0.00  0.00    -0.049 A 
ATOM      8  C   LIG d   1       6.409  -1.106  -6.970  0.00  0.00     0.004 A 
ATOM      9  C   LIG d   1       6.734   0.276  -6.942  0.00  0.00     0.058 A 
ATOM     10  N   LIG d   1       5.763   0.935  -7.634  0.00  0.00    -0.357 N 
ATOM     11  H   LIG d   1       5.736   1.894  -7.780  0.00  0.00     0.166 HD
ATOM     12  C   LIG d   1       4.830   0.042  -8.095  0.00  0.00     0.026 A 
ATOM     13  C   LIG d   1       5.172  -1.208  -7.717  0.00  0.00    -0.016 A 
ATOM     14  C   LIG d   1       4.369  -2.440  -8.044  0.00  0.00     0.005 C 
ATOM     15  C   LIG d   1       3.360  -2.115  -9.128  0.00  0.00     0.119 C 
ATOM     16  C   LIG d   1       2.613  -0.805  -8.841  0.00  0.00     0.002 C 
ATOM     17  H   LIG d   1       2.143  -0.847  -7.858  0.00  0.00     0.034 H 
ATOM     18  C   LIG d   1       3.602   0.368  -8.907  0.00  0.00     0.011 C 
ATOM     19  C   LIG d   1       1.564  -0.570  -9.942  0.00  0.00    -0.017 C 
ATOM     20  C   LIG d   1       1.675  -1.692 -10.971  0.00  0.00     0.114 C 
ATOM     21  C   LIG d   1       0.802  -1.500 -12.197  0.00  0.00    -0.021 C 
ATOM     22  C   LIG d   1       1.716  -1.983 -13.362  0.00  0.00    -0.035 C 
ATOM     23  C   LIG d   1       3.119  -1.522 -12.872  0.00  0.00     0.016 C 
ATOM     24  N   LIG d   1       3.089  -1.736 -11.438  0.00  0.00    -0.285 N 
ATOM     25  C   LIG d   1       4.040  -1.966 -10.493  0.00  0.00     0.240 C 
ATOM     26  O   LIG d   1       5.233  -2.038 -10.699  0.00  0.00    -0.273 OA
ATOM     27  C   LIG d   1       1.438  -3.006 -10.252  0.00  0.00     0.237 C 
ATOM     28  O   LIG d   1       0.547  -3.784 -10.524  0.00  0.00    -0.273 OA
ATOM     29  N   LIG d   1       2.366  -3.204  -9.250  0.00  0.00    -0.299 N 
ATOM     30  O   LIG d   1       9.798   0.164  -4.992  0.00  0.00    -0.482 OA
ATOM     31  H   LIG d   1       9.850   3.437  -5.754  0.00  0.00     0.061 H 
ATOM     32  H   LIG d   1       7.569   2.913  -6.417  0.00  0.00     0.062 H 
ATOM     33  H   LIG d   1       9.007  -2.321  -5.215  0.00  0.00     0.065 H 
ATOM     34  H   LIG d   1       6.982  -3.111  -6.387  0.00  0.00     0.062 H 
ATOM     35  H   LIG d   1       3.846  -2.780  -7.150  0.00  0.00     0.034 H 
ATOM     36  H   LIG d   1       5.037  -3.227  -8.393  0.00  0.00     0.034 H 
ATOM     37  H   LIG d   1       1.747   0.390 -10.426  0.00  0.00     0.029 H 
ATOM     38  H   LIG d   1       0.568  -0.576  -9.499  0.00  0.00     0.029 H 
ATOM     39  H   LIG d   1      -0.096  -2.116 -12.130  0.00  0.00     0.029 H 
ATOM     40  H   LIG d   1       0.537  -0.450 -12.321  0.00  0.00     0.029 H 
ATOM     41  H   LIG d   1       1.675  -3.068 -13.467  0.00  0.00     0.028 H 
ATOM     42  H   LIG d   1       1.447  -1.492 -14.298  0.00  0.00     0.028 H 
ATOM     43  H   LIG d   1       3.900  -2.129 -13.331  0.00  0.00     0.046 H 
ATOM     44  H   LIG d   1       3.274  -0.468 -13.099  0.00  0.00     0.046 H 
ATOM     45  H   LIG d   1       2.365  -3.985  -8.674  0.00  0.00     0.150 HD
ENDROOT
BRANCH   1  46
ATOM     46  C   LIG d   1      11.192   0.872  -6.829  0.00  0.00    -0.021 C 
ATOM     47  H   LIG d   1      10.559   1.117  -7.682  0.00  0.00     0.027 H 
ATOM     48  H   LIG d   1      12.140   1.403  -6.915  0.00  0.00     0.027 H 
ATOM     49  H   LIG d   1      11.377  -0.202  -6.812  0.00  0.00     0.027 H 
ENDBRANCH   1  46
BRANCH   1  50
ATOM     50  C   LIG d   1      11.533   1.774  -4.528  0.00  0.00    -0.021 C 
ATOM     51  H   LIG d   1      12.440   1.180  -4.630  0.00  0.00     0.027 H 
ATOM     52  H   LIG d   1      11.761   2.823  -4.719  0.00  0.00     0.027 H 
ATOM     53  H   LIG d   1      11.139   1.667  -3.518  0.00  0.00     0.027 H 
ENDBRANCH   1  50
BRANCH  18  54
ATOM     54  C   LIG d   1       2.939   1.626  -8.343  0.00  0.00    -0.054 C 
ATOM     55  H   LIG d   1       2.702   2.308  -9.158  0.00  0.00     0.024 H 
ATOM     56  H   LIG d   1       2.023   1.351  -7.820  0.00  0.00     0.024 H 
ATOM     57  H   LIG d   1       3.621   2.115  -7.648  0.00  0.00     0.024 H 
ENDBRANCH  18  54
BRANCH  18  58
ATOM     58  C   LIG d   1       4.004   0.613 -10.363  0.00  0.00    -0.054 C 
ATOM     59  H   LIG d   1       4.933   0.084 -10.577  0.00  0.00     0.024 H 
ATOM     60  H   LIG d   1       3.218   0.248 -11.023  0.00  0.00     0.024 H 
ATOM     61  H   LIG d   1       4.148   1.681 -10.525  0.00  0.00     0.024 H 
ENDBRANCH  18  58
TORSDOF 4
ENDMDL
MODEL 6
REMARK VINA RESULT:      -6.5      9.167     11.856
REMARK  4 active torsions:
REMARK  status: ('A' for Active; 'I' for Inactive)
REMARK    1  A    between atoms: C_1  and  C_2 
REMARK    2  A    between atoms: C_2  and  C_34 
REMARK    3  A    between atoms: C_19  and  C_20 
REMARK    4  A    between atoms: C_19  and  C_21 
ROOT
ATOM      1  C   LIG d   1       9.943   3.833  -9.540  0.00  0.00     0.123 C 
ATOM      2  C   LIG d   1      11.289   4.486  -9.369  0.00  0.00    -0.041 C 
ATOM      3  C   LIG d   1      11.771   4.696  -8.143  0.00  0.00    -0.049 C 
ATOM      4  C   LIG d   1      10.956   4.260  -6.996  0.00  0.00     0.040 A 
ATOM      5  C   LIG d   1       9.907   3.352  -7.209  0.00  0.00     0.131 A 
ATOM      6  C   LIG d   1       9.108   2.916  -6.161  0.00  0.00    -0.019 A 
ATOM      7  C   LIG d   1       9.313   3.343  -4.861  0.00  0.00    -0.049 A 
ATOM      8  C   LIG d   1      10.361   4.240  -4.631  0.00  0.00     0.004 A 
ATOM      9  C   LIG d   1      11.179   4.709  -5.692  0.00  0.00     0.058 A 
ATOM     10  N   LIG d   1      12.088   5.570  -5.153  0.00  0.00    -0.357 N 
ATOM     11  H   LIG d   1      12.770   6.044  -5.653  0.00  0.00     0.166 HD
ATOM     12  C   LIG d   1      11.895   5.665  -3.798  0.00  0.00     0.026 A 
ATOM     13  C   LIG d   1      10.863   4.876  -3.430  0.00  0.00    -0.016 A 
ATOM     14  C   LIG d   1      10.376   4.728  -2.013  0.00  0.00     0.005 C 
ATOM     15  C   LIG d   1      10.960   5.835  -1.157  0.00  0.00     0.119 C 
ATOM     16  C   LIG d   1      12.465   6.015  -1.402  0.00  0.00     0.002 C 
ATOM     17  H   LIG d   1      12.988   5.072  -1.245  0.00  0.00     0.034 H 
ATOM     18  C   LIG d   1      12.689   6.513  -2.838  0.00  0.00     0.011 C 
ATOM     19  C   LIG d   1      13.003   7.106  -0.460  0.00  0.00    -0.017 C 
ATOM     20  C   LIG d   1      11.839   7.673   0.348  0.00  0.00     0.114 C 
ATOM     21  C   LIG d   1      12.204   8.869   1.208  0.00  0.00    -0.021 C 
ATOM     22  C   LIG d   1      10.970   9.806   1.052  0.00  0.00    -0.035 C 
ATOM     23  C   LIG d   1      10.559   9.541  -0.425  0.00  0.00     0.016 C 
ATOM     24  N   LIG d   1      10.798   8.124  -0.618  0.00  0.00    -0.285 N 
ATOM     25  C   LIG d   1      10.284   7.179  -1.450  0.00  0.00     0.240 C 
ATOM     26  O   LIG d   1       9.430   7.371  -2.289  0.00  0.00    -0.273 OA
ATOM     27  C   LIG d   1      11.213   6.530   1.124  0.00  0.00     0.237 C 
ATOM     28  O   LIG d   1      11.128   6.490   2.334  0.00  0.00    -0.273 OA
ATOM     29  N   LIG d   1      10.751   5.543   0.277  0.00  0.00    -0.299 N 
ATOM     30  O   LIG d   1       9.693   2.911  -8.478  0.00  0.00    -0.482 OA
ATOM     31  H   LIG d   1      11.861   4.784 -10.236  0.00  0.00     0.061 H 
ATOM     32  H   LIG d   1      12.730   5.170  -7.996  0.00  0.00     0.062 H 
ATOM     33  H   LIG d   1       8.306   2.223  -6.368  0.00  0.00     0.065 H 
ATOM     34  H   LIG d   1       8.684   2.996  -4.053  0.00  0.00     0.062 H 
ATOM     35  H   LIG d   1      10.690   3.761  -1.620  0.00  0.00     0.034 H 
ATOM     36  H   LIG d   1       9.288   4.791  -1.994  0.00  0.00     0.034 H 
ATOM     37  H   LIG d   1      13.466   7.902  -1.045  0.00  0.00     0.029 H 
ATOM     38  H   LIG d   1      13.739   6.669   0.215  0.00  0.00     0.029 H 
ATOM     39  H   LIG d   1      12.332   8.568   2.249  0.00  0.00     0.029 H 
ATOM     40  H   LIG d   1      13.107   9.351   0.835  0.00  0.00     0.029 H 
ATOM     41  H   LIG d   1      10.172   9.519   1.738  0.00  0.00     0.028 H 
ATOM     42  H   LIG d   1      11.251  10.850   1.199  0.00  0.00     0.028 H 
ATOM     43  H   LIG d   1       9.503   9.771  -0.573  0.00  0.00     0.046 H 
ATOM     44  H   LIG d   1      11.176  10.130  -1.103  0.00  0.00     0.046 H 
ATOM     45  H   LIG d   1      10.331   4.728   0.595  0.00  0.00     0.150 HD
ENDROOT
BRANCH   1  46
ATOM     46  C   LIG d   1       8.855   4.910  -9.539  0.00  0.00    -0.021 C 
ATOM     47  H   LIG d   1       7.961   4.523 -10.028  0.00  0.00     0.027 H 
ATOM     48  H   LIG d   1       8.618   5.186  -8.511  0.00  0.00     0.027 H 
ATOM     49  H   LIG d   1       9.213   5.788 -10.077  0.00  0.00     0.027 H 
ENDBRANCH   1  46
BRANCH   1  50
ATOM     50  C   LIG d   1       9.911   3.085 -10.874  0.00  0.00    -0.021 C 
ATOM     51  H   LIG d   1       9.155   3.528 -11.521  0.00  0.00     0.027 H 
ATOM     52  H   LIG d   1      10.887   3.157 -11.354  0.00  0.00     0.027 H 
ATOM     53  H   LIG d   1       9.670   2.037 -10.697  0.00  0.00     0.027 H 
ENDBRANCH   1  50
BRANCH  18  54
ATOM     54  C   LIG d   1      14.176   6.417  -3.184  0.00  0.00    -0.054 C 
ATOM     55  H   LIG d   1      14.516   5.392  -3.045  0.00  0.00     0.024 H 
ATOM     56  H   LIG d   1      14.326   6.713  -4.223  0.00  0.00     0.024 H 
ATOM     57  H   LIG d   1      14.745   7.080  -2.532  0.00  0.00     0.024 H 
ENDBRANCH  18  54
BRANCH  18  58
ATOM     58  C   LIG d   1      12.233   7.970  -2.948  0.00  0.00    -0.054 C 
ATOM     59  H   LIG d   1      11.801   8.141  -3.935  0.00  0.00     0.024 H 
ATOM     60  H   LIG d   1      11.484   8.175  -2.184  0.00  0.00     0.024 H 
ATOM     61  H   LIG d   1      13.089   8.630  -2.806  0.00  0.00     0.024 H 
ENDBRANCH  18  58
TORSDOF 4
ENDMDL
MODEL 7
REMARK VINA RESULT:      -6.4      3.696      5.705
REMARK  4 active torsions:
REMARK  status: ('A' for Active; 'I' for Inactive)
REMARK    1  A    between atoms: C_1  and  C_2 
REMARK    2  A    between atoms: C_2  and  C_34 
REMARK    3  A    between atoms: C_19  and  C_20 
REMARK    4  A    between atoms: C_19  and  C_21 
ROOT
ATOM      1  C   LIG d   1      10.892  -2.666 -11.828  0.00  0.00     0.123 C 
ATOM      2  C   LIG d   1      11.174  -3.551 -10.642  0.00  0.00    -0.041 C 
ATOM      3  C   LIG d   1      10.260  -3.677  -9.678  0.00  0.00    -0.049 C 
ATOM      4  C   LIG d   1       8.993  -2.941  -9.828  0.00  0.00     0.040 A 
ATOM      5  C   LIG d   1       8.641  -2.436 -11.090  0.00  0.00     0.131 A 
ATOM      6  C   LIG d   1       7.460  -1.732 -11.280  0.00  0.00    -0.019 A 
ATOM      7  C   LIG d   1       6.571  -1.505 -10.244  0.00  0.00    -0.049 A 
ATOM      8  C   LIG d   1       6.903  -2.011  -8.983  0.00  0.00     0.004 A 
ATOM      9  C   LIG d   1       8.113  -2.720  -8.765  0.00  0.00     0.058 A 
ATOM     10  N   LIG d   1       8.150  -3.064  -7.448  0.00  0.00    -0.357 N 
ATOM     11  H   LIG d   1       8.870  -3.553  -7.020  0.00  0.00     0.166 HD
ATOM     12  C   LIG d   1       7.017  -2.618  -6.816  0.00  0.00     0.026 A 
ATOM     13  C   LIG d   1       6.226  -1.976  -7.702  0.00  0.00    -0.016 A 
ATOM     14  C   LIG d   1       4.896  -1.361  -7.358  0.00  0.00     0.005 C 
ATOM     15  C   LIG d   1       4.760  -1.258  -5.851  0.00  0.00     0.119 C 
ATOM     16  C   LIG d   1       5.174  -2.558  -5.147  0.00  0.00     0.002 C 
ATOM     17  H   LIG d   1       4.602  -3.398  -5.542  0.00  0.00     0.034 H 
ATOM     18  C   LIG d   1       6.676  -2.792  -5.358  0.00  0.00     0.011 C 
ATOM     19  C   LIG d   1       4.952  -2.405  -3.632  0.00  0.00    -0.017 C 
ATOM     20  C   LIG d   1       4.455  -0.990  -3.351  0.00  0.00     0.114 C 
ATOM     21  C   LIG d   1       4.343  -0.652  -1.876  0.00  0.00    -0.021 C 
ATOM     22  C   LIG d   1       4.857   0.817  -1.809  0.00  0.00    -0.035 C 
ATOM     23  C   LIG d   1       5.965   0.811  -2.902  0.00  0.00     0.016 C 
ATOM     24  N   LIG d   1       5.436  -0.041  -3.948  0.00  0.00    -0.285 N 
ATOM     25  C   LIG d   1       5.638  -0.133  -5.290  0.00  0.00     0.240 C 
ATOM     26  O   LIG d   1       6.393   0.561  -5.937  0.00  0.00    -0.273 OA
ATOM     27  C   LIG d   1       3.165  -0.788  -4.123  0.00  0.00     0.237 C 
ATOM     28  O   LIG d   1       2.097  -0.520  -3.613  0.00  0.00    -0.273 OA
ATOM     29  N   LIG d   1       3.362  -0.948  -5.479  0.00  0.00    -0.299 N 
ATOM     30  O   LIG d   1       9.496  -2.655 -12.125  0.00  0.00    -0.482 OA
ATOM     31  H   LIG d   1      12.113  -4.082 -10.572  0.00  0.00     0.061 H 
ATOM     32  H   LIG d   1      10.444  -4.298  -8.815  0.00  0.00     0.062 H 
ATOM     33  H   LIG d   1       7.230  -1.353 -12.264  0.00  0.00     0.065 H 
ATOM     34  H   LIG d   1       5.655  -0.956 -10.405  0.00  0.00     0.062 H 
ATOM     35  H   LIG d   1       4.094  -1.986  -7.753  0.00  0.00     0.034 H 
ATOM     36  H   LIG d   1       4.830  -0.367  -7.797  0.00  0.00     0.034 H 
ATOM     37  H   LIG d   1       5.890  -2.577  -3.104  0.00  0.00     0.029 H 
ATOM     38  H   LIG d   1       4.205  -3.128  -3.302  0.00  0.00     0.029 H 
ATOM     39  H   LIG d   1       3.306  -0.713  -1.545  0.00  0.00     0.029 H 
ATOM     40  H   LIG d   1       4.974  -1.312  -1.281  0.00  0.00     0.029 H 
ATOM     41  H   LIG d   1       4.063   1.521  -2.060  0.00  0.00     0.028 H 
ATOM     42  H   LIG d   1       5.277   1.039  -0.827  0.00  0.00     0.028 H 
ATOM     43  H   LIG d   1       6.130   1.821  -3.281  0.00  0.00     0.046 H 
ATOM     44  H   LIG d   1       6.891   0.399  -2.503  0.00  0.00     0.046 H 
ATOM     45  H   LIG d   1       2.648  -0.868  -6.131  0.00  0.00     0.150 HD
ENDROOT
BRANCH   1  46
ATOM     46  C   LIG d   1      11.353  -1.241 -11.514  0.00  0.00    -0.021 C 
ATOM     47  H   LIG d   1      10.855  -0.889 -10.611  0.00  0.00     0.027 H 
ATOM     48  H   LIG d   1      12.432  -1.233 -11.362  0.00  0.00     0.027 H 
ATOM     49  H   LIG d   1      11.099  -0.585 -12.348  0.00  0.00     0.027 H 
ENDBRANCH   1  46
BRANCH   1  50
ATOM     50  C   LIG d   1      11.662  -3.190 -13.042  0.00  0.00    -0.021 C 
ATOM     51  H   LIG d   1      10.957  -3.488 -13.817  0.00  0.00     0.027 H 
ATOM     52  H   LIG d   1      12.313  -2.404 -13.425  0.00  0.00     0.027 H 
ATOM     53  H   LIG d   1      12.264  -4.048 -12.747  0.00  0.00     0.027 H 
ENDBRANCH   1  50
BRANCH  18  54
ATOM     54  C   LIG d   1       7.037  -4.212  -4.918  0.00  0.00    -0.054 C 
ATOM     55  H   LIG d   1       6.148  -4.711  -4.533  0.00  0.00     0.024 H 
ATOM     56  H   LIG d   1       7.426  -4.769  -5.771  0.00  0.00     0.024 H 
ATOM     57  H   LIG d   1       7.796  -4.169  -4.137  0.00  0.00     0.024 H 
ENDBRANCH  18  54
BRANCH  18  58
ATOM     58  C   LIG d   1       7.471  -1.784  -4.525  0.00  0.00    -0.054 C 
ATOM     59  H   LIG d   1       8.508  -2.113  -4.449  0.00  0.00     0.024 H 
ATOM     60  H   LIG d   1       7.434  -0.807  -5.006  0.00  0.00     0.024 H 
ATOM     61  H   LIG d   1       7.037  -1.715  -3.527  0.00  0.00     0.024 H 
ENDBRANCH  18  58
TORSDOF 4
ENDMDL
MODEL 8
REMARK VINA RESULT:      -6.3      3.635      7.905
REMARK  4 active torsions:
REMARK  status: ('A' for Active; 'I' for Inactive)
REMARK    1  A    between atoms: C_1  and  C_2 
REMARK    2  A    between atoms: C_2  and  C_34 
REMARK    3  A    between atoms: C_19  and  C_20 
REMARK    4  A    between atoms: C_19  and  C_21 
ROOT
ATOM      1  C   LIG d   1       2.125  -2.907 -14.193  0.00  0.00     0.123 C 
ATOM      2  C   LIG d   1       2.817  -4.054 -13.504  0.00  0.00    -0.041 C 
ATOM      3  C   LIG d   1       3.028  -4.005 -12.188  0.00  0.00    -0.049 C 
ATOM      4  C   LIG d   1       2.555  -2.818 -11.457  0.00  0.00     0.040 A 
ATOM      5  C   LIG d   1       1.618  -1.969 -12.065  0.00  0.00     0.131 A 
ATOM      6  C   LIG d   1       1.145  -0.835 -11.418  0.00  0.00    -0.019 A 
ATOM      7  C   LIG d   1       1.564  -0.495 -10.144  0.00  0.00    -0.049 A 
ATOM      8  C   LIG d   1       2.490  -1.336  -9.520  0.00  0.00     0.004 A 
ATOM      9  C   LIG d   1       2.996  -2.491 -10.172  0.00  0.00     0.058 A 
ATOM     10  N   LIG d   1       3.878  -3.084  -9.319  0.00  0.00    -0.357 N 
ATOM     11  H   LIG d   1       4.379  -3.893  -9.509  0.00  0.00     0.166 HD
ATOM     12  C   LIG d   1       3.952  -2.368  -8.151  0.00  0.00     0.026 A 
ATOM     13  C   LIG d   1       3.128  -1.301  -8.220  0.00  0.00    -0.016 A 
ATOM     14  C   LIG d   1       2.949  -0.298  -7.111  0.00  0.00     0.005 C 
ATOM     15  C   LIG d   1       4.064  -0.460  -6.095  0.00  0.00     0.119 C 
ATOM     16  C   LIG d   1       4.293  -1.932  -5.726  0.00  0.00     0.002 C 
ATOM     17  H   LIG d   1       3.364  -2.381  -5.373  0.00  0.00     0.034 H 
ATOM     18  C   LIG d   1       4.814  -2.689  -6.956  0.00  0.00     0.011 C 
ATOM     19  C   LIG d   1       5.389  -2.018  -4.649  0.00  0.00    -0.017 C 
ATOM     20  C   LIG d   1       5.911  -0.612  -4.369  0.00  0.00     0.114 C 
ATOM     21  C   LIG d   1       7.108  -0.567  -3.437  0.00  0.00    -0.021 C 
ATOM     22  C   LIG d   1       8.008   0.535  -4.070  0.00  0.00    -0.035 C 
ATOM     23  C   LIG d   1       7.747   0.319  -5.589  0.00  0.00     0.016 C 
ATOM     24  N   LIG d   1       6.341  -0.024  -5.669  0.00  0.00    -0.285 N 
ATOM     25  C   LIG d   1       5.390   0.089  -6.635  0.00  0.00     0.240 C 
ATOM     26  O   LIG d   1       5.565   0.547  -7.743  0.00  0.00    -0.273 OA
ATOM     27  C   LIG d   1       4.741   0.233  -3.902  0.00  0.00     0.237 C 
ATOM     28  O   LIG d   1       4.685   0.788  -2.824  0.00  0.00    -0.273 OA
ATOM     29  N   LIG d   1       3.749   0.290  -4.860  0.00  0.00    -0.299 N 
ATOM     30  O   LIG d   1       1.185  -2.288 -13.315  0.00  0.00    -0.482 OA
ATOM     31  H   LIG d   1       3.143  -4.912 -14.074  0.00  0.00     0.061 H 
ATOM     32  H   LIG d   1       3.531  -4.811 -11.675  0.00  0.00     0.062 H 
ATOM     33  H   LIG d   1       0.431  -0.203 -11.924  0.00  0.00     0.065 H 
ATOM     34  H   LIG d   1       1.189   0.391  -9.651  0.00  0.00     0.062 H 
ATOM     35  H   LIG d   1       1.988  -0.463  -6.624  0.00  0.00     0.034 H 
ATOM     36  H   LIG d   1       2.978   0.709  -7.524  0.00  0.00     0.034 H 
ATOM     37  H   LIG d   1       6.205  -2.648  -5.004  0.00  0.00     0.029 H 
ATOM     38  H   LIG d   1       4.967  -2.441  -3.737  0.00  0.00     0.029 H 
ATOM     39  H   LIG d   1       6.800  -0.282  -2.430  0.00  0.00     0.029 H 
ATOM     40  H   LIG d   1       7.621  -1.528  -3.423  0.00  0.00     0.029 H 
ATOM     41  H   LIG d   1       7.690   1.529  -3.756  0.00  0.00     0.028 H 
ATOM     42  H   LIG d   1       9.059   0.369  -3.826  0.00  0.00     0.028 H 
ATOM     43  H   LIG d   1       7.947   1.237  -6.143  0.00  0.00     0.046 H 
ATOM     44  H   LIG d   1       8.363  -0.496  -5.969  0.00  0.00     0.046 H 
ATOM     45  H   LIG d   1       2.919   0.775  -4.734  0.00  0.00     0.150 HD
ENDROOT
BRANCH   1  46
ATOM     46  C   LIG d   1       3.168  -1.873 -14.624  0.00  0.00    -0.021 C 
ATOM     47  H   LIG d   1       4.026  -2.384 -15.061  0.00  0.00     0.027 H 
ATOM     48  H   LIG d   1       2.729  -1.201 -15.362  0.00  0.00     0.027 H 
ATOM     49  H   LIG d   1       3.491  -1.299 -13.756  0.00  0.00     0.027 H 
ENDBRANCH   1  46
BRANCH   1  50
ATOM     50  C   LIG d   1       1.391  -3.430 -15.429  0.00  0.00    -0.021 C 
ATOM     51  H   LIG d   1       1.073  -4.457 -15.255  0.00  0.00     0.027 H 
ATOM     52  H   LIG d   1       0.518  -2.807 -15.623  0.00  0.00     0.027 H 
ATOM     53  H   LIG d   1       2.060  -3.396 -16.289  0.00  0.00     0.027 H 
ENDBRANCH   1  50
BRANCH  18  54
ATOM     54  C   LIG d   1       4.768  -4.194  -6.686  0.00  0.00    -0.054 C 
ATOM     55  H   LIG d   1       5.666  -4.495  -6.148  0.00  0.00     0.024 H 
ATOM     56  H   LIG d   1       3.888  -4.429  -6.086  0.00  0.00     0.024 H 
ATOM     57  H   LIG d   1       4.715  -4.732  -7.632  0.00  0.00     0.024 H 
ENDBRANCH  18  54
BRANCH  18  58
ATOM     58  C   LIG d   1       6.257  -2.267  -7.241  0.00  0.00    -0.054 C 
ATOM     59  H   LIG d   1       6.732  -1.950  -6.312  0.00  0.00     0.024 H 
ATOM     60  H   LIG d   1       6.805  -3.110  -7.660  0.00  0.00     0.024 H 
ATOM     61  H   LIG d   1       6.260  -1.441  -7.952  0.00  0.00     0.024 H 
ENDBRANCH  18  58
TORSDOF 4
ENDMDL
MODEL 9
REMARK VINA RESULT:      -6.2      3.996      6.419
REMARK  4 active torsions:
REMARK  status: ('A' for Active; 'I' for Inactive)
REMARK    1  A    between atoms: C_1  and  C_2 
REMARK    2  A    between atoms: C_2  and  C_34 
REMARK    3  A    between atoms: C_19  and  C_20 
REMARK    4  A    between atoms: C_19  and  C_21 
ROOT
ATOM      1  C   LIG d   1      10.350   4.972  -3.835  0.00  0.00     0.123 C 
ATOM      2  C   LIG d   1       9.855   3.732  -3.139  0.00  0.00    -0.041 C 
ATOM      3  C   LIG d   1       9.330   2.736  -3.855  0.00  0.00    -0.049 C 
ATOM      4  C   LIG d   1       9.270   2.895  -5.318  0.00  0.00     0.040 A 
ATOM      5  C   LIG d   1      10.056   3.883  -5.931  0.00  0.00     0.131 A 
ATOM      6  C   LIG d   1      10.030   4.074  -7.305  0.00  0.00    -0.019 A 
ATOM      7  C   LIG d   1       9.241   3.297  -8.135  0.00  0.00    -0.049 A 
ATOM      8  C   LIG d   1       8.460   2.301  -7.541  0.00  0.00     0.004 A 
ATOM      9  C   LIG d   1       8.461   2.101  -6.136  0.00  0.00     0.058 A 
ATOM     10  N   LIG d   1       7.598   1.080  -5.871  0.00  0.00    -0.357 N 
ATOM     11  H   LIG d   1       7.399   0.735  -4.987  0.00  0.00     0.166 HD
ATOM     12  C   LIG d   1       7.053   0.614  -7.041  0.00  0.00     0.026 A 
ATOM     13  C   LIG d   1       7.545   1.317  -8.083  0.00  0.00    -0.016 A 
ATOM     14  C   LIG d   1       7.171   1.071  -9.521  0.00  0.00     0.005 C 
ATOM     15  C   LIG d   1       5.933   0.196  -9.580  0.00  0.00     0.119 C 
ATOM     16  C   LIG d   1       6.035  -1.005  -8.631  0.00  0.00     0.002 C 
ATOM     17  H   LIG d   1       6.939  -1.577  -8.843  0.00  0.00     0.034 H 
ATOM     18  C   LIG d   1       6.052  -0.505  -7.179  0.00  0.00     0.011 C 
ATOM     19  C   LIG d   1       4.780  -1.881  -8.788  0.00  0.00    -0.017 C 
ATOM     20  C   LIG d   1       3.841  -1.215  -9.790  0.00  0.00     0.114 C 
ATOM     21  C   LIG d   1       2.491  -1.895  -9.924  0.00  0.00    -0.021 C 
ATOM     22  C   LIG d   1       1.502  -0.698 -10.040  0.00  0.00    -0.035 C 
ATOM     23  C   LIG d   1       2.168   0.351  -9.103  0.00  0.00     0.016 C 
ATOM     24  N   LIG d   1       3.591   0.175  -9.318  0.00  0.00    -0.285 N 
ATOM     25  C   LIG d   1       4.677   0.984  -9.191  0.00  0.00     0.240 C 
ATOM     26  O   LIG d   1       4.654   2.140  -8.825  0.00  0.00    -0.273 OA
ATOM     27  C   LIG d   1       4.587  -1.076 -11.104  0.00  0.00     0.237 C 
ATOM     28  O   LIG d   1       4.230  -1.574 -12.150  0.00  0.00    -0.273 OA
ATOM     29  N   LIG d   1       5.725  -0.309 -10.955  0.00  0.00    -0.299 N 
ATOM     30  O   LIG d   1      10.846   4.653  -5.136  0.00  0.00    -0.482 OA
ATOM     31  H   LIG d   1       9.924   3.649  -2.064  0.00  0.00     0.061 H 
ATOM     32  H   LIG d   1       8.960   1.842  -3.377  0.00  0.00     0.062 H 
ATOM     33  H   LIG d   1      10.643   4.851  -7.738  0.00  0.00     0.065 H 
ATOM     34  H   LIG d   1       9.230   3.456  -9.205  0.00  0.00     0.062 H 
ATOM     35  H   LIG d   1       7.995   0.570 -10.029  0.00  0.00     0.034 H 
ATOM     36  H   LIG d   1       6.967   2.023 -10.011  0.00  0.00     0.034 H 
ATOM     37  H   LIG d   1       4.277  -1.981  -7.825  0.00  0.00     0.029 H 
ATOM     38  H   LIG d   1       5.070  -2.866  -9.156  0.00  0.00     0.029 H 
ATOM     39  H   LIG d   1       2.458  -2.511 -10.823  0.00  0.00     0.029 H 
ATOM     40  H   LIG d   1       2.273  -2.495  -9.041  0.00  0.00     0.029 H 
ATOM     41  H   LIG d   1       1.451  -0.330 -11.065  0.00  0.00     0.028 H 
ATOM     42  H   LIG d   1       0.511  -0.973  -9.677  0.00  0.00     0.028 H 
ATOM     43  H   LIG d   1       1.863   1.360  -9.385  0.00  0.00     0.046 H 
ATOM     44  H   LIG d   1       1.909   0.152  -8.064  0.00  0.00     0.046 H 
ATOM     45  H   LIG d   1       6.335  -0.120 -11.685  0.00  0.00     0.150 HD
ENDROOT
BRANCH   1  46
ATOM     46  C   LIG d   1       9.199   5.972  -3.965  0.00  0.00    -0.021 C 
ATOM     47  H   LIG d   1       8.250   5.436  -3.963  0.00  0.00     0.027 H 
ATOM     48  H   LIG d   1       9.226   6.668  -3.127  0.00  0.00     0.027 H 
ATOM     49  H   LIG d   1       9.302   6.525  -4.900  0.00  0.00     0.027 H 
ENDBRANCH   1  46
BRANCH   1  50
ATOM     50  C   LIG d   1      11.473   5.600  -3.008  0.00  0.00    -0.021 C 
ATOM     51  H   LIG d   1      11.538   6.664  -3.233  0.00  0.00     0.027 H 
ATOM     52  H   LIG d   1      11.261   5.465  -1.947  0.00  0.00     0.027 H 
ATOM     53  H   LIG d   1      12.418   5.117  -3.253  0.00  0.00     0.027 H 
ENDBRANCH   1  50
BRANCH  18  54
ATOM     54  C   LIG d   1       6.443  -1.654  -6.248  0.00  0.00    -0.054 C 
ATOM     55  H   LIG d   1       6.025  -2.587  -6.626  0.00  0.00     0.024 H 
ATOM     56  H   LIG d   1       7.530  -1.733  -6.205  0.00  0.00     0.024 H 
ATOM     57  H   LIG d   1       6.054  -1.462  -5.249  0.00  0.00     0.024 H 
ENDBRANCH  18  54
BRANCH  18  58
ATOM     58  C   LIG d   1       4.661   0.006  -6.800  0.00  0.00    -0.054 C 
ATOM     59  H   LIG d   1       3.991  -0.841  -6.649  0.00  0.00     0.024 H 
ATOM     60  H   LIG d   1       4.726   0.586  -5.880  0.00  0.00     0.024 H 
ATOM     61  H   LIG d   1       4.275   0.637  -7.601  0.00  0.00     0.024 H 
ENDBRANCH  18  58
TORSDOF 4
ENDMDL
MODEL 10
REMARK VINA RESULT:      -6.2     11.040     13.880
REMARK  4 active torsions:
REMARK  status: ('A' for Active; 'I' for Inactive)
REMARK    1  A    between atoms: C_1  and  C_2 
REMARK    2  A    between atoms: C_2  and  C_34 
REMARK    3  A    between atoms: C_19  and  C_20 
REMARK    4  A    between atoms: C_19  and  C_21 
ROOT
ATOM      1  C   LIG d   1      10.273   5.970  -9.241  0.00  0.00     0.123 C 
ATOM      2  C   LIG d   1      10.325   4.921  -8.162  0.00  0.00    -0.041 C 
ATOM      3  C   LIG d   1      10.176   5.277  -6.885  0.00  0.00    -0.049 C 
ATOM      4  C   LIG d   1       9.953   6.702  -6.588  0.00  0.00     0.040 A 
ATOM      5  C   LIG d   1       9.558   7.563  -7.624  0.00  0.00     0.131 A 
ATOM      6  C   LIG d   1       9.340   8.914  -7.394  0.00  0.00    -0.019 A 
ATOM      7  C   LIG d   1       9.489   9.474  -6.138  0.00  0.00    -0.049 A 
ATOM      8  C   LIG d   1       9.872   8.628  -5.092  0.00  0.00     0.004 A 
ATOM      9  C   LIG d   1      10.114   7.246  -5.311  0.00  0.00     0.058 A 
ATOM     10  N   LIG d   1      10.479   6.705  -4.115  0.00  0.00    -0.357 N 
ATOM     11  H   LIG d   1      10.710   5.773  -3.972  0.00  0.00     0.166 HD
ATOM     12  C   LIG d   1      10.473   7.672  -3.142  0.00  0.00     0.026 A 
ATOM     13  C   LIG d   1      10.108   8.855  -3.681  0.00  0.00    -0.016 A 
ATOM     14  C   LIG d   1       9.986  10.138  -2.902  0.00  0.00     0.005 C 
ATOM     15  C   LIG d   1      10.663   9.979  -1.554  0.00  0.00     0.119 C 
ATOM     16  C   LIG d   1      10.273   8.662  -0.869  0.00  0.00     0.002 C 
ATOM     17  H   LIG d   1       9.189   8.589  -0.781  0.00  0.00     0.034 H 
ATOM     18  C   LIG d   1      10.819   7.483  -1.687  0.00  0.00     0.011 C 
ATOM     19  C   LIG d   1      10.942   8.595   0.515  0.00  0.00    -0.017 C 
ATOM     20  C   LIG d   1      11.812   9.835   0.699  0.00  0.00     0.114 C 
ATOM     21  C   LIG d   1      12.655   9.823   1.961  0.00  0.00    -0.021 C 
ATOM     22  C   LIG d   1      14.009  10.428   1.487  0.00  0.00    -0.035 C 
ATOM     23  C   LIG d   1      14.111   9.874   0.037  0.00  0.00     0.016 C 
ATOM     24  N   LIG d   1      12.748   9.904  -0.458  0.00  0.00    -0.285 N 
ATOM     25  C   LIG d   1      12.189   9.988  -1.695  0.00  0.00     0.240 C 
ATOM     26  O   LIG d   1      12.801  10.057  -2.740  0.00  0.00    -0.273 OA
ATOM     27  C   LIG d   1      10.916  11.053   0.575  0.00  0.00     0.237 C 
ATOM     28  O   LIG d   1      10.761  11.881   1.449  0.00  0.00    -0.273 OA
ATOM     29  N   LIG d   1      10.299  11.098  -0.659  0.00  0.00    -0.299 N 
ATOM     30  O   LIG d   1       9.397   7.033  -8.866  0.00  0.00    -0.482 OA
ATOM     31  H   LIG d   1      10.482   3.883  -8.420  0.00  0.00     0.061 H 
ATOM     32  H   LIG d   1      10.219   4.544  -6.094  0.00  0.00     0.062 H 
ATOM     33  H   LIG d   1       9.046   9.545  -8.220  0.00  0.00     0.065 H 
ATOM     34  H   LIG d   1       9.317  10.528  -5.971  0.00  0.00     0.062 H 
ATOM     35  H   LIG d   1       8.932  10.373  -2.753  0.00  0.00     0.034 H 
ATOM     36  H   LIG d   1      10.463  10.946  -3.455  0.00  0.00     0.034 H 
ATOM     37  H   LIG d   1      11.561   7.700   0.582  0.00  0.00     0.029 H 
ATOM     38  H   LIG d   1      10.173   8.569   1.287  0.00  0.00     0.029 H 
ATOM     39  H   LIG d   1      12.201  10.447   2.731  0.00  0.00     0.029 H 
ATOM     40  H   LIG d   1      12.790   8.804   2.323  0.00  0.00     0.029 H 
ATOM     41  H   LIG d   1      13.972  11.518   1.488  0.00  0.00     0.028 H 
ATOM     42  H   LIG d   1      14.834  10.067   2.103  0.00  0.00     0.028 H 
ATOM     43  H   LIG d   1      14.750  10.515  -0.571  0.00  0.00     0.046 H 
ATOM     44  H   LIG d   1      14.493   8.853   0.045  0.00  0.00     0.046 H 
ATOM     45  H   LIG d   1       9.679  11.799  -0.915  0.00  0.00     0.150 HD
ENDROOT
BRANCH   1  46
ATOM     46  C   LIG d   1      11.679   6.531  -9.467  0.00  0.00    -0.021 C 
ATOM     47  H   LIG d   1      12.384   5.708  -9.587  0.00  0.00     0.027 H 
ATOM     48  H   LIG d   1      11.684   7.148 -10.366  0.00  0.00     0.027 H 
ATOM     49  H   LIG d   1      11.971   7.137  -8.609  0.00  0.00     0.027 H 
ENDBRANCH   1  46
BRANCH   1  50
ATOM     50  C   LIG d   1       9.769   5.334 -10.538  0.00  0.00    -0.021 C 
ATOM     51  H   LIG d   1      10.618   5.000 -11.133  0.00  0.00     0.027 H 
ATOM     52  H   LIG d   1       9.133   4.482 -10.301  0.00  0.00     0.027 H 
ATOM     53  H   LIG d   1       9.196   6.069 -11.103  0.00  0.00     0.027 H 
ENDBRANCH   1  50
BRANCH  18  54
ATOM     54  C   LIG d   1      10.197   6.180  -1.182  0.00  0.00    -0.054 C 
ATOM     55  H   LIG d   1       9.266   5.991  -1.716  0.00  0.00     0.024 H 
ATOM     56  H   LIG d   1      10.889   5.355  -1.355  0.00  0.00     0.024 H 
ATOM     57  H   LIG d   1       9.993   6.264  -0.115  0.00  0.00     0.024 H 
ENDBRANCH  18  54
BRANCH  18  58
ATOM     58  C   LIG d   1      12.340   7.415  -1.530  0.00  0.00    -0.054 C 
ATOM     59  H   LIG d   1      12.813   7.976  -2.337  0.00  0.00     0.024 H 
ATOM     60  H   LIG d   1      12.625   7.846  -0.571  0.00  0.00     0.024 H 
ATOM     61  H   LIG d   1      12.663   6.375  -1.573  0.00  0.00     0.024 H 
ENDBRANCH  18  58
TORSDOF 4
ENDMDL
