MODEL 1
REMARK VINA RESULT:      -6.6      0.000      0.000
REMARK  11 active torsions:
REMARK  status: ('A' for Active; 'I' for Inactive)
REMARK    1  A    between atoms: C_1  and  C_2 
REMARK    2  A    between atoms: C_2  and  C_3 
REMARK    3  A    between atoms: C_11  and  O_37 
REMARK    4  A    between atoms: C_12  and  O_35 
REMARK    5  A    between atoms: C_18  and  C_20 
REMARK    6  A    between atoms: C_20  and  C_21 
REMARK    7  A    between atoms: C_25  and  O_33 
REMARK    8  A    between atoms: C_26  and  O_32 
REMARK    9  A    between atoms: O_33  and  C_34 
REMARK   10  A    between atoms: O_35  and  C_36 
REMARK   11  A    between atoms: O_37  and  C_38 
ROOT
ATOM      1  C   LIG d   1       9.926   4.965  -3.199  0.00  0.00     0.002 C 
ATOM      2  H   LIG d   1       8.852   5.122  -3.094  0.00  0.00     0.035 H 
ATOM      3  C   LIG d   1      10.556   6.184  -3.878  0.00  0.00    -0.028 C 
ATOM      4  N   LIG d   1       9.960   6.363  -5.207  0.00  0.00     0.241 N 
ATOM      5  C   LIG d   1      10.492   7.579  -5.837  0.00  0.00    -0.027 C 
ATOM      6  C   LIG d   1       9.637   7.909  -7.061  0.00  0.00     0.013 C 
ATOM      7  C   LIG d   1       9.494   6.687  -7.933  0.00  0.00    -0.030 A 
ATOM      8  C   LIG d   1       9.058   6.852  -9.238  0.00  0.00    -0.013 A 
ATOM      9  C   LIG d   1       8.912   5.755 -10.070  0.00  0.00     0.162 A 
ATOM     10  C   LIG d   1       9.205   4.482  -9.590  0.00  0.00     0.162 A 
ATOM     11  C   LIG d   1       9.640   4.323  -8.287  0.00  0.00    -0.007 A 
ATOM     12  C   LIG d   1       9.788   5.425  -7.457  0.00  0.00     0.007 A 
ATOM     13  C   LIG d   1      10.275   5.208  -6.051  0.00  0.00     0.006 C 
ATOM     14  H   LIG d   1      11.355   5.064  -6.067  0.00  0.00     0.090 H 
ATOM     15  C   LIG d   1       9.627   3.952  -5.462  0.00  0.00    -0.002 C 
ATOM     16  C   LIG d   1      10.180   3.719  -4.051  0.00  0.00    -0.023 C 
ATOM     17  H   LIG d   1      11.251   3.529  -4.108  0.00  0.00     0.031 H 
ATOM     18  H   LIG d   1      10.370   7.073  -3.275  0.00  0.00     0.082 H 
ATOM     19  H   LIG d   1      11.630   6.030  -3.978  0.00  0.00     0.082 H 
ATOM     20  H   LIG d   1      10.451   8.406  -5.128  0.00  0.00     0.082 H 
ATOM     21  H   LIG d   1      11.524   7.410  -6.146  0.00  0.00     0.082 H 
ATOM     22  H   LIG d   1       8.650   8.238  -6.735  0.00  0.00     0.036 H 
ATOM     23  H   LIG d   1      10.112   8.707  -7.630  0.00  0.00     0.036 H 
ATOM     24  H   LIG d   1       8.832   7.840  -9.609  0.00  0.00     0.066 H 
ATOM     25  H   LIG d   1       9.867   3.336  -7.913  0.00  0.00     0.066 H 
ATOM     26  H   LIG d   1       8.547   4.088  -5.412  0.00  0.00     0.033 H 
ATOM     27  H   LIG d   1       9.860   3.092  -6.091  0.00  0.00     0.033 H 
ATOM     28  H   LIG d   1       8.959   6.448  -5.117  0.00  0.00     0.204 HD
ENDROOT
BRANCH  16  29
ATOM     29  C   LIG d   1       9.478   2.516  -3.420  0.00  0.00    -0.002 C 
ATOM     30  H   LIG d   1      10.159   2.021  -2.728  0.00  0.00     0.033 H 
ATOM     31  H   LIG d   1       8.593   2.853  -2.881  0.00  0.00     0.033 H 
BRANCH  29  32
ATOM     32  C   LIG d   1       9.063   1.534  -4.518  0.00  0.00     0.004 C 
ATOM     33  H   LIG d   1       8.758   2.092  -5.403  0.00  0.00     0.090 H 
ATOM     34  N   LIG d   1      10.203   0.676  -4.856  0.00  0.00     0.233 N 
ATOM     35  C   LIG d   1       9.761  -0.352  -5.809  0.00  0.00    -0.029 C 
ATOM     36  H   LIG d   1      10.932   1.234  -5.274  0.00  0.00     0.202 HD
ATOM     37  H   LIG d   1      10.551   0.233  -4.018  0.00  0.00     0.202 HD
ATOM     38  C   LIG d   1       8.892  -1.367  -5.065  0.00  0.00     0.013 C 
ATOM     39  H   LIG d   1      10.631  -0.855  -6.233  0.00  0.00     0.082 H 
ATOM     40  H   LIG d   1       9.180   0.113  -6.606  0.00  0.00     0.082 H 
ATOM     41  C   LIG d   1       7.818  -0.646  -4.289  0.00  0.00    -0.030 A 
ATOM     42  H   LIG d   1       9.513  -1.941  -4.378  0.00  0.00     0.036 H 
ATOM     43  H   LIG d   1       8.428  -2.042  -5.783  0.00  0.00     0.036 H 
ATOM     44  C   LIG d   1       7.903   0.705  -4.030  0.00  0.00     0.007 A 
ATOM     45  C   LIG d   1       6.733  -1.375  -3.826  0.00  0.00    -0.013 A 
ATOM     46  C   LIG d   1       6.900   1.333  -3.305  0.00  0.00    -0.008 A 
ATOM     47  C   LIG d   1       5.816   0.612  -2.841  0.00  0.00     0.162 A 
ATOM     48  H   LIG d   1       6.967   2.392  -3.102  0.00  0.00     0.066 H 
ATOM     49  C   LIG d   1       5.731  -0.752  -3.104  0.00  0.00     0.159 A 
ATOM     50  H   LIG d   1       6.670  -2.433  -4.031  0.00  0.00     0.066 H 
BRANCH  47  51
ATOM     51  O   LIG d   1       4.836   1.233  -2.131  0.00  0.00    -0.491 OA
BRANCH  51  52
ATOM     52  C   LIG d   1       3.682   1.664  -2.856  0.00  0.00     0.079 C 
ATOM     53  H   LIG d   1       3.995   2.187  -3.759  0.00  0.00     0.066 H 
ATOM     54  H   LIG d   1       3.081   0.796  -3.129  0.00  0.00     0.066 H 
ATOM     55  H   LIG d   1       3.092   2.335  -2.233  0.00  0.00     0.066 H 
ENDBRANCH  51  52
ENDBRANCH  47  51
BRANCH  49  56
ATOM     56  O   LIG d   1       4.667  -1.470  -2.653  0.00  0.00    -0.503 OA
ATOM     57  H   LIG d   1       3.814  -1.162  -2.990  0.00  0.00     0.292 HD
ENDBRANCH  49  56
ENDBRANCH  29  32
ENDBRANCH  16  29
BRANCH   1  58
ATOM     58  C   LIG d   1      10.550   4.772  -1.816  0.00  0.00    -0.048 C 
ATOM     59  H   LIG d   1      11.606   4.522  -1.925  0.00  0.00     0.027 H 
ATOM     60  H   LIG d   1      10.038   3.964  -1.295  0.00  0.00     0.027 H 
BRANCH  58  61
ATOM     61  C   LIG d   1      10.414   6.066  -1.010  0.00  0.00    -0.065 C 
ATOM     62  H   LIG d   1       9.504   6.586  -1.310  0.00  0.00     0.023 H 
ATOM     63  H   LIG d   1      10.364   5.829   0.053  0.00  0.00     0.023 H 
ATOM     64  H   LIG d   1      11.276   6.705  -1.200  0.00  0.00     0.023 H 
ENDBRANCH  58  61
ENDBRANCH   1  58
BRANCH  10  65
ATOM     65  O   LIG d   1       9.062   3.398 -10.399  0.00  0.00    -0.491 OA
BRANCH  65  66
ATOM     66  C   LIG d   1      10.253   2.856 -10.973  0.00  0.00     0.079 C 
ATOM     67  H   LIG d   1      11.118   3.404 -10.600  0.00  0.00     0.066 H 
ATOM     68  H   LIG d   1      10.343   1.805 -10.695  0.00  0.00     0.066 H 
ATOM     69  H   LIG d   1      10.207   2.942 -12.058  0.00  0.00     0.066 H 
ENDBRANCH  65  66
ENDBRANCH  10  65
BRANCH   9  70
ATOM     70  O   LIG d   1       8.484   5.922 -11.351  0.00  0.00    -0.491 OA
BRANCH  70  71
ATOM     71  C   LIG d   1       9.410   6.496 -12.275  0.00  0.00     0.079 C 
ATOM     72  H   LIG d   1      10.127   7.114 -11.735  0.00  0.00     0.066 H 
ATOM     73  H   LIG d   1       9.940   5.700 -12.799  0.00  0.00     0.066 H 
ATOM     74  H   LIG d   1       8.871   7.110 -12.996  0.00  0.00     0.066 H 
ENDBRANCH  70  71
ENDBRANCH   9  70
TORSDOF 11
ENDMDL
MODEL 2
REMARK VINA RESULT:      -6.3      4.213      8.231
REMARK  11 active torsions:
REMARK  status: ('A' for Active; 'I' for Inactive)
REMARK    1  A    between atoms: C_1  and  C_2 
REMARK    2  A    between atoms: C_2  and  C_3 
REMARK    3  A    between atoms: C_11  and  O_37 
REMARK    4  A    between atoms: C_12  and  O_35 
REMARK    5  A    between atoms: C_18  and  C_20 
REMARK    6  A    between atoms: C_20  and  C_21 
REMARK    7  A    between atoms: C_25  and  O_33 
REMARK    8  A    between atoms: C_26  and  O_32 
REMARK    9  A    between atoms: O_33  and  C_34 
REMARK   10  A    between atoms: O_35  and  C_36 
REMARK   11  A    between atoms: O_37  and  C_38 
ROOT
ATOM      1  C   LIG d   1      10.221   4.166  -2.641  0.00  0.00     0.002 C 
ATOM      2  H   LIG d   1       9.207   4.131  -2.242  0.00  0.00     0.035 H 
ATOM      3  C   LIG d   1      11.202   4.499  -1.512  0.00  0.00    -0.028 C 
ATOM      4  N   LIG d   1      10.861   5.807  -0.941  0.00  0.00     0.241 N 
ATOM      5  C   LIG d   1      11.739   6.101   0.199  0.00  0.00    -0.027 C 
ATOM      6  C   LIG d   1      11.168   7.298   0.959  0.00  0.00     0.013 C 
ATOM      7  C   LIG d   1      10.881   8.426  -0.000  0.00  0.00    -0.030 A 
ATOM      8  C   LIG d   1      10.688   9.699   0.514  0.00  0.00    -0.013 A 
ATOM      9  C   LIG d   1      10.420  10.761  -0.332  0.00  0.00     0.162 A 
ATOM     10  C   LIG d   1      10.344  10.547  -1.706  0.00  0.00     0.162 A 
ATOM     11  C   LIG d   1      10.538   9.275  -2.213  0.00  0.00    -0.007 A 
ATOM     12  C   LIG d   1      10.809   8.213  -1.361  0.00  0.00     0.007 A 
ATOM     13  C   LIG d   1      11.025   6.849  -1.957  0.00  0.00     0.006 C 
ATOM     14  H   LIG d   1      12.036   6.793  -2.361  0.00  0.00     0.090 H 
ATOM     15  C   LIG d   1      10.033   6.614  -3.097  0.00  0.00    -0.002 C 
ATOM     16  C   LIG d   1      10.308   5.242  -3.725  0.00  0.00    -0.023 C 
ATOM     17  H   LIG d   1      11.305   5.238  -4.164  0.00  0.00     0.031 H 
ATOM     18  H   LIG d   1      11.136   3.735  -0.737  0.00  0.00     0.082 H 
ATOM     19  H   LIG d   1      12.216   4.527  -1.910  0.00  0.00     0.082 H 
ATOM     20  H   LIG d   1      11.784   5.235   0.859  0.00  0.00     0.082 H 
ATOM     21  H   LIG d   1      12.740   6.340  -0.162  0.00  0.00     0.082 H 
ATOM     22  H   LIG d   1      10.244   7.003   1.457  0.00  0.00     0.036 H 
ATOM     23  H   LIG d   1      11.889   7.631   1.705  0.00  0.00     0.036 H 
ATOM     24  H   LIG d   1      10.747   9.864   1.579  0.00  0.00     0.066 H 
ATOM     25  H   LIG d   1      10.479   9.106  -3.278  0.00  0.00     0.066 H 
ATOM     26  H   LIG d   1       9.016   6.638  -2.707  0.00  0.00     0.033 H 
ATOM     27  H   LIG d   1      10.154   7.391  -3.853  0.00  0.00     0.033 H 
ATOM     28  H   LIG d   1       9.903   5.795  -0.626  0.00  0.00     0.204 HD
ENDROOT
BRANCH  16  29
ATOM     29  C   LIG d   1       9.268   4.960  -4.811  0.00  0.00    -0.002 C 
ATOM     30  H   LIG d   1       8.623   4.142  -4.490  0.00  0.00     0.033 H 
ATOM     31  H   LIG d   1       8.666   5.852  -4.979  0.00  0.00     0.033 H 
BRANCH  29  32
ATOM     32  C   LIG d   1       9.978   4.571  -6.109  0.00  0.00     0.004 C 
ATOM     33  H   LIG d   1      11.045   4.462  -5.915  0.00  0.00     0.090 H 
ATOM     34  N   LIG d   1       9.441   3.295  -6.591  0.00  0.00     0.233 N 
ATOM     35  C   LIG d   1      10.028   2.995  -7.905  0.00  0.00    -0.029 C 
ATOM     36  H   LIG d   1       9.679   2.561  -5.940  0.00  0.00     0.202 HD
ATOM     37  H   LIG d   1       8.438   3.362  -6.676  0.00  0.00     0.202 HD
ATOM     38  C   LIG d   1       9.412   3.938  -8.940  0.00  0.00     0.013 C 
ATOM     39  H   LIG d   1       9.811   1.962  -8.175  0.00  0.00     0.082 H 
ATOM     40  H   LIG d   1      11.107   3.148  -7.868  0.00  0.00     0.082 H 
ATOM     41  C   LIG d   1       9.509   5.362  -8.456  0.00  0.00    -0.030 A 
ATOM     42  H   LIG d   1       8.364   3.676  -9.091  0.00  0.00     0.036 H 
ATOM     43  H   LIG d   1       9.948   3.839  -9.885  0.00  0.00     0.036 H 
ATOM     44  C   LIG d   1       9.768   5.655  -7.133  0.00  0.00     0.007 A 
ATOM     45  C   LIG d   1       9.325   6.387  -9.371  0.00  0.00    -0.013 A 
ATOM     46  C   LIG d   1       9.842   6.978  -6.721  0.00  0.00    -0.008 A 
ATOM     47  C   LIG d   1       9.659   8.005  -7.629  0.00  0.00     0.162 A 
ATOM     48  H   LIG d   1      10.044   7.207  -5.685  0.00  0.00     0.066 H 
ATOM     49  C   LIG d   1       9.399   7.708  -8.964  0.00  0.00     0.159 A 
ATOM     50  H   LIG d   1       9.123   6.154 -10.405  0.00  0.00     0.066 H 
BRANCH  47  51
ATOM     51  O   LIG d   1       9.732   9.300  -7.219  0.00  0.00    -0.491 OA
BRANCH  51  52
ATOM     52  C   LIG d   1       9.542   9.551  -5.825  0.00  0.00     0.079 C 
ATOM     53  H   LIG d   1       9.972  10.518  -5.568  0.00  0.00     0.066 H 
ATOM     54  H   LIG d   1       8.475   9.555  -5.600  0.00  0.00     0.066 H 
ATOM     55  H   LIG d   1      10.032   8.769  -5.246  0.00  0.00     0.066 H 
ENDBRANCH  51  52
ENDBRANCH  47  51
BRANCH  49  56
ATOM     56  O   LIG d   1       9.219   8.711  -9.864  0.00  0.00    -0.503 OA
ATOM     57  H   LIG d   1       8.296   8.979  -9.975  0.00  0.00     0.292 HD
ENDBRANCH  49  56
ENDBRANCH  29  32
ENDBRANCH  16  29
BRANCH   1  58
ATOM     58  C   LIG d   1      10.578   2.805  -3.242  0.00  0.00    -0.048 C 
ATOM     59  H   LIG d   1       9.991   2.643  -4.146  0.00  0.00     0.027 H 
ATOM     60  H   LIG d   1      10.358   2.020  -2.520  0.00  0.00     0.027 H 
BRANCH  58  61
ATOM     61  C   LIG d   1      12.068   2.777  -3.590  0.00  0.00    -0.065 C 
ATOM     62  H   LIG d   1      12.655   2.809  -2.672  0.00  0.00     0.023 H 
ATOM     63  H   LIG d   1      12.296   1.862  -4.136  0.00  0.00     0.023 H 
ATOM     64  H   LIG d   1      12.313   3.640  -4.208  0.00  0.00     0.023 H 
ENDBRANCH  58  61
ENDBRANCH   1  58
BRANCH  10  65
ATOM     65  O   LIG d   1      10.079  11.583  -2.545  0.00  0.00    -0.491 OA
BRANCH  65  66
ATOM     66  C   LIG d   1       8.733  11.717  -3.005  0.00  0.00     0.079 C 
ATOM     67  H   LIG d   1       8.493  10.890  -3.674  0.00  0.00     0.066 H 
ATOM     68  H   LIG d   1       8.055  11.702  -2.151  0.00  0.00     0.066 H 
ATOM     69  H   LIG d   1       8.623  12.661  -3.538  0.00  0.00     0.066 H 
ENDBRANCH  65  66
ENDBRANCH  10  65
BRANCH   9  70
ATOM     70  O   LIG d   1      10.231  12.009   0.176  0.00  0.00    -0.491 OA
BRANCH  70  71
ATOM     71  C   LIG d   1      11.364  12.647   0.767  0.00  0.00     0.079 C 
ATOM     72  H   LIG d   1      11.872  13.254   0.017  0.00  0.00     0.066 H 
ATOM     73  H   LIG d   1      11.035  13.286   1.587  0.00  0.00     0.066 H 
ATOM     74  H   LIG d   1      12.050  11.891   1.148  0.00  0.00     0.066 H 
ENDBRANCH  70  71
ENDBRANCH   9  70
TORSDOF 11
ENDMDL
MODEL 3
REMARK VINA RESULT:      -6.2      5.684      7.125
REMARK  11 active torsions:
REMARK  status: ('A' for Active; 'I' for Inactive)
REMARK    1  A    between atoms: C_1  and  C_2 
REMARK    2  A    between atoms: C_2  and  C_3 
REMARK    3  A    between atoms: C_11  and  O_37 
REMARK    4  A    between atoms: C_12  and  O_35 
REMARK    5  A    between atoms: C_18  and  C_20 
REMARK    6  A    between atoms: C_20  and  C_21 
REMARK    7  A    between atoms: C_25  and  O_33 
REMARK    8  A    between atoms: C_26  and  O_32 
REMARK    9  A    between atoms: O_33  and  C_34 
REMARK   10  A    between atoms: O_35  and  C_36 
REMARK   11  A    between atoms: O_37  and  C_38 
ROOT
ATOM      1  C   LIG d   1       4.326  -1.405  -3.656  0.00  0.00     0.002 C 
ATOM      2  H   LIG d   1       4.002  -2.408  -3.932  0.00  0.00     0.035 H 
ATOM      3  C   LIG d   1       3.443  -0.371  -4.360  0.00  0.00    -0.028 C 
ATOM      4  N   LIG d   1       3.562  -0.536  -5.813  0.00  0.00     0.241 N 
ATOM      5  C   LIG d   1       2.655   0.392  -6.500  0.00  0.00    -0.027 C 
ATOM      6  C   LIG d   1       2.566  -0.013  -7.972  0.00  0.00     0.013 C 
ATOM      7  C   LIG d   1       3.952  -0.174  -8.545  0.00  0.00    -0.030 A 
ATOM      8  C   LIG d   1       4.099  -0.199  -9.923  0.00  0.00    -0.013 A 
ATOM      9  C   LIG d   1       5.354  -0.347 -10.489  0.00  0.00     0.162 A 
ATOM     10  C   LIG d   1       6.471  -0.473  -9.667  0.00  0.00     0.162 A 
ATOM     11  C   LIG d   1       6.317  -0.447  -8.293  0.00  0.00    -0.007 A 
ATOM     12  C   LIG d   1       5.058  -0.296  -7.730  0.00  0.00     0.007 A 
ATOM     13  C   LIG d   1       4.939  -0.262  -6.231  0.00  0.00     0.006 C 
ATOM     14  H   LIG d   1       5.227   0.727  -5.874  0.00  0.00     0.090 H 
ATOM     15  C   LIG d   1       5.880  -1.296  -5.609  0.00  0.00    -0.002 C 
ATOM     16  C   LIG d   1       5.783  -1.204  -4.081  0.00  0.00    -0.023 C 
ATOM     17  H   LIG d   1       6.126  -0.223  -3.754  0.00  0.00     0.031 H 
ATOM     18  H   LIG d   1       2.404  -0.517  -4.062  0.00  0.00     0.082 H 
ATOM     19  H   LIG d   1       3.764   0.632  -4.079  0.00  0.00     0.082 H 
ATOM     20  H   LIG d   1       1.666   0.340  -6.046  0.00  0.00     0.082 H 
ATOM     21  H   LIG d   1       3.042   1.408  -6.423  0.00  0.00     0.082 H 
ATOM     22  H   LIG d   1       2.028  -0.957  -8.056  0.00  0.00     0.036 H 
ATOM     23  H   LIG d   1       2.031   0.757  -8.528  0.00  0.00     0.036 H 
ATOM     24  H   LIG d   1       3.232  -0.101 -10.560  0.00  0.00     0.066 H 
ATOM     25  H   LIG d   1       7.182  -0.546  -7.654  0.00  0.00     0.066 H 
ATOM     26  H   LIG d   1       5.589  -2.295  -5.932  0.00  0.00     0.033 H 
ATOM     27  H   LIG d   1       6.904  -1.092  -5.921  0.00  0.00     0.033 H 
ATOM     28  H   LIG d   1       3.320  -1.483  -6.063  0.00  0.00     0.204 HD
ENDROOT
BRANCH  16  29
ATOM     29  C   LIG d   1       6.655  -2.290  -3.449  0.00  0.00    -0.002 C 
ATOM     30  H   LIG d   1       7.160  -1.884  -2.572  0.00  0.00     0.033 H 
ATOM     31  H   LIG d   1       6.030  -3.131  -3.150  0.00  0.00     0.033 H 
BRANCH  29  32
ATOM     32  C   LIG d   1       7.697  -2.764  -4.464  0.00  0.00     0.004 C 
ATOM     33  H   LIG d   1       7.676  -2.106  -5.333  0.00  0.00     0.090 H 
ATOM     34  N   LIG d   1       9.027  -2.715  -3.851  0.00  0.00     0.233 N 
ATOM     35  C   LIG d   1      10.004  -3.298  -4.782  0.00  0.00    -0.029 C 
ATOM     36  H   LIG d   1       9.275  -1.755  -3.659  0.00  0.00     0.202 HD
ATOM     37  H   LIG d   1       9.022  -3.243  -2.991  0.00  0.00     0.202 HD
ATOM     38  C   LIG d   1       9.798  -4.814  -4.818  0.00  0.00     0.013 C 
ATOM     39  H   LIG d   1      11.015  -3.075  -4.439  0.00  0.00     0.082 H 
ATOM     40  H   LIG d   1       9.853  -2.885  -5.779  0.00  0.00     0.082 H 
ATOM     41  C   LIG d   1       8.344  -5.124  -5.068  0.00  0.00    -0.030 A 
ATOM     42  H   LIG d   1      10.102  -5.244  -3.864  0.00  0.00     0.036 H 
ATOM     43  H   LIG d   1      10.402  -5.243  -5.618  0.00  0.00     0.036 H 
ATOM     44  C   LIG d   1       7.365  -4.169  -4.897  0.00  0.00     0.007 A 
ATOM     45  C   LIG d   1       8.000  -6.406  -5.471  0.00  0.00    -0.013 A 
ATOM     46  C   LIG d   1       6.036  -4.492  -5.128  0.00  0.00    -0.008 A 
ATOM     47  C   LIG d   1       5.687  -5.769  -5.530  0.00  0.00     0.162 A 
ATOM     48  H   LIG d   1       5.269  -3.744  -4.993  0.00  0.00     0.066 H 
ATOM     49  C   LIG d   1       6.675  -6.733  -5.704  0.00  0.00     0.159 A 
ATOM     50  H   LIG d   1       8.769  -7.151  -5.605  0.00  0.00     0.066 H 
BRANCH  47  51
ATOM     51  O   LIG d   1       4.382  -6.081  -5.754  0.00  0.00    -0.491 OA
BRANCH  51  52
ATOM     52  C   LIG d   1       3.707  -5.350  -6.781  0.00  0.00     0.079 C 
ATOM     53  H   LIG d   1       3.529  -6.003  -7.635  0.00  0.00     0.066 H 
ATOM     54  H   LIG d   1       2.754  -4.984  -6.398  0.00  0.00     0.066 H 
ATOM     55  H   LIG d   1       4.323  -4.507  -7.091  0.00  0.00     0.066 H 
ENDBRANCH  51  52
ENDBRANCH  47  51
BRANCH  49  56
ATOM     56  O   LIG d   1       6.342  -7.990  -6.100  0.00  0.00    -0.503 OA
ATOM     57  H   LIG d   1       6.245  -8.087  -7.058  0.00  0.00     0.292 HD
ENDBRANCH  49  56
ENDBRANCH  29  32
ENDBRANCH  16  29
BRANCH   1  58
ATOM     58  C   LIG d   1       4.208  -1.230  -2.141  0.00  0.00    -0.048 C 
ATOM     59  H   LIG d   1       4.936  -1.873  -1.644  0.00  0.00     0.027 H 
ATOM     60  H   LIG d   1       3.203  -1.504  -1.821  0.00  0.00     0.027 H 
BRANCH  58  61
ATOM     61  C   LIG d   1       4.481   0.230  -1.773  0.00  0.00    -0.065 C 
ATOM     62  H   LIG d   1       4.358   0.856  -2.657  0.00  0.00     0.023 H 
ATOM     63  H   LIG d   1       3.780   0.547  -1.001  0.00  0.00     0.023 H 
ATOM     64  H   LIG d   1       5.501   0.325  -1.400  0.00  0.00     0.023 H 
ENDBRANCH  58  61
ENDBRANCH   1  58
BRANCH  10  65
ATOM     65  O   LIG d   1       7.706  -0.622 -10.214  0.00  0.00    -0.491 OA
BRANCH  65  66
ATOM     66  C   LIG d   1       8.547   0.534 -10.240  0.00  0.00     0.079 C 
ATOM     67  H   LIG d   1       8.907   0.699 -11.256  0.00  0.00     0.066 H 
ATOM     68  H   LIG d   1       7.978   1.404  -9.911  0.00  0.00     0.066 H 
ATOM     69  H   LIG d   1       9.395   0.381  -9.574  0.00  0.00     0.066 H 
ENDBRANCH  65  66
ENDBRANCH  10  65
BRANCH   9  70
ATOM     70  O   LIG d   1       5.494  -0.370 -11.842  0.00  0.00    -0.491 OA
BRANCH  70  71
ATOM     71  C   LIG d   1       4.295  -0.375 -12.619  0.00  0.00     0.079 C 
ATOM     72  H   LIG d   1       4.548  -0.440 -13.677  0.00  0.00     0.066 H 
ATOM     73  H   LIG d   1       3.685  -1.235 -12.339  0.00  0.00     0.066 H 
ATOM     74  H   LIG d   1       3.738   0.542 -12.433  0.00  0.00     0.066 H 
ENDBRANCH  70  71
ENDBRANCH   9  70
TORSDOF 11
ENDMDL
MODEL 4
REMARK VINA RESULT:      -6.2      3.454      5.965
REMARK  11 active torsions:
REMARK  status: ('A' for Active; 'I' for Inactive)
REMARK    1  A    between atoms: C_1  and  C_2 
REMARK    2  A    between atoms: C_2  and  C_3 
REMARK    3  A    between atoms: C_11  and  O_37 
REMARK    4  A    between atoms: C_12  and  O_35 
REMARK    5  A    between atoms: C_18  and  C_20 
REMARK    6  A    between atoms: C_20  and  C_21 
REMARK    7  A    between atoms: C_25  and  O_33 
REMARK    8  A    between atoms: C_26  and  O_32 
REMARK    9  A    between atoms: O_33  and  C_34 
REMARK   10  A    between atoms: O_35  and  C_36 
REMARK   11  A    between atoms: O_37  and  C_38 
ROOT
ATOM      1  C   LIG d   1       8.686   1.569  -5.916  0.00  0.00     0.002 C 
ATOM      2  H   LIG d   1       9.667   1.104  -5.820  0.00  0.00     0.035 H 
ATOM      3  C   LIG d   1       8.824   2.906  -6.650  0.00  0.00    -0.028 C 
ATOM      4  N   LIG d   1       9.707   3.793  -5.886  0.00  0.00     0.241 N 
ATOM      5  C   LIG d   1       9.918   5.047  -6.621  0.00  0.00    -0.027 C 
ATOM      6  C   LIG d   1      11.072   5.808  -5.967  0.00  0.00     0.013 C 
ATOM      7  C   LIG d   1      10.842   5.911  -4.479  0.00  0.00    -0.030 A 
ATOM      8  C   LIG d   1      11.576   6.840  -3.759  0.00  0.00    -0.013 A 
ATOM      9  C   LIG d   1      11.397   6.964  -2.392  0.00  0.00     0.162 A 
ATOM     10  C   LIG d   1      10.475   6.149  -1.741  0.00  0.00     0.162 A 
ATOM     11  C   LIG d   1       9.746   5.224  -2.465  0.00  0.00    -0.007 A 
ATOM     12  C   LIG d   1       9.926   5.105  -3.836  0.00  0.00     0.007 A 
ATOM     13  C   LIG d   1       9.103   4.093  -4.586  0.00  0.00     0.006 C 
ATOM     14  H   LIG d   1       8.103   4.495  -4.744  0.00  0.00     0.090 H 
ATOM     15  C   LIG d   1       8.985   2.806  -3.766  0.00  0.00    -0.002 C 
ATOM     16  C   LIG d   1       8.097   1.812  -4.524  0.00  0.00    -0.023 C 
ATOM     17  H   LIG d   1       7.092   2.222  -4.620  0.00  0.00     0.031 H 
ATOM     18  H   LIG d   1       9.249   2.734  -7.640  0.00  0.00     0.082 H 
ATOM     19  H   LIG d   1       7.842   3.367  -6.752  0.00  0.00     0.082 H 
ATOM     20  H   LIG d   1      10.167   4.825  -7.658  0.00  0.00     0.082 H 
ATOM     21  H   LIG d   1       9.012   5.652  -6.581  0.00  0.00     0.082 H 
ATOM     22  H   LIG d   1      12.006   5.278  -6.153  0.00  0.00     0.036 H 
ATOM     23  H   LIG d   1      11.134   6.809  -6.393  0.00  0.00     0.036 H 
ATOM     24  H   LIG d   1      12.290   7.472  -4.265  0.00  0.00     0.066 H 
ATOM     25  H   LIG d   1       9.031   4.590  -1.961  0.00  0.00     0.066 H 
ATOM     26  H   LIG d   1       9.974   2.373  -3.621  0.00  0.00     0.033 H 
ATOM     27  H   LIG d   1       8.537   3.030  -2.798  0.00  0.00     0.033 H 
ATOM     28  H   LIG d   1      10.597   3.339  -5.744  0.00  0.00     0.204 HD
ENDROOT
BRANCH  16  29
ATOM     29  C   LIG d   1       8.040   0.490  -3.755  0.00  0.00    -0.002 C 
ATOM     30  H   LIG d   1       8.196  -0.338  -4.447  0.00  0.00     0.033 H 
ATOM     31  H   LIG d   1       8.818   0.479  -2.993  0.00  0.00     0.033 H 
BRANCH  29  32
ATOM     32  C   LIG d   1       6.670   0.347  -3.089  0.00  0.00     0.004 C 
ATOM     33  H   LIG d   1       6.807   0.132  -2.029  0.00  0.00     0.090 H 
ATOM     34  N   LIG d   1       5.926   1.602  -3.236  0.00  0.00     0.233 N 
ATOM     35  C   LIG d   1       4.564   1.415  -2.716  0.00  0.00    -0.029 C 
ATOM     36  H   LIG d   1       6.390   2.332  -2.715  0.00  0.00     0.202 HD
ATOM     37  H   LIG d   1       5.884   1.857  -4.212  0.00  0.00     0.202 HD
ATOM     38  C   LIG d   1       3.783   0.540  -3.699  0.00  0.00     0.013 C 
ATOM     39  H   LIG d   1       4.074   2.383  -2.618  0.00  0.00     0.082 H 
ATOM     40  H   LIG d   1       4.607   0.923  -1.744  0.00  0.00     0.082 H 
ATOM     41  C   LIG d   1       4.574  -0.705  -4.013  0.00  0.00    -0.030 A 
ATOM     42  H   LIG d   1       3.605   1.099  -4.618  0.00  0.00     0.036 H 
ATOM     43  H   LIG d   1       2.828   0.260  -3.255  0.00  0.00     0.036 H 
ATOM     44  C   LIG d   1       5.921  -0.791  -3.733  0.00  0.00     0.007 A 
ATOM     45  C   LIG d   1       3.918  -1.774  -4.604  0.00  0.00    -0.013 A 
ATOM     46  C   LIG d   1       6.618  -1.949  -4.044  0.00  0.00    -0.008 A 
ATOM     47  C   LIG d   1       5.969  -3.019  -4.633  0.00  0.00     0.162 A 
ATOM     48  H   LIG d   1       7.674  -2.016  -3.826  0.00  0.00     0.066 H 
ATOM     49  C   LIG d   1       4.609  -2.932  -4.915  0.00  0.00     0.159 A 
ATOM     50  H   LIG d   1       2.863  -1.704  -4.821  0.00  0.00     0.066 H 
BRANCH  47  51
ATOM     51  O   LIG d   1       6.658  -4.152  -4.936  0.00  0.00    -0.491 OA
BRANCH  51  52
ATOM     52  C   LIG d   1       8.081  -4.044  -5.019  0.00  0.00     0.079 C 
ATOM     53  H   LIG d   1       8.353  -3.024  -5.291  0.00  0.00     0.066 H 
ATOM     54  H   LIG d   1       8.520  -4.291  -4.053  0.00  0.00     0.066 H 
ATOM     55  H   LIG d   1       8.454  -4.733  -5.776  0.00  0.00     0.066 H 
ENDBRANCH  51  52
ENDBRANCH  47  51
BRANCH  49  56
ATOM     56  O   LIG d   1       3.963  -3.979  -5.492  0.00  0.00    -0.503 OA
ATOM     57  H   LIG d   1       3.664  -4.652  -4.864  0.00  0.00     0.292 HD
ENDBRANCH  49  56
ENDBRANCH  29  32
ENDBRANCH  16  29
BRANCH   1  58
ATOM     58  C   LIG d   1       7.759   0.644  -6.708  0.00  0.00    -0.048 C 
ATOM     59  H   LIG d   1       7.369   1.178  -7.575  0.00  0.00     0.027 H 
ATOM     60  H   LIG d   1       6.932   0.329  -6.072  0.00  0.00     0.027 H 
BRANCH  58  61
ATOM     61  C   LIG d   1       8.542  -0.584  -7.175  0.00  0.00    -0.065 C 
ATOM     62  H   LIG d   1       9.391  -0.265  -7.781  0.00  0.00     0.023 H 
ATOM     63  H   LIG d   1       8.902  -1.138  -6.307  0.00  0.00     0.023 H 
ATOM     64  H   LIG d   1       7.892  -1.224  -7.770  0.00  0.00     0.023 H 
ENDBRANCH  58  61
ENDBRANCH   1  58
BRANCH  10  65
ATOM     65  O   LIG d   1      10.294   6.261  -0.398  0.00  0.00    -0.491 OA
BRANCH  65  66
ATOM     66  C   LIG d   1      11.198   5.540   0.441  0.00  0.00     0.079 C 
ATOM     67  H   LIG d   1      12.184   5.515  -0.024  0.00  0.00     0.066 H 
ATOM     68  H   LIG d   1      11.267   6.036   1.410  0.00  0.00     0.066 H 
ATOM     69  H   LIG d   1      10.834   4.523   0.579  0.00  0.00     0.066 H 
ENDBRANCH  65  66
ENDBRANCH  10  65
BRANCH   9  70
ATOM     70  O   LIG d   1      12.119   7.878  -1.689  0.00  0.00    -0.491 OA
BRANCH  70  71
ATOM     71  C   LIG d   1      11.796   9.255  -1.891  0.00  0.00     0.079 C 
ATOM     72  H   LIG d   1      10.802   9.458  -1.492  0.00  0.00     0.066 H 
ATOM     73  H   LIG d   1      12.528   9.878  -1.377  0.00  0.00     0.066 H 
ATOM     74  H   LIG d   1      11.813   9.479  -2.958  0.00  0.00     0.066 H 
ENDBRANCH  70  71
ENDBRANCH   9  70
TORSDOF 11
ENDMDL
MODEL 5
REMARK VINA RESULT:      -6.1      4.412      6.149
REMARK  11 active torsions:
REMARK  status: ('A' for Active; 'I' for Inactive)
REMARK    1  A    between atoms: C_1  and  C_2 
REMARK    2  A    between atoms: C_2  and  C_3 
REMARK    3  A    between atoms: C_11  and  O_37 
REMARK    4  A    between atoms: C_12  and  O_35 
REMARK    5  A    between atoms: C_18  and  C_20 
REMARK    6  A    between atoms: C_20  and  C_21 
REMARK    7  A    between atoms: C_25  and  O_33 
REMARK    8  A    between atoms: C_26  and  O_32 
REMARK    9  A    between atoms: O_33  and  C_34 
REMARK   10  A    between atoms: O_35  and  C_36 
REMARK   11  A    between atoms: O_37  and  C_38 
ROOT
ATOM      1  C   LIG d   1       5.683  -0.473  -3.903  0.00  0.00     0.002 C 
ATOM      2  H   LIG d   1       4.921   0.305  -3.959  0.00  0.00     0.035 H 
ATOM      3  C   LIG d   1       7.000   0.137  -3.414  0.00  0.00    -0.028 C 
ATOM      4  N   LIG d   1       7.435   1.175  -4.356  0.00  0.00     0.241 N 
ATOM      5  C   LIG d   1       8.651   1.829  -3.855  0.00  0.00    -0.027 C 
ATOM      6  C   LIG d   1       8.899   3.094  -4.677  0.00  0.00     0.013 C 
ATOM      7  C   LIG d   1       8.846   2.770  -6.149  0.00  0.00    -0.030 A 
ATOM      8  C   LIG d   1       9.375   3.683  -7.048  0.00  0.00    -0.013 A 
ATOM      9  C   LIG d   1       9.344   3.423  -8.407  0.00  0.00     0.162 A 
ATOM     10  C   LIG d   1       8.777   2.239  -8.871  0.00  0.00     0.162 A 
ATOM     11  C   LIG d   1       8.252   1.332  -7.969  0.00  0.00    -0.007 A 
ATOM     12  C   LIG d   1       8.287   1.594  -6.607  0.00  0.00     0.007 A 
ATOM     13  C   LIG d   1       7.714   0.574  -5.661  0.00  0.00     0.006 C 
ATOM     14  H   LIG d   1       8.433  -0.235  -5.533  0.00  0.00     0.090 H 
ATOM     15  C   LIG d   1       6.425  -0.010  -6.243  0.00  0.00    -0.002 C 
ATOM     16  C   LIG d   1       5.890  -1.086  -5.290  0.00  0.00    -0.023 C 
ATOM     17  H   LIG d   1       6.609  -1.902  -5.224  0.00  0.00     0.031 H 
ATOM     18  H   LIG d   1       6.851   0.579  -2.429  0.00  0.00     0.082 H 
ATOM     19  H   LIG d   1       7.760  -0.641  -3.353  0.00  0.00     0.082 H 
ATOM     20  H   LIG d   1       8.519   2.094  -2.806  0.00  0.00     0.082 H 
ATOM     21  H   LIG d   1       9.500   1.153  -3.960  0.00  0.00     0.082 H 
ATOM     22  H   LIG d   1       8.133   3.834  -4.442  0.00  0.00     0.036 H 
ATOM     23  H   LIG d   1       9.880   3.500  -4.431  0.00  0.00     0.036 H 
ATOM     24  H   LIG d   1       9.814   4.601  -6.687  0.00  0.00     0.066 H 
ATOM     25  H   LIG d   1       7.811   0.413  -8.327  0.00  0.00     0.066 H 
ATOM     26  H   LIG d   1       5.683   0.780  -6.353  0.00  0.00     0.033 H 
ATOM     27  H   LIG d   1       6.632  -0.456  -7.216  0.00  0.00     0.033 H 
ATOM     28  H   LIG d   1       6.705   1.865  -4.454  0.00  0.00     0.204 HD
ENDROOT
BRANCH  16  29
ATOM     29  C   LIG d   1       4.556  -1.618  -5.818  0.00  0.00    -0.002 C 
ATOM     30  H   LIG d   1       4.109  -2.276  -5.074  0.00  0.00     0.033 H 
ATOM     31  H   LIG d   1       3.885  -0.784  -6.017  0.00  0.00     0.033 H 
BRANCH  29  32
ATOM     32  C   LIG d   1       4.796  -2.399  -7.112  0.00  0.00     0.004 C 
ATOM     33  H   LIG d   1       5.781  -2.150  -7.506  0.00  0.00     0.090 H 
ATOM     34  N   LIG d   1       4.738  -3.836  -6.827  0.00  0.00     0.233 N 
ATOM     35  C   LIG d   1       4.832  -4.579  -8.093  0.00  0.00    -0.029 C 
ATOM     36  H   LIG d   1       5.509  -4.092  -6.228  0.00  0.00     0.202 HD
ATOM     37  H   LIG d   1       3.865  -4.055  -6.370  0.00  0.00     0.202 HD
ATOM     38  C   LIG d   1       3.513  -4.417  -8.851  0.00  0.00     0.013 C 
ATOM     39  H   LIG d   1       5.008  -5.634  -7.885  0.00  0.00     0.082 H 
ATOM     40  H   LIG d   1       5.649  -4.179  -8.692  0.00  0.00     0.082 H 
ATOM     41  C   LIG d   1       3.150  -2.957  -8.939  0.00  0.00    -0.030 A 
ATOM     42  H   LIG d   1       2.724  -4.956  -8.325  0.00  0.00     0.036 H 
ATOM     43  H   LIG d   1       3.621  -4.825  -9.856  0.00  0.00     0.036 H 
ATOM     44  C   LIG d   1       3.746  -2.018  -8.124  0.00  0.00     0.007 A 
ATOM     45  C   LIG d   1       2.191  -2.567  -9.861  0.00  0.00    -0.013 A 
ATOM     46  C   LIG d   1       3.381  -0.683  -8.227  0.00  0.00    -0.008 A 
ATOM     47  C   LIG d   1       2.425  -0.288  -9.144  0.00  0.00     0.162 A 
ATOM     48  H   LIG d   1       3.847   0.052  -7.587  0.00  0.00     0.066 H 
ATOM     49  C   LIG d   1       1.825  -1.236  -9.967  0.00  0.00     0.159 A 
ATOM     50  H   LIG d   1       1.727  -3.304 -10.498  0.00  0.00     0.066 H 
BRANCH  47  51
ATOM     51  O   LIG d   1       2.071   1.022  -9.240  0.00  0.00    -0.491 OA
BRANCH  51  52
ATOM     52  C   LIG d   1       2.907   1.970  -8.575  0.00  0.00     0.079 C 
ATOM     53  H   LIG d   1       3.953   1.743  -8.784  0.00  0.00     0.066 H 
ATOM     54  H   LIG d   1       2.675   2.973  -8.934  0.00  0.00     0.066 H 
ATOM     55  H   LIG d   1       2.732   1.918  -7.501  0.00  0.00     0.066 H 
ENDBRANCH  51  52
ENDBRANCH  47  51
BRANCH  49  56
ATOM     56  O   LIG d   1       0.884  -0.857 -10.873  0.00  0.00    -0.503 OA
ATOM     57  H   LIG d   1       0.684   0.089 -10.859  0.00  0.00     0.292 HD
ENDBRANCH  49  56
ENDBRANCH  29  32
ENDBRANCH  16  29
BRANCH   1  58
ATOM     58  C   LIG d   1       5.230  -1.560  -2.927  0.00  0.00    -0.048 C 
ATOM     59  H   LIG d   1       6.103  -1.994  -2.438  0.00  0.00     0.027 H 
ATOM     60  H   LIG d   1       4.695  -2.337  -3.472  0.00  0.00     0.027 H 
BRANCH  58  61
ATOM     61  C   LIG d   1       4.306  -0.947  -1.873  0.00  0.00    -0.065 C 
ATOM     62  H   LIG d   1       3.283  -0.935  -2.250  0.00  0.00     0.023 H 
ATOM     63  H   LIG d   1       4.351  -1.541  -0.960  0.00  0.00     0.023 H 
ATOM     64  H   LIG d   1       4.626   0.073  -1.659  0.00  0.00     0.023 H 
ENDBRANCH  58  61
ENDBRANCH   1  58
BRANCH  10  65
ATOM     65  O   LIG d   1       8.740   1.977 -10.204  0.00  0.00    -0.491 OA
BRANCH  65  66
ATOM     66  C   LIG d   1       9.196   0.689 -10.625  0.00  0.00     0.079 C 
ATOM     67  H   LIG d   1       9.903   0.297  -9.894  0.00  0.00     0.066 H 
ATOM     68  H   LIG d   1       8.345   0.012 -10.705  0.00  0.00     0.066 H 
ATOM     69  H   LIG d   1       9.684   0.775 -11.595  0.00  0.00     0.066 H 
ENDBRANCH  65  66
ENDBRANCH  10  65
BRANCH   9  70
ATOM     70  O   LIG d   1       9.865   4.322  -9.286  0.00  0.00    -0.491 OA
BRANCH  70  71
ATOM     71  C   LIG d   1      11.264   4.593  -9.185  0.00  0.00     0.079 C 
ATOM     72  H   LIG d   1      11.643   4.201  -8.241  0.00  0.00     0.066 H 
ATOM     73  H   LIG d   1      11.787   4.115 -10.013  0.00  0.00     0.066 H 
ATOM     74  H   LIG d   1      11.429   5.670  -9.223  0.00  0.00     0.066 H 
ENDBRANCH  70  71
ENDBRANCH   9  70
TORSDOF 11
ENDMDL
MODEL 6
REMARK VINA RESULT:      -6.1      4.125      8.127
REMARK  11 active torsions:
REMARK  status: ('A' for Active; 'I' for Inactive)
REMARK    1  A    between atoms: C_1  and  C_2 
REMARK    2  A    between atoms: C_2  and  C_3 
REMARK    3  A    between atoms: C_11  and  O_37 
REMARK    4  A    between atoms: C_12  and  O_35 
REMARK    5  A    between atoms: C_18  and  C_20 
REMARK    6  A    between atoms: C_20  and  C_21 
REMARK    7  A    between atoms: C_25  and  O_33 
REMARK    8  A    between atoms: C_26  and  O_32 
REMARK    9  A    between atoms: O_33  and  C_34 
REMARK   10  A    between atoms: O_35  and  C_36 
REMARK   11  A    between atoms: O_37  and  C_38 
ROOT
ATOM      1  C   LIG d   1      12.007   4.298  -3.563  0.00  0.00     0.002 C 
ATOM      2  H   LIG d   1      11.767   4.791  -4.505  0.00  0.00     0.035 H 
ATOM      3  C   LIG d   1      12.299   2.817  -3.822  0.00  0.00    -0.028 C 
ATOM      4  N   LIG d   1      11.115   2.183  -4.413  0.00  0.00     0.241 N 
ATOM      5  C   LIG d   1      11.409   0.783  -4.747  0.00  0.00    -0.027 C 
ATOM      6  C   LIG d   1      10.285   0.247  -5.634  0.00  0.00     0.013 C 
ATOM      7  C   LIG d   1       8.947   0.539  -5.003  0.00  0.00    -0.030 A 
ATOM      8  C   LIG d   1       7.834  -0.150  -5.459  0.00  0.00    -0.013 A 
ATOM      9  C   LIG d   1       6.588   0.090  -4.907  0.00  0.00     0.162 A 
ATOM     10  C   LIG d   1       6.455   1.031  -3.889  0.00  0.00     0.162 A 
ATOM     11  C   LIG d   1       7.568   1.715  -3.438  0.00  0.00    -0.007 A 
ATOM     12  C   LIG d   1       8.817   1.468  -3.992  0.00  0.00     0.007 A 
ATOM     13  C   LIG d   1      10.002   2.227  -3.462  0.00  0.00     0.006 C 
ATOM     14  H   LIG d   1      10.321   1.777  -2.522  0.00  0.00     0.090 H 
ATOM     15  C   LIG d   1       9.614   3.683  -3.195  0.00  0.00    -0.002 C 
ATOM     16  C   LIG d   1      10.820   4.422  -2.604  0.00  0.00    -0.023 C 
ATOM     17  H   LIG d   1      11.081   3.980  -1.643  0.00  0.00     0.031 H 
ATOM     18  H   LIG d   1      13.140   2.727  -4.509  0.00  0.00     0.082 H 
ATOM     19  H   LIG d   1      12.545   2.325  -2.881  0.00  0.00     0.082 H 
ATOM     20  H   LIG d   1      12.357   0.726  -5.281  0.00  0.00     0.082 H 
ATOM     21  H   LIG d   1      11.466   0.193  -3.832  0.00  0.00     0.082 H 
ATOM     22  H   LIG d   1      10.336   0.727  -6.612  0.00  0.00     0.036 H 
ATOM     23  H   LIG d   1      10.401  -0.830  -5.755  0.00  0.00     0.036 H 
ATOM     24  H   LIG d   1       7.940  -0.879  -6.249  0.00  0.00     0.066 H 
ATOM     25  H   LIG d   1       7.467   2.445  -2.648  0.00  0.00     0.066 H 
ATOM     26  H   LIG d   1       9.318   4.159  -4.130  0.00  0.00     0.033 H 
ATOM     27  H   LIG d   1       8.784   3.716  -2.488  0.00  0.00     0.033 H 
ATOM     28  H   LIG d   1      10.856   2.676  -5.254  0.00  0.00     0.204 HD
ENDROOT
BRANCH  16  29
ATOM     29  C   LIG d   1      10.471   5.899  -2.412  0.00  0.00    -0.002 C 
ATOM     30  H   LIG d   1      11.307   6.515  -2.742  0.00  0.00     0.033 H 
ATOM     31  H   LIG d   1       9.586   6.143  -3.000  0.00  0.00     0.033 H 
BRANCH  29  32
ATOM     32  C   LIG d   1      10.190   6.168  -0.932  0.00  0.00     0.004 C 
ATOM     33  H   LIG d   1       9.223   5.743  -0.667  0.00  0.00     0.090 H 
ATOM     34  N   LIG d   1      11.235   5.539  -0.119  0.00  0.00     0.233 N 
ATOM     35  C   LIG d   1      11.038   5.915   1.288  0.00  0.00    -0.029 C 
ATOM     36  H   LIG d   1      11.176   4.536  -0.212  0.00  0.00     0.202 HD
ATOM     37  H   LIG d   1      12.142   5.856  -0.430  0.00  0.00     0.202 HD
ATOM     38  C   LIG d   1      11.433   7.383   1.460  0.00  0.00     0.013 C 
ATOM     39  H   LIG d   1      11.664   5.290   1.925  0.00  0.00     0.082 H 
ATOM     40  H   LIG d   1       9.990   5.784   1.559  0.00  0.00     0.082 H 
ATOM     41  C   LIG d   1      10.734   8.224   0.422  0.00  0.00    -0.030 A 
ATOM     42  H   LIG d   1      12.512   7.484   1.343  0.00  0.00     0.036 H 
ATOM     43  H   LIG d   1      11.143   7.722   2.455  0.00  0.00     0.036 H 
ATOM     44  C   LIG d   1      10.160   7.656  -0.696  0.00  0.00     0.007 A 
ATOM     45  C   LIG d   1      10.683   9.597   0.606  0.00  0.00    -0.013 A 
ATOM     46  C   LIG d   1       9.533   8.462  -1.635  0.00  0.00    -0.008 A 
ATOM     47  C   LIG d   1       9.479   9.832  -1.456  0.00  0.00     0.162 A 
ATOM     48  H   LIG d   1       9.085   8.017  -2.511  0.00  0.00     0.066 H 
ATOM     49  C   LIG d   1      10.058  10.405  -0.327  0.00  0.00     0.159 A 
ATOM     50  H   LIG d   1      11.133  10.039   1.483  0.00  0.00     0.066 H 
BRANCH  47  51
ATOM     51  O   LIG d   1       8.863  10.618  -2.381  0.00  0.00    -0.491 OA
BRANCH  51  52
ATOM     52  C   LIG d   1       9.568  10.857  -3.601  0.00  0.00     0.079 C 
ATOM     53  H   LIG d   1       9.790  11.920  -3.691  0.00  0.00     0.066 H 
ATOM     54  H   LIG d   1      10.499  10.290  -3.599  0.00  0.00     0.066 H 
ATOM     55  H   LIG d   1       8.952  10.542  -4.443  0.00  0.00     0.066 H 
ENDBRANCH  51  52
ENDBRANCH  47  51
BRANCH  49  56
ATOM     56  O   LIG d   1      10.008  11.751  -0.142  0.00  0.00    -0.503 OA
ATOM     57  H   LIG d   1       9.261  12.181  -0.582  0.00  0.00     0.292 HD
ENDBRANCH  49  56
ENDBRANCH  29  32
ENDBRANCH  16  29
BRANCH   1  58
ATOM     58  C   LIG d   1      13.238   4.959  -2.940  0.00  0.00    -0.048 C 
ATOM     59  H   LIG d   1      13.943   4.190  -2.626  0.00  0.00     0.027 H 
ATOM     60  H   LIG d   1      12.934   5.549  -2.075  0.00  0.00     0.027 H 
BRANCH  58  61
ATOM     61  C   LIG d   1      13.903   5.872  -3.972  0.00  0.00    -0.065 C 
ATOM     62  H   LIG d   1      14.153   5.293  -4.861  0.00  0.00     0.023 H 
ATOM     63  H   LIG d   1      13.218   6.676  -4.242  0.00  0.00     0.023 H 
ATOM     64  H   LIG d   1      14.813   6.296  -3.548  0.00  0.00     0.023 H 
ENDBRANCH  58  61
ENDBRANCH   1  58
BRANCH  10  65
ATOM     65  O   LIG d   1       5.234   1.275  -3.343  0.00  0.00    -0.491 OA
BRANCH  65  66
ATOM     66  C   LIG d   1       4.950   0.657  -2.086  0.00  0.00     0.079 C 
ATOM     67  H   LIG d   1       3.943   0.240  -2.105  0.00  0.00     0.066 H 
ATOM     68  H   LIG d   1       5.670  -0.142  -1.905  0.00  0.00     0.066 H 
ATOM     69  H   LIG d   1       5.023   1.398  -1.291  0.00  0.00     0.066 H 
ENDBRANCH  65  66
ENDBRANCH  10  65
BRANCH   9  70
ATOM     70  O   LIG d   1       5.499  -0.589  -5.358  0.00  0.00    -0.491 OA
BRANCH  70  71
ATOM     71  C   LIG d   1       5.187  -0.466  -6.747  0.00  0.00     0.079 C 
ATOM     72  H   LIG d   1       6.100  -0.267  -7.309  0.00  0.00     0.066 H 
ATOM     73  H   LIG d   1       4.739  -1.394  -7.102  0.00  0.00     0.066 H 
ATOM     74  H   LIG d   1       4.485   0.355  -6.891  0.00  0.00     0.066 H 
ENDBRANCH  70  71
ENDBRANCH   9  70
TORSDOF 11
ENDMDL
MODEL 7
REMARK VINA RESULT:      -6.0      5.371      7.272
REMARK  11 active torsions:
REMARK  status: ('A' for Active; 'I' for Inactive)
REMARK    1  A    between atoms: C_1  and  C_2 
REMARK    2  A    between atoms: C_2  and  C_3 
REMARK    3  A    between atoms: C_11  and  O_37 
REMARK    4  A    between atoms: C_12  and  O_35 
REMARK    5  A    between atoms: C_18  and  C_20 
REMARK    6  A    between atoms: C_20  and  C_21 
REMARK    7  A    between atoms: C_25  and  O_33 
REMARK    8  A    between atoms: C_26  and  O_32 
REMARK    9  A    between atoms: O_33  and  C_34 
REMARK   10  A    between atoms: O_35  and  C_36 
REMARK   11  A    between atoms: O_37  and  C_38 
ROOT
ATOM      1  C   LIG d   1       4.760  -1.666  -3.791  0.00  0.00     0.002 C 
ATOM      2  H   LIG d   1       4.473  -2.676  -4.085  0.00  0.00     0.035 H 
ATOM      3  C   LIG d   1       3.767  -0.661  -4.381  0.00  0.00    -0.028 C 
ATOM      4  N   LIG d   1       3.784  -0.763  -5.845  0.00  0.00     0.241 N 
ATOM      5  C   LIG d   1       2.774   0.134  -6.423  0.00  0.00    -0.027 C 
ATOM      6  C   LIG d   1       2.596  -0.219  -7.900  0.00  0.00     0.013 C 
ATOM      7  C   LIG d   1       3.940  -0.274  -8.581  0.00  0.00    -0.030 A 
ATOM      8  C   LIG d   1       3.982  -0.236  -9.966  0.00  0.00    -0.013 A 
ATOM      9  C   LIG d   1       5.196  -0.287 -10.630  0.00  0.00     0.162 A 
ATOM     10  C   LIG d   1       6.378  -0.377  -9.900  0.00  0.00     0.162 A 
ATOM     11  C   LIG d   1       6.329  -0.413  -8.518  0.00  0.00    -0.007 A 
ATOM     12  C   LIG d   1       5.111  -0.359  -7.857  0.00  0.00     0.007 A 
ATOM     13  C   LIG d   1       5.106  -0.390  -6.353  0.00  0.00     0.006 C 
ATOM     14  H   LIG d   1       5.364   0.600  -5.976  0.00  0.00     0.090 H 
ATOM     15  C   LIG d   1       6.149  -1.388  -5.847  0.00  0.00    -0.002 C 
ATOM     16  C   LIG d   1       6.165  -1.362  -4.315  0.00  0.00    -0.023 C 
ATOM     17  H   LIG d   1       6.476  -0.375  -3.972  0.00  0.00     0.031 H 
ATOM     18  H   LIG d   1       2.765  -0.881  -4.013  0.00  0.00     0.082 H 
ATOM     19  H   LIG d   1       4.051   0.348  -4.083  0.00  0.00     0.082 H 
ATOM     20  H   LIG d   1       1.827   0.005  -5.898  0.00  0.00     0.082 H 
ATOM     21  H   LIG d   1       3.108   1.168  -6.331  0.00  0.00     0.082 H 
ATOM     22  H   LIG d   1       2.107  -1.190  -7.983  0.00  0.00     0.036 H 
ATOM     23  H   LIG d   1       1.976   0.538  -8.380  0.00  0.00     0.036 H 
ATOM     24  H   LIG d   1       3.064  -0.167 -10.531  0.00  0.00     0.066 H 
ATOM     25  H   LIG d   1       7.245  -0.483  -7.951  0.00  0.00     0.066 H 
ATOM     26  H   LIG d   1       5.893  -2.390  -6.191  0.00  0.00     0.033 H 
ATOM     27  H   LIG d   1       7.133  -1.112  -6.227  0.00  0.00     0.033 H 
ATOM     28  H   LIG d   1       3.577  -1.712  -6.117  0.00  0.00     0.204 HD
ENDROOT
BRANCH  16  29
ATOM     29  C   LIG d   1       7.144  -2.417  -3.796  0.00  0.00    -0.002 C 
ATOM     30  H   LIG d   1       7.418  -2.182  -2.767  0.00  0.00     0.033 H 
ATOM     31  H   LIG d   1       6.674  -3.398  -3.832  0.00  0.00     0.033 H 
BRANCH  29  32
ATOM     32  C   LIG d   1       8.400  -2.420  -4.670  0.00  0.00     0.004 C 
ATOM     33  H   LIG d   1       8.129  -2.701  -5.687  0.00  0.00     0.090 H 
ATOM     34  N   LIG d   1       8.987  -1.077  -4.679  0.00  0.00     0.233 N 
ATOM     35  C   LIG d   1      10.265  -1.118  -5.405  0.00  0.00    -0.029 C 
ATOM     36  H   LIG d   1       8.357  -0.437  -5.139  0.00  0.00     0.202 HD
ATOM     37  H   LIG d   1       9.147  -0.772  -3.730  0.00  0.00     0.202 HD
ATOM     38  C   LIG d   1      11.296  -1.840  -4.536  0.00  0.00     0.013 C 
ATOM     39  H   LIG d   1      10.603  -0.102  -5.608  0.00  0.00     0.082 H 
ATOM     40  H   LIG d   1      10.135  -1.658  -6.344  0.00  0.00     0.082 H 
ATOM     41  C   LIG d   1      10.734  -3.157  -4.065  0.00  0.00    -0.030 A 
ATOM     42  H   LIG d   1      11.541  -1.219  -3.674  0.00  0.00     0.036 H 
ATOM     43  H   LIG d   1      12.199  -2.020  -5.120  0.00  0.00     0.036 H 
ATOM     44  C   LIG d   1       9.383  -3.423  -4.122  0.00  0.00     0.007 A 
ATOM     45  C   LIG d   1      11.608  -4.106  -3.557  0.00  0.00    -0.013 A 
ATOM     46  C   LIG d   1       8.900  -4.643  -3.671  0.00  0.00    -0.008 A 
ATOM     47  C   LIG d   1       9.766  -5.594  -3.164  0.00  0.00     0.162 A 
ATOM     48  H   LIG d   1       7.841  -4.851  -3.715  0.00  0.00     0.066 H 
ATOM     49  C   LIG d   1      11.130  -5.325  -3.107  0.00  0.00     0.159 A 
ATOM     50  H   LIG d   1      12.666  -3.895  -3.514  0.00  0.00     0.066 H 
BRANCH  47  51
ATOM     51  O   LIG d   1       9.287  -6.788  -2.722  0.00  0.00    -0.491 OA
BRANCH  51  52
ATOM     52  C   LIG d   1       8.791  -7.694  -3.711  0.00  0.00     0.079 C 
ATOM     53  H   LIG d   1       7.896  -7.275  -4.170  0.00  0.00     0.066 H 
ATOM     54  H   LIG d   1       9.553  -7.849  -4.475  0.00  0.00     0.066 H 
ATOM     55  H   LIG d   1       8.547  -8.646  -3.241  0.00  0.00     0.066 H 
ENDBRANCH  51  52
ENDBRANCH  47  51
BRANCH  49  56
ATOM     56  O   LIG d   1      11.990  -6.254  -2.612  0.00  0.00    -0.503 OA
ATOM     57  H   LIG d   1      12.364  -6.842  -3.284  0.00  0.00     0.292 HD
ENDBRANCH  49  56
ENDBRANCH  29  32
ENDBRANCH  16  29
BRANCH   1  58
ATOM     58  C   LIG d   1       4.749  -1.557  -2.265  0.00  0.00    -0.048 C 
ATOM     59  H   LIG d   1       5.715  -1.876  -1.871  0.00  0.00     0.027 H 
ATOM     60  H   LIG d   1       3.964  -2.195  -1.861  0.00  0.00     0.027 H 
BRANCH  58  61
ATOM     61  C   LIG d   1       4.487  -0.105  -1.859  0.00  0.00    -0.065 C 
ATOM     62  H   LIG d   1       5.308   0.522  -2.206  0.00  0.00     0.023 H 
ATOM     63  H   LIG d   1       3.554   0.235  -2.307  0.00  0.00     0.023 H 
ATOM     64  H   LIG d   1       4.415  -0.040  -0.773  0.00  0.00     0.023 H 
ENDBRANCH  58  61
ENDBRANCH   1  58
BRANCH  10  65
ATOM     65  O   LIG d   1       7.574  -0.430 -10.543  0.00  0.00    -0.491 OA
BRANCH  65  66
ATOM     66  C   LIG d   1       8.513   0.608 -10.253  0.00  0.00     0.079 C 
ATOM     67  H   LIG d   1       8.990   0.409  -9.293  0.00  0.00     0.066 H 
ATOM     68  H   LIG d   1       9.272   0.641 -11.035  0.00  0.00     0.066 H 
ATOM     69  H   LIG d   1       7.995   1.566 -10.210  0.00  0.00     0.066 H 
ENDBRANCH  65  66
ENDBRANCH  10  65
BRANCH   9  70
ATOM     70  O   LIG d   1       5.232  -0.250 -11.989  0.00  0.00    -0.491 OA
BRANCH  70  71
ATOM     71  C   LIG d   1       4.026  -0.578 -12.680  0.00  0.00     0.079 C 
ATOM     72  H   LIG d   1       4.014  -1.645 -12.905  0.00  0.00     0.066 H 
ATOM     73  H   LIG d   1       3.169  -0.331 -12.053  0.00  0.00     0.066 H 
ATOM     74  H   LIG d   1       3.973  -0.011 -13.609  0.00  0.00     0.066 H 
ENDBRANCH  70  71
ENDBRANCH   9  70
TORSDOF 11
ENDMDL
MODEL 8
REMARK VINA RESULT:      -5.9      7.786      9.375
REMARK  11 active torsions:
REMARK  status: ('A' for Active; 'I' for Inactive)
REMARK    1  A    between atoms: C_1  and  C_2 
REMARK    2  A    between atoms: C_2  and  C_3 
REMARK    3  A    between atoms: C_11  and  O_37 
REMARK    4  A    between atoms: C_12  and  O_35 
REMARK    5  A    between atoms: C_18  and  C_20 
REMARK    6  A    between atoms: C_20  and  C_21 
REMARK    7  A    between atoms: C_25  and  O_33 
REMARK    8  A    between atoms: C_26  and  O_32 
REMARK    9  A    between atoms: O_33  and  C_34 
REMARK   10  A    between atoms: O_35  and  C_36 
REMARK   11  A    between atoms: O_37  and  C_38 
ROOT
ATOM      1  C   LIG d   1       4.349  -2.547  -4.832  0.00  0.00     0.002 C 
ATOM      2  H   LIG d   1       3.340  -2.921  -4.658  0.00  0.00     0.035 H 
ATOM      3  C   LIG d   1       4.276  -1.126  -5.398  0.00  0.00    -0.028 C 
ATOM      4  N   LIG d   1       3.540  -1.144  -6.667  0.00  0.00     0.241 N 
ATOM      5  C   LIG d   1       3.387   0.225  -7.179  0.00  0.00    -0.027 C 
ATOM      6  C   LIG d   1       2.363   0.210  -8.314  0.00  0.00     0.013 C 
ATOM      7  C   LIG d   1       2.716  -0.864  -9.312  0.00  0.00    -0.030 A 
ATOM      8  C   LIG d   1       2.129  -0.821 -10.567  0.00  0.00    -0.013 A 
ATOM      9  C   LIG d   1       2.425  -1.789 -11.510  0.00  0.00     0.162 A 
ATOM     10  C   LIG d   1       3.317  -2.810 -11.194  0.00  0.00     0.162 A 
ATOM     11  C   LIG d   1       3.900  -2.848  -9.941  0.00  0.00    -0.007 A 
ATOM     12  C   LIG d   1       3.602  -1.874  -8.998  0.00  0.00     0.007 A 
ATOM     13  C   LIG d   1       4.268  -1.947  -7.651  0.00  0.00     0.006 C 
ATOM     14  H   LIG d   1       5.286  -1.566  -7.737  0.00  0.00     0.090 H 
ATOM     15  C   LIG d   1       4.333  -3.401  -7.179  0.00  0.00    -0.002 C 
ATOM     16  C   LIG d   1       5.065  -3.457  -5.833  0.00  0.00    -0.023 C 
ATOM     17  H   LIG d   1       6.092  -3.118  -5.964  0.00  0.00     0.031 H 
ATOM     18  H   LIG d   1       3.761  -0.478  -4.688  0.00  0.00     0.082 H 
ATOM     19  H   LIG d   1       5.285  -0.750  -5.567  0.00  0.00     0.082 H 
ATOM     20  H   LIG d   1       3.038   0.877  -6.378  0.00  0.00     0.082 H 
ATOM     21  H   LIG d   1       4.345   0.584  -7.555  0.00  0.00     0.082 H 
ATOM     22  H   LIG d   1       1.372   0.011  -7.904  0.00  0.00     0.036 H 
ATOM     23  H   LIG d   1       2.359   1.180  -8.811  0.00  0.00     0.036 H 
ATOM     24  H   LIG d   1       1.437  -0.028 -10.810  0.00  0.00     0.066 H 
ATOM     25  H   LIG d   1       4.592  -3.639  -9.693  0.00  0.00     0.066 H 
ATOM     26  H   LIG d   1       3.323  -3.792  -7.061  0.00  0.00     0.033 H 
ATOM     27  H   LIG d   1       4.874  -3.999  -7.913  0.00  0.00     0.033 H 
ATOM     28  H   LIG d   1       2.626  -1.545  -6.518  0.00  0.00     0.204 HD
ENDROOT
BRANCH  16  29
ATOM     29  C   LIG d   1       5.061  -4.895  -5.310  0.00  0.00    -0.002 C 
ATOM     30  H   LIG d   1       5.148  -4.885  -4.223  0.00  0.00     0.033 H 
ATOM     31  H   LIG d   1       4.131  -5.384  -5.596  0.00  0.00     0.033 H 
BRANCH  29  32
ATOM     32  C   LIG d   1       6.245  -5.658  -5.909  0.00  0.00     0.004 C 
ATOM     33  H   LIG d   1       6.131  -5.705  -6.992  0.00  0.00     0.090 H 
ATOM     34  N   LIG d   1       7.489  -4.955  -5.583  0.00  0.00     0.233 N 
ATOM     35  C   LIG d   1       8.629  -5.762  -6.042  0.00  0.00    -0.029 C 
ATOM     36  H   LIG d   1       7.501  -4.059  -6.048  0.00  0.00     0.202 HD
ATOM     37  H   LIG d   1       7.550  -4.821  -4.585  0.00  0.00     0.202 HD
ATOM     38  C   LIG d   1       8.772  -6.972  -5.117  0.00  0.00     0.013 C 
ATOM     39  H   LIG d   1       9.539  -5.164  -6.006  0.00  0.00     0.082 H 
ATOM     40  H   LIG d   1       8.451  -6.101  -7.063  0.00  0.00     0.082 H 
ATOM     41  C   LIG d   1       7.444  -7.674  -4.987  0.00  0.00    -0.030 A 
ATOM     42  H   LIG d   1       9.105  -6.640  -4.134  0.00  0.00     0.036 H 
ATOM     43  H   LIG d   1       9.506  -7.662  -5.534  0.00  0.00     0.036 H 
ATOM     44  C   LIG d   1       6.266  -7.058  -5.351  0.00  0.00     0.007 A 
ATOM     45  C   LIG d   1       7.424  -8.965  -4.480  0.00  0.00    -0.013 A 
ATOM     46  C   LIG d   1       5.061  -7.731  -5.208  0.00  0.00    -0.008 A 
ATOM     47  C   LIG d   1       5.035  -9.018  -4.704  0.00  0.00     0.162 A 
ATOM     48  H   LIG d   1       4.138  -7.247  -5.493  0.00  0.00     0.066 H 
ATOM     49  C   LIG d   1       6.225  -9.640  -4.337  0.00  0.00     0.159 A 
ATOM     50  H   LIG d   1       8.348  -9.445  -4.196  0.00  0.00     0.066 H 
BRANCH  47  51
ATOM     51  O   LIG d   1       3.851  -9.673  -4.566  0.00  0.00    -0.491 OA
BRANCH  51  52
ATOM     52  C   LIG d   1       3.372  -9.874  -3.234  0.00  0.00     0.079 C 
ATOM     53  H   LIG d   1       4.141 -10.371  -2.643  0.00  0.00     0.066 H 
ATOM     54  H   LIG d   1       3.135  -8.910  -2.785  0.00  0.00     0.066 H 
ATOM     55  H   LIG d   1       2.476 -10.494  -3.260  0.00  0.00     0.066 H 
ENDBRANCH  51  52
ENDBRANCH  47  51
BRANCH  49  56
ATOM     56  O   LIG d   1       6.209 -10.906  -3.841  0.00  0.00    -0.503 OA
ATOM     57  H   LIG d   1       6.877 -11.071  -3.162  0.00  0.00     0.292 HD
ENDBRANCH  49  56
ENDBRANCH  29  32
ENDBRANCH  16  29
BRANCH   1  58
ATOM     58  C   LIG d   1       5.122  -2.532  -3.513  0.00  0.00    -0.048 C 
ATOM     59  H   LIG d   1       6.009  -1.907  -3.619  0.00  0.00     0.027 H 
ATOM     60  H   LIG d   1       5.422  -3.548  -3.256  0.00  0.00     0.027 H 
BRANCH  58  61
ATOM     61  C   LIG d   1       4.230  -1.967  -2.405  0.00  0.00    -0.065 C 
ATOM     62  H   LIG d   1       3.937  -2.771  -1.729  0.00  0.00     0.023 H 
ATOM     63  H   LIG d   1       4.778  -1.207  -1.849  0.00  0.00     0.023 H 
ATOM     64  H   LIG d   1       3.339  -1.523  -2.848  0.00  0.00     0.023 H 
ENDBRANCH  58  61
ENDBRANCH   1  58
BRANCH  10  65
ATOM     65  O   LIG d   1       3.612  -3.767 -12.114  0.00  0.00    -0.491 OA
BRANCH  65  66
ATOM     66  C   LIG d   1       4.890  -3.683 -12.749  0.00  0.00     0.079 C 
ATOM     67  H   LIG d   1       5.068  -2.658 -13.074  0.00  0.00     0.066 H 
ATOM     68  H   LIG d   1       5.666  -3.980 -12.044  0.00  0.00     0.066 H 
ATOM     69  H   LIG d   1       4.911  -4.347 -13.613  0.00  0.00     0.066 H 
ENDBRANCH  65  66
ENDBRANCH  10  65
BRANCH   9  70
ATOM     70  O   LIG d   1       1.847  -1.743 -12.741  0.00  0.00    -0.491 OA
BRANCH  70  71
ATOM     71  C   LIG d   1       0.475  -2.130 -12.828  0.00  0.00     0.079 C 
ATOM     72  H   LIG d   1       0.277  -2.550 -13.814  0.00  0.00     0.066 H 
ATOM     73  H   LIG d   1       0.260  -2.879 -12.066  0.00  0.00     0.066 H 
ATOM     74  H   LIG d   1      -0.160  -1.258 -12.670  0.00  0.00     0.066 H 
ENDBRANCH  70  71
ENDBRANCH   9  70
TORSDOF 11
ENDMDL
MODEL 9
REMARK VINA RESULT:      -5.8      4.530      7.945
REMARK  11 active torsions:
REMARK  status: ('A' for Active; 'I' for Inactive)
REMARK    1  A    between atoms: C_1  and  C_2 
REMARK    2  A    between atoms: C_2  and  C_3 
REMARK    3  A    between atoms: C_11  and  O_37 
REMARK    4  A    between atoms: C_12  and  O_35 
REMARK    5  A    between atoms: C_18  and  C_20 
REMARK    6  A    between atoms: C_20  and  C_21 
REMARK    7  A    between atoms: C_25  and  O_33 
REMARK    8  A    between atoms: C_26  and  O_32 
REMARK    9  A    between atoms: O_33  and  C_34 
REMARK   10  A    between atoms: O_35  and  C_36 
REMARK   11  A    between atoms: O_37  and  C_38 
ROOT
ATOM      1  C   LIG d   1      10.416   5.017  -3.639  0.00  0.00     0.002 C 
ATOM      2  H   LIG d   1      11.449   5.250  -3.383  0.00  0.00     0.035 H 
ATOM      3  C   LIG d   1      10.323   4.676  -5.129  0.00  0.00    -0.028 C 
ATOM      4  N   LIG d   1      10.769   5.828  -5.920  0.00  0.00     0.241 N 
ATOM      5  C   LIG d   1      10.768   5.487  -7.349  0.00  0.00    -0.027 C 
ATOM      6  C   LIG d   1      11.524   6.575  -8.111  0.00  0.00     0.013 C 
ATOM      7  C   LIG d   1      10.997   7.934  -7.727  0.00  0.00    -0.030 A 
ATOM      8  C   LIG d   1      11.299   9.016  -8.539  0.00  0.00    -0.013 A 
ATOM      9  C   LIG d   1      10.836  10.281  -8.219  0.00  0.00     0.162 A 
ATOM     10  C   LIG d   1      10.063  10.464  -7.075  0.00  0.00     0.162 A 
ATOM     11  C   LIG d   1       9.765   9.380  -6.269  0.00  0.00    -0.007 A 
ATOM     12  C   LIG d   1      10.229   8.114  -6.595  0.00  0.00     0.007 A 
ATOM     13  C   LIG d   1       9.870   6.962  -5.696  0.00  0.00     0.006 C 
ATOM     14  H   LIG d   1       8.847   6.651  -5.907  0.00  0.00     0.090 H 
ATOM     15  C   LIG d   1       9.952   7.398  -4.231  0.00  0.00    -0.002 C 
ATOM     16  C   LIG d   1       9.529   6.227  -3.337  0.00  0.00    -0.023 C 
ATOM     17  H   LIG d   1       8.488   5.975  -3.537  0.00  0.00     0.031 H 
ATOM     18  H   LIG d   1      10.959   3.818  -5.346  0.00  0.00     0.082 H 
ATOM     19  H   LIG d   1       9.290   4.437  -5.383  0.00  0.00     0.082 H 
ATOM     20  H   LIG d   1      11.261   4.526  -7.496  0.00  0.00     0.082 H 
ATOM     21  H   LIG d   1       9.741   5.433  -7.711  0.00  0.00     0.082 H 
ATOM     22  H   LIG d   1      12.585   6.516  -7.868  0.00  0.00     0.036 H 
ATOM     23  H   LIG d   1      11.392   6.425  -9.183  0.00  0.00     0.036 H 
ATOM     24  H   LIG d   1      11.898   8.873  -9.426  0.00  0.00     0.066 H 
ATOM     25  H   LIG d   1       9.166   9.521  -5.381  0.00  0.00     0.066 H 
ATOM     26  H   LIG d   1      10.975   7.687  -3.992  0.00  0.00     0.033 H 
ATOM     27  H   LIG d   1       9.284   8.244  -4.064  0.00  0.00     0.033 H 
ATOM     28  H   LIG d   1      11.705   6.083  -5.642  0.00  0.00     0.204 HD
ENDROOT
BRANCH  16  29
ATOM     29  C   LIG d   1       9.687   6.623  -1.868  0.00  0.00    -0.002 C 
ATOM     30  H   LIG d   1       8.811   6.297  -1.308  0.00  0.00     0.033 H 
ATOM     31  H   LIG d   1      10.577   6.149  -1.457  0.00  0.00     0.033 H 
BRANCH  29  32
ATOM     32  C   LIG d   1       9.824   8.144  -1.761  0.00  0.00     0.004 C 
ATOM     33  H   LIG d   1      10.037   8.555  -2.748  0.00  0.00     0.090 H 
ATOM     34  N   LIG d   1       8.566   8.709  -1.263  0.00  0.00     0.233 N 
ATOM     35  C   LIG d   1       8.747  10.150  -1.033  0.00  0.00    -0.029 C 
ATOM     36  H   LIG d   1       7.837   8.565  -1.946  0.00  0.00     0.202 HD
ATOM     37  H   LIG d   1       8.313   8.257  -0.396  0.00  0.00     0.202 HD
ATOM     38  C   LIG d   1       9.621  10.339   0.208  0.00  0.00     0.013 C 
ATOM     39  H   LIG d   1       7.777  10.619  -0.874  0.00  0.00     0.082 H 
ATOM     40  H   LIG d   1       9.237  10.600  -1.897  0.00  0.00     0.082 H 
ATOM     41  C   LIG d   1      10.869   9.503   0.086  0.00  0.00    -0.030 A 
ATOM     42  H   LIG d   1       9.063  10.033   1.094  0.00  0.00     0.036 H 
ATOM     43  H   LIG d   1       9.896  11.390   0.300  0.00  0.00     0.036 H 
ATOM     44  C   LIG d   1      10.960   8.476  -0.829  0.00  0.00     0.007 A 
ATOM     45  C   LIG d   1      11.937   9.781   0.925  0.00  0.00    -0.013 A 
ATOM     46  C   LIG d   1      12.121   7.721  -0.907  0.00  0.00    -0.008 A 
ATOM     47  C   LIG d   1      13.190   7.994  -0.073  0.00  0.00     0.162 A 
ATOM     48  H   LIG d   1      12.192   6.916  -1.624  0.00  0.00     0.066 H 
ATOM     49  C   LIG d   1      13.098   9.032   0.850  0.00  0.00     0.159 A 
ATOM     50  H   LIG d   1      11.863  10.586   1.641  0.00  0.00     0.066 H 
BRANCH  47  51
ATOM     51  O   LIG d   1      14.327   7.251  -0.154  0.00  0.00    -0.491 OA
BRANCH  51  52
ATOM     52  C   LIG d   1      14.348   6.202  -1.125  0.00  0.00     0.079 C 
ATOM     53  H   LIG d   1      14.134   5.251  -0.638  0.00  0.00     0.066 H 
ATOM     54  H   LIG d   1      13.593   6.399  -1.887  0.00  0.00     0.066 H 
ATOM     55  H   LIG d   1      15.332   6.159  -1.591  0.00  0.00     0.066 H 
ENDBRANCH  51  52
ENDBRANCH  47  51
BRANCH  49  56
ATOM     56  O   LIG d   1      14.144   9.308   1.673  0.00  0.00    -0.503 OA
ATOM     57  H   LIG d   1      14.343   8.604   2.307  0.00  0.00     0.292 HD
ENDBRANCH  49  56
ENDBRANCH  29  32
ENDBRANCH  16  29
BRANCH   1  58
ATOM     58  C   LIG d   1       9.944   3.819  -2.811  0.00  0.00    -0.048 C 
ATOM     59  H   LIG d   1       9.368   4.174  -1.956  0.00  0.00     0.027 H 
ATOM     60  H   LIG d   1      10.809   3.258  -2.459  0.00  0.00     0.027 H 
BRANCH  58  61
ATOM     61  C   LIG d   1       9.066   2.914  -3.678  0.00  0.00    -0.065 C 
ATOM     62  H   LIG d   1       8.046   2.923  -3.294  0.00  0.00     0.023 H 
ATOM     63  H   LIG d   1       9.071   3.278  -4.705  0.00  0.00     0.023 H 
ATOM     64  H   LIG d   1       9.456   1.897  -3.651  0.00  0.00     0.023 H 
ENDBRANCH  58  61
ENDBRANCH   1  58
BRANCH  10  65
ATOM     65  O   LIG d   1       9.606  11.703  -6.752  0.00  0.00    -0.491 OA
BRANCH  65  66
ATOM     66  C   LIG d   1       9.562  12.035  -5.363  0.00  0.00     0.079 C 
ATOM     67  H   LIG d   1       9.933  13.050  -5.220  0.00  0.00     0.066 H 
ATOM     68  H   LIG d   1       8.533  11.973  -5.008  0.00  0.00     0.066 H 
ATOM     69  H   LIG d   1      10.182  11.338  -4.802  0.00  0.00     0.066 H 
ENDBRANCH  65  66
ENDBRANCH  10  65
BRANCH   9  70
ATOM     70  O   LIG d   1      11.134  11.340  -9.019  0.00  0.00    -0.491 OA
BRANCH  70  71
ATOM     71  C   LIG d   1      12.183  11.158  -9.973  0.00  0.00     0.079 C 
ATOM     72  H   LIG d   1      12.201  10.118 -10.299  0.00  0.00     0.066 H 
ATOM     73  H   LIG d   1      12.008  11.804 -10.833  0.00  0.00     0.066 H 
ATOM     74  H   LIG d   1      13.138  11.412  -9.515  0.00  0.00     0.066 H 
ENDBRANCH  70  71
ENDBRANCH   9  70
TORSDOF 11
ENDMDL
MODEL 10
REMARK VINA RESULT:      -5.8      6.174      9.463
REMARK  11 active torsions:
REMARK  status: ('A' for Active; 'I' for Inactive)
REMARK    1  A    between atoms: C_1  and  C_2 
REMARK    2  A    between atoms: C_2  and  C_3 
REMARK    3  A    between atoms: C_11  and  O_37 
REMARK    4  A    between atoms: C_12  and  O_35 
REMARK    5  A    between atoms: C_18  and  C_20 
REMARK    6  A    between atoms: C_20  and  C_21 
REMARK    7  A    between atoms: C_25  and  O_33 
REMARK    8  A    between atoms: C_26  and  O_32 
REMARK    9  A    between atoms: O_33  and  C_34 
REMARK   10  A    between atoms: O_35  and  C_36 
REMARK   11  A    between atoms: O_37  and  C_38 
ROOT
ATOM      1  C   LIG d   1       4.328   0.455  -8.919  0.00  0.00     0.002 C 
ATOM      2  H   LIG d   1       3.721   0.454  -8.013  0.00  0.00     0.035 H 
ATOM      3  C   LIG d   1       3.442   0.137 -10.127  0.00  0.00    -0.028 C 
ATOM      4  N   LIG d   1       2.835  -1.187  -9.951  0.00  0.00     0.241 N 
ATOM      5  C   LIG d   1       1.915  -1.468 -11.061  0.00  0.00    -0.027 C 
ATOM      6  C   LIG d   1       1.072  -2.691 -10.698  0.00  0.00     0.013 C 
ATOM      7  C   LIG d   1       1.967  -3.816 -10.242  0.00  0.00    -0.030 A 
ATOM      8  C   LIG d   1       1.446  -5.100 -10.197  0.00  0.00    -0.013 A 
ATOM      9  C   LIG d   1       2.234  -6.159  -9.782  0.00  0.00     0.162 A 
ATOM     10  C   LIG d   1       3.556  -5.931  -9.407  0.00  0.00     0.162 A 
ATOM     11  C   LIG d   1       4.070  -4.648  -9.455  0.00  0.00    -0.007 A 
ATOM     12  C   LIG d   1       3.277  -3.589  -9.874  0.00  0.00     0.007 A 
ATOM     13  C   LIG d   1       3.880  -2.211  -9.921  0.00  0.00     0.006 C 
ATOM     14  H   LIG d   1       4.491  -2.122 -10.820  0.00  0.00     0.090 H 
ATOM     15  C   LIG d   1       4.778  -1.993  -8.701  0.00  0.00    -0.002 C 
ATOM     16  C   LIG d   1       5.425  -0.606  -8.799  0.00  0.00    -0.023 C 
ATOM     17  H   LIG d   1       6.067  -0.567  -9.678  0.00  0.00     0.031 H 
ATOM     18  H   LIG d   1       2.657   0.889 -10.209  0.00  0.00     0.082 H 
ATOM     19  H   LIG d   1       4.048   0.144 -11.033  0.00  0.00     0.082 H 
ATOM     20  H   LIG d   1       1.264  -0.609 -11.223  0.00  0.00     0.082 H 
ATOM     21  H   LIG d   1       2.486  -1.674 -11.967  0.00  0.00     0.082 H 
ATOM     22  H   LIG d   1       0.382  -2.429  -9.895  0.00  0.00     0.036 H 
ATOM     23  H   LIG d   1       0.503  -3.012 -11.571  0.00  0.00     0.036 H 
ATOM     24  H   LIG d   1       0.421  -5.276 -10.487  0.00  0.00     0.066 H 
ATOM     25  H   LIG d   1       5.094  -4.468  -9.164  0.00  0.00     0.066 H 
ATOM     26  H   LIG d   1       4.179  -2.051  -7.793  0.00  0.00     0.033 H 
ATOM     27  H   LIG d   1       5.555  -2.757  -8.678  0.00  0.00     0.033 H 
ATOM     28  H   LIG d   1       2.322  -1.207  -9.083  0.00  0.00     0.204 HD
ENDROOT
BRANCH  16  29
ATOM     29  C   LIG d   1       6.257  -0.342  -7.543  0.00  0.00    -0.002 C 
ATOM     30  H   LIG d   1       7.252  -0.003  -7.833  0.00  0.00     0.033 H 
ATOM     31  H   LIG d   1       5.774   0.427  -6.941  0.00  0.00     0.033 H 
BRANCH  29  32
ATOM     32  C   LIG d   1       6.374  -1.631  -6.728  0.00  0.00     0.004 C 
ATOM     33  H   LIG d   1       5.768  -2.407  -7.194  0.00  0.00     0.090 H 
ATOM     34  N   LIG d   1       7.775  -2.062  -6.701  0.00  0.00     0.233 N 
ATOM     35  C   LIG d   1       7.902  -3.221  -5.806  0.00  0.00    -0.029 C 
ATOM     36  H   LIG d   1       8.066  -2.321  -7.632  0.00  0.00     0.202 HD
ATOM     37  H   LIG d   1       8.354  -1.307  -6.362  0.00  0.00     0.202 HD
ATOM     38  C   LIG d   1       7.757  -2.738  -4.361  0.00  0.00     0.013 C 
ATOM     39  H   LIG d   1       8.880  -3.682  -5.941  0.00  0.00     0.082 H 
ATOM     40  H   LIG d   1       7.118  -3.945  -6.030  0.00  0.00     0.082 H 
ATOM     41  C   LIG d   1       6.511  -1.902  -4.225  0.00  0.00    -0.030 A 
ATOM     42  H   LIG d   1       8.628  -2.141  -4.090  0.00  0.00     0.036 H 
ATOM     43  H   LIG d   1       7.689  -3.600  -3.697  0.00  0.00     0.036 H 
ATOM     44  C   LIG d   1       5.870  -1.381  -5.330  0.00  0.00     0.007 A 
ATOM     45  C   LIG d   1       6.015  -1.653  -2.954  0.00  0.00    -0.013 A 
ATOM     46  C   LIG d   1       4.730  -0.608  -5.166  0.00  0.00    -0.008 A 
ATOM     47  C   LIG d   1       4.231  -0.357  -3.901  0.00  0.00     0.162 A 
ATOM     48  H   LIG d   1       4.229  -0.200  -6.032  0.00  0.00     0.066 H 
ATOM     49  C   LIG d   1       4.878  -0.883  -2.787  0.00  0.00     0.159 A 
ATOM     50  H   LIG d   1       6.519  -2.062  -2.092  0.00  0.00     0.066 H 
BRANCH  47  51
ATOM     51  O   LIG d   1       3.113   0.403  -3.747  0.00  0.00    -0.491 OA
BRANCH  51  52
ATOM     52  C   LIG d   1       2.321   0.635  -4.913  0.00  0.00     0.079 C 
ATOM     53  H   LIG d   1       1.483   1.285  -4.660  0.00  0.00     0.066 H 
ATOM     54  H   LIG d   1       2.933   1.113  -5.678  0.00  0.00     0.066 H 
ATOM     55  H   LIG d   1       1.942  -0.315  -5.290  0.00  0.00     0.066 H 
ENDBRANCH  51  52
ENDBRANCH  47  51
BRANCH  49  56
ATOM     56  O   LIG d   1       4.393  -0.642  -1.539  0.00  0.00    -0.503 OA
ATOM     57  H   LIG d   1       3.460  -0.873  -1.428  0.00  0.00     0.292 HD
ENDBRANCH  49  56
ENDBRANCH  29  32
ENDBRANCH  16  29
BRANCH   1  58
ATOM     58  C   LIG d   1       4.968   1.832  -9.103  0.00  0.00    -0.048 C 
ATOM     59  H   LIG d   1       5.647   1.805  -9.955  0.00  0.00     0.027 H 
ATOM     60  H   LIG d   1       5.523   2.097  -8.203  0.00  0.00     0.027 H 
BRANCH  58  61
ATOM     61  C   LIG d   1       3.875   2.873  -9.353  0.00  0.00    -0.065 C 
ATOM     62  H   LIG d   1       3.801   3.536  -8.491  0.00  0.00     0.023 H 
ATOM     63  H   LIG d   1       4.124   3.455 -10.240  0.00  0.00     0.023 H 
ATOM     64  H   LIG d   1       2.921   2.368  -9.505  0.00  0.00     0.023 H 
ENDBRANCH  58  61
ENDBRANCH   1  58
BRANCH  10  65
ATOM     65  O   LIG d   1       4.337  -6.965  -8.996  0.00  0.00    -0.491 OA
BRANCH  65  66
ATOM     66  C   LIG d   1       4.537  -7.106  -7.588  0.00  0.00     0.079 C 
ATOM     67  H   LIG d   1       3.737  -7.714  -7.166  0.00  0.00     0.066 H 
ATOM     68  H   LIG d   1       5.497  -7.591  -7.405  0.00  0.00     0.066 H 
ATOM     69  H   LIG d   1       4.532  -6.122  -7.120  0.00  0.00     0.066 H 
ENDBRANCH  65  66
ENDBRANCH  10  65
BRANCH   9  70
ATOM     70  O   LIG d   1       1.720  -7.418  -9.739  0.00  0.00    -0.491 OA
BRANCH  70  71
ATOM     71  C   LIG d   1       0.764  -7.762 -10.744  0.00  0.00     0.079 C 
ATOM     72  H   LIG d   1       0.755  -6.993 -11.516  0.00  0.00     0.066 H 
ATOM     73  H   LIG d   1       1.035  -8.720 -11.189  0.00  0.00     0.066 H 
ATOM     74  H   LIG d   1      -0.226  -7.837 -10.294  0.00  0.00     0.066 H 
ENDBRANCH  70  71
ENDBRANCH   9  70
TORSDOF 11
ENDMDL
