MODEL 1
REMARK VINA RESULT:      -6.1      0.000      0.000
REMARK  9 active torsions:
REMARK  status: ('A' for Active; 'I' for Inactive)
REMARK    1  A    between atoms: C_1  and  C_2 
REMARK    2  A    between atoms: C_2  and  C_4 
REMARK    3  A    between atoms: C_2  and  N_10 
REMARK    4  A    between atoms: N_10  and  C_11 
REMARK    5  A    between atoms: C_11  and  C_12 
REMARK    6  A    between atoms: C_12  and  C_13 
REMARK    7  A    between atoms: C_13  and  C_15 
REMARK    8  A    between atoms: C_13  and  C_22 
REMARK    9  A    between atoms: C_15  and  C_16 
ROOT
ATOM      1  C   LIG d   1       2.887  -1.188  -7.774  0.00  0.00    -0.003 C 
ATOM      2  H   LIG d   1       2.484  -0.821  -8.717  0.00  0.00     0.032 H 
ATOM      3  H   LIG d   1       2.086  -1.639  -7.187  0.00  0.00     0.032 H 
ENDROOT
BRANCH   1   4
ATOM      4  C   LIG d   1       3.965  -2.237  -8.053  0.00  0.00    -0.032 C 
ATOM      5  H   LIG d   1       4.846  -1.751  -8.473  0.00  0.00     0.081 H 
ATOM      6  H   LIG d   1       3.582  -2.971  -8.763  0.00  0.00     0.081 H 
BRANCH   4   7
ATOM      7  N   LIG d   1       4.328  -2.912  -6.800  0.00  0.00     0.232 N 
ATOM      8  H   LIG d   1       3.944  -3.845  -6.797  0.00  0.00     0.202 HD
ATOM      9  H   LIG d   1       3.957  -2.393  -6.018  0.00  0.00     0.202 HD
BRANCH   7  10
ATOM     10  C   LIG d   1       5.791  -2.985  -6.689  0.00  0.00     0.000 C 
ATOM     11  H   LIG d   1       6.090  -4.015  -6.495  0.00  0.00     0.090 H 
BRANCH  10  12
ATOM     12  C   LIG d   1       6.426  -2.506  -7.996  0.00  0.00    -0.017 C 
ATOM     13  H   LIG d   1       5.689  -1.950  -8.576  0.00  0.00     0.029 H 
ATOM     14  H   LIG d   1       7.276  -1.861  -7.773  0.00  0.00     0.029 H 
ATOM     15  H   LIG d   1       6.764  -3.368  -8.572  0.00  0.00     0.029 H 
ENDBRANCH  10  12
BRANCH  10  16
ATOM     16  C   LIG d   1       6.253  -2.106  -5.555  0.00  0.00    -0.000 A 
ATOM     17  C   LIG d   1       6.432  -0.750  -5.759  0.00  0.00    -0.053 A 
ATOM     18  C   LIG d   1       6.852   0.056  -4.718  0.00  0.00    -0.061 A 
ATOM     19  H   LIG d   1       6.240  -0.322  -6.731  0.00  0.00     0.062 H 
ATOM     20  C   LIG d   1       7.103  -0.494  -3.475  0.00  0.00    -0.062 A 
ATOM     21  H   LIG d   1       6.987   1.116  -4.876  0.00  0.00     0.062 H 
ATOM     22  C   LIG d   1       6.929  -1.851  -3.272  0.00  0.00    -0.061 A 
ATOM     23  H   LIG d   1       7.434   0.136  -2.662  0.00  0.00     0.062 H 
ATOM     24  C   LIG d   1       6.505  -2.656  -4.312  0.00  0.00    -0.053 A 
ATOM     25  H   LIG d   1       7.125  -2.281  -2.301  0.00  0.00     0.062 H 
ATOM     26  H   LIG d   1       6.369  -3.716  -4.154  0.00  0.00     0.062 H 
ENDBRANCH  10  16
ENDBRANCH   7  10
ENDBRANCH   4   7
ENDBRANCH   1   4
BRANCH   1  27
ATOM     27  C   LIG d   1       3.499  -0.024  -6.992  0.00  0.00     0.026 C 
ATOM     28  H   LIG d   1       4.379  -0.370  -6.452  0.00  0.00     0.038 H 
BRANCH  27  29
ATOM     29  C   LIG d   1       2.471   0.518  -5.996  0.00  0.00    -0.018 C 
ATOM     30  H   LIG d   1       2.334   1.586  -6.159  0.00  0.00     0.032 H 
ATOM     31  H   LIG d   1       1.520   0.003  -6.140  0.00  0.00     0.032 H 
BRANCH  29  32
ATOM     32  C   LIG d   1       2.961   0.283  -4.591  0.00  0.00    -0.047 A 
ATOM     33  C   LIG d   1       3.406   1.347  -3.828  0.00  0.00    -0.059 A 
ATOM     34  C   LIG d   1       3.852   1.133  -2.537  0.00  0.00    -0.061 A 
ATOM     35  H   LIG d   1       3.402   2.345  -4.239  0.00  0.00     0.062 H 
ATOM     36  C   LIG d   1       3.861  -0.146  -2.012  0.00  0.00    -0.062 A 
ATOM     37  H   LIG d   1       4.195   1.964  -1.939  0.00  0.00     0.062 H 
ATOM     38  C   LIG d   1       3.422  -1.210  -2.777  0.00  0.00    -0.061 A 
ATOM     39  H   LIG d   1       4.213  -0.314  -1.005  0.00  0.00     0.062 H 
ATOM     40  C   LIG d   1       2.972  -0.996  -4.066  0.00  0.00    -0.059 A 
ATOM     41  H   LIG d   1       3.429  -2.210  -2.367  0.00  0.00     0.062 H 
ATOM     42  H   LIG d   1       2.629  -1.827  -4.664  0.00  0.00     0.062 H 
ENDBRANCH  29  32
ENDBRANCH  27  29
BRANCH  27  43
ATOM     43  C   LIG d   1       3.894   1.071  -7.950  0.00  0.00     0.108 A 
ATOM     44  O   LIG d   1       5.149   1.386  -8.307  0.00  0.00    -0.468 OA
ATOM     45  C   LIG d   1       5.124   2.408  -9.178  0.00  0.00     0.092 A 
ATOM     46  C   LIG d   1       3.841   2.764  -9.379  0.00  0.00    -0.024 A 
ATOM     47  H   LIG d   1       5.985   2.870  -9.636  0.00  0.00     0.103 H 
ATOM     48  C   LIG d   1       3.049   1.901  -8.587  0.00  0.00    -0.020 A 
ATOM     49  H   LIG d   1       3.486   3.555 -10.021  0.00  0.00     0.065 H 
ATOM     50  H   LIG d   1       1.972   1.907  -8.509  0.00  0.00     0.065 H 
ENDBRANCH  27  43
ENDBRANCH   1  27
TORSDOF 9
ENDMDL
MODEL 2
REMARK VINA RESULT:      -5.9      1.499      4.440
REMARK  9 active torsions:
REMARK  status: ('A' for Active; 'I' for Inactive)
REMARK    1  A    between atoms: C_1  and  C_2 
REMARK    2  A    between atoms: C_2  and  C_4 
REMARK    3  A    between atoms: C_2  and  N_10 
REMARK    4  A    between atoms: N_10  and  C_11 
REMARK    5  A    between atoms: C_11  and  C_12 
REMARK    6  A    between atoms: C_12  and  C_13 
REMARK    7  A    between atoms: C_13  and  C_15 
REMARK    8  A    between atoms: C_13  and  C_22 
REMARK    9  A    between atoms: C_15  and  C_16 
ROOT
ATOM      1  C   LIG d   1       4.374  -3.424  -7.196  0.00  0.00    -0.003 C 
ATOM      2  H   LIG d   1       5.116  -3.831  -7.883  0.00  0.00     0.032 H 
ATOM      3  H   LIG d   1       3.412  -3.908  -7.373  0.00  0.00     0.032 H 
ENDROOT
BRANCH   1   4
ATOM      4  C   LIG d   1       4.816  -3.682  -5.755  0.00  0.00    -0.032 C 
ATOM      5  H   LIG d   1       5.845  -3.344  -5.623  0.00  0.00     0.081 H 
ATOM      6  H   LIG d   1       4.756  -4.750  -5.542  0.00  0.00     0.081 H 
BRANCH   4   7
ATOM      7  N   LIG d   1       3.939  -2.949  -4.834  0.00  0.00     0.232 N 
ATOM      8  H   LIG d   1       3.174  -3.544  -4.552  0.00  0.00     0.202 HD
ATOM      9  H   LIG d   1       3.573  -2.130  -5.297  0.00  0.00     0.202 HD
BRANCH   7  10
ATOM     10  C   LIG d   1       4.703  -2.540  -3.648  0.00  0.00     0.000 C 
ATOM     11  H   LIG d   1       4.482  -3.217  -2.822  0.00  0.00     0.090 H 
BRANCH  10  12
ATOM     12  C   LIG d   1       6.200  -2.594  -3.964  0.00  0.00    -0.017 C 
ATOM     13  H   LIG d   1       6.417  -3.495  -4.538  0.00  0.00     0.029 H 
ATOM     14  H   LIG d   1       6.481  -1.716  -4.544  0.00  0.00     0.029 H 
ATOM     15  H   LIG d   1       6.766  -2.611  -3.033  0.00  0.00     0.029 H 
ENDBRANCH  10  12
BRANCH  10  16
ATOM     16  C   LIG d   1       4.321  -1.134  -3.263  0.00  0.00    -0.000 A 
ATOM     17  C   LIG d   1       3.508  -0.387  -4.095  0.00  0.00    -0.053 A 
ATOM     18  C   LIG d   1       3.154   0.901  -3.739  0.00  0.00    -0.061 A 
ATOM     19  H   LIG d   1       3.147  -0.811  -5.019  0.00  0.00     0.062 H 
ATOM     20  C   LIG d   1       3.621   1.446  -2.557  0.00  0.00    -0.062 A 
ATOM     21  H   LIG d   1       2.515   1.484  -4.387  0.00  0.00     0.062 H 
ATOM     22  C   LIG d   1       4.438   0.700  -1.728  0.00  0.00    -0.061 A 
ATOM     23  H   LIG d   1       3.346   2.453  -2.282  0.00  0.00     0.062 H 
ATOM     24  C   LIG d   1       4.788  -0.590  -2.081  0.00  0.00    -0.053 A 
ATOM     25  H   LIG d   1       4.803   1.125  -0.805  0.00  0.00     0.062 H 
ATOM     26  H   LIG d   1       5.427  -1.172  -1.434  0.00  0.00     0.062 H 
ENDBRANCH  10  16
ENDBRANCH   7  10
ENDBRANCH   4   7
ENDBRANCH   1   4
BRANCH   1  27
ATOM     27  C   LIG d   1       4.236  -1.918  -7.426  0.00  0.00     0.026 C 
ATOM     28  H   LIG d   1       3.720  -1.466  -6.580  0.00  0.00     0.038 H 
BRANCH  27  29
ATOM     29  C   LIG d   1       3.434  -1.669  -8.705  0.00  0.00    -0.018 C 
ATOM     30  H   LIG d   1       3.889  -2.213  -9.532  0.00  0.00     0.032 H 
ATOM     31  H   LIG d   1       2.408  -2.012  -8.563  0.00  0.00     0.032 H 
BRANCH  29  32
ATOM     32  C   LIG d   1       3.430  -0.194  -9.017  0.00  0.00    -0.047 A 
ATOM     33  C   LIG d   1       2.871   0.699  -8.123  0.00  0.00    -0.059 A 
ATOM     34  C   LIG d   1       2.871   2.053  -8.407  0.00  0.00    -0.061 A 
ATOM     35  H   LIG d   1       2.436   0.341  -7.202  0.00  0.00     0.062 H 
ATOM     36  C   LIG d   1       3.423   2.510  -9.588  0.00  0.00    -0.062 A 
ATOM     37  H   LIG d   1       2.438   2.751  -7.707  0.00  0.00     0.062 H 
ATOM     38  C   LIG d   1       3.978   1.616 -10.485  0.00  0.00    -0.061 A 
ATOM     39  H   LIG d   1       3.420   3.568  -9.811  0.00  0.00     0.062 H 
ATOM     40  C   LIG d   1       3.981   0.264 -10.199  0.00  0.00    -0.059 A 
ATOM     41  H   LIG d   1       4.410   1.975 -11.408  0.00  0.00     0.062 H 
ATOM     42  H   LIG d   1       4.415  -0.435 -10.899  0.00  0.00     0.062 H 
ENDBRANCH  29  32
ENDBRANCH  27  29
BRANCH  27  43
ATOM     43  C   LIG d   1       5.606  -1.304  -7.565  0.00  0.00     0.108 A 
ATOM     44  O   LIG d   1       6.534  -1.653  -8.470  0.00  0.00    -0.468 OA
ATOM     45  C   LIG d   1       7.630  -0.895  -8.303  0.00  0.00     0.092 A 
ATOM     46  C   LIG d   1       7.412  -0.053  -7.275  0.00  0.00    -0.024 A 
ATOM     47  H   LIG d   1       8.534  -0.952  -8.890  0.00  0.00     0.103 H 
ATOM     48  C   LIG d   1       6.106  -0.318  -6.800  0.00  0.00    -0.020 A 
ATOM     49  H   LIG d   1       8.101   0.682  -6.888  0.00  0.00     0.065 H 
ATOM     50  H   LIG d   1       5.608   0.177  -5.981  0.00  0.00     0.065 H 
ENDBRANCH  27  43
ENDBRANCH   1  27
TORSDOF 9
ENDMDL
MODEL 3
REMARK VINA RESULT:      -5.9      1.272      2.082
REMARK  9 active torsions:
REMARK  status: ('A' for Active; 'I' for Inactive)
REMARK    1  A    between atoms: C_1  and  C_2 
REMARK    2  A    between atoms: C_2  and  C_4 
REMARK    3  A    between atoms: C_2  and  N_10 
REMARK    4  A    between atoms: N_10  and  C_11 
REMARK    5  A    between atoms: C_11  and  C_12 
REMARK    6  A    between atoms: C_12  and  C_13 
REMARK    7  A    between atoms: C_13  and  C_15 
REMARK    8  A    between atoms: C_13  and  C_22 
REMARK    9  A    between atoms: C_15  and  C_16 
ROOT
ATOM      1  C   LIG d   1       3.951  -1.590  -7.269  0.00  0.00    -0.003 C 
ATOM      2  H   LIG d   1       3.429  -1.529  -8.223  0.00  0.00     0.032 H 
ATOM      3  H   LIG d   1       3.395  -2.241  -6.593  0.00  0.00     0.032 H 
ENDROOT
BRANCH   1   4
ATOM      4  C   LIG d   1       5.352  -2.163  -7.489  0.00  0.00    -0.032 C 
ATOM      5  H   LIG d   1       5.851  -1.608  -8.284  0.00  0.00     0.081 H 
ATOM      6  H   LIG d   1       5.274  -3.213  -7.773  0.00  0.00     0.081 H 
BRANCH   4   7
ATOM      7  N   LIG d   1       6.129  -2.047  -6.249  0.00  0.00     0.232 N 
ATOM      8  H   LIG d   1       6.262  -2.964  -5.848  0.00  0.00     0.202 HD
ATOM      9  H   LIG d   1       5.632  -1.463  -5.593  0.00  0.00     0.202 HD
BRANCH   7  10
ATOM     10  C   LIG d   1       7.438  -1.448  -6.544  0.00  0.00     0.000 C 
ATOM     11  H   LIG d   1       8.226  -2.158  -6.293  0.00  0.00     0.090 H 
BRANCH  10  12
ATOM     12  C   LIG d   1       7.516  -1.102  -8.032  0.00  0.00    -0.017 C 
ATOM     13  H   LIG d   1       6.519  -1.158  -8.470  0.00  0.00     0.029 H 
ATOM     14  H   LIG d   1       7.910  -0.093  -8.151  0.00  0.00     0.029 H 
ATOM     15  H   LIG d   1       8.173  -1.811  -8.535  0.00  0.00     0.029 H 
ENDBRANCH  10  12
BRANCH  10  16
ATOM     16  C   LIG d   1       7.612  -0.194  -5.726  0.00  0.00    -0.000 A 
ATOM     17  C   LIG d   1       7.171  -0.156  -4.417  0.00  0.00    -0.053 A 
ATOM     18  C   LIG d   1       7.335   0.993  -3.666  0.00  0.00    -0.061 A 
ATOM     19  H   LIG d   1       6.702  -1.024  -3.980  0.00  0.00     0.062 H 
ATOM     20  C   LIG d   1       7.931   2.107  -4.227  0.00  0.00    -0.062 A 
ATOM     21  H   LIG d   1       6.995   1.022  -2.641  0.00  0.00     0.062 H 
ATOM     22  C   LIG d   1       8.368   2.070  -5.539  0.00  0.00    -0.061 A 
ATOM     23  H   LIG d   1       8.057   3.006  -3.641  0.00  0.00     0.062 H 
ATOM     24  C   LIG d   1       8.208   0.920  -6.288  0.00  0.00    -0.053 A 
ATOM     25  H   LIG d   1       8.834   2.940  -5.977  0.00  0.00     0.062 H 
ATOM     26  H   LIG d   1       8.549   0.891  -7.312  0.00  0.00     0.062 H 
ENDBRANCH  10  16
ENDBRANCH   7  10
ENDBRANCH   4   7
ENDBRANCH   1   4
BRANCH   1  27
ATOM     27  C   LIG d   1       4.061  -0.193  -6.656  0.00  0.00     0.026 C 
ATOM     28  H   LIG d   1       5.004  -0.105  -6.118  0.00  0.00     0.038 H 
BRANCH  27  29
ATOM     29  C   LIG d   1       2.898   0.032  -5.686  0.00  0.00    -0.018 C 
ATOM     30  H   LIG d   1       2.462   1.015  -5.863  0.00  0.00     0.032 H 
ATOM     31  H   LIG d   1       2.140  -0.736  -5.845  0.00  0.00     0.032 H 
BRANCH  29  32
ATOM     32  C   LIG d   1       3.403  -0.046  -4.269  0.00  0.00    -0.047 A 
ATOM     33  C   LIG d   1       3.732  -1.271  -3.719  0.00  0.00    -0.059 A 
ATOM     34  C   LIG d   1       4.199  -1.342  -2.419  0.00  0.00    -0.061 A 
ATOM     35  H   LIG d   1       3.626  -2.172  -4.305  0.00  0.00     0.062 H 
ATOM     36  C   LIG d   1       4.329  -0.189  -1.668  0.00  0.00    -0.062 A 
ATOM     37  H   LIG d   1       4.460  -2.298  -1.991  0.00  0.00     0.062 H 
ATOM     38  C   LIG d   1       3.995   1.035  -2.216  0.00  0.00    -0.061 A 
ATOM     39  H   LIG d   1       4.691  -0.245  -0.651  0.00  0.00     0.062 H 
ATOM     40  C   LIG d   1       3.532   1.107  -3.517  0.00  0.00    -0.059 A 
ATOM     41  H   LIG d   1       4.097   1.936  -1.629  0.00  0.00     0.062 H 
ATOM     42  H   LIG d   1       3.271   2.063  -3.945  0.00  0.00     0.062 H 
ENDBRANCH  29  32
ENDBRANCH  27  29
BRANCH  27  43
ATOM     43  C   LIG d   1       4.008   0.841  -7.751  0.00  0.00     0.108 A 
ATOM     44  O   LIG d   1       5.066   1.465  -8.294  0.00  0.00    -0.468 OA
ATOM     45  C   LIG d   1       4.645   2.318  -9.242  0.00  0.00     0.092 A 
ATOM     46  C   LIG d   1       3.302   2.252  -9.307  0.00  0.00    -0.024 A 
ATOM     47  H   LIG d   1       5.276   2.951  -9.847  0.00  0.00     0.103 H 
ATOM     48  C   LIG d   1       2.892   1.300  -8.345  0.00  0.00    -0.020 A 
ATOM     49  H   LIG d   1       2.662   2.818  -9.967  0.00  0.00     0.065 H 
ATOM     50  H   LIG d   1       1.878   0.999  -8.130  0.00  0.00     0.065 H 
ENDBRANCH  27  43
ENDBRANCH   1  27
TORSDOF 9
ENDMDL
MODEL 4
REMARK VINA RESULT:      -5.8      1.833      4.053
REMARK  9 active torsions:
REMARK  status: ('A' for Active; 'I' for Inactive)
REMARK    1  A    between atoms: C_1  and  C_2 
REMARK    2  A    between atoms: C_2  and  C_4 
REMARK    3  A    between atoms: C_2  and  N_10 
REMARK    4  A    between atoms: N_10  and  C_11 
REMARK    5  A    between atoms: C_11  and  C_12 
REMARK    6  A    between atoms: C_12  and  C_13 
REMARK    7  A    between atoms: C_13  and  C_15 
REMARK    8  A    between atoms: C_13  and  C_22 
REMARK    9  A    between atoms: C_15  and  C_16 
ROOT
ATOM      1  C   LIG d   1       2.786   0.472  -4.977  0.00  0.00    -0.003 C 
ATOM      2  H   LIG d   1       1.858   1.017  -5.142  0.00  0.00     0.032 H 
ATOM      3  H   LIG d   1       3.603   1.181  -4.832  0.00  0.00     0.032 H 
ENDROOT
BRANCH   1   4
ATOM      4  C   LIG d   1       2.649  -0.405  -3.731  0.00  0.00    -0.032 C 
ATOM      5  H   LIG d   1       3.205  -1.332  -3.875  0.00  0.00     0.081 H 
ATOM      6  H   LIG d   1       1.596  -0.636  -3.564  0.00  0.00     0.081 H 
BRANCH   4   7
ATOM      7  N   LIG d   1       3.183   0.310  -2.566  0.00  0.00     0.232 N 
ATOM      8  H   LIG d   1       2.455   0.421  -1.876  0.00  0.00     0.202 HD
ATOM      9  H   LIG d   1       3.515   1.220  -2.852  0.00  0.00     0.202 HD
BRANCH   7  10
ATOM     10  C   LIG d   1       4.294  -0.456  -1.987  0.00  0.00     0.000 C 
ATOM     11  H   LIG d   1       4.422  -0.176  -0.941  0.00  0.00     0.090 H 
BRANCH  10  12
ATOM     12  C   LIG d   1       3.985  -1.952  -2.080  0.00  0.00    -0.017 C 
ATOM     13  H   LIG d   1       3.048  -2.161  -1.563  0.00  0.00     0.029 H 
ATOM     14  H   LIG d   1       3.895  -2.239  -3.128  0.00  0.00     0.029 H 
ATOM     15  H   LIG d   1       4.791  -2.518  -1.615  0.00  0.00     0.029 H 
ENDBRANCH  10  12
BRANCH  10  16
ATOM     16  C   LIG d   1       5.561  -0.156  -2.745  0.00  0.00    -0.000 A 
ATOM     17  C   LIG d   1       6.387  -1.190  -3.148  0.00  0.00    -0.053 A 
ATOM     18  C   LIG d   1       7.547  -0.915  -3.848  0.00  0.00    -0.061 A 
ATOM     19  H   LIG d   1       6.123  -2.211  -2.919  0.00  0.00     0.062 H 
ATOM     20  C   LIG d   1       7.887   0.393  -4.137  0.00  0.00    -0.062 A 
ATOM     21  H   LIG d   1       8.190  -1.723  -4.166  0.00  0.00     0.062 H 
ATOM     22  C   LIG d   1       7.064   1.427  -3.730  0.00  0.00    -0.061 A 
ATOM     23  H   LIG d   1       8.795   0.608  -4.681  0.00  0.00     0.062 H 
ATOM     24  C   LIG d   1       5.901   1.152  -3.034  0.00  0.00    -0.053 A 
ATOM     25  H   LIG d   1       7.330   2.449  -3.956  0.00  0.00     0.062 H 
ATOM     26  H   LIG d   1       5.259   1.960  -2.716  0.00  0.00     0.062 H 
ENDBRANCH  10  16
ENDBRANCH   7  10
ENDBRANCH   4   7
ENDBRANCH   1   4
BRANCH   1  27
ATOM     27  C   LIG d   1       3.085  -0.409  -6.191  0.00  0.00     0.026 C 
ATOM     28  H   LIG d   1       2.396  -1.252  -6.207  0.00  0.00     0.038 H 
BRANCH  27  29
ATOM     29  C   LIG d   1       4.523  -0.926  -6.104  0.00  0.00    -0.018 C 
ATOM     30  H   LIG d   1       5.126  -0.457  -6.881  0.00  0.00     0.032 H 
ATOM     31  H   LIG d   1       4.938  -0.684  -5.125  0.00  0.00     0.032 H 
BRANCH  29  32
ATOM     32  C   LIG d   1       4.532  -2.421  -6.297  0.00  0.00    -0.047 A 
ATOM     33  C   LIG d   1       4.289  -2.957  -7.548  0.00  0.00    -0.059 A 
ATOM     34  C   LIG d   1       4.301  -4.328  -7.726  0.00  0.00    -0.061 A 
ATOM     35  H   LIG d   1       4.094  -2.305  -8.386  0.00  0.00     0.062 H 
ATOM     36  C   LIG d   1       4.546  -5.162  -6.651  0.00  0.00    -0.062 A 
ATOM     37  H   LIG d   1       4.116  -4.747  -8.704  0.00  0.00     0.062 H 
ATOM     38  C   LIG d   1       4.783  -4.626  -5.400  0.00  0.00    -0.061 A 
ATOM     39  H   LIG d   1       4.552  -6.234  -6.790  0.00  0.00     0.062 H 
ATOM     40  C   LIG d   1       4.775  -3.255  -5.222  0.00  0.00    -0.059 A 
ATOM     41  H   LIG d   1       4.975  -5.278  -4.560  0.00  0.00     0.062 H 
ATOM     42  H   LIG d   1       4.960  -2.836  -4.244  0.00  0.00     0.062 H 
ENDBRANCH  29  32
ENDBRANCH  27  29
BRANCH  27  43
ATOM     43  C   LIG d   1       2.919   0.401  -7.451  0.00  0.00     0.108 A 
ATOM     44  O   LIG d   1       3.201   1.706  -7.589  0.00  0.00    -0.468 OA
ATOM     45  C   LIG d   1       2.934   2.092  -8.848  0.00  0.00     0.092 A 
ATOM     46  C   LIG d   1       2.467   1.029  -9.528  0.00  0.00    -0.024 A 
ATOM     47  H   LIG d   1       3.068   3.086  -9.246  0.00  0.00     0.103 H 
ATOM     48  C   LIG d   1       2.457  -0.061  -8.627  0.00  0.00    -0.020 A 
ATOM     49  H   LIG d   1       2.158   1.012 -10.562  0.00  0.00     0.065 H 
ATOM     50  H   LIG d   1       2.140  -1.071  -8.842  0.00  0.00     0.065 H 
ENDBRANCH  27  43
ENDBRANCH   1  27
TORSDOF 9
ENDMDL
MODEL 5
REMARK VINA RESULT:      -5.7      2.128      4.979
REMARK  9 active torsions:
REMARK  status: ('A' for Active; 'I' for Inactive)
REMARK    1  A    between atoms: C_1  and  C_2 
REMARK    2  A    between atoms: C_2  and  C_4 
REMARK    3  A    between atoms: C_2  and  N_10 
REMARK    4  A    between atoms: N_10  and  C_11 
REMARK    5  A    between atoms: C_11  and  C_12 
REMARK    6  A    between atoms: C_12  and  C_13 
REMARK    7  A    between atoms: C_13  and  C_15 
REMARK    8  A    between atoms: C_13  and  C_22 
REMARK    9  A    between atoms: C_15  and  C_16 
ROOT
ATOM      1  C   LIG d   1       6.574  -2.549  -4.787  0.00  0.00    -0.003 C 
ATOM      2  H   LIG d   1       6.976  -3.556  -4.894  0.00  0.00     0.032 H 
ATOM      3  H   LIG d   1       6.812  -2.167  -3.794  0.00  0.00     0.032 H 
ENDROOT
BRANCH   1   4
ATOM      4  C   LIG d   1       7.196  -1.636  -5.846  0.00  0.00    -0.032 C 
ATOM      5  H   LIG d   1       7.421  -2.217  -6.741  0.00  0.00     0.081 H 
ATOM      6  H   LIG d   1       8.117  -1.201  -5.454  0.00  0.00     0.081 H 
BRANCH   4   7
ATOM      7  N   LIG d   1       6.253  -0.562  -6.183  0.00  0.00     0.232 N 
ATOM      8  H   LIG d   1       6.431   0.239  -5.596  0.00  0.00     0.202 HD
ATOM      9  H   LIG d   1       5.308  -0.885  -6.033  0.00  0.00     0.202 HD
BRANCH   7  10
ATOM     10  C   LIG d   1       6.424  -0.184  -7.592  0.00  0.00     0.000 C 
ATOM     11  H   LIG d   1       7.310   0.442  -7.695  0.00  0.00     0.090 H 
BRANCH  10  12
ATOM     12  C   LIG d   1       6.589  -1.446  -8.441  0.00  0.00    -0.017 C 
ATOM     13  H   LIG d   1       5.762  -2.128  -8.244  0.00  0.00     0.029 H 
ATOM     14  H   LIG d   1       6.595  -1.176  -9.497  0.00  0.00     0.029 H 
ATOM     15  H   LIG d   1       7.530  -1.934  -8.186  0.00  0.00     0.029 H 
ENDBRANCH  10  12
BRANCH  10  16
ATOM     16  C   LIG d   1       5.211   0.580  -8.058  0.00  0.00    -0.000 A 
ATOM     17  C   LIG d   1       3.952   0.205  -7.629  0.00  0.00    -0.053 A 
ATOM     18  C   LIG d   1       2.840   0.909  -8.054  0.00  0.00    -0.061 A 
ATOM     19  H   LIG d   1       3.837  -0.634  -6.961  0.00  0.00     0.062 H 
ATOM     20  C   LIG d   1       2.987   1.981  -8.915  0.00  0.00    -0.062 A 
ATOM     21  H   LIG d   1       1.856   0.619  -7.716  0.00  0.00     0.062 H 
ATOM     22  C   LIG d   1       4.247   2.353  -9.347  0.00  0.00    -0.061 A 
ATOM     23  H   LIG d   1       2.118   2.529  -9.248  0.00  0.00     0.062 H 
ATOM     24  C   LIG d   1       5.359   1.652  -8.919  0.00  0.00    -0.053 A 
ATOM     25  H   LIG d   1       4.361   3.190 -10.019  0.00  0.00     0.062 H 
ATOM     26  H   LIG d   1       6.342   1.941  -9.256  0.00  0.00     0.062 H 
ENDBRANCH  10  16
ENDBRANCH   7  10
ENDBRANCH   4   7
ENDBRANCH   1   4
BRANCH   1  27
ATOM     27  C   LIG d   1       5.056  -2.582  -4.971  0.00  0.00     0.026 C 
ATOM     28  H   LIG d   1       4.741  -1.718  -5.554  0.00  0.00     0.038 H 
BRANCH  27  29
ATOM     29  C   LIG d   1       4.375  -2.548  -3.601  0.00  0.00    -0.018 C 
ATOM     30  H   LIG d   1       3.428  -3.083  -3.651  0.00  0.00     0.032 H 
ATOM     31  H   LIG d   1       5.022  -3.023  -2.862  0.00  0.00     0.032 H 
BRANCH  29  32
ATOM     32  C   LIG d   1       4.123  -1.118  -3.200  0.00  0.00    -0.047 A 
ATOM     33  C   LIG d   1       4.671  -0.620  -2.033  0.00  0.00    -0.059 A 
ATOM     34  C   LIG d   1       4.443   0.694  -1.667  0.00  0.00    -0.061 A 
ATOM     35  H   LIG d   1       5.280  -1.257  -1.408  0.00  0.00     0.062 H 
ATOM     36  C   LIG d   1       3.660   1.507  -2.465  0.00  0.00    -0.062 A 
ATOM     37  H   LIG d   1       4.874   1.084  -0.757  0.00  0.00     0.062 H 
ATOM     38  C   LIG d   1       3.107   1.008  -3.629  0.00  0.00    -0.061 A 
ATOM     39  H   LIG d   1       3.479   2.532  -2.177  0.00  0.00     0.062 H 
ATOM     40  C   LIG d   1       3.339  -0.304  -3.997  0.00  0.00    -0.059 A 
ATOM     41  H   LIG d   1       2.496   1.643  -4.253  0.00  0.00     0.062 H 
ATOM     42  H   LIG d   1       2.907  -0.694  -4.907  0.00  0.00     0.062 H 
ENDBRANCH  29  32
ENDBRANCH  27  29
BRANCH  27  43
ATOM     43  C   LIG d   1       4.665  -3.846  -5.693  0.00  0.00     0.108 A 
ATOM     44  O   LIG d   1       4.619  -5.076  -5.156  0.00  0.00    -0.468 OA
ATOM     45  C   LIG d   1       4.227  -5.958  -6.090  0.00  0.00     0.092 A 
ATOM     46  C   LIG d   1       4.027  -5.295  -7.244  0.00  0.00    -0.024 A 
ATOM     47  H   LIG d   1       4.099  -7.020  -5.942  0.00  0.00     0.103 H 
ATOM     48  C   LIG d   1       4.310  -3.933  -6.988  0.00  0.00    -0.020 A 
ATOM     49  H   LIG d   1       3.712  -5.721  -8.184  0.00  0.00     0.065 H 
ATOM     50  H   LIG d   1       4.251  -3.120  -7.695  0.00  0.00     0.065 H 
ENDBRANCH  27  43
ENDBRANCH   1  27
TORSDOF 9
ENDMDL
MODEL 6
REMARK VINA RESULT:      -5.7      2.009      4.220
REMARK  9 active torsions:
REMARK  status: ('A' for Active; 'I' for Inactive)
REMARK    1  A    between atoms: C_1  and  C_2 
REMARK    2  A    between atoms: C_2  and  C_4 
REMARK    3  A    between atoms: C_2  and  N_10 
REMARK    4  A    between atoms: N_10  and  C_11 
REMARK    5  A    between atoms: C_11  and  C_12 
REMARK    6  A    between atoms: C_12  and  C_13 
REMARK    7  A    between atoms: C_13  and  C_15 
REMARK    8  A    between atoms: C_13  and  C_22 
REMARK    9  A    between atoms: C_15  and  C_16 
ROOT
ATOM      1  C   LIG d   1       4.932  -0.792  -5.953  0.00  0.00    -0.003 C 
ATOM      2  H   LIG d   1       4.718  -1.860  -5.941  0.00  0.00     0.032 H 
ATOM      3  H   LIG d   1       5.124  -0.449  -4.936  0.00  0.00     0.032 H 
ENDROOT
BRANCH   1   4
ATOM      4  C   LIG d   1       6.164  -0.527  -6.820  0.00  0.00    -0.032 C 
ATOM      5  H   LIG d   1       5.974  -0.872  -7.837  0.00  0.00     0.081 H 
ATOM      6  H   LIG d   1       7.019  -1.064  -6.408  0.00  0.00     0.081 H 
BRANCH   4   7
ATOM      7  N   LIG d   1       6.451   0.913  -6.838  0.00  0.00     0.232 N 
ATOM      8  H   LIG d   1       7.124   1.130  -6.119  0.00  0.00     0.202 HD
ATOM      9  H   LIG d   1       5.600   1.428  -6.667  0.00  0.00     0.202 HD
BRANCH   7  10
ATOM     10  C   LIG d   1       6.996   1.288  -8.149  0.00  0.00     0.000 C 
ATOM     11  H   LIG d   1       7.435   2.284  -8.087  0.00  0.00     0.090 H 
BRANCH  10  12
ATOM     12  C   LIG d   1       8.070   0.280  -8.562  0.00  0.00    -0.017 C 
ATOM     13  H   LIG d   1       7.673  -0.731  -8.473  0.00  0.00     0.029 H 
ATOM     14  H   LIG d   1       8.366   0.466  -9.594  0.00  0.00     0.029 H 
ATOM     15  H   LIG d   1       8.938   0.388  -7.910  0.00  0.00     0.029 H 
ENDBRANCH  10  12
BRANCH  10  16
ATOM     16  C   LIG d   1       5.889   1.290  -9.172  0.00  0.00    -0.000 A 
ATOM     17  C   LIG d   1       5.863   0.327 -10.164  0.00  0.00    -0.053 A 
ATOM     18  C   LIG d   1       4.846   0.327 -11.100  0.00  0.00    -0.061 A 
ATOM     19  H   LIG d   1       6.636  -0.426 -10.205  0.00  0.00     0.062 H 
ATOM     20  C   LIG d   1       3.859   1.294 -11.050  0.00  0.00    -0.062 A 
ATOM     21  H   LIG d   1       4.823  -0.428 -11.872  0.00  0.00     0.062 H 
ATOM     22  C   LIG d   1       3.888   2.260 -10.060  0.00  0.00    -0.061 A 
ATOM     23  H   LIG d   1       3.066   1.295 -11.783  0.00  0.00     0.062 H 
ATOM     24  C   LIG d   1       4.903   2.257  -9.122  0.00  0.00    -0.053 A 
ATOM     25  H   LIG d   1       3.117   3.015 -10.021  0.00  0.00     0.062 H 
ATOM     26  H   LIG d   1       4.925   3.012  -8.349  0.00  0.00     0.062 H 
ENDBRANCH  10  16
ENDBRANCH   7  10
ENDBRANCH   4   7
ENDBRANCH   1   4
BRANCH   1  27
ATOM     27  C   LIG d   1       3.731  -0.038  -6.527  0.00  0.00     0.026 C 
ATOM     28  H   LIG d   1       4.042   0.959  -6.838  0.00  0.00     0.038 H 
BRANCH  27  29
ATOM     29  C   LIG d   1       2.642   0.078  -5.458  0.00  0.00    -0.018 C 
ATOM     30  H   LIG d   1       2.137   1.039  -5.556  0.00  0.00     0.032 H 
ATOM     31  H   LIG d   1       1.919  -0.728  -5.588  0.00  0.00     0.032 H 
BRANCH  29  32
ATOM     32  C   LIG d   1       3.267  -0.023  -4.091  0.00  0.00    -0.047 A 
ATOM     33  C   LIG d   1       3.692   1.119  -3.439  0.00  0.00    -0.059 A 
ATOM     34  C   LIG d   1       4.263   1.026  -2.183  0.00  0.00    -0.061 A 
ATOM     35  H   LIG d   1       3.577   2.084  -3.910  0.00  0.00     0.062 H 
ATOM     36  C   LIG d   1       4.415  -0.210  -1.583  0.00  0.00    -0.062 A 
ATOM     37  H   LIG d   1       4.591   1.919  -1.672  0.00  0.00     0.062 H 
ATOM     38  C   LIG d   1       3.995  -1.352  -2.237  0.00  0.00    -0.061 A 
ATOM     39  H   LIG d   1       4.864  -0.282  -0.603  0.00  0.00     0.062 H 
ATOM     40  C   LIG d   1       3.421  -1.260  -3.491  0.00  0.00    -0.059 A 
ATOM     41  H   LIG d   1       4.114  -2.318  -1.768  0.00  0.00     0.062 H 
ATOM     42  H   LIG d   1       3.093  -2.152  -4.002  0.00  0.00     0.062 H 
ENDBRANCH  29  32
ENDBRANCH  27  29
BRANCH  27  43
ATOM     43  C   LIG d   1       3.189  -0.788  -7.716  0.00  0.00     0.108 A 
ATOM     44  O   LIG d   1       3.648  -1.962  -8.180  0.00  0.00    -0.468 OA
ATOM     45  C   LIG d   1       2.925  -2.335  -9.249  0.00  0.00     0.092 A 
ATOM     46  C   LIG d   1       1.996  -1.390  -9.485  0.00  0.00    -0.024 A 
ATOM     47  H   LIG d   1       3.068  -3.236  -9.825  0.00  0.00     0.103 H 
ATOM     48  C   LIG d   1       2.166  -0.393  -8.496  0.00  0.00    -0.020 A 
ATOM     49  H   LIG d   1       1.262  -1.392 -10.276  0.00  0.00     0.065 H 
ATOM     50  H   LIG d   1       1.586   0.511  -8.387  0.00  0.00     0.065 H 
ENDBRANCH  27  43
ENDBRANCH   1  27
TORSDOF 9
ENDMDL
MODEL 7
REMARK VINA RESULT:      -5.6      1.675      4.863
REMARK  9 active torsions:
REMARK  status: ('A' for Active; 'I' for Inactive)
REMARK    1  A    between atoms: C_1  and  C_2 
REMARK    2  A    between atoms: C_2  and  C_4 
REMARK    3  A    between atoms: C_2  and  N_10 
REMARK    4  A    between atoms: N_10  and  C_11 
REMARK    5  A    between atoms: C_11  and  C_12 
REMARK    6  A    between atoms: C_12  and  C_13 
REMARK    7  A    between atoms: C_13  and  C_15 
REMARK    8  A    between atoms: C_13  and  C_22 
REMARK    9  A    between atoms: C_15  and  C_16 
ROOT
ATOM      1  C   LIG d   1       7.108  -1.622  -6.998  0.00  0.00    -0.003 C 
ATOM      2  H   LIG d   1       8.161  -1.661  -7.272  0.00  0.00     0.032 H 
ATOM      3  H   LIG d   1       6.505  -2.025  -7.813  0.00  0.00     0.032 H 
ENDROOT
BRANCH   1   4
ATOM      4  C   LIG d   1       6.878  -2.456  -5.736  0.00  0.00    -0.032 C 
ATOM      5  H   LIG d   1       7.570  -2.135  -4.956  0.00  0.00     0.081 H 
ATOM      6  H   LIG d   1       7.049  -3.509  -5.961  0.00  0.00     0.081 H 
BRANCH   4   7
ATOM      7  N   LIG d   1       5.497  -2.272  -5.271  0.00  0.00     0.232 N 
ATOM      8  H   LIG d   1       4.934  -3.053  -5.572  0.00  0.00     0.202 HD
ATOM      9  H   LIG d   1       5.122  -1.419  -5.659  0.00  0.00     0.202 HD
BRANCH   7  10
ATOM     10  C   LIG d   1       5.480  -2.192  -3.805  0.00  0.00     0.000 C 
ATOM     11  H   LIG d   1       4.947  -3.053  -3.401  0.00  0.00     0.090 H 
BRANCH  10  12
ATOM     12  C   LIG d   1       6.916  -2.187  -3.277  0.00  0.00    -0.017 C 
ATOM     13  H   LIG d   1       7.595  -1.892  -4.078  0.00  0.00     0.029 H 
ATOM     14  H   LIG d   1       6.998  -1.481  -2.451  0.00  0.00     0.029 H 
ATOM     15  H   LIG d   1       7.178  -3.186  -2.929  0.00  0.00     0.029 H 
ENDBRANCH  10  12
BRANCH  10  16
ATOM     16  C   LIG d   1       4.784  -0.925  -3.378  0.00  0.00    -0.000 A 
ATOM     17  C   LIG d   1       3.855  -0.332  -4.213  0.00  0.00    -0.053 A 
ATOM     18  C   LIG d   1       3.214   0.828  -3.820  0.00  0.00    -0.061 A 
ATOM     19  H   LIG d   1       3.629  -0.777  -5.171  0.00  0.00     0.062 H 
ATOM     20  C   LIG d   1       3.507   1.400  -2.596  0.00  0.00    -0.062 A 
ATOM     21  H   LIG d   1       2.485   1.289  -4.471  0.00  0.00     0.062 H 
ATOM     22  C   LIG d   1       4.439   0.809  -1.763  0.00  0.00    -0.061 A 
ATOM     23  H   LIG d   1       3.008   2.307  -2.291  0.00  0.00     0.062 H 
ATOM     24  C   LIG d   1       5.077  -0.353  -2.154  0.00  0.00    -0.053 A 
ATOM     25  H   LIG d   1       4.668   1.256  -0.807  0.00  0.00     0.062 H 
ATOM     26  H   LIG d   1       5.805  -0.815  -1.504  0.00  0.00     0.062 H 
ENDBRANCH  10  16
ENDBRANCH   7  10
ENDBRANCH   4   7
ENDBRANCH   1   4
BRANCH   1  27
ATOM     27  C   LIG d   1       6.702  -0.171  -6.732  0.00  0.00     0.026 C 
ATOM     28  H   LIG d   1       5.706  -0.147  -6.291  0.00  0.00     0.038 H 
BRANCH  27  29
ATOM     29  C   LIG d   1       6.695   0.606  -8.050  0.00  0.00    -0.018 C 
ATOM     30  H   LIG d   1       7.359   1.467  -7.968  0.00  0.00     0.032 H 
ATOM     31  H   LIG d   1       7.039  -0.043  -8.856  0.00  0.00     0.032 H 
BRANCH  29  32
ATOM     32  C   LIG d   1       5.296   1.078  -8.348  0.00  0.00    -0.047 A 
ATOM     33  C   LIG d   1       4.212   0.405  -7.816  0.00  0.00    -0.059 A 
ATOM     34  C   LIG d   1       2.927   0.841  -8.086  0.00  0.00    -0.061 A 
ATOM     35  H   LIG d   1       4.368  -0.458  -7.187  0.00  0.00     0.062 H 
ATOM     36  C   LIG d   1       2.728   1.943  -8.896  0.00  0.00    -0.062 A 
ATOM     37  H   LIG d   1       2.081   0.318  -7.667  0.00  0.00     0.062 H 
ATOM     38  C   LIG d   1       3.811   2.612  -9.432  0.00  0.00    -0.061 A 
ATOM     39  H   LIG d   1       1.724   2.281  -9.109  0.00  0.00     0.062 H 
ATOM     40  C   LIG d   1       5.095   2.180  -9.159  0.00  0.00    -0.059 A 
ATOM     41  H   LIG d   1       3.655   3.474 -10.065  0.00  0.00     0.062 H 
ATOM     42  H   LIG d   1       5.942   2.703  -9.578  0.00  0.00     0.062 H 
ENDBRANCH  29  32
ENDBRANCH  27  29
BRANCH  27  43
ATOM     43  C   LIG d   1       7.688   0.459  -5.782  0.00  0.00     0.108 A 
ATOM     44  O   LIG d   1       9.025   0.369  -5.863  0.00  0.00    -0.468 OA
ATOM     45  C   LIG d   1       9.583   1.056  -4.854  0.00  0.00     0.092 A 
ATOM     46  C   LIG d   1       8.598   1.590  -4.107  0.00  0.00    -0.024 A 
ATOM     47  H   LIG d   1      10.641   1.161  -4.669  0.00  0.00     0.103 H 
ATOM     48  C   LIG d   1       7.376   1.204  -4.706  0.00  0.00    -0.020 A 
ATOM     49  H   LIG d   1       8.718   2.195  -3.221  0.00  0.00     0.065 H 
ATOM     50  H   LIG d   1       6.384   1.460  -4.366  0.00  0.00     0.065 H 
ENDBRANCH  27  43
ENDBRANCH   1  27
TORSDOF 9
ENDMDL
MODEL 8
REMARK VINA RESULT:      -5.6      1.933      5.048
REMARK  9 active torsions:
REMARK  status: ('A' for Active; 'I' for Inactive)
REMARK    1  A    between atoms: C_1  and  C_2 
REMARK    2  A    between atoms: C_2  and  C_4 
REMARK    3  A    between atoms: C_2  and  N_10 
REMARK    4  A    between atoms: N_10  and  C_11 
REMARK    5  A    between atoms: C_11  and  C_12 
REMARK    6  A    between atoms: C_12  and  C_13 
REMARK    7  A    between atoms: C_13  and  C_15 
REMARK    8  A    between atoms: C_13  and  C_22 
REMARK    9  A    between atoms: C_15  and  C_16 
ROOT
ATOM      1  C   LIG d   1       6.470  -2.111  -6.042  0.00  0.00    -0.003 C 
ATOM      2  H   LIG d   1       7.251  -2.725  -6.490  0.00  0.00     0.032 H 
ATOM      3  H   LIG d   1       5.978  -2.674  -5.247  0.00  0.00     0.032 H 
ENDROOT
BRANCH   1   4
ATOM      4  C   LIG d   1       7.091  -0.842  -5.456  0.00  0.00    -0.032 C 
ATOM      5  H   LIG d   1       6.352  -0.040  -5.458  0.00  0.00     0.081 H 
ATOM      6  H   LIG d   1       7.949  -0.545  -6.061  0.00  0.00     0.081 H 
BRANCH   4   7
ATOM      7  N   LIG d   1       7.530  -1.100  -4.079  0.00  0.00     0.232 N 
ATOM      8  H   LIG d   1       8.536  -1.049  -4.031  0.00  0.00     0.202 HD
ATOM      9  H   LIG d   1       7.227  -2.021  -3.796  0.00  0.00     0.202 HD
BRANCH   7  10
ATOM     10  C   LIG d   1       6.945  -0.096  -3.181  0.00  0.00     0.000 C 
ATOM     11  H   LIG d   1       7.440  -0.144  -2.211  0.00  0.00     0.090 H 
BRANCH  10  12
ATOM     12  C   LIG d   1       7.136   1.298  -3.783  0.00  0.00    -0.017 C 
ATOM     13  H   LIG d   1       7.782   1.230  -4.659  0.00  0.00     0.029 H 
ATOM     14  H   LIG d   1       6.168   1.704  -4.075  0.00  0.00     0.029 H 
ATOM     15  H   LIG d   1       7.597   1.953  -3.043  0.00  0.00     0.029 H 
ENDBRANCH  10  12
BRANCH  10  16
ATOM     16  C   LIG d   1       5.473  -0.371  -3.009  0.00  0.00    -0.000 A 
ATOM     17  C   LIG d   1       5.041  -1.644  -2.687  0.00  0.00    -0.053 A 
ATOM     18  C   LIG d   1       3.691  -1.896  -2.525  0.00  0.00    -0.061 A 
ATOM     19  H   LIG d   1       5.759  -2.441  -2.559  0.00  0.00     0.062 H 
ATOM     20  C   LIG d   1       2.773  -0.877  -2.695  0.00  0.00    -0.062 A 
ATOM     21  H   LIG d   1       3.354  -2.889  -2.269  0.00  0.00     0.062 H 
ATOM     22  C   LIG d   1       3.205   0.396  -3.022  0.00  0.00    -0.061 A 
ATOM     23  H   LIG d   1       1.718  -1.074  -2.571  0.00  0.00     0.062 H 
ATOM     24  C   LIG d   1       4.554   0.648  -3.179  0.00  0.00    -0.053 A 
ATOM     25  H   LIG d   1       2.487   1.191  -3.154  0.00  0.00     0.062 H 
ATOM     26  H   LIG d   1       4.892   1.642  -3.435  0.00  0.00     0.062 H 
ENDBRANCH  10  16
ENDBRANCH   7  10
ENDBRANCH   4   7
ENDBRANCH   1   4
BRANCH   1  27
ATOM     27  C   LIG d   1       5.443  -1.731  -7.109  0.00  0.00     0.026 C 
ATOM     28  H   LIG d   1       5.955  -1.320  -7.978  0.00  0.00     0.038 H 
BRANCH  27  29
ATOM     29  C   LIG d   1       4.481  -0.685  -6.542  0.00  0.00    -0.018 C 
ATOM     30  H   LIG d   1       3.529  -1.157  -6.303  0.00  0.00     0.032 H 
ATOM     31  H   LIG d   1       4.909  -0.250  -5.638  0.00  0.00     0.032 H 
BRANCH  29  32
ATOM     32  C   LIG d   1       4.259   0.400  -7.565  0.00  0.00    -0.047 A 
ATOM     33  C   LIG d   1       5.315   0.848  -8.337  0.00  0.00    -0.059 A 
ATOM     34  C   LIG d   1       5.110   1.841  -9.277  0.00  0.00    -0.061 A 
ATOM     35  H   LIG d   1       6.298   0.420  -8.207  0.00  0.00     0.062 H 
ATOM     36  C   LIG d   1       3.853   2.391  -9.439  0.00  0.00    -0.062 A 
ATOM     37  H   LIG d   1       5.934   2.187  -9.884  0.00  0.00     0.062 H 
ATOM     38  C   LIG d   1       2.799   1.947  -8.663  0.00  0.00    -0.061 A 
ATOM     39  H   LIG d   1       3.694   3.169 -10.172  0.00  0.00     0.062 H 
ATOM     40  C   LIG d   1       3.002   0.952  -7.726  0.00  0.00    -0.059 A 
ATOM     41  H   LIG d   1       1.816   2.377  -8.790  0.00  0.00     0.062 H 
ATOM     42  H   LIG d   1       2.178   0.605  -7.119  0.00  0.00     0.062 H 
ENDBRANCH  29  32
ENDBRANCH  27  29
BRANCH  27  43
ATOM     43  C   LIG d   1       4.666  -2.957  -7.517  0.00  0.00     0.108 A 
ATOM     44  O   LIG d   1       4.533  -4.080  -6.792  0.00  0.00    -0.468 OA
ATOM     45  C   LIG d   1       3.772  -4.959  -7.465  0.00  0.00     0.092 A 
ATOM     46  C   LIG d   1       3.418  -4.405  -8.639  0.00  0.00    -0.024 A 
ATOM     47  H   LIG d   1       3.495  -5.945  -7.124  0.00  0.00     0.103 H 
ATOM     48  C   LIG d   1       3.995  -3.114  -8.672  0.00  0.00    -0.020 A 
ATOM     49  H   LIG d   1       2.810  -4.858  -9.407  0.00  0.00     0.065 H 
ATOM     50  H   LIG d   1       3.911  -2.393  -9.471  0.00  0.00     0.065 H 
ENDBRANCH  27  43
ENDBRANCH   1  27
TORSDOF 9
ENDMDL
MODEL 9
REMARK VINA RESULT:      -5.3      2.293      5.556
REMARK  9 active torsions:
REMARK  status: ('A' for Active; 'I' for Inactive)
REMARK    1  A    between atoms: C_1  and  C_2 
REMARK    2  A    between atoms: C_2  and  C_4 
REMARK    3  A    between atoms: C_2  and  N_10 
REMARK    4  A    between atoms: N_10  and  C_11 
REMARK    5  A    between atoms: C_11  and  C_12 
REMARK    6  A    between atoms: C_12  and  C_13 
REMARK    7  A    between atoms: C_13  and  C_15 
REMARK    8  A    between atoms: C_13  and  C_22 
REMARK    9  A    between atoms: C_15  and  C_16 
ROOT
ATOM      1  C   LIG d   1       6.766  -1.939  -5.871  0.00  0.00    -0.003 C 
ATOM      2  H   LIG d   1       7.471  -2.668  -6.269  0.00  0.00     0.032 H 
ATOM      3  H   LIG d   1       7.299  -1.224  -5.243  0.00  0.00     0.032 H 
ENDROOT
BRANCH   1   4
ATOM      4  C   LIG d   1       6.092  -1.197  -7.027  0.00  0.00    -0.032 C 
ATOM      5  H   LIG d   1       5.532  -1.906  -7.637  0.00  0.00     0.081 H 
ATOM      6  H   LIG d   1       6.854  -0.713  -7.640  0.00  0.00     0.081 H 
BRANCH   4   7
ATOM      7  N   LIG d   1       5.177  -0.182  -6.491  0.00  0.00     0.232 N 
ATOM      8  H   LIG d   1       5.518   0.738  -6.729  0.00  0.00     0.202 HD
ATOM      9  H   LIG d   1       5.126  -0.271  -5.487  0.00  0.00     0.202 HD
BRANCH   7  10
ATOM     10  C   LIG d   1       3.840  -0.373  -7.068  0.00  0.00     0.000 C 
ATOM     11  H   LIG d   1       3.606  -1.437  -7.096  0.00  0.00     0.090 H 
BRANCH  10  12
ATOM     12  C   LIG d   1       2.805   0.356  -6.209  0.00  0.00    -0.017 C 
ATOM     13  H   LIG d   1       3.310   1.084  -5.572  0.00  0.00     0.029 H 
ATOM     14  H   LIG d   1       2.093   0.869  -6.854  0.00  0.00     0.029 H 
ATOM     15  H   LIG d   1       2.278  -0.367  -5.586  0.00  0.00     0.029 H 
ENDBRANCH  10  12
BRANCH  10  16
ATOM     16  C   LIG d   1       3.813   0.185  -8.468  0.00  0.00    -0.000 A 
ATOM     17  C   LIG d   1       3.551  -0.650  -9.539  0.00  0.00    -0.053 A 
ATOM     18  C   LIG d   1       3.521  -0.138 -10.823  0.00  0.00    -0.061 A 
ATOM     19  H   LIG d   1       3.366  -1.700  -9.372  0.00  0.00     0.062 H 
ATOM     20  C   LIG d   1       3.763   1.207 -11.037  0.00  0.00    -0.062 A 
ATOM     21  H   LIG d   1       3.313  -0.788 -11.659  0.00  0.00     0.062 H 
ATOM     22  C   LIG d   1       4.030   2.040  -9.966  0.00  0.00    -0.061 A 
ATOM     23  H   LIG d   1       3.743   1.606 -12.041  0.00  0.00     0.062 H 
ATOM     24  C   LIG d   1       4.055   1.529  -8.682  0.00  0.00    -0.053 A 
ATOM     25  H   LIG d   1       4.218   3.090 -10.134  0.00  0.00     0.062 H 
ATOM     26  H   LIG d   1       4.263   2.179  -7.846  0.00  0.00     0.062 H 
ENDBRANCH  10  16
ENDBRANCH   7  10
ENDBRANCH   4   7
ENDBRANCH   1   4
BRANCH   1  27
ATOM     27  C   LIG d   1       5.703  -2.657  -5.038  0.00  0.00     0.026 C 
ATOM     28  H   LIG d   1       4.715  -2.292  -5.315  0.00  0.00     0.038 H 
BRANCH  27  29
ATOM     29  C   LIG d   1       5.949  -2.384  -3.552  0.00  0.00    -0.018 C 
ATOM     30  H   LIG d   1       5.661  -3.259  -2.969  0.00  0.00     0.032 H 
ATOM     31  H   LIG d   1       7.007  -2.173  -3.392  0.00  0.00     0.032 H 
BRANCH  29  32
ATOM     32  C   LIG d   1       5.129  -1.198  -3.117  0.00  0.00    -0.047 A 
ATOM     33  C   LIG d   1       5.749   0.004  -2.834  0.00  0.00    -0.059 A 
ATOM     34  C   LIG d   1       4.996   1.094  -2.438  0.00  0.00    -0.061 A 
ATOM     35  H   LIG d   1       6.822   0.093  -2.925  0.00  0.00     0.062 H 
ATOM     36  C   LIG d   1       3.624   0.979  -2.316  0.00  0.00    -0.062 A 
ATOM     37  H   LIG d   1       5.480   2.035  -2.221  0.00  0.00     0.062 H 
ATOM     38  C   LIG d   1       3.004  -0.225  -2.594  0.00  0.00    -0.061 A 
ATOM     39  H   LIG d   1       3.036   1.830  -2.004  0.00  0.00     0.062 H 
ATOM     40  C   LIG d   1       3.756  -1.314  -2.994  0.00  0.00    -0.059 A 
ATOM     41  H   LIG d   1       1.932  -0.315  -2.499  0.00  0.00     0.062 H 
ATOM     42  H   LIG d   1       3.272  -2.254  -3.210  0.00  0.00     0.062 H 
ENDBRANCH  29  32
ENDBRANCH  27  29
BRANCH  27  43
ATOM     43  C   LIG d   1       5.781  -4.140  -5.295  0.00  0.00     0.108 A 
ATOM     44  O   LIG d   1       6.909  -4.852  -5.452  0.00  0.00    -0.468 OA
ATOM     45  C   LIG d   1       6.600  -6.142  -5.660  0.00  0.00     0.092 A 
ATOM     46  C   LIG d   1       5.260  -6.265  -5.648  0.00  0.00    -0.024 A 
ATOM     47  H   LIG d   1       7.306  -6.944  -5.816  0.00  0.00     0.103 H 
ATOM     48  C   LIG d   1       4.733  -4.974  -5.412  0.00  0.00    -0.020 A 
ATOM     49  H   LIG d   1       4.696  -7.175  -5.790  0.00  0.00     0.065 H 
ATOM     50  H   LIG d   1       3.689  -4.710  -5.339  0.00  0.00     0.065 H 
ENDBRANCH  27  43
ENDBRANCH   1  27
TORSDOF 9
ENDMDL
MODEL 10
REMARK VINA RESULT:      -5.3      2.248      5.770
REMARK  9 active torsions:
REMARK  status: ('A' for Active; 'I' for Inactive)
REMARK    1  A    between atoms: C_1  and  C_2 
REMARK    2  A    between atoms: C_2  and  C_4 
REMARK    3  A    between atoms: C_2  and  N_10 
REMARK    4  A    between atoms: N_10  and  C_11 
REMARK    5  A    between atoms: C_11  and  C_12 
REMARK    6  A    between atoms: C_12  and  C_13 
REMARK    7  A    between atoms: C_13  and  C_15 
REMARK    8  A    between atoms: C_13  and  C_22 
REMARK    9  A    between atoms: C_15  and  C_16 
ROOT
ATOM      1  C   LIG d   1       7.222  -1.308  -5.774  0.00  0.00    -0.003 C 
ATOM      2  H   LIG d   1       8.122  -1.702  -6.245  0.00  0.00     0.032 H 
ATOM      3  H   LIG d   1       7.441  -0.340  -5.323  0.00  0.00     0.032 H 
ENDROOT
BRANCH   1   4
ATOM      4  C   LIG d   1       6.126  -1.141  -6.829  0.00  0.00    -0.032 C 
ATOM      5  H   LIG d   1       5.592  -2.084  -6.952  0.00  0.00     0.081 H 
ATOM      6  H   LIG d   1       6.578  -0.853  -7.779  0.00  0.00     0.081 H 
BRANCH   4   7
ATOM      7  N   LIG d   1       5.186  -0.099  -6.399  0.00  0.00     0.232 N 
ATOM      8  H   LIG d   1       5.493   0.797  -6.748  0.00  0.00     0.202 HD
ATOM      9  H   LIG d   1       5.152  -0.071  -5.390  0.00  0.00     0.202 HD
BRANCH   7  10
ATOM     10  C   LIG d   1       3.848  -0.397  -6.925  0.00  0.00     0.000 C 
ATOM     11  H   LIG d   1       3.685  -1.475  -6.912  0.00  0.00     0.090 H 
BRANCH  10  12
ATOM     12  C   LIG d   1       2.793   0.290  -6.055  0.00  0.00    -0.017 C 
ATOM     13  H   LIG d   1       1.914   0.515  -6.660  0.00  0.00     0.029 H 
ATOM     14  H   LIG d   1       2.511  -0.371  -5.236  0.00  0.00     0.029 H 
ATOM     15  H   LIG d   1       3.203   1.216  -5.652  0.00  0.00     0.029 H 
ENDBRANCH  10  12
BRANCH  10  16
ATOM     16  C   LIG d   1       3.740   0.110  -8.340  0.00  0.00    -0.000 A 
ATOM     17  C   LIG d   1       3.344  -0.745  -9.352  0.00  0.00    -0.053 A 
ATOM     18  C   LIG d   1       3.241  -0.278 -10.650  0.00  0.00    -0.061 A 
ATOM     19  H   LIG d   1       3.112  -1.775  -9.128  0.00  0.00     0.062 H 
ATOM     20  C   LIG d   1       3.543   1.040 -10.937  0.00  0.00    -0.062 A 
ATOM     21  H   LIG d   1       2.927  -0.945 -11.440  0.00  0.00     0.062 H 
ATOM     22  C   LIG d   1       3.944   1.893  -9.925  0.00  0.00    -0.061 A 
ATOM     23  H   LIG d   1       3.465   1.403 -11.951  0.00  0.00     0.062 H 
ATOM     24  C   LIG d   1       4.042   1.428  -8.628  0.00  0.00    -0.053 A 
ATOM     25  H   LIG d   1       4.180   2.922 -10.150  0.00  0.00     0.062 H 
ATOM     26  H   LIG d   1       4.355   2.094  -7.838  0.00  0.00     0.062 H 
ENDBRANCH  10  16
ENDBRANCH   7  10
ENDBRANCH   4   7
ENDBRANCH   1   4
BRANCH   1  27
ATOM     27  C   LIG d   1       6.744  -2.279  -4.692  0.00  0.00     0.026 C 
ATOM     28  H   LIG d   1       5.707  -2.552  -4.880  0.00  0.00     0.038 H 
BRANCH  27  29
ATOM     29  C   LIG d   1       6.854  -1.608  -3.321  0.00  0.00    -0.018 C 
ATOM     30  H   LIG d   1       7.069  -2.361  -2.563  0.00  0.00     0.032 H 
ATOM     31  H   LIG d   1       7.659  -0.872  -3.341  0.00  0.00     0.032 H 
BRANCH  29  32
ATOM     32  C   LIG d   1       5.554  -0.921  -2.992  0.00  0.00    -0.047 A 
ATOM     33  C   LIG d   1       5.542   0.427  -2.687  0.00  0.00    -0.059 A 
ATOM     34  C   LIG d   1       4.348   1.058  -2.389  0.00  0.00    -0.061 A 
ATOM     35  H   LIG d   1       6.465   0.988  -2.685  0.00  0.00     0.062 H 
ATOM     36  C   LIG d   1       3.168   0.338  -2.387  0.00  0.00    -0.062 A 
ATOM     37  H   LIG d   1       4.338   2.112  -2.155  0.00  0.00     0.062 H 
ATOM     38  C   LIG d   1       3.181  -1.011  -2.687  0.00  0.00    -0.061 A 
ATOM     39  H   LIG d   1       2.236   0.831  -2.151  0.00  0.00     0.062 H 
ATOM     40  C   LIG d   1       4.373  -1.641  -2.989  0.00  0.00    -0.059 A 
ATOM     41  H   LIG d   1       2.258  -1.573  -2.686  0.00  0.00     0.062 H 
ATOM     42  H   LIG d   1       4.383  -2.695  -3.223  0.00  0.00     0.062 H 
ENDBRANCH  29  32
ENDBRANCH  27  29
BRANCH  27  43
ATOM     43  C   LIG d   1       7.603  -3.517  -4.715  0.00  0.00     0.108 A 
ATOM     44  O   LIG d   1       7.550  -4.493  -5.635  0.00  0.00    -0.468 OA
ATOM     45  C   LIG d   1       8.460  -5.436  -5.341  0.00  0.00     0.092 A 
ATOM     46  C   LIG d   1       9.101  -5.072  -4.216  0.00  0.00    -0.024 A 
ATOM     47  H   LIG d   1       8.643  -6.336  -5.909  0.00  0.00     0.103 H 
ATOM     48  C   LIG d   1       8.548  -3.834  -3.812  0.00  0.00    -0.020 A 
ATOM     49  H   LIG d   1       9.886  -5.619  -3.717  0.00  0.00     0.065 H 
ATOM     50  H   LIG d   1       8.831  -3.256  -2.946  0.00  0.00     0.065 H 
ENDBRANCH  27  43
ENDBRANCH   1  27
TORSDOF 9
ENDMDL
