MODEL 1
REMARK VINA RESULT:      -8.7      0.000      0.000
REMARK  8 active torsions:
REMARK  status: ('A' for Active; 'I' for Inactive)
REMARK    1  A    between atoms: C_7  and  C_11 
REMARK    2  A    between atoms: C_11  and  C_12 
REMARK    3  A    between atoms: C_12  and  N_13 
REMARK       I    between atoms: N_13  and  C_14 
REMARK    4  A    between atoms: C_14  and  C_16 
REMARK       I    between atoms: C_16  and  N_18 
REMARK    5  A    between atoms: N_18  and  C_19 
REMARK    6  A    between atoms: C_24  and  C_25 
REMARK       I    between atoms: C_25  and  N_27 
REMARK    7  A    between atoms: N_27  and  C_28 
REMARK    8  A    between atoms: C_28  and  C_29 
ROOT
ATOM      1  C   LIG d   1       7.311   0.800  -4.356  0.00  0.00     0.303 C 
ATOM      2  O   LIG d   1       7.904  -0.097  -3.793  0.00  0.00    -0.265 OA
ATOM      3  N   LIG d   1       5.964   0.790  -4.405  0.00  0.00    -0.277 N 
ATOM      4  H   LIG d   1       5.493   1.464  -4.919  0.00  0.00     0.155 HD
ENDROOT
BRANCH   3   5
ATOM      5  C   LIG d   1       5.250  -0.188  -3.719  0.00  0.00     0.046 A 
ATOM      6  C   LIG d   1       4.689  -1.269  -4.416  0.00  0.00     0.058 A 
ATOM      7  C   LIG d   1       3.971  -2.241  -3.716  0.00  0.00    -0.048 A 
ATOM      8  C   LIG d   1       3.826  -2.139  -2.349  0.00  0.00    -0.061 A 
ATOM      9  H   LIG d   1       3.532  -3.074  -4.245  0.00  0.00     0.063 H 
ATOM     10  C   LIG d   1       4.381  -1.070  -1.665  0.00  0.00    -0.060 A 
ATOM     11  H   LIG d   1       3.273  -2.893  -1.809  0.00  0.00     0.062 H 
ATOM     12  C   LIG d   1       5.091  -0.099  -2.343  0.00  0.00    -0.040 A 
ATOM     13  H   LIG d   1       4.259  -0.995  -0.595  0.00  0.00     0.062 H 
ATOM     14  H   LIG d   1       5.520   0.732  -1.803  0.00  0.00     0.064 H 
BRANCH   6  15
ATOM     15  C   LIG d   1       4.853  -1.376  -5.878  0.00  0.00     0.246 C 
ATOM     16  O   LIG d   1       5.955  -1.570  -6.353  0.00  0.00    -0.270 OA
ATOM     17  N   LIG d   1       3.781  -1.257  -6.686  0.00  0.00    -0.307 N 
ATOM     18  H   LIG d   1       2.902  -1.101  -6.308  0.00  0.00     0.149 HD
BRANCH  17  19
ATOM     19  C   LIG d   1       3.944  -1.362  -8.138  0.00  0.00     0.039 C 
ATOM     20  H   LIG d   1       3.172  -2.016  -8.545  0.00  0.00     0.051 H 
ATOM     21  H   LIG d   1       4.927  -1.777  -8.365  0.00  0.00     0.051 H 
BRANCH  19  22
ATOM     22  C   LIG d   1       3.822   0.006  -8.758  0.00  0.00    -0.012 A 
ATOM     23  C   LIG d   1       4.490   0.306  -9.929  0.00  0.00     0.032 A 
ATOM     24  N   LIG d   1       4.387   1.501 -10.478  0.00  0.00    -0.263 NA
ATOM     25  H   LIG d   1       5.103  -0.447 -10.402  0.00  0.00     0.083 H 
ATOM     26  C   LIG d   1       3.651   2.451  -9.936  0.00  0.00     0.028 A 
ATOM     27  C   LIG d   1       2.953   2.224  -8.765  0.00  0.00    -0.043 A 
ATOM     28  H   LIG d   1       3.591   3.418 -10.414  0.00  0.00     0.083 H 
ATOM     29  C   LIG d   1       3.041   0.982  -8.156  0.00  0.00    -0.054 A 
ATOM     30  H   LIG d   1       2.351   3.006  -8.327  0.00  0.00     0.063 H 
ATOM     31  H   LIG d   1       2.511   0.777  -7.239  0.00  0.00     0.062 H 
ENDBRANCH  19  22
ENDBRANCH  17  19
ENDBRANCH   6  15
ENDBRANCH   3   5
BRANCH   1  32
ATOM     32  C   LIG d   1       8.073   1.916  -4.991  0.00  0.00     0.299 C 
ATOM     33  N   LIG d   1       8.873   2.700  -4.241  0.00  0.00    -0.307 N 
ATOM     34  H   LIG d   1       8.952   2.540  -3.286  0.00  0.00     0.149 HD
ATOM     35  O   LIG d   1       7.975   2.117  -6.184  0.00  0.00    -0.265 OA
BRANCH  33  36
ATOM     36  C   LIG d   1       9.621   3.794  -4.864  0.00  0.00     0.016 C 
ATOM     37  H   LIG d   1      10.685   3.563  -4.844  0.00  0.00     0.046 H 
ATOM     38  H   LIG d   1       9.293   3.915  -5.897  0.00  0.00     0.046 H 
BRANCH  36  39
ATOM     39  C   LIG d   1       9.365   5.091  -4.093  0.00  0.00    -0.010 C 
ATOM     40  H   LIG d   1       9.704   5.940  -4.687  0.00  0.00     0.033 H 
ATOM     41  H   LIG d   1       8.298   5.190  -3.892  0.00  0.00     0.033 H 
BRANCH  39  42
ATOM     42  C   LIG d   1      10.121   5.057  -2.790  0.00  0.00    -0.021 A 
ATOM     43  C   LIG d   1      10.196   6.132  -1.797  0.00  0.00     0.003 A 
ATOM     44  C   LIG d   1      11.007   5.645  -0.756  0.00  0.00     0.047 A 
ATOM     45  C   LIG d   1       9.658   7.418  -1.717  0.00  0.00    -0.052 A 
ATOM     46  C   LIG d   1      11.264   6.456   0.344  0.00  0.00    -0.038 A 
ATOM     47  N   LIG d   1      11.390   4.369  -1.104  0.00  0.00    -0.360 N 
ATOM     48  C   LIG d   1      10.722   7.720   0.403  0.00  0.00    -0.060 A 
ATOM     49  H   LIG d   1      11.886   6.094   1.150  0.00  0.00     0.064 H 
ATOM     50  C   LIG d   1       9.922   8.197  -0.627  0.00  0.00    -0.061 A 
ATOM     51  H   LIG d   1      10.923   8.349   1.259  0.00  0.00     0.062 H 
ATOM     52  H   LIG d   1       9.506   9.191  -0.565  0.00  0.00     0.062 H 
ATOM     53  C   LIG d   1      10.848   4.034  -2.315  0.00  0.00     0.006 A 
ATOM     54  H   LIG d   1      11.956   3.791  -0.568  0.00  0.00     0.165 HD
ATOM     55  H   LIG d   1      10.987   3.087  -2.815  0.00  0.00     0.081 H 
ATOM     56  H   LIG d   1       9.035   7.795  -2.514  0.00  0.00     0.062 H 
ENDBRANCH  39  42
ENDBRANCH  36  39
ENDBRANCH  33  36
ENDBRANCH   1  32
TORSDOF 8
ENDMDL
MODEL 2
REMARK VINA RESULT:      -8.6      5.203      9.067
REMARK  8 active torsions:
REMARK  status: ('A' for Active; 'I' for Inactive)
REMARK    1  A    between atoms: C_7  and  C_11 
REMARK    2  A    between atoms: C_11  and  C_12 
REMARK    3  A    between atoms: C_12  and  N_13 
REMARK       I    between atoms: N_13  and  C_14 
REMARK    4  A    between atoms: C_14  and  C_16 
REMARK       I    between atoms: C_16  and  N_18 
REMARK    5  A    between atoms: N_18  and  C_19 
REMARK    6  A    between atoms: C_24  and  C_25 
REMARK       I    between atoms: C_25  and  N_27 
REMARK    7  A    between atoms: N_27  and  C_28 
REMARK    8  A    between atoms: C_28  and  C_29 
ROOT
ATOM      1  C   LIG d   1       4.790  -2.783  -4.657  0.00  0.00     0.303 C 
ATOM      2  O   LIG d   1       5.901  -2.333  -4.466  0.00  0.00    -0.265 OA
ATOM      3  N   LIG d   1       3.722  -2.211  -4.067  0.00  0.00    -0.277 N 
ATOM      4  H   LIG d   1       2.844  -2.615  -4.158  0.00  0.00     0.155 HD
ENDROOT
BRANCH   3   5
ATOM      5  C   LIG d   1       3.877  -1.042  -3.330  0.00  0.00     0.046 A 
ATOM      6  C   LIG d   1       3.455   0.187  -3.860  0.00  0.00     0.058 A 
ATOM      7  C   LIG d   1       3.621   1.354  -3.112  0.00  0.00    -0.048 A 
ATOM      8  C   LIG d   1       4.188   1.293  -1.857  0.00  0.00    -0.061 A 
ATOM      9  H   LIG d   1       3.303   2.304  -3.515  0.00  0.00     0.063 H 
ATOM     10  C   LIG d   1       4.604   0.078  -1.336  0.00  0.00    -0.060 A 
ATOM     11  H   LIG d   1       4.313   2.196  -1.279  0.00  0.00     0.062 H 
ATOM     12  C   LIG d   1       4.450  -1.084  -2.065  0.00  0.00    -0.040 A 
ATOM     13  H   LIG d   1       5.051   0.039  -0.355  0.00  0.00     0.062 H 
ATOM     14  H   LIG d   1       4.778  -2.027  -1.653  0.00  0.00     0.064 H 
BRANCH   6  15
ATOM     15  C   LIG d   1       2.844   0.246  -5.202  0.00  0.00     0.246 C 
ATOM     16  O   LIG d   1       1.648   0.070  -5.333  0.00  0.00    -0.270 OA
ATOM     17  N   LIG d   1       3.611   0.493  -6.281  0.00  0.00    -0.307 N 
ATOM     18  H   LIG d   1       4.565   0.632  -6.177  0.00  0.00     0.149 HD
BRANCH  17  19
ATOM     19  C   LIG d   1       3.004   0.550  -7.614  0.00  0.00     0.039 C 
ATOM     20  H   LIG d   1       2.547   1.528  -7.763  0.00  0.00     0.051 H 
ATOM     21  H   LIG d   1       2.241  -0.224  -7.699  0.00  0.00     0.051 H 
BRANCH  19  22
ATOM     22  C   LIG d   1       4.066   0.326  -8.660  0.00  0.00    -0.012 A 
ATOM     23  C   LIG d   1       4.140   1.148  -9.768  0.00  0.00     0.032 A 
ATOM     24  N   LIG d   1       5.067   0.958 -10.687  0.00  0.00    -0.263 NA
ATOM     25  H   LIG d   1       3.433   1.956  -9.882  0.00  0.00     0.083 H 
ATOM     26  C   LIG d   1       5.951  -0.016 -10.590  0.00  0.00     0.028 A 
ATOM     27  C   LIG d   1       5.938  -0.877  -9.509  0.00  0.00    -0.043 A 
ATOM     28  H   LIG d   1       6.695  -0.141 -11.363  0.00  0.00     0.083 H 
ATOM     29  C   LIG d   1       4.976  -0.712  -8.525  0.00  0.00    -0.054 A 
ATOM     30  H   LIG d   1       6.666  -1.671  -9.434  0.00  0.00     0.063 H 
ATOM     31  H   LIG d   1       4.938  -1.372  -7.671  0.00  0.00     0.062 H 
ENDBRANCH  19  22
ENDBRANCH  17  19
ENDBRANCH   6  15
ENDBRANCH   3   5
BRANCH   1  32
ATOM     32  C   LIG d   1       4.607  -3.969  -5.546  0.00  0.00     0.299 C 
ATOM     33  N   LIG d   1       4.866  -3.869  -6.865  0.00  0.00    -0.307 N 
ATOM     34  H   LIG d   1       5.171  -3.025  -7.237  0.00  0.00     0.149 HD
ATOM     35  O   LIG d   1       4.226  -5.023  -5.081  0.00  0.00    -0.265 OA
BRANCH  33  36
ATOM     36  C   LIG d   1       4.687  -5.032  -7.737  0.00  0.00     0.016 C 
ATOM     37  H   LIG d   1       5.527  -5.101  -8.428  0.00  0.00     0.046 H 
ATOM     38  H   LIG d   1       4.639  -5.936  -7.131  0.00  0.00     0.046 H 
BRANCH  36  39
ATOM     39  C   LIG d   1       3.387  -4.880  -8.530  0.00  0.00    -0.010 C 
ATOM     40  H   LIG d   1       2.980  -5.866  -8.752  0.00  0.00     0.033 H 
ATOM     41  H   LIG d   1       2.666  -4.314  -7.939  0.00  0.00     0.033 H 
BRANCH  39  42
ATOM     42  C   LIG d   1       3.666  -4.149  -9.817  0.00  0.00    -0.021 A 
ATOM     43  C   LIG d   1       2.911  -3.016 -10.358  0.00  0.00     0.003 A 
ATOM     44  C   LIG d   1       3.539  -2.672 -11.569  0.00  0.00     0.047 A 
ATOM     45  C   LIG d   1       1.796  -2.297  -9.924  0.00  0.00    -0.052 A 
ATOM     46  C   LIG d   1       3.036  -1.616 -12.321  0.00  0.00    -0.038 A 
ATOM     47  N   LIG d   1       4.594  -3.540 -11.738  0.00  0.00    -0.360 N 
ATOM     48  C   LIG d   1       1.936  -0.920 -11.873  0.00  0.00    -0.060 A 
ATOM     49  H   LIG d   1       3.509  -1.341 -13.253  0.00  0.00     0.064 H 
ATOM     50  C   LIG d   1       1.319  -1.263 -10.677  0.00  0.00    -0.061 A 
ATOM     51  H   LIG d   1       1.547  -0.099 -12.460  0.00  0.00     0.062 H 
ATOM     52  H   LIG d   1       0.457  -0.707 -10.342  0.00  0.00     0.062 H 
ATOM     53  C   LIG d   1       4.658  -4.408 -10.683  0.00  0.00     0.006 A 
ATOM     54  H   LIG d   1       5.205  -3.533 -12.493  0.00  0.00     0.165 HD
ATOM     55  H   LIG d   1       5.396  -5.188 -10.565  0.00  0.00     0.081 H 
ATOM     56  H   LIG d   1       1.311  -2.559  -8.994  0.00  0.00     0.062 H 
ENDBRANCH  39  42
ENDBRANCH  36  39
ENDBRANCH  33  36
ENDBRANCH   1  32
TORSDOF 8
ENDMDL
MODEL 3
REMARK VINA RESULT:      -8.6      1.750      4.697
REMARK  8 active torsions:
REMARK  status: ('A' for Active; 'I' for Inactive)
REMARK    1  A    between atoms: C_7  and  C_11 
REMARK    2  A    between atoms: C_11  and  C_12 
REMARK    3  A    between atoms: C_12  and  N_13 
REMARK       I    between atoms: N_13  and  C_14 
REMARK    4  A    between atoms: C_14  and  C_16 
REMARK       I    between atoms: C_16  and  N_18 
REMARK    5  A    between atoms: N_18  and  C_19 
REMARK    6  A    between atoms: C_24  and  C_25 
REMARK       I    between atoms: C_25  and  N_27 
REMARK    7  A    between atoms: N_27  and  C_28 
REMARK    8  A    between atoms: C_28  and  C_29 
ROOT
ATOM      1  C   LIG d   1       6.110  -0.289  -6.474  0.00  0.00     0.303 C 
ATOM      2  O   LIG d   1       5.730  -1.441  -6.509  0.00  0.00    -0.265 OA
ATOM      3  N   LIG d   1       5.831   0.543  -7.497  0.00  0.00    -0.277 N 
ATOM      4  H   LIG d   1       6.199   1.441  -7.505  0.00  0.00     0.155 HD
ENDROOT
BRANCH   3   5
ATOM      5  C   LIG d   1       5.016   0.116  -8.540  0.00  0.00     0.046 A 
ATOM      6  C   LIG d   1       3.619   0.183  -8.415  0.00  0.00     0.058 A 
ATOM      7  C   LIG d   1       2.812  -0.254  -9.467  0.00  0.00    -0.048 A 
ATOM      8  C   LIG d   1       3.388  -0.739 -10.622  0.00  0.00    -0.061 A 
ATOM      9  H   LIG d   1       1.737  -0.209  -9.378  0.00  0.00     0.063 H 
ATOM     10  C   LIG d   1       4.767  -0.803 -10.741  0.00  0.00    -0.060 A 
ATOM     11  H   LIG d   1       2.762  -1.073 -11.436  0.00  0.00     0.062 H 
ATOM     12  C   LIG d   1       5.579  -0.379  -9.708  0.00  0.00    -0.040 A 
ATOM     13  H   LIG d   1       5.210  -1.189 -11.647  0.00  0.00     0.062 H 
ATOM     14  H   LIG d   1       6.652  -0.434  -9.809  0.00  0.00     0.064 H 
BRANCH   6  15
ATOM     15  C   LIG d   1       3.008   0.708  -7.179  0.00  0.00     0.246 C 
ATOM     16  O   LIG d   1       2.774   1.896  -7.074  0.00  0.00    -0.270 OA
ATOM     17  N   LIG d   1       2.713  -0.129  -6.166  0.00  0.00    -0.307 N 
ATOM     18  H   LIG d   1       2.901  -1.077  -6.248  0.00  0.00     0.149 HD
BRANCH  17  19
ATOM     19  C   LIG d   1       2.107   0.392  -4.938  0.00  0.00     0.039 C 
ATOM     20  H   LIG d   1       1.122  -0.055  -4.799  0.00  0.00     0.051 H 
ATOM     21  H   LIG d   1       2.006   1.475  -5.013  0.00  0.00     0.051 H 
BRANCH  19  22
ATOM     22  C   LIG d   1       2.984   0.051  -3.761  0.00  0.00    -0.012 A 
ATOM     23  C   LIG d   1       3.227  -1.267  -3.427  0.00  0.00     0.032 A 
ATOM     24  N   LIG d   1       3.993  -1.573  -2.398  0.00  0.00    -0.263 NA
ATOM     25  H   LIG d   1       2.785  -2.057  -4.017  0.00  0.00     0.083 H 
ATOM     26  C   LIG d   1       4.553  -0.643  -1.651  0.00  0.00     0.028 A 
ATOM     27  C   LIG d   1       4.356   0.698  -1.924  0.00  0.00    -0.043 A 
ATOM     28  H   LIG d   1       5.175  -0.931  -0.816  0.00  0.00     0.083 H 
ATOM     29  C   LIG d   1       3.552   1.058  -2.994  0.00  0.00    -0.054 A 
ATOM     30  H   LIG d   1       4.818   1.455  -1.308  0.00  0.00     0.063 H 
ATOM     31  H   LIG d   1       3.376   2.097  -3.228  0.00  0.00     0.062 H 
ENDBRANCH  19  22
ENDBRANCH  17  19
ENDBRANCH   6  15
ENDBRANCH   3   5
BRANCH   1  32
ATOM     32  C   LIG d   1       6.884   0.207  -5.297  0.00  0.00     0.299 C 
ATOM     33  N   LIG d   1       7.460   1.425  -5.334  0.00  0.00    -0.307 N 
ATOM     34  H   LIG d   1       7.372   1.979  -6.126  0.00  0.00     0.149 HD
ATOM     35  O   LIG d   1       6.994  -0.486  -4.307  0.00  0.00    -0.265 OA
BRANCH  33  36
ATOM     36  C   LIG d   1       8.220   1.912  -4.180  0.00  0.00     0.016 C 
ATOM     37  H   LIG d   1       7.552   2.021  -3.326  0.00  0.00     0.046 H 
ATOM     38  H   LIG d   1       9.007   1.198  -3.937  0.00  0.00     0.046 H 
BRANCH  36  39
ATOM     39  C   LIG d   1       8.846   3.267  -4.516  0.00  0.00    -0.010 C 
ATOM     40  H   LIG d   1       9.417   3.183  -5.441  0.00  0.00     0.033 H 
ATOM     41  H   LIG d   1       8.058   4.010  -4.641  0.00  0.00     0.033 H 
BRANCH  39  42
ATOM     42  C   LIG d   1       9.761   3.688  -3.396  0.00  0.00    -0.021 A 
ATOM     43  C   LIG d   1       9.938   5.048  -2.880  0.00  0.00     0.003 A 
ATOM     44  C   LIG d   1      10.885   4.951  -1.845  0.00  0.00     0.047 A 
ATOM     45  C   LIG d   1       9.388   6.289  -3.206  0.00  0.00    -0.052 A 
ATOM     46  C   LIG d   1      11.263   6.099  -1.156  0.00  0.00    -0.038 A 
ATOM     47  N   LIG d   1      11.248   3.626  -1.750  0.00  0.00    -0.360 N 
ATOM     48  C   LIG d   1      10.706   7.312  -1.493  0.00  0.00    -0.060 A 
ATOM     49  H   LIG d   1      11.989   6.038  -0.359  0.00  0.00     0.064 H 
ATOM     50  C   LIG d   1       9.771   7.403  -2.516  0.00  0.00    -0.061 A 
ATOM     51  H   LIG d   1      11.000   8.203  -0.957  0.00  0.00     0.062 H 
ATOM     52  H   LIG d   1       9.346   8.363  -2.768  0.00  0.00     0.062 H 
ATOM     53  C   LIG d   1      10.564   2.888  -2.678  0.00  0.00     0.006 A 
ATOM     54  H   LIG d   1      11.890   3.267  -1.116  0.00  0.00     0.165 HD
ATOM     55  H   LIG d   1      10.658   1.821  -2.813  0.00  0.00     0.081 H 
ATOM     56  H   LIG d   1       8.661   6.367  -4.001  0.00  0.00     0.062 H 
ENDBRANCH  39  42
ENDBRANCH  36  39
ENDBRANCH  33  36
ENDBRANCH   1  32
TORSDOF 8
ENDMDL
MODEL 4
REMARK VINA RESULT:      -8.4      1.457      2.088
REMARK  8 active torsions:
REMARK  status: ('A' for Active; 'I' for Inactive)
REMARK    1  A    between atoms: C_7  and  C_11 
REMARK    2  A    between atoms: C_11  and  C_12 
REMARK    3  A    between atoms: C_12  and  N_13 
REMARK       I    between atoms: N_13  and  C_14 
REMARK    4  A    between atoms: C_14  and  C_16 
REMARK       I    between atoms: C_16  and  N_18 
REMARK    5  A    between atoms: N_18  and  C_19 
REMARK    6  A    between atoms: C_24  and  C_25 
REMARK       I    between atoms: C_25  and  N_27 
REMARK    7  A    between atoms: N_27  and  C_28 
REMARK    8  A    between atoms: C_28  and  C_29 
ROOT
ATOM      1  C   LIG d   1       7.395   0.972  -3.898  0.00  0.00     0.303 C 
ATOM      2  O   LIG d   1       7.896  -0.119  -3.720  0.00  0.00    -0.265 OA
ATOM      3  N   LIG d   1       6.058   1.119  -3.817  0.00  0.00    -0.277 N 
ATOM      4  H   LIG d   1       5.651   1.973  -4.034  0.00  0.00     0.155 HD
ENDROOT
BRANCH   3   5
ATOM      5  C   LIG d   1       5.262   0.048  -3.422  0.00  0.00     0.046 A 
ATOM      6  C   LIG d   1       4.656  -0.772  -4.386  0.00  0.00     0.058 A 
ATOM      7  C   LIG d   1       3.856  -1.841  -3.977  0.00  0.00    -0.048 A 
ATOM      8  C   LIG d   1       3.674  -2.089  -2.633  0.00  0.00    -0.061 A 
ATOM      9  H   LIG d   1       3.383  -2.474  -4.713  0.00  0.00     0.063 H 
ATOM     10  C   LIG d   1       4.274  -1.278  -1.685  0.00  0.00    -0.060 A 
ATOM     11  H   LIG d   1       3.058  -2.918  -2.319  0.00  0.00     0.062 H 
ATOM     12  C   LIG d   1       5.065  -0.215  -2.073  0.00  0.00    -0.040 A 
ATOM     13  H   LIG d   1       4.123  -1.477  -0.634  0.00  0.00     0.062 H 
ATOM     14  H   LIG d   1       5.528   0.414  -1.328  0.00  0.00     0.064 H 
BRANCH   6  15
ATOM     15  C   LIG d   1       4.859  -0.504  -5.823  0.00  0.00     0.246 C 
ATOM     16  O   LIG d   1       5.898  -0.833  -6.362  0.00  0.00    -0.270 OA
ATOM     17  N   LIG d   1       3.894   0.107  -6.537  0.00  0.00    -0.307 N 
ATOM     18  H   LIG d   1       3.065   0.371  -6.108  0.00  0.00     0.149 HD
BRANCH  17  19
ATOM     19  C   LIG d   1       4.096   0.374  -7.963  0.00  0.00     0.039 C 
ATOM     20  H   LIG d   1       5.129   0.155  -8.232  0.00  0.00     0.051 H 
ATOM     21  H   LIG d   1       3.882   1.423  -8.171  0.00  0.00     0.051 H 
BRANCH  19  22
ATOM     22  C   LIG d   1       3.170  -0.496  -8.774  0.00  0.00    -0.012 A 
ATOM     23  C   LIG d   1       3.349  -1.865  -8.809  0.00  0.00     0.032 A 
ATOM     24  N   LIG d   1       2.542  -2.633  -9.516  0.00  0.00    -0.263 NA
ATOM     25  H   LIG d   1       4.157  -2.313  -8.250  0.00  0.00     0.083 H 
ATOM     26  C   LIG d   1       1.542  -2.131 -10.214  0.00  0.00     0.028 A 
ATOM     27  C   LIG d   1       1.302  -0.770 -10.227  0.00  0.00    -0.043 A 
ATOM     28  H   LIG d   1       0.902  -2.791 -10.782  0.00  0.00     0.083 H 
ATOM     29  C   LIG d   1       2.132   0.069  -9.500  0.00  0.00    -0.054 A 
ATOM     30  H   LIG d   1       0.481  -0.365 -10.799  0.00  0.00     0.063 H 
ATOM     31  H   LIG d   1       1.971   1.137  -9.494  0.00  0.00     0.062 H 
ENDBRANCH  19  22
ENDBRANCH  17  19
ENDBRANCH   6  15
ENDBRANCH   3   5
BRANCH   1  32
ATOM     32  C   LIG d   1       8.260   2.150  -4.205  0.00  0.00     0.299 C 
ATOM     33  N   LIG d   1       9.254   2.494  -3.363  0.00  0.00    -0.307 N 
ATOM     34  H   LIG d   1       9.407   1.977  -2.556  0.00  0.00     0.149 HD
ATOM     35  O   LIG d   1       8.068   2.797  -5.214  0.00  0.00    -0.265 OA
BRANCH  33  36
ATOM     36  C   LIG d   1      10.102   3.650  -3.664  0.00  0.00     0.016 C 
ATOM     37  H   LIG d   1      10.923   3.339  -4.309  0.00  0.00     0.046 H 
ATOM     38  H   LIG d   1       9.510   4.413  -4.169  0.00  0.00     0.046 H 
BRANCH  36  39
ATOM     39  C   LIG d   1      10.666   4.222  -2.361  0.00  0.00    -0.010 C 
ATOM     40  H   LIG d   1      10.283   3.648  -1.517  0.00  0.00     0.033 H 
ATOM     41  H   LIG d   1      11.754   4.161  -2.378  0.00  0.00     0.033 H 
BRANCH  39  42
ATOM     42  C   LIG d   1      10.245   5.662  -2.222  0.00  0.00    -0.021 A 
ATOM     43  C   LIG d   1      10.542   6.552  -1.097  0.00  0.00     0.003 A 
ATOM     44  C   LIG d   1       9.950   7.789  -1.412  0.00  0.00     0.047 A 
ATOM     45  C   LIG d   1      11.237   6.400   0.104  0.00  0.00    -0.052 A 
ATOM     46  C   LIG d   1      10.065   8.847  -0.518  0.00  0.00    -0.038 A 
ATOM     47  N   LIG d   1       9.342   7.646  -2.640  0.00  0.00    -0.360 N 
ATOM     48  C   LIG d   1      10.756   8.675   0.661  0.00  0.00    -0.060 A 
ATOM     49  H   LIG d   1       9.615   9.802  -0.747  0.00  0.00     0.064 H 
ATOM     50  C   LIG d   1      11.339   7.452   0.968  0.00  0.00    -0.061 A 
ATOM     51  H   LIG d   1      10.844   9.499   1.355  0.00  0.00     0.062 H 
ATOM     52  H   LIG d   1      11.876   7.334   1.897  0.00  0.00     0.062 H 
ATOM     53  C   LIG d   1       9.533   6.375  -3.109  0.00  0.00     0.006 A 
ATOM     54  H   LIG d   1       8.854   8.344  -3.105  0.00  0.00     0.165 HD
ATOM     55  H   LIG d   1       9.164   6.000  -4.052  0.00  0.00     0.081 H 
ATOM     56  H   LIG d   1      11.693   5.451   0.349  0.00  0.00     0.062 H 
ENDBRANCH  39  42
ENDBRANCH  36  39
ENDBRANCH  33  36
ENDBRANCH   1  32
TORSDOF 8
ENDMDL
MODEL 5
REMARK VINA RESULT:      -8.3      4.449      7.918
REMARK  8 active torsions:
REMARK  status: ('A' for Active; 'I' for Inactive)
REMARK    1  A    between atoms: C_7  and  C_11 
REMARK    2  A    between atoms: C_11  and  C_12 
REMARK    3  A    between atoms: C_12  and  N_13 
REMARK       I    between atoms: N_13  and  C_14 
REMARK    4  A    between atoms: C_14  and  C_16 
REMARK       I    between atoms: C_16  and  N_18 
REMARK    5  A    between atoms: N_18  and  C_19 
REMARK    6  A    between atoms: C_24  and  C_25 
REMARK       I    between atoms: C_25  and  N_27 
REMARK    7  A    between atoms: N_27  and  C_28 
REMARK    8  A    between atoms: C_28  and  C_29 
ROOT
ATOM      1  C   LIG d   1       3.198  -0.128  -7.004  0.00  0.00     0.303 C 
ATOM      2  O   LIG d   1       3.812  -1.127  -7.319  0.00  0.00    -0.265 OA
ATOM      3  N   LIG d   1       2.724   0.699  -7.957  0.00  0.00    -0.277 N 
ATOM      4  H   LIG d   1       2.300   1.535  -7.706  0.00  0.00     0.155 HD
ENDROOT
BRANCH   3   5
ATOM      5  C   LIG d   1       2.841   0.354  -9.300  0.00  0.00     0.046 A 
ATOM      6  C   LIG d   1       3.914   0.841 -10.061  0.00  0.00     0.058 A 
ATOM      7  C   LIG d   1       4.018   0.491 -11.409  0.00  0.00    -0.048 A 
ATOM      8  C   LIG d   1       3.074  -0.337 -11.980  0.00  0.00    -0.061 A 
ATOM      9  H   LIG d   1       4.838   0.865 -12.003  0.00  0.00     0.063 H 
ATOM     10  C   LIG d   1       2.017  -0.816 -11.225  0.00  0.00    -0.060 A 
ATOM     11  H   LIG d   1       3.158  -0.609 -13.021  0.00  0.00     0.062 H 
ATOM     12  C   LIG d   1       1.898  -0.476  -9.892  0.00  0.00    -0.040 A 
ATOM     13  H   LIG d   1       1.279  -1.460 -11.681  0.00  0.00     0.062 H 
ATOM     14  H   LIG d   1       1.070  -0.853  -9.311  0.00  0.00     0.064 H 
BRANCH   6  15
ATOM     15  C   LIG d   1       4.924   1.722  -9.443  0.00  0.00     0.246 C 
ATOM     16  O   LIG d   1       4.604   2.824  -9.041  0.00  0.00    -0.270 OA
ATOM     17  N   LIG d   1       6.200   1.306  -9.327  0.00  0.00    -0.307 N 
ATOM     18  H   LIG d   1       6.455   0.428  -9.650  0.00  0.00     0.149 HD
BRANCH  17  19
ATOM     19  C   LIG d   1       7.202   2.181  -8.714  0.00  0.00     0.039 C 
ATOM     20  H   LIG d   1       6.702   2.959  -8.136  0.00  0.00     0.051 H 
ATOM     21  H   LIG d   1       7.808   2.642  -9.494  0.00  0.00     0.051 H 
BRANCH  19  22
ATOM     22  C   LIG d   1       8.089   1.370  -7.805  0.00  0.00    -0.012 A 
ATOM     23  C   LIG d   1       8.096   1.604  -6.443  0.00  0.00     0.032 A 
ATOM     24  N   LIG d   1       8.869   0.898  -5.641  0.00  0.00    -0.263 NA
ATOM     25  H   LIG d   1       7.460   2.373  -6.031  0.00  0.00     0.083 H 
ATOM     26  C   LIG d   1       9.662  -0.050  -6.100  0.00  0.00     0.028 A 
ATOM     27  C   LIG d   1       9.708  -0.341  -7.451  0.00  0.00    -0.043 A 
ATOM     28  H   LIG d   1      10.281  -0.608  -5.413  0.00  0.00     0.083 H 
ATOM     29  C   LIG d   1       8.913   0.384  -8.325  0.00  0.00    -0.054 A 
ATOM     30  H   LIG d   1      10.358  -1.120  -7.821  0.00  0.00     0.063 H 
ATOM     31  H   LIG d   1       8.932   0.182  -9.386  0.00  0.00     0.062 H 
ENDBRANCH  19  22
ENDBRANCH  17  19
ENDBRANCH   6  15
ENDBRANCH   3   5
BRANCH   1  32
ATOM     32  C   LIG d   1       2.967   0.183  -5.562  0.00  0.00     0.299 C 
ATOM     33  N   LIG d   1       2.997  -0.805  -4.646  0.00  0.00    -0.307 N 
ATOM     34  H   LIG d   1       3.167  -1.719  -4.924  0.00  0.00     0.149 HD
ATOM     35  O   LIG d   1       2.754   1.326  -5.214  0.00  0.00    -0.265 OA
BRANCH  33  36
ATOM     36  C   LIG d   1       2.771  -0.499  -3.231  0.00  0.00     0.016 C 
ATOM     37  H   LIG d   1       2.982   0.554  -3.049  0.00  0.00     0.046 H 
ATOM     38  H   LIG d   1       1.732  -0.711  -2.976  0.00  0.00     0.046 H 
BRANCH  36  39
ATOM     39  C   LIG d   1       3.695  -1.362  -2.369  0.00  0.00    -0.010 C 
ATOM     40  H   LIG d   1       3.757  -0.938  -1.367  0.00  0.00     0.033 H 
ATOM     41  H   LIG d   1       3.296  -2.375  -2.311  0.00  0.00     0.033 H 
BRANCH  39  42
ATOM     42  C   LIG d   1       5.069  -1.397  -2.986  0.00  0.00    -0.021 A 
ATOM     43  C   LIG d   1       5.587  -2.416  -3.903  0.00  0.00     0.003 A 
ATOM     44  C   LIG d   1       6.904  -2.029  -4.210  0.00  0.00     0.047 A 
ATOM     45  C   LIG d   1       5.054  -3.579  -4.462  0.00  0.00    -0.052 A 
ATOM     46  C   LIG d   1       7.662  -2.815  -5.071  0.00  0.00    -0.038 A 
ATOM     47  N   LIG d   1       7.154  -0.862  -3.524  0.00  0.00    -0.360 N 
ATOM     48  C   LIG d   1       7.116  -3.958  -5.613  0.00  0.00    -0.060 A 
ATOM     49  H   LIG d   1       8.675  -2.530  -5.316  0.00  0.00     0.064 H 
ATOM     50  C   LIG d   1       5.815  -4.335  -5.307  0.00  0.00    -0.061 A 
ATOM     51  H   LIG d   1       7.706  -4.568  -6.282  0.00  0.00     0.062 H 
ATOM     52  H   LIG d   1       5.403  -5.235  -5.739  0.00  0.00     0.062 H 
ATOM     53  C   LIG d   1       6.048  -0.497  -2.805  0.00  0.00     0.006 A 
ATOM     54  H   LIG d   1       7.989  -0.368  -3.550  0.00  0.00     0.165 HD
ATOM     55  H   LIG d   1       5.975   0.382  -2.184  0.00  0.00     0.081 H 
ATOM     56  H   LIG d   1       4.043  -3.879  -4.228  0.00  0.00     0.062 H 
ENDBRANCH  39  42
ENDBRANCH  36  39
ENDBRANCH  33  36
ENDBRANCH   1  32
TORSDOF 8
ENDMDL
MODEL 6
REMARK VINA RESULT:      -8.3      4.106      8.066
REMARK  8 active torsions:
REMARK  status: ('A' for Active; 'I' for Inactive)
REMARK    1  A    between atoms: C_7  and  C_11 
REMARK    2  A    between atoms: C_11  and  C_12 
REMARK    3  A    between atoms: C_12  and  N_13 
REMARK       I    between atoms: N_13  and  C_14 
REMARK    4  A    between atoms: C_14  and  C_16 
REMARK       I    between atoms: C_16  and  N_18 
REMARK    5  A    between atoms: N_18  and  C_19 
REMARK    6  A    between atoms: C_24  and  C_25 
REMARK       I    between atoms: C_25  and  N_27 
REMARK    7  A    between atoms: N_27  and  C_28 
REMARK    8  A    between atoms: C_28  and  C_29 
ROOT
ATOM      1  C   LIG d   1       4.586  -1.886  -6.012  0.00  0.00     0.303 C 
ATOM      2  O   LIG d   1       4.547  -2.690  -5.104  0.00  0.00    -0.265 OA
ATOM      3  N   LIG d   1       4.498  -0.567  -5.746  0.00  0.00    -0.277 N 
ATOM      4  H   LIG d   1       4.452   0.072  -6.476  0.00  0.00     0.155 HD
ENDROOT
BRANCH   3   5
ATOM      5  C   LIG d   1       4.473  -0.122  -4.428  0.00  0.00     0.046 A 
ATOM      6  C   LIG d   1       5.659   0.291  -3.802  0.00  0.00     0.058 A 
ATOM      7  C   LIG d   1       5.621   0.731  -2.477  0.00  0.00    -0.048 A 
ATOM      8  C   LIG d   1       4.422   0.765  -1.797  0.00  0.00    -0.061 A 
ATOM      9  H   LIG d   1       6.530   1.047  -1.987  0.00  0.00     0.063 H 
ATOM     10  C   LIG d   1       3.254   0.357  -2.419  0.00  0.00    -0.060 A 
ATOM     11  H   LIG d   1       4.395   1.109  -0.774  0.00  0.00     0.062 H 
ATOM     12  C   LIG d   1       3.275  -0.084  -3.727  0.00  0.00    -0.040 A 
ATOM     13  H   LIG d   1       2.320   0.382  -1.877  0.00  0.00     0.062 H 
ATOM     14  H   LIG d   1       2.360  -0.402  -4.204  0.00  0.00     0.064 H 
BRANCH   6  15
ATOM     15  C   LIG d   1       6.938   0.257  -4.537  0.00  0.00     0.246 C 
ATOM     16  O   LIG d   1       7.604  -0.759  -4.550  0.00  0.00    -0.270 OA
ATOM     17  N   LIG d   1       7.367   1.353  -5.193  0.00  0.00    -0.307 N 
ATOM     18  H   LIG d   1       6.836   2.165  -5.182  0.00  0.00     0.149 HD
BRANCH  17  19
ATOM     19  C   LIG d   1       8.637   1.320  -5.922  0.00  0.00     0.039 C 
ATOM     20  H   LIG d   1       9.279   0.547  -5.499  0.00  0.00     0.051 H 
ATOM     21  H   LIG d   1       9.130   2.288  -5.837  0.00  0.00     0.051 H 
BRANCH  19  22
ATOM     22  C   LIG d   1       8.375   1.016  -7.375  0.00  0.00    -0.012 A 
ATOM     23  C   LIG d   1       9.407   0.621  -8.204  0.00  0.00     0.032 A 
ATOM     24  N   LIG d   1       9.185   0.354  -9.477  0.00  0.00    -0.263 NA
ATOM     25  H   LIG d   1      10.407   0.530  -7.806  0.00  0.00     0.083 H 
ATOM     26  C   LIG d   1       7.982   0.451 -10.006  0.00  0.00     0.028 A 
ATOM     27  C   LIG d   1       6.900   0.840  -9.237  0.00  0.00    -0.043 A 
ATOM     28  H   LIG d   1       7.838   0.224 -11.052  0.00  0.00     0.083 H 
ATOM     29  C   LIG d   1       7.096   1.135  -7.897  0.00  0.00    -0.054 A 
ATOM     30  H   LIG d   1       5.917   0.917  -9.676  0.00  0.00     0.063 H 
ATOM     31  H   LIG d   1       6.271   1.445  -7.273  0.00  0.00     0.062 H 
ENDBRANCH  19  22
ENDBRANCH  17  19
ENDBRANCH   6  15
ENDBRANCH   3   5
BRANCH   1  32
ATOM     32  C   LIG d   1       4.734  -2.356  -7.421  0.00  0.00     0.299 C 
ATOM     33  N   LIG d   1       3.659  -2.811  -8.096  0.00  0.00    -0.307 N 
ATOM     34  H   LIG d   1       2.790  -2.834  -7.664  0.00  0.00     0.149 HD
ATOM     35  O   LIG d   1       5.820  -2.326  -7.961  0.00  0.00    -0.265 OA
BRANCH  33  36
ATOM     36  C   LIG d   1       3.803  -3.271  -9.479  0.00  0.00     0.016 C 
ATOM     37  H   LIG d   1       4.800  -3.024  -9.842  0.00  0.00     0.046 H 
ATOM     38  H   LIG d   1       3.659  -4.351  -9.519  0.00  0.00     0.046 H 
BRANCH  36  39
ATOM     39  C   LIG d   1       2.755  -2.584 -10.357  0.00  0.00    -0.010 C 
ATOM     40  H   LIG d   1       2.582  -3.183 -11.251  0.00  0.00     0.033 H 
ATOM     41  H   LIG d   1       1.823  -2.485  -9.800  0.00  0.00     0.033 H 
BRANCH  39  42
ATOM     42  C   LIG d   1       3.251  -1.218 -10.755  0.00  0.00    -0.021 A 
ATOM     43  C   LIG d   1       3.170   0.006  -9.955  0.00  0.00     0.003 A 
ATOM     44  C   LIG d   1       3.759   1.019 -10.732  0.00  0.00     0.047 A 
ATOM     45  C   LIG d   1       2.663   0.306  -8.689  0.00  0.00    -0.052 A 
ATOM     46  C   LIG d   1       3.828   2.313 -10.227  0.00  0.00    -0.038 A 
ATOM     47  N   LIG d   1       4.163   0.440 -11.914  0.00  0.00    -0.360 N 
ATOM     48  C   LIG d   1       3.322   2.586  -8.976  0.00  0.00    -0.060 A 
ATOM     49  H   LIG d   1       4.277   3.101 -10.814  0.00  0.00     0.064 H 
ATOM     50  C   LIG d   1       2.741   1.583  -8.212  0.00  0.00    -0.061 A 
ATOM     51  H   LIG d   1       3.376   3.593  -8.585  0.00  0.00     0.062 H 
ATOM     52  H   LIG d   1       2.348   1.815  -7.233  0.00  0.00     0.062 H 
ATOM     53  C   LIG d   1       3.858  -0.894 -11.908  0.00  0.00     0.006 A 
ATOM     54  H   LIG d   1       4.604   0.907 -12.642  0.00  0.00     0.165 HD
ATOM     55  H   LIG d   1       4.072  -1.583 -12.711  0.00  0.00     0.081 H 
ATOM     56  H   LIG d   1       2.209  -0.470  -8.090  0.00  0.00     0.062 H 
ENDBRANCH  39  42
ENDBRANCH  36  39
ENDBRANCH  33  36
ENDBRANCH   1  32
TORSDOF 8
ENDMDL
MODEL 7
REMARK VINA RESULT:      -8.2      1.909      3.032
REMARK  8 active torsions:
REMARK  status: ('A' for Active; 'I' for Inactive)
REMARK    1  A    between atoms: C_7  and  C_11 
REMARK    2  A    between atoms: C_11  and  C_12 
REMARK    3  A    between atoms: C_12  and  N_13 
REMARK       I    between atoms: N_13  and  C_14 
REMARK    4  A    between atoms: C_14  and  C_16 
REMARK       I    between atoms: C_16  and  N_18 
REMARK    5  A    between atoms: N_18  and  C_19 
REMARK    6  A    between atoms: C_24  and  C_25 
REMARK       I    between atoms: C_25  and  N_27 
REMARK    7  A    between atoms: N_27  and  C_28 
REMARK    8  A    between atoms: C_28  and  C_29 
ROOT
ATOM      1  C   LIG d   1       7.264   0.542  -4.811  0.00  0.00     0.303 C 
ATOM      2  O   LIG d   1       7.865  -0.369  -4.281  0.00  0.00    -0.265 OA
ATOM      3  N   LIG d   1       5.925   0.632  -4.679  0.00  0.00    -0.277 N 
ATOM      4  H   LIG d   1       5.435   1.314  -5.165  0.00  0.00     0.155 HD
ENDROOT
BRANCH   3   5
ATOM      5  C   LIG d   1       5.247  -0.253  -3.846  0.00  0.00     0.046 A 
ATOM      6  C   LIG d   1       4.592  -1.369  -4.389  0.00  0.00     0.058 A 
ATOM      7  C   LIG d   1       3.911  -2.247  -3.543  0.00  0.00    -0.048 A 
ATOM      8  C   LIG d   1       3.894  -2.018  -2.183  0.00  0.00    -0.061 A 
ATOM      9  H   LIG d   1       3.400  -3.105  -3.952  0.00  0.00     0.063 H 
ATOM     10  C   LIG d   1       4.543  -0.915  -1.651  0.00  0.00    -0.060 A 
ATOM     11  H   LIG d   1       3.370  -2.700  -1.530  0.00  0.00     0.062 H 
ATOM     12  C   LIG d   1       5.217  -0.036  -2.475  0.00  0.00    -0.040 A 
ATOM     13  H   LIG d   1       4.521  -0.742  -0.586  0.00  0.00     0.062 H 
ATOM     14  H   LIG d   1       5.719   0.821  -2.053  0.00  0.00     0.064 H 
BRANCH   6  15
ATOM     15  C   LIG d   1       4.618  -1.611  -5.844  0.00  0.00     0.246 C 
ATOM     16  O   LIG d   1       5.554  -2.203  -6.345  0.00  0.00    -0.270 OA
ATOM     17  N   LIG d   1       3.605  -1.174  -6.617  0.00  0.00    -0.307 N 
ATOM     18  H   LIG d   1       2.858  -0.700  -6.218  0.00  0.00     0.149 HD
BRANCH  17  19
ATOM     19  C   LIG d   1       3.631  -1.413  -8.062  0.00  0.00     0.039 C 
ATOM     20  H   LIG d   1       2.760  -2.003  -8.350  0.00  0.00     0.051 H 
ATOM     21  H   LIG d   1       4.539  -1.957  -8.325  0.00  0.00     0.051 H 
BRANCH  19  22
ATOM     22  C   LIG d   1       3.608  -0.094  -8.791  0.00  0.00    -0.012 A 
ATOM     23  C   LIG d   1       4.043  -0.010 -10.099  0.00  0.00     0.032 A 
ATOM     24  N   LIG d   1       4.026   1.141 -10.743  0.00  0.00    -0.263 NA
ATOM     25  H   LIG d   1       4.400  -0.897 -10.602  0.00  0.00     0.083 H 
ATOM     26  C   LIG d   1       3.599   2.249 -10.171  0.00  0.00     0.028 A 
ATOM     27  C   LIG d   1       3.148   2.242  -8.864  0.00  0.00    -0.043 A 
ATOM     28  H   LIG d   1       3.599   3.174 -10.729  0.00  0.00     0.083 H 
ATOM     29  C   LIG d   1       3.156   1.052  -8.153  0.00  0.00    -0.054 A 
ATOM     30  H   LIG d   1       2.798   3.152  -8.401  0.00  0.00     0.063 H 
ATOM     31  H   LIG d   1       2.814   1.016  -7.130  0.00  0.00     0.062 H 
ENDBRANCH  19  22
ENDBRANCH  17  19
ENDBRANCH   6  15
ENDBRANCH   3   5
BRANCH   1  32
ATOM     32  C   LIG d   1       8.006   1.564  -5.609  0.00  0.00     0.299 C 
ATOM     33  N   LIG d   1       9.064   2.201  -5.070  0.00  0.00    -0.307 N 
ATOM     34  H   LIG d   1       9.343   1.997  -4.163  0.00  0.00     0.149 HD
ATOM     35  O   LIG d   1       7.657   1.818  -6.743  0.00  0.00    -0.265 OA
BRANCH  33  36
ATOM     36  C   LIG d   1       9.792   3.202  -5.853  0.00  0.00     0.016 C 
ATOM     37  H   LIG d   1      10.435   2.700  -6.576  0.00  0.00     0.046 H 
ATOM     38  H   LIG d   1       9.081   3.839  -6.378  0.00  0.00     0.046 H 
BRANCH  36  39
ATOM     39  C   LIG d   1      10.648   4.058  -4.916  0.00  0.00    -0.010 C 
ATOM     40  H   LIG d   1      10.641   3.620  -3.918  0.00  0.00     0.033 H 
ATOM     41  H   LIG d   1      11.672   4.093  -5.290  0.00  0.00     0.033 H 
BRANCH  39  42
ATOM     42  C   LIG d   1      10.086   5.454  -4.858  0.00  0.00    -0.021 A 
ATOM     43  C   LIG d   1       9.864   6.353  -5.993  0.00  0.00     0.003 A 
ATOM     44  C   LIG d   1       9.328   7.536  -5.454  0.00  0.00     0.047 A 
ATOM     45  C   LIG d   1      10.072   6.247  -7.369  0.00  0.00    -0.052 A 
ATOM     46  C   LIG d   1       9.010   8.590  -6.304  0.00  0.00    -0.038 A 
ATOM     47  N   LIG d   1       9.236   7.356  -4.092  0.00  0.00    -0.360 N 
ATOM     48  C   LIG d   1       9.223   8.463  -7.659  0.00  0.00    -0.060 A 
ATOM     49  H   LIG d   1       8.598   9.505  -5.903  0.00  0.00     0.064 H 
ATOM     50  C   LIG d   1       9.753   7.293  -8.186  0.00  0.00    -0.061 A 
ATOM     51  H   LIG d   1       8.976   9.284  -8.318  0.00  0.00     0.062 H 
ATOM     52  H   LIG d   1       9.914   7.212  -9.251  0.00  0.00     0.062 H 
ATOM     53  C   LIG d   1       9.687   6.108  -3.756  0.00  0.00     0.006 A 
ATOM     54  H   LIG d   1       8.898   8.014  -3.464  0.00  0.00     0.165 HD
ATOM     55  H   LIG d   1       9.718   5.710  -2.753  0.00  0.00     0.081 H 
ATOM     56  H   LIG d   1      10.484   5.340  -7.787  0.00  0.00     0.062 H 
ENDBRANCH  39  42
ENDBRANCH  36  39
ENDBRANCH  33  36
ENDBRANCH   1  32
TORSDOF 8
ENDMDL
MODEL 8
REMARK VINA RESULT:      -8.2      2.563      8.697
REMARK  8 active torsions:
REMARK  status: ('A' for Active; 'I' for Inactive)
REMARK    1  A    between atoms: C_7  and  C_11 
REMARK    2  A    between atoms: C_11  and  C_12 
REMARK    3  A    between atoms: C_12  and  N_13 
REMARK       I    between atoms: N_13  and  C_14 
REMARK    4  A    between atoms: C_14  and  C_16 
REMARK       I    between atoms: C_16  and  N_18 
REMARK    5  A    between atoms: N_18  and  C_19 
REMARK    6  A    between atoms: C_24  and  C_25 
REMARK       I    between atoms: C_25  and  N_27 
REMARK    7  A    between atoms: N_27  and  C_28 
REMARK    8  A    between atoms: C_28  and  C_29 
ROOT
ATOM      1  C   LIG d   1       4.531  -1.993  -6.093  0.00  0.00     0.303 C 
ATOM      2  O   LIG d   1       4.557  -2.820  -5.205  0.00  0.00    -0.265 OA
ATOM      3  N   LIG d   1       4.399  -0.685  -5.792  0.00  0.00    -0.277 N 
ATOM      4  H   LIG d   1       4.301  -0.032  -6.503  0.00  0.00     0.155 HD
ENDROOT
BRANCH   3   5
ATOM      5  C   LIG d   1       4.403  -0.273  -4.464  0.00  0.00     0.046 A 
ATOM      6  C   LIG d   1       5.576   0.241  -3.890  0.00  0.00     0.058 A 
ATOM      7  C   LIG d   1       5.569   0.648  -2.554  0.00  0.00    -0.048 A 
ATOM      8  C   LIG d   1       4.412   0.549  -1.811  0.00  0.00    -0.061 A 
ATOM      9  H   LIG d   1       6.468   1.040  -2.104  0.00  0.00     0.063 H 
ATOM     10  C   LIG d   1       3.256   0.041  -2.381  0.00  0.00    -0.060 A 
ATOM     11  H   LIG d   1       4.408   0.867  -0.779  0.00  0.00     0.062 H 
ATOM     12  C   LIG d   1       3.248  -0.368  -3.699  0.00  0.00    -0.040 A 
ATOM     13  H   LIG d   1       2.355  -0.036  -1.790  0.00  0.00     0.062 H 
ATOM     14  H   LIG d   1       2.344  -0.764  -4.136  0.00  0.00     0.064 H 
BRANCH   6  15
ATOM     15  C   LIG d   1       6.810   0.348  -4.692  0.00  0.00     0.246 C 
ATOM     16  O   LIG d   1       7.363  -0.657  -5.094  0.00  0.00    -0.270 OA
ATOM     17  N   LIG d   1       7.324   1.561  -4.978  0.00  0.00    -0.307 N 
ATOM     18  H   LIG d   1       6.885   2.363  -4.656  0.00  0.00     0.149 HD
BRANCH  17  19
ATOM     19  C   LIG d   1       8.550   1.667  -5.773  0.00  0.00     0.039 C 
ATOM     20  H   LIG d   1       8.359   2.278  -6.656  0.00  0.00     0.051 H 
ATOM     21  H   LIG d   1       8.870   0.672  -6.083  0.00  0.00     0.051 H 
BRANCH  19  22
ATOM     22  C   LIG d   1       9.634   2.306  -4.944  0.00  0.00    -0.012 A 
ATOM     23  C   LIG d   1      10.724   2.897  -5.552  0.00  0.00     0.032 A 
ATOM     24  N   LIG d   1      11.676   3.458  -4.832  0.00  0.00    -0.263 NA
ATOM     25  H   LIG d   1      10.798   2.900  -6.630  0.00  0.00     0.083 H 
ATOM     26  C   LIG d   1      11.629   3.478  -3.515  0.00  0.00     0.028 A 
ATOM     27  C   LIG d   1      10.569   2.907  -2.837  0.00  0.00    -0.043 A 
ATOM     28  H   LIG d   1      12.428   3.947  -2.959  0.00  0.00     0.083 H 
ATOM     29  C   LIG d   1       9.552   2.303  -3.559  0.00  0.00    -0.054 A 
ATOM     30  H   LIG d   1      10.535   2.927  -1.758  0.00  0.00     0.063 H 
ATOM     31  H   LIG d   1       8.713   1.845  -3.056  0.00  0.00     0.062 H 
ENDBRANCH  19  22
ENDBRANCH  17  19
ENDBRANCH   6  15
ENDBRANCH   3   5
BRANCH   1  32
ATOM     32  C   LIG d   1       4.647  -2.424  -7.518  0.00  0.00     0.299 C 
ATOM     33  N   LIG d   1       3.565  -2.894  -8.170  0.00  0.00    -0.307 N 
ATOM     34  H   LIG d   1       2.711  -2.954  -7.712  0.00  0.00     0.149 HD
ATOM     35  O   LIG d   1       5.714  -2.348  -8.091  0.00  0.00    -0.265 OA
BRANCH  33  36
ATOM     36  C   LIG d   1       3.677  -3.315  -9.569  0.00  0.00     0.016 C 
ATOM     37  H   LIG d   1       4.683  -3.102  -9.932  0.00  0.00     0.046 H 
ATOM     38  H   LIG d   1       3.483  -4.385  -9.642  0.00  0.00     0.046 H 
BRANCH  36  39
ATOM     39  C   LIG d   1       2.657  -2.552 -10.415  0.00  0.00    -0.010 C 
ATOM     40  H   LIG d   1       2.440  -3.119 -11.321  0.00  0.00     0.033 H 
ATOM     41  H   LIG d   1       1.739  -2.416  -9.843  0.00  0.00     0.033 H 
BRANCH  39  42
ATOM     42  C   LIG d   1       3.221  -1.206 -10.789  0.00  0.00    -0.021 A 
ATOM     43  C   LIG d   1       3.153   0.020  -9.989  0.00  0.00     0.003 A 
ATOM     44  C   LIG d   1       3.812   1.011 -10.740  0.00  0.00     0.047 A 
ATOM     45  C   LIG d   1       2.606   0.338  -8.745  0.00  0.00    -0.052 A 
ATOM     46  C   LIG d   1       3.909   2.301 -10.229  0.00  0.00    -0.038 A 
ATOM     47  N   LIG d   1       4.242   0.417 -11.905  0.00  0.00    -0.360 N 
ATOM     48  C   LIG d   1       3.362   2.592  -8.999  0.00  0.00    -0.060 A 
ATOM     49  H   LIG d   1       4.412   3.071 -10.795  0.00  0.00     0.064 H 
ATOM     50  C   LIG d   1       2.713   1.610  -8.262  0.00  0.00    -0.061 A 
ATOM     51  H   LIG d   1       3.439   3.595  -8.603  0.00  0.00     0.062 H 
ATOM     52  H   LIG d   1       2.289   1.856  -7.300  0.00  0.00     0.062 H 
ATOM     53  C   LIG d   1       3.886  -0.904 -11.915  0.00  0.00     0.006 A 
ATOM     54  H   LIG d   1       4.730   0.868 -12.613  0.00  0.00     0.165 HD
ATOM     55  H   LIG d   1       4.106  -1.599 -12.711  0.00  0.00     0.081 H 
ATOM     56  H   LIG d   1       2.098  -0.421  -8.167  0.00  0.00     0.062 H 
ENDBRANCH  39  42
ENDBRANCH  36  39
ENDBRANCH  33  36
ENDBRANCH   1  32
TORSDOF 8
ENDMDL
MODEL 9
REMARK VINA RESULT:      -8.1      1.916      2.740
REMARK  8 active torsions:
REMARK  status: ('A' for Active; 'I' for Inactive)
REMARK    1  A    between atoms: C_7  and  C_11 
REMARK    2  A    between atoms: C_11  and  C_12 
REMARK    3  A    between atoms: C_12  and  N_13 
REMARK       I    between atoms: N_13  and  C_14 
REMARK    4  A    between atoms: C_14  and  C_16 
REMARK       I    between atoms: C_16  and  N_18 
REMARK    5  A    between atoms: N_18  and  C_19 
REMARK    6  A    between atoms: C_24  and  C_25 
REMARK       I    between atoms: C_25  and  N_27 
REMARK    7  A    between atoms: N_27  and  C_28 
REMARK    8  A    between atoms: C_28  and  C_29 
ROOT
ATOM      1  C   LIG d   1       6.748   0.146  -5.512  0.00  0.00     0.303 C 
ATOM      2  O   LIG d   1       6.772  -1.050  -5.715  0.00  0.00    -0.265 OA
ATOM      3  N   LIG d   1       5.876   0.660  -4.620  0.00  0.00    -0.277 N 
ATOM      4  H   LIG d   1       5.803   1.621  -4.513  0.00  0.00     0.155 HD
ENDROOT
BRANCH   3   5
ATOM      5  C   LIG d   1       5.083  -0.189  -3.855  0.00  0.00     0.046 A 
ATOM      6  C   LIG d   1       3.750  -0.427  -4.221  0.00  0.00     0.058 A 
ATOM      7  C   LIG d   1       2.962  -1.277  -3.442  0.00  0.00    -0.048 A 
ATOM      8  C   LIG d   1       3.500  -1.883  -2.326  0.00  0.00    -0.061 A 
ATOM      9  H   LIG d   1       1.934  -1.463  -3.714  0.00  0.00     0.063 H 
ATOM     10  C   LIG d   1       4.817  -1.645  -1.968  0.00  0.00    -0.060 A 
ATOM     11  H   LIG d   1       2.891  -2.543  -1.726  0.00  0.00     0.062 H 
ATOM     12  C   LIG d   1       5.607  -0.804  -2.726  0.00  0.00    -0.040 A 
ATOM     13  H   LIG d   1       5.229  -2.120  -1.090  0.00  0.00     0.062 H 
ATOM     14  H   LIG d   1       6.632  -0.623  -2.439  0.00  0.00     0.064 H 
BRANCH   6  15
ATOM     15  C   LIG d   1       3.181   0.220  -5.419  0.00  0.00     0.246 C 
ATOM     16  O   LIG d   1       2.727   1.345  -5.344  0.00  0.00    -0.270 OA
ATOM     17  N   LIG d   1       3.165  -0.437  -6.595  0.00  0.00    -0.307 N 
ATOM     18  H   LIG d   1       3.527  -1.335  -6.655  0.00  0.00     0.149 HD
BRANCH  17  19
ATOM     19  C   LIG d   1       2.600   0.205  -7.785  0.00  0.00     0.039 C 
ATOM     20  H   LIG d   1       3.274   0.990  -8.129  0.00  0.00     0.051 H 
ATOM     21  H   LIG d   1       1.632   0.641  -7.538  0.00  0.00     0.051 H 
BRANCH  19  22
ATOM     22  C   LIG d   1       2.425  -0.821  -8.874  0.00  0.00    -0.012 A 
ATOM     23  C   LIG d   1       3.143  -2.000  -8.847  0.00  0.00     0.032 A 
ATOM     24  N   LIG d   1       2.995  -2.903  -9.798  0.00  0.00    -0.263 NA
ATOM     25  H   LIG d   1       3.834  -2.186  -8.038  0.00  0.00     0.083 H 
ATOM     26  C   LIG d   1       2.164  -2.719 -10.805  0.00  0.00     0.028 A 
ATOM     27  C   LIG d   1       1.411  -1.563 -10.898  0.00  0.00    -0.043 A 
ATOM     28  H   LIG d   1       2.068  -3.481 -11.565  0.00  0.00     0.083 H 
ATOM     29  C   LIG d   1       1.544  -0.590  -9.921  0.00  0.00    -0.054 A 
ATOM     30  H   LIG d   1       0.731  -1.419 -11.724  0.00  0.00     0.063 H 
ATOM     31  H   LIG d   1       0.972   0.325  -9.970  0.00  0.00     0.062 H 
ENDBRANCH  19  22
ENDBRANCH  17  19
ENDBRANCH   6  15
ENDBRANCH   3   5
BRANCH   1  32
ATOM     32  C   LIG d   1       7.683   1.049  -6.247  0.00  0.00     0.299 C 
ATOM     33  N   LIG d   1       8.902   1.317  -5.737  0.00  0.00    -0.307 N 
ATOM     34  H   LIG d   1       9.170   0.924  -4.891  0.00  0.00     0.149 HD
ATOM     35  O   LIG d   1       7.348   1.540  -7.305  0.00  0.00    -0.265 OA
BRANCH  33  36
ATOM     36  C   LIG d   1       9.820   2.202  -6.458  0.00  0.00     0.016 C 
ATOM     37  H   LIG d   1       9.976   1.819  -7.466  0.00  0.00     0.046 H 
ATOM     38  H   LIG d   1       9.392   3.203  -6.511  0.00  0.00     0.046 H 
BRANCH  36  39
ATOM     39  C   LIG d   1      11.159   2.258  -5.720  0.00  0.00    -0.010 C 
ATOM     40  H   LIG d   1      11.547   1.247  -5.595  0.00  0.00     0.033 H 
ATOM     41  H   LIG d   1      11.868   2.850  -6.299  0.00  0.00     0.033 H 
BRANCH  39  42
ATOM     42  C   LIG d   1      10.961   2.891  -4.367  0.00  0.00    -0.021 A 
ATOM     43  C   LIG d   1      10.409   4.221  -4.100  0.00  0.00     0.003 A 
ATOM     44  C   LIG d   1      10.417   4.372  -2.701  0.00  0.00     0.047 A 
ATOM     45  C   LIG d   1       9.930   5.253  -4.909  0.00  0.00    -0.052 A 
ATOM     46  C   LIG d   1       9.944   5.554  -2.141  0.00  0.00    -0.038 A 
ATOM     47  N   LIG d   1      10.937   3.212  -2.172  0.00  0.00    -0.360 N 
ATOM     48  C   LIG d   1       9.475   6.559  -2.957  0.00  0.00    -0.060 A 
ATOM     49  H   LIG d   1       9.945   5.683  -1.068  0.00  0.00     0.064 H 
ATOM     50  C   LIG d   1       9.469   6.405  -4.337  0.00  0.00    -0.061 A 
ATOM     51  H   LIG d   1       9.108   7.476  -2.520  0.00  0.00     0.062 H 
ATOM     52  H   LIG d   1       9.099   7.203  -4.963  0.00  0.00     0.062 H 
ATOM     53  C   LIG d   1      11.250   2.340  -3.178  0.00  0.00     0.006 A 
ATOM     54  H   LIG d   1      11.059   3.038  -1.224  0.00  0.00     0.165 HD
ATOM     55  H   LIG d   1      11.669   1.355  -3.036  0.00  0.00     0.081 H 
ATOM     56  H   LIG d   1       9.923   5.141  -5.983  0.00  0.00     0.062 H 
ENDBRANCH  39  42
ENDBRANCH  36  39
ENDBRANCH  33  36
ENDBRANCH   1  32
TORSDOF 8
ENDMDL
MODEL 10
REMARK VINA RESULT:      -8.0      6.004     11.255
REMARK  8 active torsions:
REMARK  status: ('A' for Active; 'I' for Inactive)
REMARK    1  A    between atoms: C_7  and  C_11 
REMARK    2  A    between atoms: C_11  and  C_12 
REMARK    3  A    between atoms: C_12  and  N_13 
REMARK       I    between atoms: N_13  and  C_14 
REMARK    4  A    between atoms: C_14  and  C_16 
REMARK       I    between atoms: C_16  and  N_18 
REMARK    5  A    between atoms: N_18  and  C_19 
REMARK    6  A    between atoms: C_24  and  C_25 
REMARK       I    between atoms: C_25  and  N_27 
REMARK    7  A    between atoms: N_27  and  C_28 
REMARK    8  A    between atoms: C_28  and  C_29 
ROOT
ATOM      1  C   LIG d   1       4.483  -3.654  -5.257  0.00  0.00     0.303 C 
ATOM      2  O   LIG d   1       4.312  -2.692  -5.977  0.00  0.00    -0.265 OA
ATOM      3  N   LIG d   1       4.843  -3.475  -3.970  0.00  0.00    -0.277 N 
ATOM      4  H   LIG d   1       5.054  -4.242  -3.415  0.00  0.00     0.155 HD
ENDROOT
BRANCH   3   5
ATOM      5  C   LIG d   1       4.909  -2.191  -3.438  0.00  0.00     0.046 A 
ATOM      6  C   LIG d   1       6.102  -1.456  -3.520  0.00  0.00     0.058 A 
ATOM      7  C   LIG d   1       6.157  -0.170  -2.978  0.00  0.00    -0.048 A 
ATOM      8  C   LIG d   1       5.042   0.372  -2.376  0.00  0.00    -0.061 A 
ATOM      9  H   LIG d   1       7.072   0.401  -3.033  0.00  0.00     0.063 H 
ATOM     10  C   LIG d   1       3.866  -0.357  -2.297  0.00  0.00    -0.060 A 
ATOM     11  H   LIG d   1       5.086   1.367  -1.960  0.00  0.00     0.062 H 
ATOM     12  C   LIG d   1       3.797  -1.631  -2.824  0.00  0.00    -0.040 A 
ATOM     13  H   LIG d   1       2.999   0.073  -1.819  0.00  0.00     0.062 H 
ATOM     14  H   LIG d   1       2.877  -2.193  -2.758  0.00  0.00     0.064 H 
BRANCH   6  15
ATOM     15  C   LIG d   1       7.291  -2.039  -4.171  0.00  0.00     0.246 C 
ATOM     16  O   LIG d   1       7.438  -1.935  -5.373  0.00  0.00    -0.270 OA
ATOM     17  N   LIG d   1       8.212  -2.689  -3.433  0.00  0.00    -0.307 N 
ATOM     18  H   LIG d   1       8.094  -2.774  -2.474  0.00  0.00     0.149 HD
BRANCH  17  19
ATOM     19  C   LIG d   1       9.392  -3.269  -4.079  0.00  0.00     0.039 C 
ATOM     20  H   LIG d   1      10.237  -2.589  -3.972  0.00  0.00     0.051 H 
ATOM     21  H   LIG d   1       9.186  -3.427  -5.138  0.00  0.00     0.051 H 
BRANCH  19  22
ATOM     22  C   LIG d   1       9.723  -4.588  -3.430  0.00  0.00    -0.012 A 
ATOM     23  C   LIG d   1      10.107  -5.670  -4.199  0.00  0.00     0.032 A 
ATOM     24  N   LIG d   1      10.398  -6.827  -3.638  0.00  0.00    -0.263 NA
ATOM     25  H   LIG d   1      10.170  -5.566  -5.272  0.00  0.00     0.083 H 
ATOM     26  C   LIG d   1      10.334  -7.000  -2.332  0.00  0.00     0.028 A 
ATOM     27  C   LIG d   1       9.958  -5.964  -1.499  0.00  0.00    -0.043 A 
ATOM     28  H   LIG d   1      10.580  -7.963  -1.908  0.00  0.00     0.083 H 
ATOM     29  C   LIG d   1       9.639  -4.734  -2.053  0.00  0.00    -0.054 A 
ATOM     30  H   LIG d   1       9.909  -6.111  -0.431  0.00  0.00     0.063 H 
ATOM     31  H   LIG d   1       9.338  -3.907  -1.427  0.00  0.00     0.062 H 
ENDBRANCH  19  22
ENDBRANCH  17  19
ENDBRANCH   6  15
ENDBRANCH   3   5
BRANCH   1  32
ATOM     32  C   LIG d   1       4.295  -5.034  -5.795  0.00  0.00     0.299 C 
ATOM     33  N   LIG d   1       5.174  -6.006  -5.480  0.00  0.00    -0.307 N 
ATOM     34  H   LIG d   1       5.931  -5.808  -4.905  0.00  0.00     0.149 HD
ATOM     35  O   LIG d   1       3.349  -5.282  -6.514  0.00  0.00    -0.265 OA
BRANCH  33  36
ATOM     36  C   LIG d   1       4.990  -7.360  -6.007  0.00  0.00     0.016 C 
ATOM     37  H   LIG d   1       4.047  -7.766  -5.642  0.00  0.00     0.046 H 
ATOM     38  H   LIG d   1       4.974  -7.326  -7.097  0.00  0.00     0.046 H 
BRANCH  36  39
ATOM     39  C   LIG d   1       6.144  -8.250  -5.541  0.00  0.00    -0.010 C 
ATOM     40  H   LIG d   1       6.520  -8.828  -6.386  0.00  0.00     0.033 H 
ATOM     41  H   LIG d   1       6.944  -7.628  -5.141  0.00  0.00     0.033 H 
BRANCH  39  42
ATOM     42  C   LIG d   1       5.652  -9.189  -4.470  0.00  0.00    -0.021 A 
ATOM     43  C   LIG d   1       6.383  -9.600  -3.269  0.00  0.00     0.003 A 
ATOM     44  C   LIG d   1       5.529 -10.475  -2.574  0.00  0.00     0.047 A 
ATOM     45  C   LIG d   1       7.646  -9.304  -2.753  0.00  0.00    -0.052 A 
ATOM     46  C   LIG d   1       5.956 -11.037  -1.376  0.00  0.00    -0.038 A 
ATOM     47  N   LIG d   1       4.369 -10.579  -3.309  0.00  0.00    -0.360 N 
ATOM     48  C   LIG d   1       7.206 -10.730  -0.884  0.00  0.00    -0.060 A 
ATOM     49  H   LIG d   1       5.310 -11.711  -0.832  0.00  0.00     0.064 H 
ATOM     50  C   LIG d   1       8.045  -9.866  -1.574  0.00  0.00    -0.061 A 
ATOM     51  H   LIG d   1       7.536 -11.168   0.047  0.00  0.00     0.062 H 
ATOM     52  H   LIG d   1       9.022  -9.637  -1.175  0.00  0.00     0.062 H 
ATOM     53  C   LIG d   1       4.458  -9.802  -4.432  0.00  0.00     0.006 A 
ATOM     54  H   LIG d   1       3.601 -11.119  -3.065  0.00  0.00     0.165 HD
ATOM     55  H   LIG d   1       3.684  -9.698  -5.177  0.00  0.00     0.081 H 
ATOM     56  H   LIG d   1       8.305  -8.633  -3.284  0.00  0.00     0.062 H 
ENDBRANCH  39  42
ENDBRANCH  36  39
ENDBRANCH  33  36
ENDBRANCH   1  32
TORSDOF 8
ENDMDL
