MODEL 1
REMARK VINA RESULT:      -7.0      0.000      0.000
REMARK  5 active torsions:
REMARK  status: ('A' for Active; 'I' for Inactive)
REMARK    1  A    between atoms: C_1  and  C_2 
REMARK    2  A    between atoms: N_6  and  C_8 
REMARK    3  A    between atoms: C_8  and  C_9 
REMARK    4  A    between atoms: C_9  and  C_11 
REMARK    5  A    between atoms: C_14  and  C_17 
ROOT
ATOM      1  C   LIG d   1       3.132  -0.499  -8.053  0.00  0.00     0.024 A 
ATOM      2  C   LIG d   1       2.489   0.424  -8.886  0.00  0.00    -0.051 A 
ATOM      3  C   LIG d   1       2.104   0.054 -10.150  0.00  0.00    -0.053 A 
ATOM      4  C   LIG d   1       2.352  -1.242 -10.604  0.00  0.00    -0.018 A 
ATOM      5  C   LIG d   1       2.993  -2.164  -9.775  0.00  0.00    -0.053 A 
ATOM      6  C   LIG d   1       3.385  -1.797  -8.513  0.00  0.00    -0.051 A 
ATOM      7  H   LIG d   1       2.296   1.427  -8.535  0.00  0.00     0.062 H 
ATOM      8  H   LIG d   1       1.609   0.765 -10.793  0.00  0.00     0.062 H 
ATOM      9  H   LIG d   1       3.183  -3.167 -10.128  0.00  0.00     0.062 H 
ATOM     10  H   LIG d   1       3.885  -2.509  -7.874  0.00  0.00     0.062 H 
ENDROOT
BRANCH   1  11
ATOM     11  C   LIG d   1       3.545  -0.105  -6.699  0.00  0.00     0.228 C 
ATOM     12  O   LIG d   1       2.865   0.670  -6.059  0.00  0.00    -0.285 OA
BRANCH  11  13
ATOM     13  C   LIG d   1       4.813  -0.662  -6.105  0.00  0.00     0.212 C 
ATOM     14  H   LIG d   1       5.619   0.062  -6.227  0.00  0.00     0.112 H 
ATOM     15  H   LIG d   1       5.076  -1.588  -6.615  0.00  0.00     0.112 H 
BRANCH  13  16
ATOM     16  N   LIG d   1       4.608  -0.931  -4.679  0.00  0.00    -0.196 N 
ATOM     17  C   LIG d   1       4.328  -2.159  -4.291  0.00  0.00     0.172 A 
ATOM     18  C   LIG d   1       4.129  -2.450  -2.955  0.00  0.00     0.002 A 
ATOM     19  H   LIG d   1       4.253  -2.946  -5.027  0.00  0.00     0.138 H 
ATOM     20  C   LIG d   1       4.227  -1.432  -2.020  0.00  0.00    -0.048 A 
ATOM     21  H   LIG d   1       3.900  -3.458  -2.643  0.00  0.00     0.068 H 
ATOM     22  C   LIG d   1       4.524  -0.152  -2.466  0.00  0.00     0.013 A 
ATOM     23  H   LIG d   1       4.078  -1.629  -0.969  0.00  0.00     0.062 H 
ATOM     24  C   LIG d   1       4.704   0.065  -3.819  0.00  0.00     0.175 A 
ATOM     25  H   LIG d   1       4.930   1.058  -4.175  0.00  0.00     0.138 H 
BRANCH  22  26
ATOM     26  C   LIG d   1       4.641   0.989  -1.488  0.00  0.00    -0.034 C 
ATOM     27  H   LIG d   1       3.690   1.515  -1.428  0.00  0.00     0.028 H 
ATOM     28  H   LIG d   1       4.904   0.599  -0.505  0.00  0.00     0.028 H 
ATOM     29  H   LIG d   1       5.417   1.677  -1.825  0.00  0.00     0.028 H 
ENDBRANCH  22  26
ENDBRANCH  13  16
ENDBRANCH  11  13
ENDBRANCH   1  11
BRANCH   4  30
ATOM     30  C   LIG d   1       1.936  -1.640 -11.970  0.00  0.00    -0.018 A 
ATOM     31  C   LIG d   1       2.878  -1.714 -12.995  0.00  0.00    -0.054 A 
ATOM     32  C   LIG d   1       2.486  -2.091 -14.263  0.00  0.00    -0.061 A 
ATOM     33  H   LIG d   1       3.913  -1.481 -12.797  0.00  0.00     0.062 H 
ATOM     34  C   LIG d   1       1.158  -2.384 -14.520  0.00  0.00    -0.062 A 
ATOM     35  H   LIG d   1       3.215  -2.153 -15.057  0.00  0.00     0.062 H 
ATOM     36  C   LIG d   1       0.218  -2.307 -13.509  0.00  0.00    -0.061 A 
ATOM     37  H   LIG d   1       0.854  -2.675 -15.515  0.00  0.00     0.062 H 
ATOM     38  C   LIG d   1       0.600  -1.938 -12.235  0.00  0.00    -0.054 A 
ATOM     39  H   LIG d   1      -0.816  -2.537 -13.716  0.00  0.00     0.062 H 
ATOM     40  H   LIG d   1      -0.135  -1.878 -11.446  0.00  0.00     0.062 H 
ENDBRANCH   4  30
TORSDOF 5
ENDMDL
MODEL 2
REMARK VINA RESULT:      -6.9      6.297      9.043
REMARK  5 active torsions:
REMARK  status: ('A' for Active; 'I' for Inactive)
REMARK    1  A    between atoms: C_1  and  C_2 
REMARK    2  A    between atoms: N_6  and  C_8 
REMARK    3  A    between atoms: C_8  and  C_9 
REMARK    4  A    between atoms: C_9  and  C_11 
REMARK    5  A    between atoms: C_14  and  C_17 
ROOT
ATOM      1  C   LIG d   1       6.457  -5.010  -5.496  0.00  0.00     0.024 A 
ATOM      2  C   LIG d   1       7.479  -4.224  -4.952  0.00  0.00    -0.051 A 
ATOM      3  C   LIG d   1       7.170  -3.073  -4.272  0.00  0.00    -0.053 A 
ATOM      4  C   LIG d   1       5.837  -2.686  -4.123  0.00  0.00    -0.018 A 
ATOM      5  C   LIG d   1       4.817  -3.469  -4.666  0.00  0.00    -0.053 A 
ATOM      6  C   LIG d   1       5.121  -4.616  -5.351  0.00  0.00    -0.051 A 
ATOM      7  H   LIG d   1       8.510  -4.523  -5.066  0.00  0.00     0.062 H 
ATOM      8  H   LIG d   1       7.957  -2.466  -3.852  0.00  0.00     0.062 H 
ATOM      9  H   LIG d   1       3.785  -3.168  -4.549  0.00  0.00     0.062 H 
ATOM     10  H   LIG d   1       4.331  -5.219  -5.775  0.00  0.00     0.062 H 
ENDROOT
BRANCH   1  11
ATOM     11  C   LIG d   1       6.786  -6.243  -6.225  0.00  0.00     0.228 C 
ATOM     12  O   LIG d   1       7.896  -6.395  -6.690  0.00  0.00    -0.285 OA
BRANCH  11  13
ATOM     13  C   LIG d   1       5.745  -7.320  -6.394  0.00  0.00     0.212 C 
ATOM     14  H   LIG d   1       5.933  -7.862  -7.321  0.00  0.00     0.112 H 
ATOM     15  H   LIG d   1       4.756  -6.865  -6.433  0.00  0.00     0.112 H 
BRANCH  13  16
ATOM     16  N   LIG d   1       5.813  -8.247  -5.262  0.00  0.00    -0.196 N 
ATOM     17  C   LIG d   1       6.968  -8.437  -4.655  0.00  0.00     0.172 A 
ATOM     18  C   LIG d   1       7.069  -9.303  -3.583  0.00  0.00     0.002 A 
ATOM     19  H   LIG d   1       7.844  -7.909  -5.000  0.00  0.00     0.138 H 
ATOM     20  C   LIG d   1       5.937  -9.975  -3.148  0.00  0.00    -0.048 A 
ATOM     21  H   LIG d   1       8.018  -9.454  -3.089  0.00  0.00     0.068 H 
ATOM     22  C   LIG d   1       4.740  -9.750  -3.812  0.00  0.00     0.013 A 
ATOM     23  H   LIG d   1       5.986 -10.658  -2.313  0.00  0.00     0.062 H 
ATOM     24  C   LIG d   1       4.717  -8.874  -4.880  0.00  0.00     0.175 A 
ATOM     25  H   LIG d   1       3.790  -8.697  -5.405  0.00  0.00     0.138 H 
BRANCH  22  26
ATOM     26  C   LIG d   1       3.482 -10.457  -3.377  0.00  0.00    -0.034 C 
ATOM     27  H   LIG d   1       3.690 -11.056  -2.491  0.00  0.00     0.028 H 
ATOM     28  H   LIG d   1       2.713  -9.721  -3.146  0.00  0.00     0.028 H 
ATOM     29  H   LIG d   1       3.135 -11.106  -4.181  0.00  0.00     0.028 H 
ENDBRANCH  22  26
ENDBRANCH  13  16
ENDBRANCH  11  13
ENDBRANCH   1  11
BRANCH   4  30
ATOM     30  C   LIG d   1       5.506  -1.443  -3.389  0.00  0.00    -0.018 A 
ATOM     31  C   LIG d   1       4.537  -1.460  -2.385  0.00  0.00    -0.054 A 
ATOM     32  C   LIG d   1       4.237  -0.301  -1.700  0.00  0.00    -0.061 A 
ATOM     33  H   LIG d   1       4.026  -2.379  -2.143  0.00  0.00     0.062 H 
ATOM     34  C   LIG d   1       4.887   0.880  -2.015  0.00  0.00    -0.062 A 
ATOM     35  H   LIG d   1       3.490  -0.313  -0.920  0.00  0.00     0.062 H 
ATOM     36  C   LIG d   1       5.844   0.904  -3.013  0.00  0.00    -0.061 A 
ATOM     37  H   LIG d   1       4.646   1.786  -1.478  0.00  0.00     0.062 H 
ATOM     38  C   LIG d   1       6.158  -0.251  -3.700  0.00  0.00    -0.054 A 
ATOM     39  H   LIG d   1       6.348   1.828  -3.253  0.00  0.00     0.062 H 
ATOM     40  H   LIG d   1       6.906  -0.231  -4.479  0.00  0.00     0.062 H 
ENDBRANCH   4  30
TORSDOF 5
ENDMDL
MODEL 3
REMARK VINA RESULT:      -6.7      4.730      8.801
REMARK  5 active torsions:
REMARK  status: ('A' for Active; 'I' for Inactive)
REMARK    1  A    between atoms: C_1  and  C_2 
REMARK    2  A    between atoms: N_6  and  C_8 
REMARK    3  A    between atoms: C_8  and  C_9 
REMARK    4  A    between atoms: C_9  and  C_11 
REMARK    5  A    between atoms: C_14  and  C_17 
ROOT
ATOM      1  C   LIG d   1       7.317   0.387  -5.668  0.00  0.00     0.024 A 
ATOM      2  C   LIG d   1       7.276   0.688  -4.302  0.00  0.00    -0.051 A 
ATOM      3  C   LIG d   1       7.894   1.817  -3.829  0.00  0.00    -0.053 A 
ATOM      4  C   LIG d   1       8.564   2.667  -4.711  0.00  0.00    -0.018 A 
ATOM      5  C   LIG d   1       8.606   2.369  -6.074  0.00  0.00    -0.053 A 
ATOM      6  C   LIG d   1       7.995   1.238  -6.549  0.00  0.00    -0.051 A 
ATOM      7  H   LIG d   1       6.757   0.031  -3.619  0.00  0.00     0.062 H 
ATOM      8  H   LIG d   1       7.863   2.049  -2.776  0.00  0.00     0.062 H 
ATOM      9  H   LIG d   1       9.125   3.029  -6.755  0.00  0.00     0.062 H 
ATOM     10  H   LIG d   1       8.033   1.006  -7.603  0.00  0.00     0.062 H 
ENDROOT
BRANCH   1  11
ATOM     11  C   LIG d   1       6.655  -0.822  -6.176  0.00  0.00     0.228 C 
ATOM     12  O   LIG d   1       7.236  -1.887  -6.153  0.00  0.00    -0.285 OA
BRANCH  11  13
ATOM     13  C   LIG d   1       5.254  -0.741  -6.726  0.00  0.00     0.212 C 
ATOM     14  H   LIG d   1       5.044  -1.634  -7.315  0.00  0.00     0.112 H 
ATOM     15  H   LIG d   1       5.163   0.141  -7.358  0.00  0.00     0.112 H 
BRANCH  13  16
ATOM     16  N   LIG d   1       4.299  -0.650  -5.619  0.00  0.00    -0.196 N 
ATOM     17  C   LIG d   1       3.289   0.193  -5.710  0.00  0.00     0.172 A 
ATOM     18  C   LIG d   1       2.369   0.306  -4.685  0.00  0.00     0.002 A 
ATOM     19  H   LIG d   1       3.181   0.802  -6.595  0.00  0.00     0.138 H 
ATOM     20  C   LIG d   1       2.517  -0.481  -3.554  0.00  0.00    -0.048 A 
ATOM     21  H   LIG d   1       1.543   0.998  -4.765  0.00  0.00     0.068 H 
ATOM     22  C   LIG d   1       3.592  -1.356  -3.494  0.00  0.00     0.013 A 
ATOM     23  H   LIG d   1       1.813  -0.415  -2.737  0.00  0.00     0.062 H 
ATOM     24  C   LIG d   1       4.476  -1.410  -4.555  0.00  0.00     0.175 A 
ATOM     25  H   LIG d   1       5.318  -2.084  -4.515  0.00  0.00     0.138 H 
BRANCH  22  26
ATOM     26  C   LIG d   1       3.797  -2.232  -2.285  0.00  0.00    -0.034 C 
ATOM     27  H   LIG d   1       4.792  -2.672  -2.320  0.00  0.00     0.028 H 
ATOM     28  H   LIG d   1       3.695  -1.632  -1.381  0.00  0.00     0.028 H 
ATOM     29  H   LIG d   1       3.048  -3.025  -2.281  0.00  0.00     0.028 H 
ENDBRANCH  22  26
ENDBRANCH  13  16
ENDBRANCH  11  13
ENDBRANCH   1  11
BRANCH   4  30
ATOM     30  C   LIG d   1       9.232   3.887  -4.198  0.00  0.00    -0.018 A 
ATOM     31  C   LIG d   1       9.249   5.050  -4.967  0.00  0.00    -0.054 A 
ATOM     32  C   LIG d   1       9.866   6.185  -4.483  0.00  0.00    -0.061 A 
ATOM     33  H   LIG d   1       8.778   5.064  -5.938  0.00  0.00     0.062 H 
ATOM     34  C   LIG d   1      10.476   6.167  -3.241  0.00  0.00    -0.062 A 
ATOM     35  H   LIG d   1       9.877   7.088  -5.075  0.00  0.00     0.062 H 
ATOM     36  C   LIG d   1      10.467   5.014  -2.476  0.00  0.00    -0.061 A 
ATOM     37  H   LIG d   1      10.962   7.057  -2.867  0.00  0.00     0.062 H 
ATOM     38  C   LIG d   1       9.847   3.875  -2.948  0.00  0.00    -0.054 A 
ATOM     39  H   LIG d   1      10.945   5.007  -1.508  0.00  0.00     0.062 H 
ATOM     40  H   LIG d   1       9.840   2.976  -2.349  0.00  0.00     0.062 H 
ENDBRANCH   4  30
TORSDOF 5
ENDMDL
MODEL 4
REMARK VINA RESULT:      -6.7      2.332      7.788
REMARK  5 active torsions:
REMARK  status: ('A' for Active; 'I' for Inactive)
REMARK    1  A    between atoms: C_1  and  C_2 
REMARK    2  A    between atoms: N_6  and  C_8 
REMARK    3  A    between atoms: C_8  and  C_9 
REMARK    4  A    between atoms: C_9  and  C_11 
REMARK    5  A    between atoms: C_14  and  C_17 
ROOT
ATOM      1  C   LIG d   1       4.114   0.612  -8.907  0.00  0.00     0.024 A 
ATOM      2  C   LIG d   1       2.893   0.648  -8.223  0.00  0.00    -0.051 A 
ATOM      3  C   LIG d   1       2.810   0.162  -6.943  0.00  0.00    -0.053 A 
ATOM      4  C   LIG d   1       3.943  -0.369  -6.323  0.00  0.00    -0.018 A 
ATOM      5  C   LIG d   1       5.161  -0.405  -7.003  0.00  0.00    -0.053 A 
ATOM      6  C   LIG d   1       5.247   0.075  -8.284  0.00  0.00    -0.051 A 
ATOM      7  H   LIG d   1       2.017   1.058  -8.702  0.00  0.00     0.062 H 
ATOM      8  H   LIG d   1       1.869   0.188  -6.415  0.00  0.00     0.062 H 
ATOM      9  H   LIG d   1       6.037  -0.814  -6.521  0.00  0.00     0.062 H 
ATOM     10  H   LIG d   1       6.189   0.042  -8.812  0.00  0.00     0.062 H 
ENDROOT
BRANCH   1  11
ATOM     11  C   LIG d   1       4.204   1.133 -10.278  0.00  0.00     0.228 C 
ATOM     12  O   LIG d   1       3.868   2.274 -10.517  0.00  0.00    -0.285 OA
BRANCH  11  13
ATOM     13  C   LIG d   1       4.715   0.250 -11.388  0.00  0.00     0.212 C 
ATOM     14  H   LIG d   1       5.737  -0.058 -11.166  0.00  0.00     0.112 H 
ATOM     15  H   LIG d   1       4.698   0.803 -12.327  0.00  0.00     0.112 H 
BRANCH  13  16
ATOM     16  N   LIG d   1       3.861  -0.934 -11.502  0.00  0.00    -0.196 N 
ATOM     17  C   LIG d   1       4.361  -2.118 -11.208  0.00  0.00     0.172 A 
ATOM     18  C   LIG d   1       3.585  -3.257 -11.303  0.00  0.00     0.002 A 
ATOM     19  H   LIG d   1       5.390  -2.197 -10.890  0.00  0.00     0.138 H 
ATOM     20  C   LIG d   1       2.266  -3.144 -11.713  0.00  0.00    -0.048 A 
ATOM     21  H   LIG d   1       4.000  -4.224 -11.060  0.00  0.00     0.068 H 
ATOM     22  C   LIG d   1       1.774  -1.882 -12.014  0.00  0.00     0.013 A 
ATOM     23  H   LIG d   1       1.635  -4.016 -11.796  0.00  0.00     0.062 H 
ATOM     24  C   LIG d   1       2.612  -0.788 -11.901  0.00  0.00     0.175 A 
ATOM     25  H   LIG d   1       2.239   0.196 -12.138  0.00  0.00     0.138 H 
BRANCH  22  26
ATOM     26  C   LIG d   1       0.347  -1.706 -12.464  0.00  0.00    -0.034 C 
ATOM     27  H   LIG d   1       0.281  -1.873 -13.539  0.00  0.00     0.028 H 
ATOM     28  H   LIG d   1      -0.289  -2.424 -11.945  0.00  0.00     0.028 H 
ATOM     29  H   LIG d   1       0.015  -0.694 -12.233  0.00  0.00     0.028 H 
ENDBRANCH  22  26
ENDBRANCH  13  16
ENDBRANCH  11  13
ENDBRANCH   1  11
BRANCH   4  30
ATOM     30  C   LIG d   1       3.851  -0.894  -4.940  0.00  0.00    -0.018 A 
ATOM     31  C   LIG d   1       2.996  -0.291  -4.018  0.00  0.00    -0.054 A 
ATOM     32  C   LIG d   1       2.910  -0.787  -2.734  0.00  0.00    -0.061 A 
ATOM     33  H   LIG d   1       2.400   0.561  -4.309  0.00  0.00     0.062 H 
ATOM     34  C   LIG d   1       3.678  -1.875  -2.357  0.00  0.00    -0.062 A 
ATOM     35  H   LIG d   1       2.245  -0.325  -2.020  0.00  0.00     0.062 H 
ATOM     36  C   LIG d   1       4.532  -2.473  -3.266  0.00  0.00    -0.061 A 
ATOM     37  H   LIG d   1       3.610  -2.258  -1.349  0.00  0.00     0.062 H 
ATOM     38  C   LIG d   1       4.622  -1.990  -4.555  0.00  0.00    -0.054 A 
ATOM     39  H   LIG d   1       5.129  -3.322  -2.966  0.00  0.00     0.062 H 
ATOM     40  H   LIG d   1       5.289  -2.458  -5.264  0.00  0.00     0.062 H 
ENDBRANCH   4  30
TORSDOF 5
ENDMDL
MODEL 5
REMARK VINA RESULT:      -6.7      6.383      8.809
REMARK  5 active torsions:
REMARK  status: ('A' for Active; 'I' for Inactive)
REMARK    1  A    between atoms: C_1  and  C_2 
REMARK    2  A    between atoms: N_6  and  C_8 
REMARK    3  A    between atoms: C_8  and  C_9 
REMARK    4  A    between atoms: C_9  and  C_11 
REMARK    5  A    between atoms: C_14  and  C_17 
ROOT
ATOM      1  C   LIG d   1       7.118  -4.420  -5.018  0.00  0.00     0.024 A 
ATOM      2  C   LIG d   1       7.822  -3.470  -4.269  0.00  0.00    -0.051 A 
ATOM      3  C   LIG d   1       7.160  -2.398  -3.727  0.00  0.00    -0.053 A 
ATOM      4  C   LIG d   1       5.785  -2.254  -3.922  0.00  0.00    -0.018 A 
ATOM      5  C   LIG d   1       5.082  -3.201  -4.668  0.00  0.00    -0.053 A 
ATOM      6  C   LIG d   1       5.740  -4.271  -5.217  0.00  0.00    -0.051 A 
ATOM      7  H   LIG d   1       8.885  -3.581  -4.117  0.00  0.00     0.062 H 
ATOM      8  H   LIG d   1       7.702  -1.664  -3.150  0.00  0.00     0.062 H 
ATOM      9  H   LIG d   1       4.017  -3.089  -4.817  0.00  0.00     0.062 H 
ATOM     10  H   LIG d   1       5.196  -5.000  -5.798  0.00  0.00     0.062 H 
ENDROOT
BRANCH   1  11
ATOM     11  C   LIG d   1       7.825  -5.570  -5.599  0.00  0.00     0.228 C 
ATOM     12  O   LIG d   1       9.018  -5.702  -5.421  0.00  0.00    -0.285 OA
BRANCH  11  13
ATOM     13  C   LIG d   1       7.070  -6.586  -6.416  0.00  0.00     0.212 C 
ATOM     14  H   LIG d   1       7.738  -7.026  -7.156  0.00  0.00     0.112 H 
ATOM     15  H   LIG d   1       6.238  -6.098  -6.923  0.00  0.00     0.112 H 
BRANCH  13  16
ATOM     16  N   LIG d   1       6.556  -7.637  -5.535  0.00  0.00    -0.196 N 
ATOM     17  C   LIG d   1       5.287  -7.985  -5.621  0.00  0.00     0.172 A 
ATOM     18  C   LIG d   1       4.768  -8.973  -4.807  0.00  0.00     0.002 A 
ATOM     19  H   LIG d   1       4.646  -7.490  -6.336  0.00  0.00     0.138 H 
ATOM     20  C   LIG d   1       5.599  -9.601  -3.892  0.00  0.00    -0.048 A 
ATOM     21  H   LIG d   1       3.727  -9.253  -4.882  0.00  0.00     0.068 H 
ATOM     22  C   LIG d   1       6.928  -9.209  -3.831  0.00  0.00     0.013 A 
ATOM     23  H   LIG d   1       5.221 -10.377  -3.243  0.00  0.00     0.062 H 
ATOM     24  C   LIG d   1       7.375  -8.209  -4.673  0.00  0.00     0.175 A 
ATOM     25  H   LIG d   1       8.407  -7.895  -4.628  0.00  0.00     0.138 H 
BRANCH  22  26
ATOM     26  C   LIG d   1       7.871  -9.862  -2.853  0.00  0.00    -0.034 C 
ATOM     27  H   LIG d   1       8.860  -9.944  -3.302  0.00  0.00     0.028 H 
ATOM     28  H   LIG d   1       7.932  -9.257  -1.948  0.00  0.00     0.028 H 
ATOM     29  H   LIG d   1       7.502 -10.856  -2.602  0.00  0.00     0.028 H 
ENDBRANCH  22  26
ENDBRANCH  13  16
ENDBRANCH  11  13
ENDBRANCH   1  11
BRANCH   4  30
ATOM     30  C   LIG d   1       5.072  -1.095  -3.336  0.00  0.00    -0.018 A 
ATOM     31  C   LIG d   1       5.787   0.024  -2.909  0.00  0.00    -0.054 A 
ATOM     32  C   LIG d   1       5.118   1.103  -2.371  0.00  0.00    -0.061 A 
ATOM     33  H   LIG d   1       6.863   0.047  -3.004  0.00  0.00     0.062 H 
ATOM     34  C   LIG d   1       3.741   1.072  -2.243  0.00  0.00    -0.062 A 
ATOM     35  H   LIG d   1       5.670   1.972  -2.044  0.00  0.00     0.062 H 
ATOM     36  C   LIG d   1       3.027  -0.037  -2.658  0.00  0.00    -0.061 A 
ATOM     37  H   LIG d   1       3.221   1.918  -1.816  0.00  0.00     0.062 H 
ATOM     38  C   LIG d   1       3.685  -1.119  -3.205  0.00  0.00    -0.054 A 
ATOM     39  H   LIG d   1       1.952  -0.054  -2.556  0.00  0.00     0.062 H 
ATOM     40  H   LIG d   1       3.126  -1.984  -3.531  0.00  0.00     0.062 H 
ENDBRANCH   4  30
TORSDOF 5
ENDMDL
MODEL 6
REMARK VINA RESULT:      -6.7      2.443      7.761
REMARK  5 active torsions:
REMARK  status: ('A' for Active; 'I' for Inactive)
REMARK    1  A    between atoms: C_1  and  C_2 
REMARK    2  A    between atoms: N_6  and  C_8 
REMARK    3  A    between atoms: C_8  and  C_9 
REMARK    4  A    between atoms: C_9  and  C_11 
REMARK    5  A    between atoms: C_14  and  C_17 
ROOT
ATOM      1  C   LIG d   1       3.945   0.770  -8.779  0.00  0.00     0.024 A 
ATOM      2  C   LIG d   1       5.108   0.188  -8.261  0.00  0.00    -0.051 A 
ATOM      3  C   LIG d   1       5.105  -0.336  -6.993  0.00  0.00    -0.053 A 
ATOM      4  C   LIG d   1       3.944  -0.287  -6.220  0.00  0.00    -0.018 A 
ATOM      5  C   LIG d   1       2.784   0.293  -6.735  0.00  0.00    -0.053 A 
ATOM      6  C   LIG d   1       2.784   0.822  -7.999  0.00  0.00    -0.051 A 
ATOM      7  H   LIG d   1       6.006   0.150  -8.859  0.00  0.00     0.062 H 
ATOM      8  H   LIG d   1       6.001  -0.785  -6.593  0.00  0.00     0.062 H 
ATOM      9  H   LIG d   1       1.886   0.328  -6.135  0.00  0.00     0.062 H 
ATOM     10  H   LIG d   1       1.887   1.276  -8.395  0.00  0.00     0.062 H 
ENDROOT
BRANCH   1  11
ATOM     11  C   LIG d   1       3.946   1.331 -10.137  0.00  0.00     0.228 C 
ATOM     12  O   LIG d   1       3.635   2.491 -10.315  0.00  0.00    -0.285 OA
BRANCH  11  13
ATOM     13  C   LIG d   1       4.332   0.467 -11.311  0.00  0.00     0.212 C 
ATOM     14  H   LIG d   1       5.382   0.188 -11.225  0.00  0.00     0.112 H 
ATOM     15  H   LIG d   1       4.177   1.022 -12.236  0.00  0.00     0.112 H 
BRANCH  13  16
ATOM     16  N   LIG d   1       3.504  -0.741 -11.321  0.00  0.00    -0.196 N 
ATOM     17  C   LIG d   1       2.196  -0.623 -11.439  0.00  0.00     0.172 A 
ATOM     18  C   LIG d   1       1.384  -1.741 -11.453  0.00  0.00     0.002 A 
ATOM     19  H   LIG d   1       1.756   0.360 -11.525  0.00  0.00     0.138 H 
ATOM     20  C   LIG d   1       1.960  -2.996 -11.342  0.00  0.00    -0.048 A 
ATOM     21  H   LIG d   1       0.313  -1.637 -11.551  0.00  0.00     0.068 H 
ATOM     22  C   LIG d   1       3.339  -3.081 -11.220  0.00  0.00     0.013 A 
ATOM     23  H   LIG d   1       1.351  -3.888 -11.352  0.00  0.00     0.062 H 
ATOM     24  C   LIG d   1       4.087  -1.919 -11.207  0.00  0.00     0.175 A 
ATOM     25  H   LIG d   1       5.160  -1.976 -11.107  0.00  0.00     0.138 H 
BRANCH  22  26
ATOM     26  C   LIG d   1       4.013  -4.424 -11.096  0.00  0.00    -0.034 C 
ATOM     27  H   LIG d   1       4.971  -4.304 -10.593  0.00  0.00     0.028 H 
ATOM     28  H   LIG d   1       3.379  -5.096 -10.518  0.00  0.00     0.028 H 
ATOM     29  H   LIG d   1       4.174  -4.842 -12.090  0.00  0.00     0.028 H 
ENDBRANCH  22  26
ENDBRANCH  13  16
ENDBRANCH  11  13
ENDBRANCH   1  11
BRANCH   4  30
ATOM     30  C   LIG d   1       3.944  -0.853  -4.850  0.00  0.00    -0.018 A 
ATOM     31  C   LIG d   1       2.963  -0.472  -3.936  0.00  0.00    -0.054 A 
ATOM     32  C   LIG d   1       2.963  -1.006  -2.664  0.00  0.00    -0.061 A 
ATOM     33  H   LIG d   1       2.202   0.239  -4.223  0.00  0.00     0.062 H 
ATOM     34  C   LIG d   1       3.941  -1.912  -2.292  0.00  0.00    -0.062 A 
ATOM     35  H   LIG d   1       2.201  -0.715  -1.956  0.00  0.00     0.062 H 
ATOM     36  C   LIG d   1       4.920  -2.290  -3.193  0.00  0.00    -0.061 A 
ATOM     37  H   LIG d   1       3.940  -2.325  -1.294  0.00  0.00     0.062 H 
ATOM     38  C   LIG d   1       4.926  -1.767  -4.470  0.00  0.00    -0.054 A 
ATOM     39  H   LIG d   1       5.680  -2.997  -2.897  0.00  0.00     0.062 H 
ATOM     40  H   LIG d   1       5.690  -2.063  -5.173  0.00  0.00     0.062 H 
ENDBRANCH   4  30
TORSDOF 5
ENDMDL
MODEL 7
REMARK VINA RESULT:      -6.5      5.526      8.132
REMARK  5 active torsions:
REMARK  status: ('A' for Active; 'I' for Inactive)
REMARK    1  A    between atoms: C_1  and  C_2 
REMARK    2  A    between atoms: N_6  and  C_8 
REMARK    3  A    between atoms: C_8  and  C_9 
REMARK    4  A    between atoms: C_9  and  C_11 
REMARK    5  A    between atoms: C_14  and  C_17 
ROOT
ATOM      1  C   LIG d   1       7.814  -0.627  -4.638  0.00  0.00     0.024 A 
ATOM      2  C   LIG d   1       8.630  -0.381  -5.749  0.00  0.00    -0.051 A 
ATOM      3  C   LIG d   1       9.055   0.895  -6.017  0.00  0.00    -0.053 A 
ATOM      4  C   LIG d   1       8.675   1.948  -5.183  0.00  0.00    -0.018 A 
ATOM      5  C   LIG d   1       7.863   1.704  -4.075  0.00  0.00    -0.053 A 
ATOM      6  C   LIG d   1       7.430   0.432  -3.806  0.00  0.00    -0.051 A 
ATOM      7  H   LIG d   1       8.924  -1.195  -6.394  0.00  0.00     0.062 H 
ATOM      8  H   LIG d   1       9.684   1.086  -6.873  0.00  0.00     0.062 H 
ATOM      9  H   LIG d   1       7.570   2.520  -3.430  0.00  0.00     0.062 H 
ATOM     10  H   LIG d   1       6.796   0.245  -2.952  0.00  0.00     0.062 H 
ENDROOT
BRANCH   1  11
ATOM     11  C   LIG d   1       7.358  -1.993  -4.349  0.00  0.00     0.228 C 
ATOM     12  O   LIG d   1       8.011  -2.710  -3.619  0.00  0.00    -0.285 OA
BRANCH  11  13
ATOM     13  C   LIG d   1       6.078  -2.506  -4.958  0.00  0.00     0.212 C 
ATOM     14  H   LIG d   1       6.037  -3.591  -4.857  0.00  0.00     0.112 H 
ATOM     15  H   LIG d   1       6.046  -2.238  -6.014  0.00  0.00     0.112 H 
BRANCH  13  16
ATOM     16  N   LIG d   1       4.933  -1.907  -4.267  0.00  0.00    -0.196 N 
ATOM     17  C   LIG d   1       4.615  -2.335  -3.061  0.00  0.00     0.172 A 
ATOM     18  C   LIG d   1       3.543  -1.793  -2.379  0.00  0.00     0.002 A 
ATOM     19  H   LIG d   1       5.200  -3.119  -2.603  0.00  0.00     0.138 H 
ATOM     20  C   LIG d   1       2.800  -0.787  -2.977  0.00  0.00    -0.048 A 
ATOM     21  H   LIG d   1       3.288  -2.147  -1.391  0.00  0.00     0.068 H 
ATOM     22  C   LIG d   1       3.165  -0.363  -4.246  0.00  0.00     0.013 A 
ATOM     23  H   LIG d   1       1.957  -0.344  -2.468  0.00  0.00     0.062 H 
ATOM     24  C   LIG d   1       4.246  -0.957  -4.870  0.00  0.00     0.175 A 
ATOM     25  H   LIG d   1       4.533  -0.635  -5.860  0.00  0.00     0.138 H 
BRANCH  22  26
ATOM     26  C   LIG d   1       2.388   0.727  -4.939  0.00  0.00    -0.034 C 
ATOM     27  H   LIG d   1       1.481   0.941  -4.376  0.00  0.00     0.028 H 
ATOM     28  H   LIG d   1       3.000   1.627  -4.999  0.00  0.00     0.028 H 
ATOM     29  H   LIG d   1       2.123   0.401  -5.945  0.00  0.00     0.028 H 
ENDBRANCH  22  26
ENDBRANCH  13  16
ENDBRANCH  11  13
ENDBRANCH   1  11
BRANCH   4  30
ATOM     30  C   LIG d   1       9.136   3.326  -5.475  0.00  0.00    -0.018 A 
ATOM     31  C   LIG d   1       9.543   3.669  -6.763  0.00  0.00    -0.054 A 
ATOM     32  C   LIG d   1       9.965   4.955  -7.032  0.00  0.00    -0.061 A 
ATOM     33  H   LIG d   1       9.525   2.931  -7.551  0.00  0.00     0.062 H 
ATOM     34  C   LIG d   1       9.995   5.900  -6.021  0.00  0.00    -0.062 A 
ATOM     35  H   LIG d   1      10.276   5.224  -8.030  0.00  0.00     0.062 H 
ATOM     36  C   LIG d   1       9.598   5.564  -4.740  0.00  0.00    -0.061 A 
ATOM     37  H   LIG d   1      10.330   6.905  -6.234  0.00  0.00     0.062 H 
ATOM     38  C   LIG d   1       9.168   4.283  -4.462  0.00  0.00    -0.054 A 
ATOM     39  H   LIG d   1       9.624   6.306  -3.956  0.00  0.00     0.062 H 
ATOM     40  H   LIG d   1       8.857   4.021  -3.461  0.00  0.00     0.062 H 
ENDBRANCH   4  30
TORSDOF 5
ENDMDL
MODEL 8
REMARK VINA RESULT:      -6.5      6.190      9.248
REMARK  5 active torsions:
REMARK  status: ('A' for Active; 'I' for Inactive)
REMARK    1  A    between atoms: C_1  and  C_2 
REMARK    2  A    between atoms: N_6  and  C_8 
REMARK    3  A    between atoms: C_8  and  C_9 
REMARK    4  A    between atoms: C_9  and  C_11 
REMARK    5  A    between atoms: C_14  and  C_17 
ROOT
ATOM      1  C   LIG d   1       6.110  -5.146  -5.618  0.00  0.00     0.024 A 
ATOM      2  C   LIG d   1       4.806  -4.717  -5.343  0.00  0.00    -0.051 A 
ATOM      3  C   LIG d   1       4.601  -3.551  -4.650  0.00  0.00    -0.053 A 
ATOM      4  C   LIG d   1       5.691  -2.792  -4.220  0.00  0.00    -0.018 A 
ATOM      5  C   LIG d   1       6.991  -3.218  -4.494  0.00  0.00    -0.053 A 
ATOM      6  C   LIG d   1       7.202  -4.386  -5.180  0.00  0.00    -0.051 A 
ATOM      7  H   LIG d   1       3.963  -5.303  -5.676  0.00  0.00     0.062 H 
ATOM      8  H   LIG d   1       3.596  -3.220  -4.437  0.00  0.00     0.062 H 
ATOM      9  H   LIG d   1       7.834  -2.629  -4.161  0.00  0.00     0.062 H 
ATOM     10  H   LIG d   1       8.209  -4.717  -5.387  0.00  0.00     0.062 H 
ENDROOT
BRANCH   1  11
ATOM     11  C   LIG d   1       6.333  -6.394  -6.360  0.00  0.00     0.228 C 
ATOM     12  O   LIG d   1       7.447  -6.869  -6.430  0.00  0.00    -0.285 OA
BRANCH  11  13
ATOM     13  C   LIG d   1       5.176  -7.087  -7.036  0.00  0.00     0.212 C 
ATOM     14  H   LIG d   1       5.429  -7.280  -8.078  0.00  0.00     0.112 H 
ATOM     15  H   LIG d   1       4.294  -6.450  -6.987  0.00  0.00     0.112 H 
BRANCH  13  16
ATOM     16  N   LIG d   1       4.902  -8.355  -6.356  0.00  0.00    -0.196 N 
ATOM     17  C   LIG d   1       4.820  -8.373  -5.040  0.00  0.00     0.172 A 
ATOM     18  C   LIG d   1       4.561  -9.551  -4.365  0.00  0.00     0.002 A 
ATOM     19  H   LIG d   1       4.957  -7.458  -4.484  0.00  0.00     0.138 H 
ATOM     20  C   LIG d   1       4.387 -10.720  -5.088  0.00  0.00    -0.048 A 
ATOM     21  H   LIG d   1       4.495  -9.560  -3.286  0.00  0.00     0.068 H 
ATOM     22  C   LIG d   1       4.480 -10.662  -6.470  0.00  0.00     0.013 A 
ATOM     23  H   LIG d   1       4.183 -11.655  -4.587  0.00  0.00     0.062 H 
ATOM     24  C   LIG d   1       4.747  -9.449  -7.076  0.00  0.00     0.175 A 
ATOM     25  H   LIG d   1       4.826  -9.395  -8.151  0.00  0.00     0.138 H 
BRANCH  22  26
ATOM     26  C   LIG d   1       4.298 -11.906  -7.301  0.00  0.00    -0.034 C 
ATOM     27  H   LIG d   1       5.076 -11.952  -8.062  0.00  0.00     0.028 H 
ATOM     28  H   LIG d   1       4.365 -12.784  -6.659  0.00  0.00     0.028 H 
ATOM     29  H   LIG d   1       3.320 -11.881  -7.782  0.00  0.00     0.028 H 
ENDBRANCH  22  26
ENDBRANCH  13  16
ENDBRANCH  11  13
ENDBRANCH   1  11
BRANCH   4  30
ATOM     30  C   LIG d   1       5.466  -1.533  -3.472  0.00  0.00    -0.018 A 
ATOM     31  C   LIG d   1       6.153  -0.374  -3.830  0.00  0.00    -0.054 A 
ATOM     32  C   LIG d   1       5.936   0.797  -3.135  0.00  0.00    -0.061 A 
ATOM     33  H   LIG d   1       6.852  -0.392  -4.653  0.00  0.00     0.062 H 
ATOM     34  C   LIG d   1       5.045   0.820  -2.076  0.00  0.00    -0.062 A 
ATOM     35  H   LIG d   1       6.464   1.697  -3.413  0.00  0.00     0.062 H 
ATOM     36  C   LIG d   1       4.364  -0.327  -1.712  0.00  0.00    -0.061 A 
ATOM     37  H   LIG d   1       4.880   1.739  -1.531  0.00  0.00     0.062 H 
ATOM     38  C   LIG d   1       4.569  -1.503  -2.405  0.00  0.00    -0.054 A 
ATOM     39  H   LIG d   1       3.670  -0.303  -0.885  0.00  0.00     0.062 H 
ATOM     40  H   LIG d   1       4.036  -2.399  -2.121  0.00  0.00     0.062 H 
ENDBRANCH   4  30
TORSDOF 5
ENDMDL
MODEL 9
REMARK VINA RESULT:      -6.4      2.409      8.503
REMARK  5 active torsions:
REMARK  status: ('A' for Active; 'I' for Inactive)
REMARK    1  A    between atoms: C_1  and  C_2 
REMARK    2  A    between atoms: N_6  and  C_8 
REMARK    3  A    between atoms: C_8  and  C_9 
REMARK    4  A    between atoms: C_9  and  C_11 
REMARK    5  A    between atoms: C_14  and  C_17 
ROOT
ATOM      1  C   LIG d   1       3.290  -0.902  -8.375  0.00  0.00     0.024 A 
ATOM      2  C   LIG d   1       4.203  -1.702  -7.678  0.00  0.00    -0.051 A 
ATOM      3  C   LIG d   1       4.417  -1.490  -6.339  0.00  0.00    -0.053 A 
ATOM      4  C   LIG d   1       3.725  -0.477  -5.673  0.00  0.00    -0.018 A 
ATOM      5  C   LIG d   1       2.814   0.321  -6.366  0.00  0.00    -0.053 A 
ATOM      6  C   LIG d   1       2.601   0.116  -7.705  0.00  0.00    -0.051 A 
ATOM      7  H   LIG d   1       4.739  -2.485  -8.192  0.00  0.00     0.062 H 
ATOM      8  H   LIG d   1       5.122  -2.105  -5.801  0.00  0.00     0.062 H 
ATOM      9  H   LIG d   1       2.278   1.103  -5.848  0.00  0.00     0.062 H 
ATOM     10  H   LIG d   1       1.900   0.738  -8.242  0.00  0.00     0.062 H 
ENDROOT
BRANCH   1  11
ATOM     11  C   LIG d   1       3.059  -1.128  -9.808  0.00  0.00     0.228 C 
ATOM     12  O   LIG d   1       3.952  -1.560 -10.506  0.00  0.00    -0.285 OA
BRANCH  11  13
ATOM     13  C   LIG d   1       1.712  -0.823 -10.412  0.00  0.00     0.212 C 
ATOM     14  H   LIG d   1       1.806   0.016 -11.102  0.00  0.00     0.112 H 
ATOM     15  H   LIG d   1       1.009  -0.565  -9.620  0.00  0.00     0.112 H 
BRANCH  13  16
ATOM     16  N   LIG d   1       1.223  -1.999 -11.135  0.00  0.00    -0.196 N 
ATOM     17  C   LIG d   1       0.963  -1.899 -12.424  0.00  0.00     0.172 A 
ATOM     18  C   LIG d   1       0.502  -2.989 -13.139  0.00  0.00     0.002 A 
ATOM     19  H   LIG d   1       1.113  -0.955 -12.926  0.00  0.00     0.138 H 
ATOM     20  C   LIG d   1       0.314  -4.195 -12.484  0.00  0.00    -0.048 A 
ATOM     21  H   LIG d   1       0.291  -2.900 -14.194  0.00  0.00     0.068 H 
ATOM     22  C   LIG d   1       0.598  -4.263 -11.128  0.00  0.00     0.013 A 
ATOM     23  H   LIG d   1      -0.045  -5.064 -13.017  0.00  0.00     0.062 H 
ATOM     24  C   LIG d   1       1.050  -3.130 -10.478  0.00  0.00     0.175 A 
ATOM     25  H   LIG d   1       1.269  -3.172  -9.422  0.00  0.00     0.138 H 
BRANCH  22  26
ATOM     26  C   LIG d   1       0.409  -5.552 -10.372  0.00  0.00    -0.034 C 
ATOM     27  H   LIG d   1      -0.581  -5.565  -9.917  0.00  0.00     0.028 H 
ATOM     28  H   LIG d   1       0.505  -6.393 -11.058  0.00  0.00     0.028 H 
ATOM     29  H   LIG d   1       1.168  -5.631  -9.593  0.00  0.00     0.028 H 
ENDBRANCH  22  26
ENDBRANCH  13  16
ENDBRANCH  11  13
ENDBRANCH   1  11
BRANCH   4  30
ATOM     30  C   LIG d   1       3.958  -0.250  -4.227  0.00  0.00    -0.018 A 
ATOM     31  C   LIG d   1       3.604   0.966  -3.644  0.00  0.00    -0.054 A 
ATOM     32  C   LIG d   1       3.817   1.171  -2.297  0.00  0.00    -0.061 A 
ATOM     33  H   LIG d   1       3.161   1.745  -4.245  0.00  0.00     0.062 H 
ATOM     34  C   LIG d   1       4.392   0.175  -1.526  0.00  0.00    -0.062 A 
ATOM     35  H   LIG d   1       3.540   2.110  -1.842  0.00  0.00     0.062 H 
ATOM     36  C   LIG d   1       4.751  -1.031  -2.100  0.00  0.00    -0.061 A 
ATOM     37  H   LIG d   1       4.561   0.340  -0.472  0.00  0.00     0.062 H 
ATOM     38  C   LIG d   1       4.536  -1.249  -3.445  0.00  0.00    -0.054 A 
ATOM     39  H   LIG d   1       5.199  -1.804  -1.493  0.00  0.00     0.062 H 
ATOM     40  H   LIG d   1       4.816  -2.192  -3.893  0.00  0.00     0.062 H 
ENDBRANCH   4  30
TORSDOF 5
ENDMDL
MODEL 10
REMARK VINA RESULT:      -6.4      2.690      7.589
REMARK  5 active torsions:
REMARK  status: ('A' for Active; 'I' for Inactive)
REMARK    1  A    between atoms: C_1  and  C_2 
REMARK    2  A    between atoms: N_6  and  C_8 
REMARK    3  A    between atoms: C_8  and  C_9 
REMARK    4  A    between atoms: C_9  and  C_11 
REMARK    5  A    between atoms: C_14  and  C_17 
ROOT
ATOM      1  C   LIG d   1       3.206  -1.106  -8.274  0.00  0.00     0.024 A 
ATOM      2  C   LIG d   1       4.178  -1.831  -7.574  0.00  0.00    -0.051 A 
ATOM      3  C   LIG d   1       4.416  -1.557  -6.251  0.00  0.00    -0.053 A 
ATOM      4  C   LIG d   1       3.690  -0.556  -5.603  0.00  0.00    -0.018 A 
ATOM      5  C   LIG d   1       2.720   0.167  -6.299  0.00  0.00    -0.053 A 
ATOM      6  C   LIG d   1       2.483  -0.099  -7.623  0.00  0.00    -0.051 A 
ATOM      7  H   LIG d   1       4.740  -2.605  -8.074  0.00  0.00     0.062 H 
ATOM      8  H   LIG d   1       5.166  -2.114  -5.711  0.00  0.00     0.062 H 
ATOM      9  H   LIG d   1       2.158   0.941  -5.796  0.00  0.00     0.062 H 
ATOM     10  H   LIG d   1       1.736   0.464  -8.163  0.00  0.00     0.062 H 
ENDROOT
BRANCH   1  11
ATOM     11  C   LIG d   1       2.949  -1.399  -9.691  0.00  0.00     0.228 C 
ATOM     12  O   LIG d   1       2.077  -2.184 -10.000  0.00  0.00    -0.285 OA
BRANCH  11  13
ATOM     13  C   LIG d   1       3.768  -0.724 -10.761  0.00  0.00     0.212 C 
ATOM     14  H   LIG d   1       3.106  -0.356 -11.546  0.00  0.00     0.112 H 
ATOM     15  H   LIG d   1       4.472  -1.440 -11.185  0.00  0.00     0.112 H 
BRANCH  13  16
ATOM     16  N   LIG d   1       4.505   0.399 -10.177  0.00  0.00    -0.196 N 
ATOM     17  C   LIG d   1       3.877   1.538  -9.963  0.00  0.00     0.172 A 
ATOM     18  C   LIG d   1       4.541   2.618  -9.412  0.00  0.00     0.002 A 
ATOM     19  H   LIG d   1       2.833   1.628 -10.222  0.00  0.00     0.138 H 
ATOM     20  C   LIG d   1       5.881   2.492  -9.084  0.00  0.00    -0.048 A 
ATOM     21  H   LIG d   1       4.021   3.549  -9.240  0.00  0.00     0.068 H 
ATOM     22  C   LIG d   1       6.508   1.278  -9.323  0.00  0.00     0.013 A 
ATOM     23  H   LIG d   1       6.425   3.319  -8.651  0.00  0.00     0.062 H 
ATOM     24  C   LIG d   1       5.782   0.244  -9.882  0.00  0.00     0.175 A 
ATOM     25  H   LIG d   1       6.263  -0.703 -10.076  0.00  0.00     0.138 H 
BRANCH  22  26
ATOM     26  C   LIG d   1       7.964   1.091  -8.983  0.00  0.00    -0.034 C 
ATOM     27  H   LIG d   1       8.525   1.974  -9.289  0.00  0.00     0.028 H 
ATOM     28  H   LIG d   1       8.071   0.947  -7.908  0.00  0.00     0.028 H 
ATOM     29  H   LIG d   1       8.350   0.216  -9.506  0.00  0.00     0.028 H 
ENDBRANCH  22  26
ENDBRANCH  13  16
ENDBRANCH  11  13
ENDBRANCH   1  11
BRANCH   4  30
ATOM     30  C   LIG d   1       3.949  -0.261  -4.174  0.00  0.00    -0.018 A 
ATOM     31  C   LIG d   1       3.596   0.977  -3.640  0.00  0.00    -0.054 A 
ATOM     32  C   LIG d   1       3.834   1.245  -2.308  0.00  0.00    -0.061 A 
ATOM     33  H   LIG d   1       3.134   1.725  -4.267  0.00  0.00     0.062 H 
ATOM     34  C   LIG d   1       4.431   0.289  -1.504  0.00  0.00    -0.062 A 
ATOM     35  H   LIG d   1       3.557   2.202  -1.891  0.00  0.00     0.062 H 
ATOM     36  C   LIG d   1       4.789  -0.939  -2.030  0.00  0.00    -0.061 A 
ATOM     37  H   LIG d   1       4.619   0.504  -0.462  0.00  0.00     0.062 H 
ATOM     38  C   LIG d   1       4.550  -1.219  -3.359  0.00  0.00    -0.054 A 
ATOM     39  H   LIG d   1       5.255  -1.680  -1.398  0.00  0.00     0.062 H 
ATOM     40  H   LIG d   1       4.829  -2.179  -3.769  0.00  0.00     0.062 H 
ENDBRANCH   4  30
TORSDOF 5
ENDMDL
