MODEL 1
REMARK VINA RESULT:      -5.6      0.000      0.000
REMARK  8 active torsions:
REMARK  status: ('A' for Active; 'I' for Inactive)
REMARK    1  A    between atoms: C_1  and  N_44 
REMARK    2  A    between atoms: C_2  and  N_44 
REMARK    3  A    between atoms: C_6  and  C_7 
REMARK    4  A    between atoms: C_6  and  N_44 
REMARK    5  A    between atoms: C_13  and  C_14 
REMARK    6  A    between atoms: C_13  and  O_22 
REMARK    7  A    between atoms: C_18  and  O_20 
REMARK    8  A    between atoms: O_20  and  C_21 
ROOT
ATOM      1  C   LIG d   1       4.065  -0.746  -4.615  0.00  0.00     0.032 C 
ATOM      2  H   LIG d   1       3.232  -1.446  -4.583  0.00  0.00     0.038 H 
ATOM      3  C   LIG d   1       3.639   0.583  -3.985  0.00  0.00    -0.042 C 
ATOM      4  C   LIG d   1       3.225   0.348  -2.532  0.00  0.00    -0.052 C 
ATOM      5  C   LIG d   1       4.407  -0.230  -1.752  0.00  0.00    -0.050 C 
ATOM      6  C   LIG d   1       4.834  -1.557  -2.380  0.00  0.00    -0.019 C 
ATOM      7  C   LIG d   1       5.248  -1.322  -3.835  0.00  0.00     0.099 C 
ATOM      8  H   LIG d   1       4.472   1.284  -4.017  0.00  0.00     0.027 H 
ATOM      9  H   LIG d   1       2.797   0.994  -4.542  0.00  0.00     0.027 H 
ATOM     10  H   LIG d   1       2.920   1.294  -2.084  0.00  0.00     0.026 H 
ATOM     11  H   LIG d   1       2.391  -0.353  -2.500  0.00  0.00     0.026 H 
ATOM     12  H   LIG d   1       5.240   0.472  -1.783  0.00  0.00     0.027 H 
ATOM     13  H   LIG d   1       4.112  -0.397  -0.716  0.00  0.00     0.027 H 
ATOM     14  H   LIG d   1       4.000  -2.259  -2.348  0.00  0.00     0.030 H 
ATOM     15  H   LIG d   1       5.676  -1.969  -1.824  0.00  0.00     0.030 H 
ENDROOT
BRANCH   7  16
ATOM     16  C   LIG d   1       5.668  -2.630  -4.455  0.00  0.00    -0.012 A 
ATOM     17  C   LIG d   1       4.746  -3.647  -4.613  0.00  0.00    -0.014 A 
ATOM     18  C   LIG d   1       5.133  -4.850  -5.184  0.00  0.00     0.120 A 
ATOM     19  H   LIG d   1       3.725  -3.505  -4.291  0.00  0.00     0.066 H 
ATOM     20  C   LIG d   1       6.446  -5.029  -5.595  0.00  0.00    -0.020 A 
ATOM     21  C   LIG d   1       7.364  -4.009  -5.435  0.00  0.00    -0.058 A 
ATOM     22  H   LIG d   1       6.750  -5.966  -6.040  0.00  0.00     0.065 H 
ATOM     23  C   LIG d   1       6.975  -2.809  -4.870  0.00  0.00    -0.056 A 
ATOM     24  H   LIG d   1       8.386  -4.149  -5.755  0.00  0.00     0.062 H 
ATOM     25  H   LIG d   1       7.693  -2.012  -4.751  0.00  0.00     0.062 H 
BRANCH  18  26
ATOM     26  O   LIG d   1       4.228  -5.852  -5.341  0.00  0.00    -0.495 OA
BRANCH  26  27
ATOM     27  C   LIG d   1       4.731  -7.118  -5.774  0.00  0.00     0.079 C 
ATOM     28  H   LIG d   1       3.996  -7.893  -5.557  0.00  0.00     0.066 H 
ATOM     29  H   LIG d   1       4.918  -7.086  -6.847  0.00  0.00     0.066 H 
ATOM     30  H   LIG d   1       5.659  -7.339  -5.249  0.00  0.00     0.066 H 
ENDBRANCH  26  27
ENDBRANCH  18  26
ENDBRANCH   7  16
BRANCH   7  31
ATOM     31  O   LIG d   1       6.341  -0.403  -3.876  0.00  0.00    -0.384 OA
ATOM     32  H   LIG d   1       7.191  -0.790  -3.625  0.00  0.00     0.211 HD
ENDBRANCH   7  31
BRANCH   1  33
ATOM     33  C   LIG d   1       4.480  -0.511  -6.069  0.00  0.00    -0.026 C 
ATOM     34  H   LIG d   1       4.529   0.560  -6.264  0.00  0.00     0.082 H 
ATOM     35  H   LIG d   1       5.457  -0.959  -6.245  0.00  0.00     0.082 H 
BRANCH  33  36
ATOM     36  N   LIG d   1       3.465  -1.117  -6.957  0.00  0.00     0.231 N 
ATOM     37  H   LIG d   1       2.796  -1.647  -6.387  0.00  0.00     0.203 HD
BRANCH  36  38
ATOM     38  C   LIG d   1       2.739  -0.059  -7.691  0.00  0.00    -0.043 C 
ATOM     39  H   LIG d   1       3.403   0.778  -7.911  0.00  0.00     0.078 H 
ATOM     40  H   LIG d   1       2.356  -0.474  -8.623  0.00  0.00     0.078 H 
ATOM     41  H   LIG d   1       1.908   0.287  -7.078  0.00  0.00     0.078 H 
ENDBRANCH  36  38
BRANCH  36  42
ATOM     42  C   LIG d   1       4.117  -2.039  -7.913  0.00  0.00    -0.043 C 
ATOM     43  H   LIG d   1       4.443  -1.471  -8.784  0.00  0.00     0.078 H 
ATOM     44  H   LIG d   1       4.982  -2.494  -7.431  0.00  0.00     0.078 H 
ATOM     45  H   LIG d   1       3.422  -2.818  -8.225  0.00  0.00     0.078 H 
ENDBRANCH  36  42
ENDBRANCH  33  36
ENDBRANCH   1  33
TORSDOF 8
ENDMDL
MODEL 2
REMARK VINA RESULT:      -5.2      1.688      4.958
REMARK  8 active torsions:
REMARK  status: ('A' for Active; 'I' for Inactive)
REMARK    1  A    between atoms: C_1  and  N_44 
REMARK    2  A    between atoms: C_2  and  N_44 
REMARK    3  A    between atoms: C_6  and  C_7 
REMARK    4  A    between atoms: C_6  and  N_44 
REMARK    5  A    between atoms: C_13  and  C_14 
REMARK    6  A    between atoms: C_13  and  O_22 
REMARK    7  A    between atoms: C_18  and  O_20 
REMARK    8  A    between atoms: O_20  and  C_21 
ROOT
ATOM      1  C   LIG d   1       5.270  -1.880  -6.300  0.00  0.00     0.032 C 
ATOM      2  H   LIG d   1       6.158  -1.254  -6.370  0.00  0.00     0.038 H 
ATOM      3  C   LIG d   1       5.354  -3.004  -7.336  0.00  0.00    -0.042 C 
ATOM      4  C   LIG d   1       6.598  -3.852  -7.066  0.00  0.00    -0.052 C 
ATOM      5  C   LIG d   1       6.509  -4.457  -5.664  0.00  0.00    -0.050 C 
ATOM      6  C   LIG d   1       6.424  -3.336  -4.629  0.00  0.00    -0.019 C 
ATOM      7  C   LIG d   1       5.180  -2.486  -4.898  0.00  0.00     0.099 C 
ATOM      8  H   LIG d   1       4.465  -3.630  -7.266  0.00  0.00     0.027 H 
ATOM      9  H   LIG d   1       5.417  -2.572  -8.335  0.00  0.00     0.027 H 
ATOM     10  H   LIG d   1       6.659  -4.652  -7.805  0.00  0.00     0.026 H 
ATOM     11  H   LIG d   1       7.487  -3.226  -7.136  0.00  0.00     0.026 H 
ATOM     12  H   LIG d   1       5.620  -5.084  -5.595  0.00  0.00     0.027 H 
ATOM     13  H   LIG d   1       7.395  -5.062  -5.473  0.00  0.00     0.027 H 
ATOM     14  H   LIG d   1       7.314  -2.709  -4.698  0.00  0.00     0.030 H 
ATOM     15  H   LIG d   1       6.361  -3.767  -3.629  0.00  0.00     0.030 H 
ENDROOT
BRANCH   7  16
ATOM     16  C   LIG d   1       5.096  -1.380  -3.878  0.00  0.00    -0.012 A 
ATOM     17  C   LIG d   1       5.887  -0.255  -4.013  0.00  0.00    -0.014 A 
ATOM     18  C   LIG d   1       5.809   0.763  -3.074  0.00  0.00     0.120 A 
ATOM     19  H   LIG d   1       6.566  -0.170  -4.848  0.00  0.00     0.066 H 
ATOM     20  C   LIG d   1       4.936   0.648  -2.001  0.00  0.00    -0.020 A 
ATOM     21  C   LIG d   1       4.147  -0.478  -1.871  0.00  0.00    -0.058 A 
ATOM     22  H   LIG d   1       4.874   1.440  -1.268  0.00  0.00     0.065 H 
ATOM     23  C   LIG d   1       4.222  -1.489  -2.811  0.00  0.00    -0.056 A 
ATOM     24  H   LIG d   1       3.468  -0.567  -1.036  0.00  0.00     0.062 H 
ATOM     25  H   LIG d   1       3.601  -2.366  -2.710  0.00  0.00     0.062 H 
BRANCH  18  26
ATOM     26  O   LIG d   1       6.586   1.870  -3.203  0.00  0.00    -0.495 OA
BRANCH  26  27
ATOM     27  C   LIG d   1       7.815   1.721  -3.918  0.00  0.00     0.079 C 
ATOM     28  H   LIG d   1       7.626   1.202  -4.858  0.00  0.00     0.066 H 
ATOM     29  H   LIG d   1       8.236   2.704  -4.125  0.00  0.00     0.066 H 
ATOM     30  H   LIG d   1       8.516   1.142  -3.318  0.00  0.00     0.066 H 
ENDBRANCH  26  27
ENDBRANCH  18  26
ENDBRANCH   7  16
BRANCH   7  31
ATOM     31  O   LIG d   1       4.014  -3.308  -4.807  0.00  0.00    -0.384 OA
ATOM     32  H   LIG d   1       3.401  -3.205  -5.548  0.00  0.00     0.211 HD
ENDBRANCH   7  31
BRANCH   1  33
ATOM     33  C   LIG d   1       4.025  -1.031  -6.569  0.00  0.00    -0.026 C 
ATOM     34  H   LIG d   1       3.135  -1.591  -6.283  0.00  0.00     0.082 H 
ATOM     35  H   LIG d   1       4.080  -0.112  -5.986  0.00  0.00     0.082 H 
BRANCH  33  36
ATOM     36  N   LIG d   1       3.959  -0.726  -8.013  0.00  0.00     0.231 N 
ATOM     37  H   LIG d   1       4.408  -1.487  -8.536  0.00  0.00     0.203 HD
BRANCH  36  38
ATOM     38  C   LIG d   1       2.550  -0.615  -8.443  0.00  0.00    -0.043 C 
ATOM     39  H   LIG d   1       1.994  -1.511  -8.165  0.00  0.00     0.078 H 
ATOM     40  H   LIG d   1       2.101   0.254  -7.964  0.00  0.00     0.078 H 
ATOM     41  H   LIG d   1       2.519  -0.490  -9.525  0.00  0.00     0.078 H 
ENDBRANCH  36  38
BRANCH  36  42
ATOM     42  C   LIG d   1       4.675   0.537  -8.295  0.00  0.00    -0.043 C 
ATOM     43  H   LIG d   1       4.268   1.323  -7.659  0.00  0.00     0.078 H 
ATOM     44  H   LIG d   1       5.733   0.401  -8.074  0.00  0.00     0.078 H 
ATOM     45  H   LIG d   1       4.555   0.818  -9.341  0.00  0.00     0.078 H 
ENDBRANCH  36  42
ENDBRANCH  33  36
ENDBRANCH   1  33
TORSDOF 8
ENDMDL
MODEL 3
REMARK VINA RESULT:      -5.1      1.208      2.002
REMARK  8 active torsions:
REMARK  status: ('A' for Active; 'I' for Inactive)
REMARK    1  A    between atoms: C_1  and  N_44 
REMARK    2  A    between atoms: C_2  and  N_44 
REMARK    3  A    between atoms: C_6  and  C_7 
REMARK    4  A    between atoms: C_6  and  N_44 
REMARK    5  A    between atoms: C_13  and  C_14 
REMARK    6  A    between atoms: C_13  and  O_22 
REMARK    7  A    between atoms: C_18  and  O_20 
REMARK    8  A    between atoms: O_20  and  C_21 
ROOT
ATOM      1  C   LIG d   1       4.062  -0.854  -4.649  0.00  0.00     0.032 C 
ATOM      2  H   LIG d   1       3.225  -1.552  -4.636  0.00  0.00     0.038 H 
ATOM      3  C   LIG d   1       3.629   0.473  -4.022  0.00  0.00    -0.042 C 
ATOM      4  C   LIG d   1       3.188   0.234  -2.577  0.00  0.00    -0.052 C 
ATOM      5  C   LIG d   1       4.353  -0.352  -1.778  0.00  0.00    -0.050 C 
ATOM      6  C   LIG d   1       4.786  -1.678  -2.405  0.00  0.00    -0.019 C 
ATOM      7  C   LIG d   1       5.228  -1.439  -3.851  0.00  0.00     0.099 C 
ATOM      8  H   LIG d   1       4.465   1.172  -4.036  0.00  0.00     0.027 H 
ATOM      9  H   LIG d   1       2.798   0.890  -4.592  0.00  0.00     0.027 H 
ATOM     10  H   LIG d   1       2.878   1.179  -2.131  0.00  0.00     0.026 H 
ATOM     11  H   LIG d   1       2.351  -0.465  -2.564  0.00  0.00     0.026 H 
ATOM     12  H   LIG d   1       5.190   0.347  -1.792  0.00  0.00     0.027 H 
ATOM     13  H   LIG d   1       4.039  -0.522  -0.749  0.00  0.00     0.027 H 
ATOM     14  H   LIG d   1       3.950  -2.376  -2.391  0.00  0.00     0.030 H 
ATOM     15  H   LIG d   1       5.617  -2.095  -1.835  0.00  0.00     0.030 H 
ENDROOT
BRANCH   7  16
ATOM     16  C   LIG d   1       5.654  -2.745  -4.468  0.00  0.00    -0.012 A 
ATOM     17  C   LIG d   1       6.987  -2.968  -4.760  0.00  0.00    -0.014 A 
ATOM     18  C   LIG d   1       7.379  -4.171  -5.328  0.00  0.00     0.120 A 
ATOM     19  H   LIG d   1       7.721  -2.207  -4.546  0.00  0.00     0.066 H 
ATOM     20  C   LIG d   1       6.432  -5.148  -5.602  0.00  0.00    -0.020 A 
ATOM     21  C   LIG d   1       5.101  -4.920  -5.309  0.00  0.00    -0.058 A 
ATOM     22  H   LIG d   1       6.735  -6.086  -6.045  0.00  0.00     0.065 H 
ATOM     23  C   LIG d   1       4.713  -3.722  -4.738  0.00  0.00    -0.056 A 
ATOM     24  H   LIG d   1       4.364  -5.679  -5.523  0.00  0.00     0.062 H 
ATOM     25  H   LIG d   1       3.673  -3.548  -4.505  0.00  0.00     0.062 H 
BRANCH  18  26
ATOM     26  O   LIG d   1       8.688  -4.394  -5.615  0.00  0.00    -0.495 OA
BRANCH  26  27
ATOM     27  C   LIG d   1       9.160  -3.941  -6.886  0.00  0.00     0.079 C 
ATOM     28  H   LIG d   1       8.310  -3.659  -7.508  0.00  0.00     0.066 H 
ATOM     29  H   LIG d   1       9.810  -3.078  -6.746  0.00  0.00     0.066 H 
ATOM     30  H   LIG d   1       9.716  -4.741  -7.373  0.00  0.00     0.066 H 
ENDBRANCH  26  27
ENDBRANCH  18  26
ENDBRANCH   7  16
BRANCH   7  31
ATOM     31  O   LIG d   1       6.325  -0.523  -3.868  0.00  0.00    -0.384 OA
ATOM     32  H   LIG d   1       7.193  -0.949  -3.859  0.00  0.00     0.211 HD
ENDBRANCH   7  31
BRANCH   1  33
ATOM     33  C   LIG d   1       4.503  -0.615  -6.095  0.00  0.00    -0.026 C 
ATOM     34  H   LIG d   1       4.619   0.455  -6.267  0.00  0.00     0.082 H 
ATOM     35  H   LIG d   1       5.453  -1.117  -6.272  0.00  0.00     0.082 H 
BRANCH  33  36
ATOM     36  N   LIG d   1       3.462  -1.139  -7.004  0.00  0.00     0.231 N 
ATOM     37  H   LIG d   1       2.775  -1.668  -6.455  0.00  0.00     0.203 HD
BRANCH  36  38
ATOM     38  C   LIG d   1       2.775  -0.022  -7.685  0.00  0.00    -0.043 C 
ATOM     39  H   LIG d   1       2.792   0.873  -7.062  0.00  0.00     0.078 H 
ATOM     40  H   LIG d   1       3.281   0.183  -8.628  0.00  0.00     0.078 H 
ATOM     41  H   LIG d   1       1.743  -0.309  -7.880  0.00  0.00     0.078 H 
ENDBRANCH  36  38
BRANCH  36  42
ATOM     42  C   LIG d   1       4.073  -2.041  -8.004  0.00  0.00    -0.043 C 
ATOM     43  H   LIG d   1       4.117  -3.049  -7.591  0.00  0.00     0.078 H 
ATOM     44  H   LIG d   1       3.456  -2.043  -8.903  0.00  0.00     0.078 H 
ATOM     45  H   LIG d   1       5.080  -1.706  -8.255  0.00  0.00     0.078 H 
ENDBRANCH  36  42
ENDBRANCH  33  36
ENDBRANCH   1  33
TORSDOF 8
ENDMDL
MODEL 4
REMARK VINA RESULT:      -5.0      2.918      4.503
REMARK  8 active torsions:
REMARK  status: ('A' for Active; 'I' for Inactive)
REMARK    1  A    between atoms: C_1  and  N_44 
REMARK    2  A    between atoms: C_2  and  N_44 
REMARK    3  A    between atoms: C_6  and  C_7 
REMARK    4  A    between atoms: C_6  and  N_44 
REMARK    5  A    between atoms: C_13  and  C_14 
REMARK    6  A    between atoms: C_13  and  O_22 
REMARK    7  A    between atoms: C_18  and  O_20 
REMARK    8  A    between atoms: O_20  and  C_21 
ROOT
ATOM      1  C   LIG d   1       5.063  -0.096  -4.584  0.00  0.00     0.032 C 
ATOM      2  H   LIG d   1       4.967   0.987  -4.650  0.00  0.00     0.038 H 
ATOM      3  C   LIG d   1       5.339  -0.497  -3.133  0.00  0.00    -0.042 C 
ATOM      4  C   LIG d   1       4.181  -0.032  -2.248  0.00  0.00    -0.052 C 
ATOM      5  C   LIG d   1       2.883  -0.689  -2.720  0.00  0.00    -0.050 C 
ATOM      6  C   LIG d   1       2.607  -0.290  -4.170  0.00  0.00    -0.019 C 
ATOM      7  C   LIG d   1       3.765  -0.754  -5.057  0.00  0.00     0.099 C 
ATOM      8  H   LIG d   1       5.435  -1.581  -3.067  0.00  0.00     0.027 H 
ATOM      9  H   LIG d   1       6.264  -0.029  -2.798  0.00  0.00     0.027 H 
ATOM     10  H   LIG d   1       4.378  -0.317  -1.214  0.00  0.00     0.026 H 
ATOM     11  H   LIG d   1       4.085   1.051  -2.314  0.00  0.00     0.026 H 
ATOM     12  H   LIG d   1       2.979  -1.773  -2.654  0.00  0.00     0.027 H 
ATOM     13  H   LIG d   1       2.058  -0.358  -2.089  0.00  0.00     0.027 H 
ATOM     14  H   LIG d   1       2.510   0.794  -4.236  0.00  0.00     0.030 H 
ATOM     15  H   LIG d   1       1.681  -0.758  -4.507  0.00  0.00     0.030 H 
ENDROOT
BRANCH   7  16
ATOM     16  C   LIG d   1       3.493  -0.360  -6.486  0.00  0.00    -0.012 A 
ATOM     17  C   LIG d   1       3.604  -1.299  -7.493  0.00  0.00    -0.014 A 
ATOM     18  C   LIG d   1       3.354  -0.936  -8.808  0.00  0.00     0.120 A 
ATOM     19  H   LIG d   1       3.886  -2.314  -7.257  0.00  0.00     0.066 H 
ATOM     20  C   LIG d   1       2.992   0.370  -9.108  0.00  0.00    -0.020 A 
ATOM     21  C   LIG d   1       2.883   1.304  -8.097  0.00  0.00    -0.058 A 
ATOM     22  H   LIG d   1       2.797   0.655 -10.132  0.00  0.00     0.065 H 
ATOM     23  C   LIG d   1       3.128   0.939  -6.787  0.00  0.00    -0.056 A 
ATOM     24  H   LIG d   1       2.603   2.321  -8.331  0.00  0.00     0.062 H 
ATOM     25  H   LIG d   1       3.037   1.671  -5.997  0.00  0.00     0.062 H 
BRANCH  18  26
ATOM     26  O   LIG d   1       3.462  -1.858  -9.801  0.00  0.00    -0.495 OA
BRANCH  26  27
ATOM     27  C   LIG d   1       2.374  -2.771  -9.960  0.00  0.00     0.079 C 
ATOM     28  H   LIG d   1       2.765  -3.780 -10.090  0.00  0.00     0.066 H 
ATOM     29  H   LIG d   1       1.741  -2.739  -9.074  0.00  0.00     0.066 H 
ATOM     30  H   LIG d   1       1.790  -2.492 -10.836  0.00  0.00     0.066 H 
ENDBRANCH  26  27
ENDBRANCH  18  26
ENDBRANCH   7  16
BRANCH   7  31
ATOM     31  O   LIG d   1       3.891  -2.175  -4.970  0.00  0.00    -0.384 OA
ATOM     32  H   LIG d   1       3.122  -2.659  -5.302  0.00  0.00     0.211 HD
ENDBRANCH   7  31
BRANCH   1  33
ATOM     33  C   LIG d   1       6.221  -0.561  -5.471  0.00  0.00    -0.026 C 
ATOM     34  H   LIG d   1       6.934  -1.125  -4.870  0.00  0.00     0.082 H 
ATOM     35  H   LIG d   1       5.836  -1.194  -6.269  0.00  0.00     0.082 H 
BRANCH  33  36
ATOM     36  N   LIG d   1       6.898   0.628  -6.032  0.00  0.00     0.231 N 
ATOM     37  H   LIG d   1       6.368   1.468  -5.771  0.00  0.00     0.203 HD
BRANCH  36  38
ATOM     38  C   LIG d   1       8.267   0.734  -5.486  0.00  0.00    -0.043 C 
ATOM     39  H   LIG d   1       8.696   1.709  -5.719  0.00  0.00     0.078 H 
ATOM     40  H   LIG d   1       8.228   0.603  -4.405  0.00  0.00     0.078 H 
ATOM     41  H   LIG d   1       8.884  -0.049  -5.926  0.00  0.00     0.078 H 
ENDBRANCH  36  38
BRANCH  36  42
ATOM     42  C   LIG d   1       6.947   0.530  -7.507  0.00  0.00    -0.043 C 
ATOM     43  H   LIG d   1       6.126   1.111  -7.927  0.00  0.00     0.078 H 
ATOM     44  H   LIG d   1       7.896   0.938  -7.856  0.00  0.00     0.078 H 
ATOM     45  H   LIG d   1       6.859  -0.508  -7.824  0.00  0.00     0.078 H 
ENDBRANCH  36  42
ENDBRANCH  33  36
ENDBRANCH   1  33
TORSDOF 8
ENDMDL
MODEL 5
REMARK VINA RESULT:      -5.0      2.749      4.661
REMARK  8 active torsions:
REMARK  status: ('A' for Active; 'I' for Inactive)
REMARK    1  A    between atoms: C_1  and  N_44 
REMARK    2  A    between atoms: C_2  and  N_44 
REMARK    3  A    between atoms: C_6  and  C_7 
REMARK    4  A    between atoms: C_6  and  N_44 
REMARK    5  A    between atoms: C_13  and  C_14 
REMARK    6  A    between atoms: C_13  and  O_22 
REMARK    7  A    between atoms: C_18  and  O_20 
REMARK    8  A    between atoms: O_20  and  C_21 
ROOT
ATOM      1  C   LIG d   1       5.282   0.290  -4.260  0.00  0.00     0.032 C 
ATOM      2  H   LIG d   1       4.965   1.273  -4.606  0.00  0.00     0.038 H 
ATOM      3  C   LIG d   1       5.549   0.340  -2.754  0.00  0.00    -0.042 C 
ATOM      4  C   LIG d   1       4.269   0.749  -2.023  0.00  0.00    -0.052 C 
ATOM      5  C   LIG d   1       3.168  -0.272  -2.312  0.00  0.00    -0.050 C 
ATOM      6  C   LIG d   1       2.901  -0.323  -3.817  0.00  0.00    -0.019 C 
ATOM      7  C   LIG d   1       4.181  -0.732  -4.549  0.00  0.00     0.099 C 
ATOM      8  H   LIG d   1       5.867  -0.644  -2.408  0.00  0.00     0.027 H 
ATOM      9  H   LIG d   1       6.334   1.068  -2.549  0.00  0.00     0.027 H 
ATOM     10  H   LIG d   1       4.460   0.786  -0.950  0.00  0.00     0.026 H 
ATOM     11  H   LIG d   1       3.952   1.733  -2.369  0.00  0.00     0.026 H 
ATOM     12  H   LIG d   1       3.486  -1.256  -1.966  0.00  0.00     0.027 H 
ATOM     13  H   LIG d   1       2.256   0.019  -1.791  0.00  0.00     0.027 H 
ATOM     14  H   LIG d   1       2.583   0.661  -4.163  0.00  0.00     0.030 H 
ATOM     15  H   LIG d   1       2.116  -1.051  -4.023  0.00  0.00     0.030 H 
ENDROOT
BRANCH   7  16
ATOM     16  C   LIG d   1       3.918  -0.782  -6.032  0.00  0.00    -0.012 A 
ATOM     17  C   LIG d   1       3.308   0.287  -6.661  0.00  0.00    -0.014 A 
ATOM     18  C   LIG d   1       3.067   0.241  -8.026  0.00  0.00     0.120 A 
ATOM     19  H   LIG d   1       3.019   1.156  -6.090  0.00  0.00     0.066 H 
ATOM     20  C   LIG d   1       3.439  -0.879  -8.756  0.00  0.00    -0.020 A 
ATOM     21  C   LIG d   1       4.049  -1.944  -8.123  0.00  0.00    -0.058 A 
ATOM     22  H   LIG d   1       3.252  -0.917  -9.820  0.00  0.00     0.065 H 
ATOM     23  C   LIG d   1       4.293  -1.894  -6.763  0.00  0.00    -0.056 A 
ATOM     24  H   LIG d   1       4.338  -2.816  -8.692  0.00  0.00     0.062 H 
ATOM     25  H   LIG d   1       4.774  -2.726  -6.271  0.00  0.00     0.062 H 
BRANCH  18  26
ATOM     26  O   LIG d   1       2.467   1.290  -8.647  0.00  0.00    -0.495 OA
BRANCH  26  27
ATOM     27  C   LIG d   1       3.309   2.165  -9.401  0.00  0.00     0.079 C 
ATOM     28  H   LIG d   1       3.981   2.693  -8.725  0.00  0.00     0.066 H 
ATOM     29  H   LIG d   1       3.894   1.582 -10.112  0.00  0.00     0.066 H 
ATOM     30  H   LIG d   1       2.694   2.886  -9.940  0.00  0.00     0.066 H 
ENDBRANCH  26  27
ENDBRANCH  18  26
ENDBRANCH   7  16
BRANCH   7  31
ATOM     31  O   LIG d   1       4.597  -2.022  -4.095  0.00  0.00    -0.384 OA
ATOM     32  H   LIG d   1       4.071  -2.369  -3.362  0.00  0.00     0.211 HD
ENDBRANCH   7  31
BRANCH   1  33
ATOM     33  C   LIG d   1       6.562  -0.120  -4.992  0.00  0.00    -0.026 C 
ATOM     34  H   LIG d   1       7.330  -0.379  -4.263  0.00  0.00     0.082 H 
ATOM     35  H   LIG d   1       6.357  -0.981  -5.627  0.00  0.00     0.082 H 
BRANCH  33  36
ATOM     36  N   LIG d   1       7.033   1.022  -5.804  0.00  0.00     0.231 N 
ATOM     37  H   LIG d   1       6.334   1.773  -5.760  0.00  0.00     0.203 HD
BRANCH  36  38
ATOM     38  C   LIG d   1       8.315   1.527  -5.270  0.00  0.00    -0.043 C 
ATOM     39  H   LIG d   1       8.771   2.229  -5.969  0.00  0.00     0.078 H 
ATOM     40  H   LIG d   1       8.130   2.029  -4.320  0.00  0.00     0.078 H 
ATOM     41  H   LIG d   1       8.987   0.685  -5.111  0.00  0.00     0.078 H 
ENDBRANCH  36  38
BRANCH  36  42
ATOM     42  C   LIG d   1       7.201   0.605  -7.213  0.00  0.00    -0.043 C 
ATOM     43  H   LIG d   1       7.546  -0.429  -7.236  0.00  0.00     0.078 H 
ATOM     44  H   LIG d   1       6.240   0.679  -7.721  0.00  0.00     0.078 H 
ATOM     45  H   LIG d   1       7.928   1.242  -7.715  0.00  0.00     0.078 H 
ENDBRANCH  36  42
ENDBRANCH  33  36
ENDBRANCH   1  33
TORSDOF 8
ENDMDL
MODEL 6
REMARK VINA RESULT:      -5.0      2.041      4.840
REMARK  8 active torsions:
REMARK  status: ('A' for Active; 'I' for Inactive)
REMARK    1  A    between atoms: C_1  and  N_44 
REMARK    2  A    between atoms: C_2  and  N_44 
REMARK    3  A    between atoms: C_6  and  C_7 
REMARK    4  A    between atoms: C_6  and  N_44 
REMARK    5  A    between atoms: C_13  and  C_14 
REMARK    6  A    between atoms: C_13  and  O_22 
REMARK    7  A    between atoms: C_18  and  O_20 
REMARK    8  A    between atoms: O_20  and  C_21 
ROOT
ATOM      1  C   LIG d   1       3.524  -1.231  -7.740  0.00  0.00     0.032 C 
ATOM      2  H   LIG d   1       2.540  -1.606  -7.461  0.00  0.00     0.038 H 
ATOM      3  C   LIG d   1       3.536  -0.891  -9.232  0.00  0.00    -0.042 C 
ATOM      4  C   LIG d   1       2.483   0.181  -9.519  0.00  0.00    -0.052 C 
ATOM      5  C   LIG d   1       2.799   1.437  -8.706  0.00  0.00    -0.050 C 
ATOM      6  C   LIG d   1       2.787   1.098  -7.215  0.00  0.00    -0.019 C 
ATOM      7  C   LIG d   1       3.841   0.026  -6.928  0.00  0.00     0.099 C 
ATOM      8  H   LIG d   1       4.521  -0.516  -9.511  0.00  0.00     0.027 H 
ATOM      9  H   LIG d   1       3.311  -1.787  -9.810  0.00  0.00     0.027 H 
ATOM     10  H   LIG d   1       2.491   0.422 -10.582  0.00  0.00     0.026 H 
ATOM     11  H   LIG d   1       1.498  -0.194  -9.240  0.00  0.00     0.026 H 
ATOM     12  H   LIG d   1       3.784   1.812  -8.986  0.00  0.00     0.027 H 
ATOM     13  H   LIG d   1       2.049   2.201  -8.911  0.00  0.00     0.027 H 
ATOM     14  H   LIG d   1       1.802   0.724  -6.936  0.00  0.00     0.030 H 
ATOM     15  H   LIG d   1       3.013   1.994  -6.636  0.00  0.00     0.030 H 
ENDROOT
BRANCH   7  16
ATOM     16  C   LIG d   1       3.829  -0.310  -5.459  0.00  0.00    -0.012 A 
ATOM     17  C   LIG d   1       5.005  -0.654  -4.820  0.00  0.00    -0.014 A 
ATOM     18  C   LIG d   1       4.994  -0.962  -3.468  0.00  0.00     0.120 A 
ATOM     19  H   LIG d   1       5.932  -0.683  -5.373  0.00  0.00     0.066 H 
ATOM     20  C   LIG d   1       3.801  -0.923  -2.760  0.00  0.00    -0.020 A 
ATOM     21  C   LIG d   1       2.628  -0.578  -3.403  0.00  0.00    -0.058 A 
ATOM     22  H   LIG d   1       3.790  -1.163  -1.706  0.00  0.00     0.065 H 
ATOM     23  C   LIG d   1       2.643  -0.267  -4.750  0.00  0.00    -0.056 A 
ATOM     24  H   LIG d   1       1.700  -0.549  -2.852  0.00  0.00     0.062 H 
ATOM     25  H   LIG d   1       1.725   0.008  -5.249  0.00  0.00     0.062 H 
BRANCH  18  26
ATOM     26  O   LIG d   1       6.149  -1.300  -2.836  0.00  0.00    -0.495 OA
BRANCH  26  27
ATOM     27  C   LIG d   1       7.111  -2.035  -3.595  0.00  0.00     0.079 C 
ATOM     28  H   LIG d   1       6.596  -2.703  -4.285  0.00  0.00     0.066 H 
ATOM     29  H   LIG d   1       7.735  -1.342  -4.159  0.00  0.00     0.066 H 
ATOM     30  H   LIG d   1       7.735  -2.621  -2.921  0.00  0.00     0.066 H 
ENDBRANCH  26  27
ENDBRANCH  18  26
ENDBRANCH   7  16
BRANCH   7  31
ATOM     31  O   LIG d   1       5.132   0.517  -7.294  0.00  0.00    -0.384 OA
ATOM     32  H   LIG d   1       5.478   1.196  -6.699  0.00  0.00     0.211 HD
ENDBRANCH   7  31
BRANCH   1  33
ATOM     33  C   LIG d   1       4.577  -2.303  -7.452  0.00  0.00    -0.026 C 
ATOM     34  H   LIG d   1       5.127  -2.526  -8.367  0.00  0.00     0.082 H 
ATOM     35  H   LIG d   1       5.267  -1.939  -6.692  0.00  0.00     0.082 H 
BRANCH  33  36
ATOM     36  N   LIG d   1       3.895  -3.530  -6.988  0.00  0.00     0.231 N 
ATOM     37  H   LIG d   1       2.965  -3.280  -6.633  0.00  0.00     0.203 HD
BRANCH  36  38
ATOM     38  C   LIG d   1       3.741  -4.478  -8.112  0.00  0.00    -0.043 C 
ATOM     39  H   LIG d   1       2.694  -4.755  -8.237  0.00  0.00     0.078 H 
ATOM     40  H   LIG d   1       4.104  -4.007  -9.025  0.00  0.00     0.078 H 
ATOM     41  H   LIG d   1       4.331  -5.370  -7.903  0.00  0.00     0.078 H 
ENDBRANCH  36  38
BRANCH  36  42
ATOM     42  C   LIG d   1       4.672  -4.158  -5.899  0.00  0.00    -0.043 C 
ATOM     43  H   LIG d   1       5.483  -3.489  -5.612  0.00  0.00     0.078 H 
ATOM     44  H   LIG d   1       4.015  -4.321  -5.045  0.00  0.00     0.078 H 
ATOM     45  H   LIG d   1       5.087  -5.111  -6.227  0.00  0.00     0.078 H 
ENDBRANCH  36  42
ENDBRANCH  33  36
ENDBRANCH   1  33
TORSDOF 8
ENDMDL
MODEL 7
REMARK VINA RESULT:      -4.8      1.922      2.959
REMARK  8 active torsions:
REMARK  status: ('A' for Active; 'I' for Inactive)
REMARK    1  A    between atoms: C_1  and  N_44 
REMARK    2  A    between atoms: C_2  and  N_44 
REMARK    3  A    between atoms: C_6  and  C_7 
REMARK    4  A    between atoms: C_6  and  N_44 
REMARK    5  A    between atoms: C_13  and  C_14 
REMARK    6  A    between atoms: C_13  and  O_22 
REMARK    7  A    between atoms: C_18  and  O_20 
REMARK    8  A    between atoms: O_20  and  C_21 
ROOT
ATOM      1  C   LIG d   1       5.578  -0.305  -3.491  0.00  0.00     0.032 C 
ATOM      2  H   LIG d   1       5.671   0.278  -4.406  0.00  0.00     0.038 H 
ATOM      3  C   LIG d   1       5.322   0.635  -2.311  0.00  0.00    -0.042 C 
ATOM      4  C   LIG d   1       4.028   1.415  -2.552  0.00  0.00    -0.052 C 
ATOM      5  C   LIG d   1       2.861   0.436  -2.687  0.00  0.00    -0.050 C 
ATOM      6  C   LIG d   1       3.116  -0.503  -3.866  0.00  0.00    -0.019 C 
ATOM      7  C   LIG d   1       4.410  -1.284  -3.625  0.00  0.00     0.099 C 
ATOM      8  H   LIG d   1       5.230   0.052  -1.395  0.00  0.00     0.027 H 
ATOM      9  H   LIG d   1       6.155   1.332  -2.215  0.00  0.00     0.027 H 
ATOM     10  H   LIG d   1       3.847   2.085  -1.712  0.00  0.00     0.026 H 
ATOM     11  H   LIG d   1       4.122   1.999  -3.468  0.00  0.00     0.026 H 
ATOM     12  H   LIG d   1       2.768  -0.147  -1.771  0.00  0.00     0.027 H 
ATOM     13  H   LIG d   1       1.939   0.992  -2.859  0.00  0.00     0.027 H 
ATOM     14  H   LIG d   1       3.209   0.080  -4.782  0.00  0.00     0.030 H 
ATOM     15  H   LIG d   1       2.284  -1.201  -3.962  0.00  0.00     0.030 H 
ENDROOT
BRANCH   7  16
ATOM     16  C   LIG d   1       4.663  -2.210  -4.787  0.00  0.00    -0.012 A 
ATOM     17  C   LIG d   1       4.882  -3.556  -4.562  0.00  0.00    -0.014 A 
ATOM     18  C   LIG d   1       5.113  -4.408  -5.632  0.00  0.00     0.120 A 
ATOM     19  H   LIG d   1       4.873  -3.943  -3.554  0.00  0.00     0.066 H 
ATOM     20  C   LIG d   1       5.124  -3.906  -6.925  0.00  0.00    -0.020 A 
ATOM     21  C   LIG d   1       4.905  -2.560  -7.145  0.00  0.00    -0.058 A 
ATOM     22  H   LIG d   1       5.305  -4.567  -7.760  0.00  0.00     0.065 H 
ATOM     23  C   LIG d   1       4.669  -1.713  -6.078  0.00  0.00    -0.056 A 
ATOM     24  H   LIG d   1       4.914  -2.169  -8.152  0.00  0.00     0.062 H 
ATOM     25  H   LIG d   1       4.493  -0.662  -6.252  0.00  0.00     0.062 H 
BRANCH  18  26
ATOM     26  O   LIG d   1       5.329  -5.732  -5.414  0.00  0.00    -0.495 OA
BRANCH  26  27
ATOM     27  C   LIG d   1       4.668  -6.649  -6.288  0.00  0.00     0.079 C 
ATOM     28  H   LIG d   1       3.960  -7.249  -5.716  0.00  0.00     0.066 H 
ATOM     29  H   LIG d   1       4.134  -6.095  -7.060  0.00  0.00     0.066 H 
ATOM     30  H   LIG d   1       5.405  -7.303  -6.753  0.00  0.00     0.066 H 
ENDBRANCH  26  27
ENDBRANCH  18  26
ENDBRANCH   7  16
BRANCH   7  31
ATOM     31  O   LIG d   1       4.289  -2.049  -2.424  0.00  0.00    -0.384 OA
ATOM     32  H   LIG d   1       3.435  -1.951  -1.980  0.00  0.00     0.211 HD
ENDBRANCH   7  31
BRANCH   1  33
ATOM     33  C   LIG d   1       6.872  -1.085  -3.250  0.00  0.00    -0.026 C 
ATOM     34  H   LIG d   1       7.213  -0.917  -2.228  0.00  0.00     0.082 H 
ATOM     35  H   LIG d   1       6.689  -2.148  -3.402  0.00  0.00     0.082 H 
BRANCH  33  36
ATOM     36  N   LIG d   1       7.905  -0.598  -4.189  0.00  0.00     0.231 N 
ATOM     37  H   LIG d   1       8.708  -0.252  -3.651  0.00  0.00     0.203 HD
BRANCH  36  38
ATOM     38  C   LIG d   1       8.353  -1.702  -5.064  0.00  0.00    -0.043 C 
ATOM     39  H   LIG d   1       8.671  -1.316  -6.033  0.00  0.00     0.078 H 
ATOM     40  H   LIG d   1       9.187  -2.216  -4.587  0.00  0.00     0.078 H 
ATOM     41  H   LIG d   1       7.527  -2.399  -5.204  0.00  0.00     0.078 H 
ENDBRANCH  36  38
BRANCH  36  42
ATOM     42  C   LIG d   1       7.361   0.507  -5.007  0.00  0.00    -0.043 C 
ATOM     43  H   LIG d   1       6.295   0.605  -4.805  0.00  0.00     0.078 H 
ATOM     44  H   LIG d   1       7.870   1.432  -4.734  0.00  0.00     0.078 H 
ATOM     45  H   LIG d   1       7.514   0.308  -6.067  0.00  0.00     0.078 H 
ENDBRANCH  36  42
ENDBRANCH  33  36
ENDBRANCH   1  33
TORSDOF 8
ENDMDL
MODEL 8
REMARK VINA RESULT:      -4.8      1.949      2.475
REMARK  8 active torsions:
REMARK  status: ('A' for Active; 'I' for Inactive)
REMARK    1  A    between atoms: C_1  and  N_44 
REMARK    2  A    between atoms: C_2  and  N_44 
REMARK    3  A    between atoms: C_6  and  C_7 
REMARK    4  A    between atoms: C_6  and  N_44 
REMARK    5  A    between atoms: C_13  and  C_14 
REMARK    6  A    between atoms: C_13  and  O_22 
REMARK    7  A    between atoms: C_18  and  O_20 
REMARK    8  A    between atoms: O_20  and  C_21 
ROOT
ATOM      1  C   LIG d   1       5.687  -0.233  -4.229  0.00  0.00     0.032 C 
ATOM      2  H   LIG d   1       4.771  -0.276  -4.817  0.00  0.00     0.038 H 
ATOM      3  C   LIG d   1       5.638   0.979  -3.296  0.00  0.00    -0.042 C 
ATOM      4  C   LIG d   1       4.436   0.851  -2.358  0.00  0.00    -0.052 C 
ATOM      5  C   LIG d   1       4.572  -0.427  -1.528  0.00  0.00    -0.050 C 
ATOM      6  C   LIG d   1       4.622  -1.638  -2.460  0.00  0.00    -0.019 C 
ATOM      7  C   LIG d   1       5.824  -1.510  -3.399  0.00  0.00     0.099 C 
ATOM      8  H   LIG d   1       6.555   1.024  -2.709  0.00  0.00     0.027 H 
ATOM      9  H   LIG d   1       5.542   1.889  -3.888  0.00  0.00     0.027 H 
ATOM     10  H   LIG d   1       4.400   1.715  -1.694  0.00  0.00     0.026 H 
ATOM     11  H   LIG d   1       3.519   0.807  -2.946  0.00  0.00     0.026 H 
ATOM     12  H   LIG d   1       5.489  -0.382  -0.940  0.00  0.00     0.027 H 
ATOM     13  H   LIG d   1       3.716  -0.518  -0.859  0.00  0.00     0.027 H 
ATOM     14  H   LIG d   1       3.705  -1.683  -3.047  0.00  0.00     0.030 H 
ATOM     15  H   LIG d   1       4.718  -2.549  -1.868  0.00  0.00     0.030 H 
ENDROOT
BRANCH   7  16
ATOM     16  C   LIG d   1       5.873  -2.703  -4.318  0.00  0.00    -0.012 A 
ATOM     17  C   LIG d   1       7.053  -3.406  -4.474  0.00  0.00    -0.014 A 
ATOM     18  C   LIG d   1       7.097  -4.504  -5.320  0.00  0.00     0.120 A 
ATOM     19  H   LIG d   1       7.939  -3.099  -3.939  0.00  0.00     0.066 H 
ATOM     20  C   LIG d   1       5.957  -4.895  -6.006  0.00  0.00    -0.020 A 
ATOM     21  C   LIG d   1       4.780  -4.190  -5.846  0.00  0.00    -0.058 A 
ATOM     22  H   LIG d   1       5.989  -5.751  -6.666  0.00  0.00     0.065 H 
ATOM     23  C   LIG d   1       4.736  -3.099  -4.999  0.00  0.00    -0.056 A 
ATOM     24  H   LIG d   1       3.892  -4.494  -6.381  0.00  0.00     0.062 H 
ATOM     25  H   LIG d   1       3.814  -2.552  -4.871  0.00  0.00     0.062 H 
BRANCH  18  26
ATOM     26  O   LIG d   1       8.256  -5.197  -5.476  0.00  0.00    -0.495 OA
BRANCH  26  27
ATOM     27  C   LIG d   1       8.289  -6.531  -4.964  0.00  0.00     0.079 C 
ATOM     28  H   LIG d   1       7.341  -7.025  -5.179  0.00  0.00     0.066 H 
ATOM     29  H   LIG d   1       9.101  -7.081  -5.437  0.00  0.00     0.066 H 
ATOM     30  H   LIG d   1       8.447  -6.502  -3.886  0.00  0.00     0.066 H 
ENDBRANCH  26  27
ENDBRANCH  18  26
ENDBRANCH   7  16
BRANCH   7  31
ATOM     31  O   LIG d   1       7.026  -1.452  -2.628  0.00  0.00    -0.384 OA
ATOM     32  H   LIG d   1       6.882  -1.484  -1.672  0.00  0.00     0.211 HD
ENDBRANCH   7  31
BRANCH   1  33
ATOM     33  C   LIG d   1       6.889  -0.105  -5.168  0.00  0.00    -0.026 C 
ATOM     34  H   LIG d   1       7.673   0.473  -4.678  0.00  0.00     0.082 H 
ATOM     35  H   LIG d   1       7.266  -1.097  -5.412  0.00  0.00     0.082 H 
BRANCH  33  36
ATOM     36  N   LIG d   1       6.463   0.603  -6.394  0.00  0.00     0.231 N 
ATOM     37  H   LIG d   1       5.841   1.378  -6.133  0.00  0.00     0.203 HD
BRANCH  36  38
ATOM     38  C   LIG d   1       7.642   1.152  -7.096  0.00  0.00    -0.043 C 
ATOM     39  H   LIG d   1       7.694   2.234  -6.969  0.00  0.00     0.078 H 
ATOM     40  H   LIG d   1       8.543   0.694  -6.687  0.00  0.00     0.078 H 
ATOM     41  H   LIG d   1       7.563   0.914  -8.157  0.00  0.00     0.078 H 
ENDBRANCH  36  38
BRANCH  36  42
ATOM     42  C   LIG d   1       5.730  -0.323  -7.283  0.00  0.00    -0.043 C 
ATOM     43  H   LIG d   1       4.759  -0.543  -6.841  0.00  0.00     0.078 H 
ATOM     44  H   LIG d   1       5.588   0.156  -8.252  0.00  0.00     0.078 H 
ATOM     45  H   LIG d   1       6.289  -1.249  -7.413  0.00  0.00     0.078 H 
ENDBRANCH  36  42
ENDBRANCH  33  36
ENDBRANCH   1  33
TORSDOF 8
ENDMDL
MODEL 9
REMARK VINA RESULT:      -4.7      2.504      4.056
REMARK  8 active torsions:
REMARK  status: ('A' for Active; 'I' for Inactive)
REMARK    1  A    between atoms: C_1  and  N_44 
REMARK    2  A    between atoms: C_2  and  N_44 
REMARK    3  A    between atoms: C_6  and  C_7 
REMARK    4  A    between atoms: C_6  and  N_44 
REMARK    5  A    between atoms: C_13  and  C_14 
REMARK    6  A    between atoms: C_13  and  O_22 
REMARK    7  A    between atoms: C_18  and  O_20 
REMARK    8  A    between atoms: O_20  and  C_21 
ROOT
ATOM      1  C   LIG d   1       5.573  -1.319  -3.721  0.00  0.00     0.032 C 
ATOM      2  H   LIG d   1       6.153  -0.416  -3.902  0.00  0.00     0.038 H 
ATOM      3  C   LIG d   1       5.141  -1.361  -2.253  0.00  0.00    -0.042 C 
ATOM      4  C   LIG d   1       4.285  -0.133  -1.938  0.00  0.00    -0.052 C 
ATOM      5  C   LIG d   1       3.045  -0.132  -2.834  0.00  0.00    -0.050 C 
ATOM      6  C   LIG d   1       3.476  -0.090  -4.301  0.00  0.00    -0.019 C 
ATOM      7  C   LIG d   1       4.333  -1.319  -4.616  0.00  0.00     0.099 C 
ATOM      8  H   LIG d   1       4.560  -2.266  -2.070  0.00  0.00     0.027 H 
ATOM      9  H   LIG d   1       6.025  -1.362  -1.615  0.00  0.00     0.027 H 
ATOM     10  H   LIG d   1       3.978  -0.163  -0.892  0.00  0.00     0.026 H 
ATOM     11  H   LIG d   1       4.866   0.771  -2.120  0.00  0.00     0.026 H 
ATOM     12  H   LIG d   1       2.465  -1.037  -2.652  0.00  0.00     0.027 H 
ATOM     13  H   LIG d   1       2.435   0.742  -2.610  0.00  0.00     0.027 H 
ATOM     14  H   LIG d   1       4.056   0.814  -4.484  0.00  0.00     0.030 H 
ATOM     15  H   LIG d   1       2.593  -0.090  -4.940  0.00  0.00     0.030 H 
ENDROOT
BRANCH   7  16
ATOM     16  C   LIG d   1       4.758  -1.278  -6.062  0.00  0.00    -0.012 A 
ATOM     17  C   LIG d   1       4.444  -2.328  -6.903  0.00  0.00    -0.014 A 
ATOM     18  C   LIG d   1       4.835  -2.290  -8.233  0.00  0.00     0.120 A 
ATOM     19  H   LIG d   1       3.896  -3.178  -6.525  0.00  0.00     0.066 H 
ATOM     20  C   LIG d   1       5.540  -1.196  -8.716  0.00  0.00    -0.020 A 
ATOM     21  C   LIG d   1       5.850  -0.148  -7.870  0.00  0.00    -0.058 A 
ATOM     22  H   LIG d   1       5.846  -1.164  -9.751  0.00  0.00     0.065 H 
ATOM     23  C   LIG d   1       5.455  -0.187  -6.546  0.00  0.00    -0.056 A 
ATOM     24  H   LIG d   1       6.400   0.702  -8.245  0.00  0.00     0.062 H 
ATOM     25  H   LIG d   1       5.695   0.635  -5.888  0.00  0.00     0.062 H 
BRANCH  18  26
ATOM     26  O   LIG d   1       4.528  -3.321  -9.064  0.00  0.00    -0.495 OA
BRANCH  26  27
ATOM     27  C   LIG d   1       3.213  -3.335  -9.622  0.00  0.00     0.079 C 
ATOM     28  H   LIG d   1       3.210  -2.774 -10.557  0.00  0.00     0.066 H 
ATOM     29  H   LIG d   1       2.911  -4.364  -9.815  0.00  0.00     0.066 H 
ATOM     30  H   LIG d   1       2.516  -2.876  -8.922  0.00  0.00     0.066 H 
ENDBRANCH  26  27
ENDBRANCH  18  26
ENDBRANCH   7  16
BRANCH   7  31
ATOM     31  O   LIG d   1       3.571  -2.504  -4.377  0.00  0.00    -0.384 OA
ATOM     32  H   LIG d   1       2.959  -2.435  -3.632  0.00  0.00     0.211 HD
ENDBRANCH   7  31
BRANCH   1  33
ATOM     33  C   LIG d   1       6.429  -2.547  -4.036  0.00  0.00    -0.026 C 
ATOM     34  H   LIG d   1       6.125  -3.376  -3.397  0.00  0.00     0.082 H 
ATOM     35  H   LIG d   1       6.295  -2.825  -5.081  0.00  0.00     0.082 H 
BRANCH  33  36
ATOM     36  N   LIG d   1       7.845  -2.224  -3.764  0.00  0.00     0.231 N 
ATOM     37  H   LIG d   1       7.904  -1.697  -2.884  0.00  0.00     0.203 HD
BRANCH  36  38
ATOM     38  C   LIG d   1       8.632  -3.468  -3.632  0.00  0.00    -0.043 C 
ATOM     39  H   LIG d   1       7.991  -4.295  -3.326  0.00  0.00     0.078 H 
ATOM     40  H   LIG d   1       9.091  -3.700  -4.593  0.00  0.00     0.078 H 
ATOM     41  H   LIG d   1       9.410  -3.316  -2.884  0.00  0.00     0.078 H 
ENDBRANCH  36  38
BRANCH  36  42
ATOM     42  C   LIG d   1       8.393  -1.393  -4.858  0.00  0.00    -0.043 C 
ATOM     43  H   LIG d   1       9.020  -2.017  -5.495  0.00  0.00     0.078 H 
ATOM     44  H   LIG d   1       7.566  -0.991  -5.444  0.00  0.00     0.078 H 
ATOM     45  H   LIG d   1       8.985  -0.573  -4.454  0.00  0.00     0.078 H 
ENDBRANCH  36  42
ENDBRANCH  33  36
ENDBRANCH   1  33
TORSDOF 8
ENDMDL
MODEL 10
REMARK VINA RESULT:      -4.6      2.464      4.225
REMARK  8 active torsions:
REMARK  status: ('A' for Active; 'I' for Inactive)
REMARK    1  A    between atoms: C_1  and  N_44 
REMARK    2  A    between atoms: C_2  and  N_44 
REMARK    3  A    between atoms: C_6  and  C_7 
REMARK    4  A    between atoms: C_6  and  N_44 
REMARK    5  A    between atoms: C_13  and  C_14 
REMARK    6  A    between atoms: C_13  and  O_22 
REMARK    7  A    between atoms: C_18  and  O_20 
REMARK    8  A    between atoms: O_20  and  C_21 
ROOT
ATOM      1  C   LIG d   1       5.067  -2.010  -4.085  0.00  0.00     0.032 C 
ATOM      2  H   LIG d   1       5.907  -2.559  -3.662  0.00  0.00     0.038 H 
ATOM      3  C   LIG d   1       3.891  -2.043  -3.106  0.00  0.00    -0.042 C 
ATOM      4  C   LIG d   1       4.310  -1.395  -1.786  0.00  0.00    -0.052 C 
ATOM      5  C   LIG d   1       4.722   0.056  -2.038  0.00  0.00    -0.050 C 
ATOM      6  C   LIG d   1       5.897   0.090  -3.017  0.00  0.00    -0.019 C 
ATOM      7  C   LIG d   1       5.479  -0.559  -4.338  0.00  0.00     0.099 C 
ATOM      8  H   LIG d   1       3.049  -1.495  -3.530  0.00  0.00     0.027 H 
ATOM      9  H   LIG d   1       3.597  -3.078  -2.927  0.00  0.00     0.027 H 
ATOM     10  H   LIG d   1       3.472  -1.420  -1.088  0.00  0.00     0.026 H 
ATOM     11  H   LIG d   1       5.151  -1.944  -1.362  0.00  0.00     0.026 H 
ATOM     12  H   LIG d   1       3.881   0.604  -2.461  0.00  0.00     0.027 H 
ATOM     13  H   LIG d   1       5.020   0.518  -1.097  0.00  0.00     0.027 H 
ATOM     14  H   LIG d   1       6.739  -0.458  -2.593  0.00  0.00     0.030 H 
ATOM     15  H   LIG d   1       6.191   1.124  -3.197  0.00  0.00     0.030 H 
ENDROOT
BRANCH   7  16
ATOM     16  C   LIG d   1       6.636  -0.526  -5.303  0.00  0.00    -0.012 A 
ATOM     17  C   LIG d   1       6.505   0.121  -6.517  0.00  0.00    -0.014 A 
ATOM     18  C   LIG d   1       7.570   0.151  -7.404  0.00  0.00     0.120 A 
ATOM     19  H   LIG d   1       5.573   0.602  -6.774  0.00  0.00     0.066 H 
ATOM     20  C   LIG d   1       8.766  -0.469  -7.069  0.00  0.00    -0.020 A 
ATOM     21  C   LIG d   1       8.892  -1.114  -5.854  0.00  0.00    -0.058 A 
ATOM     22  H   LIG d   1       9.598  -0.447  -7.759  0.00  0.00     0.065 H 
ATOM     23  C   LIG d   1       7.830  -1.138  -4.970  0.00  0.00    -0.056 A 
ATOM     24  H   LIG d   1       9.822  -1.597  -5.595  0.00  0.00     0.062 H 
ATOM     25  H   LIG d   1       7.933  -1.639  -4.018  0.00  0.00     0.062 H 
BRANCH  18  26
ATOM     26  O   LIG d   1       7.444   0.787  -8.598  0.00  0.00    -0.495 OA
BRANCH  26  27
ATOM     27  C   LIG d   1       6.123   1.148  -9.005  0.00  0.00     0.079 C 
ATOM     28  H   LIG d   1       5.482   0.267  -8.979  0.00  0.00     0.066 H 
ATOM     29  H   LIG d   1       5.729   1.905  -8.327  0.00  0.00     0.066 H 
ATOM     30  H   LIG d   1       6.151   1.547 -10.019  0.00  0.00     0.066 H 
ENDBRANCH  26  27
ENDBRANCH  18  26
ENDBRANCH   7  16
BRANCH   7  31
ATOM     31  O   LIG d   1       4.375   0.161  -4.893  0.00  0.00    -0.384 OA
ATOM     32  H   LIG d   1       4.570   1.087  -5.092  0.00  0.00     0.211 HD
ENDBRANCH   7  31
BRANCH   1  33
ATOM     33  C   LIG d   1       4.648  -2.659  -5.407  0.00  0.00    -0.026 C 
ATOM     34  H   LIG d   1       3.607  -2.415  -5.618  0.00  0.00     0.082 H 
ATOM     35  H   LIG d   1       5.280  -2.284  -6.211  0.00  0.00     0.082 H 
BRANCH  33  36
ATOM     36  N   LIG d   1       4.784  -4.125  -5.282  0.00  0.00     0.231 N 
ATOM     37  H   LIG d   1       4.375  -4.423  -4.389  0.00  0.00     0.203 HD
BRANCH  36  38
ATOM     38  C   LIG d   1       4.066  -4.795  -6.387  0.00  0.00    -0.043 C 
ATOM     39  H   LIG d   1       3.301  -4.137  -6.800  0.00  0.00     0.078 H 
ATOM     40  H   LIG d   1       4.780  -5.057  -7.167  0.00  0.00     0.078 H 
ATOM     41  H   LIG d   1       3.597  -5.701  -6.004  0.00  0.00     0.078 H 
ENDBRANCH  36  38
BRANCH  36  42
ATOM     42  C   LIG d   1       6.213  -4.504  -5.306  0.00  0.00    -0.043 C 
ATOM     43  H   LIG d   1       6.526  -4.639  -6.341  0.00  0.00     0.078 H 
ATOM     44  H   LIG d   1       6.798  -3.704  -4.850  0.00  0.00     0.078 H 
ATOM     45  H   LIG d   1       6.371  -5.430  -4.754  0.00  0.00     0.078 H 
ENDBRANCH  36  42
ENDBRANCH  33  36
ENDBRANCH   1  33
TORSDOF 8
ENDMDL
