MODEL 1
REMARK VINA RESULT:      -7.0      0.000      0.000
REMARK  5 active torsions:
REMARK  status: ('A' for Active; 'I' for Inactive)
REMARK    1  A    between atoms: C_1  and  C_2 
REMARK    2  A    between atoms: C_6  and  C_29 
REMARK    3  A    between atoms: C_17  and  C_19 
REMARK    4  A    between atoms: C_19  and  N_20 
REMARK       I    between atoms: N_23  and  C_26 
REMARK    5  A    between atoms: C_26  and  C_28 
ROOT
ATOM      1  C   LIG d   1       3.335   0.419  -4.171  0.00  0.00    -0.051 C 
ATOM      2  C   LIG d   1       3.264   1.047  -3.009  0.00  0.00    -0.081 C 
ATOM      3  C   LIG d   1       4.219   0.850  -1.873  0.00  0.00    -0.033 C 
ATOM      4  C   LIG d   1       5.522   0.188  -2.328  0.00  0.00    -0.040 C 
ATOM      5  C   LIG d   1       5.173  -1.025  -3.189  0.00  0.00    -0.003 C 
ATOM      6  C   LIG d   1       4.440  -0.539  -4.402  0.00  0.00    -0.042 C 
ATOM      7  C   LIG d   1       4.784  -0.871  -5.628  0.00  0.00    -0.073 C 
ATOM      8  C   LIG d   1       5.977  -1.693  -5.952  0.00  0.00     0.029 C 
ATOM      9  H   LIG d   1       6.287  -1.242  -6.907  0.00  0.00     0.039 H 
ATOM     10  C   LIG d   1       7.026  -1.657  -4.815  0.00  0.00     0.111 C 
ATOM     11  H   LIG d   1       7.611  -0.728  -4.752  0.00  0.00     0.074 H 
ATOM     12  C   LIG d   1       6.343  -1.919  -3.473  0.00  0.00    -0.006 C 
ATOM     13  O   LIG d   1       7.800  -2.881  -5.120  0.00  0.00    -0.461 OA
ATOM     14  C   LIG d   1       6.910  -3.846  -5.435  0.00  0.00     0.312 C 
ATOM     15  O   LIG d   1       7.071  -5.031  -5.265  0.00  0.00    -0.251 OA
ATOM     16  C   LIG d   1       5.674  -3.199  -6.038  0.00  0.00     0.079 C 
ATOM     17  H   LIG d   1       4.750  -3.489  -5.518  0.00  0.00     0.043 H 
ATOM     18  H   LIG d   1       2.458   1.773  -2.826  0.00  0.00     0.058 H 
ATOM     19  H   LIG d   1       4.467   1.825  -1.429  0.00  0.00     0.031 H 
ATOM     20  H   LIG d   1       3.755   0.207  -1.110  0.00  0.00     0.031 H 
ATOM     21  H   LIG d   1       6.113   0.907  -2.913  0.00  0.00     0.028 H 
ATOM     22  H   LIG d   1       6.099  -0.130  -1.447  0.00  0.00     0.028 H 
ATOM     23  H   LIG d   1       4.176  -0.534  -6.480  0.00  0.00     0.058 H 
ATOM     24  H   LIG d   1       7.106  -1.784  -2.693  0.00  0.00     0.031 H 
ATOM     25  H   LIG d   1       6.010  -2.968  -3.482  0.00  0.00     0.031 H 
ENDROOT
BRANCH  16  26
ATOM     26  C   LIG d   1       5.498  -3.629  -7.496  0.00  0.00     0.013 C 
ATOM     27  H   LIG d   1       6.482  -3.849  -7.935  0.00  0.00     0.043 H 
ATOM     28  H   LIG d   1       4.867  -4.529  -7.539  0.00  0.00     0.043 H 
BRANCH  26  29
ATOM     29  N   LIG d   1       4.855  -2.545  -8.252  0.00  0.00    -0.299 N 
ATOM     30  C   LIG d   1       5.582  -2.269  -9.498  0.00  0.00     0.015 C 
ATOM     31  C   LIG d   1       4.993  -1.022 -10.165  0.00  0.00     0.028 C 
ATOM     32  H   LIG d   1       6.645  -2.098  -9.272  0.00  0.00     0.044 H 
ATOM     33  H   LIG d   1       5.487  -3.130 -10.178  0.00  0.00     0.044 H 
ATOM     34  N   LIG d   1       3.544  -1.218 -10.321  0.00  0.00    -0.299 N 
ATOM     35  H   LIG d   1       5.452  -0.873 -11.153  0.00  0.00     0.048 H 
ATOM     36  H   LIG d   1       5.178  -0.138  -9.538  0.00  0.00     0.048 H 
ATOM     37  C   LIG d   1       2.766  -1.631  -9.143  0.00  0.00     0.028 C 
ATOM     38  C   LIG d   1       2.945  -1.023 -11.513  0.00  0.00     0.212 C 
ATOM     39  C   LIG d   1       3.443  -2.854  -8.518  0.00  0.00     0.015 C 
ATOM     40  H   LIG d   1       1.740  -1.892  -9.444  0.00  0.00     0.048 H 
ATOM     41  H   LIG d   1       2.734  -0.812  -8.410  0.00  0.00     0.048 H 
ATOM     42  H   LIG d   1       3.377  -3.705  -9.210  0.00  0.00     0.044 H 
ATOM     43  H   LIG d   1       2.940  -3.109  -7.573  0.00  0.00     0.044 H 
ATOM     44  O   LIG d   1       3.612  -0.776 -12.494  0.00  0.00    -0.276 OA
BRANCH  38  45
ATOM     45  C   LIG d   1       1.444  -1.112 -11.626  0.00  0.00     0.012 C 
ATOM     46  H   LIG d   1       0.982  -0.376 -10.954  0.00  0.00     0.032 H 
ATOM     47  H   LIG d   1       1.115  -2.124 -11.345  0.00  0.00     0.032 H 
ATOM     48  H   LIG d   1       1.142  -0.903 -12.663  0.00  0.00     0.032 H 
ENDBRANCH  38  45
ENDBRANCH  26  29
ENDBRANCH  16  26
BRANCH   1  49
ATOM     49  C   LIG d   1       2.308   0.674  -5.242  0.00  0.00    -0.040 C 
ATOM     50  H   LIG d   1       1.429   0.036  -5.067  0.00  0.00     0.028 H 
ATOM     51  H   LIG d   1       2.740   0.440  -6.227  0.00  0.00     0.028 H 
ATOM     52  H   LIG d   1       2.006   1.730  -5.216  0.00  0.00     0.028 H 
ENDBRANCH   1  49
BRANCH   5  53
ATOM     53  C   LIG d   1       4.179  -1.863  -2.382  0.00  0.00    -0.055 C 
ATOM     54  H   LIG d   1       4.114  -1.468  -1.358  0.00  0.00     0.024 H 
ATOM     55  H   LIG d   1       4.520  -2.908  -2.351  0.00  0.00     0.024 H 
ATOM     56  H   LIG d   1       3.188  -1.815  -2.858  0.00  0.00     0.024 H 
ENDBRANCH   5  53
TORSDOF 5
ENDMDL
MODEL 2
REMARK VINA RESULT:      -6.9      1.721      2.444
REMARK  5 active torsions:
REMARK  status: ('A' for Active; 'I' for Inactive)
REMARK    1  A    between atoms: C_1  and  C_2 
REMARK    2  A    between atoms: C_6  and  C_29 
REMARK    3  A    between atoms: C_17  and  C_19 
REMARK    4  A    between atoms: C_19  and  N_20 
REMARK       I    between atoms: N_23  and  C_26 
REMARK    5  A    between atoms: C_26  and  C_28 
ROOT
ATOM      1  C   LIG d   1       6.198   0.746  -3.401  0.00  0.00    -0.051 C 
ATOM      2  C   LIG d   1       5.551   1.297  -2.387  0.00  0.00    -0.081 C 
ATOM      3  C   LIG d   1       4.358   0.698  -1.710  0.00  0.00    -0.033 C 
ATOM      4  C   LIG d   1       4.219  -0.796  -2.010  0.00  0.00    -0.040 C 
ATOM      5  C   LIG d   1       4.367  -1.004  -3.516  0.00  0.00    -0.003 C 
ATOM      6  C   LIG d   1       5.745  -0.567  -3.912  0.00  0.00    -0.042 C 
ATOM      7  C   LIG d   1       6.561  -1.322  -4.616  0.00  0.00    -0.073 C 
ATOM      8  C   LIG d   1       6.244  -2.713  -5.027  0.00  0.00     0.029 C 
ATOM      9  H   LIG d   1       7.241  -3.177  -4.976  0.00  0.00     0.039 H 
ATOM     10  C   LIG d   1       5.157  -3.345  -4.126  0.00  0.00     0.111 C 
ATOM     11  H   LIG d   1       5.503  -3.655  -3.129  0.00  0.00     0.074 H 
ATOM     12  C   LIG d   1       3.982  -2.378  -3.976  0.00  0.00    -0.006 C 
ATOM     13  O   LIG d   1       4.674  -4.434  -5.003  0.00  0.00    -0.461 OA
ATOM     14  C   LIG d   1       4.565  -3.922  -6.248  0.00  0.00     0.312 C 
ATOM     15  O   LIG d   1       3.786  -4.293  -7.094  0.00  0.00    -0.251 OA
ATOM     16  C   LIG d   1       5.580  -2.803  -6.412  0.00  0.00     0.079 C 
ATOM     17  H   LIG d   1       5.119  -1.859  -6.737  0.00  0.00     0.043 H 
ATOM     18  H   LIG d   1       5.884   2.265  -1.985  0.00  0.00     0.058 H 
ATOM     19  H   LIG d   1       4.452   0.823  -0.622  0.00  0.00     0.031 H 
ATOM     20  H   LIG d   1       3.445   1.205  -2.059  0.00  0.00     0.031 H 
ATOM     21  H   LIG d   1       5.003  -1.351  -1.475  0.00  0.00     0.028 H 
ATOM     22  H   LIG d   1       3.230  -1.146  -1.678  0.00  0.00     0.028 H 
ATOM     23  H   LIG d   1       7.539  -0.930  -4.930  0.00  0.00     0.058 H 
ATOM     24  H   LIG d   1       3.288  -2.826  -3.251  0.00  0.00     0.031 H 
ATOM     25  H   LIG d   1       3.494  -2.312  -4.960  0.00  0.00     0.031 H 
ENDROOT
BRANCH  16  26
ATOM     26  C   LIG d   1       6.613  -3.165  -7.481  0.00  0.00     0.013 C 
ATOM     27  H   LIG d   1       7.625  -3.073  -7.059  0.00  0.00     0.043 H 
ATOM     28  H   LIG d   1       6.448  -4.199  -7.816  0.00  0.00     0.043 H 
BRANCH  26  29
ATOM     29  N   LIG d   1       6.474  -2.253  -8.625  0.00  0.00    -0.299 N 
ATOM     30  C   LIG d   1       5.734  -2.893  -9.721  0.00  0.00     0.015 C 
ATOM     31  C   LIG d   1       5.767  -1.984 -10.954  0.00  0.00     0.028 C 
ATOM     32  H   LIG d   1       6.201  -3.859  -9.963  0.00  0.00     0.044 H 
ATOM     33  H   LIG d   1       4.691  -3.057  -9.413  0.00  0.00     0.044 H 
ATOM     34  N   LIG d   1       5.276  -0.653 -10.566  0.00  0.00    -0.299 N 
ATOM     35  H   LIG d   1       5.121  -2.397 -11.742  0.00  0.00     0.048 H 
ATOM     36  H   LIG d   1       6.797  -1.900 -11.331  0.00  0.00     0.048 H 
ATOM     37  C   LIG d   1       5.877  -0.005  -9.390  0.00  0.00     0.028 C 
ATOM     38  C   LIG d   1       4.302  -0.043 -11.270  0.00  0.00     0.212 C 
ATOM     39  C   LIG d   1       5.839  -0.992  -8.219  0.00  0.00     0.015 C 
ATOM     40  H   LIG d   1       5.307   0.898  -9.127  0.00  0.00     0.048 H 
ATOM     41  H   LIG d   1       6.920   0.270  -9.606  0.00  0.00     0.048 H 
ATOM     42  H   LIG d   1       4.795  -1.183  -7.931  0.00  0.00     0.044 H 
ATOM     43  H   LIG d   1       6.384  -0.567  -7.362  0.00  0.00     0.044 H 
ATOM     44  O   LIG d   1       3.752  -0.629 -12.178  0.00  0.00    -0.276 OA
BRANCH  38  45
ATOM     45  C   LIG d   1       3.896   1.368 -10.929  0.00  0.00     0.012 C 
ATOM     46  H   LIG d   1       4.288   1.633  -9.937  0.00  0.00     0.032 H 
ATOM     47  H   LIG d   1       2.798   1.443 -10.922  0.00  0.00     0.032 H 
ATOM     48  H   LIG d   1       4.305   2.059 -11.681  0.00  0.00     0.032 H 
ENDBRANCH  38  45
ENDBRANCH  26  29
ENDBRANCH  16  26
BRANCH   1  49
ATOM     49  C   LIG d   1       7.377   1.444  -4.025  0.00  0.00    -0.040 C 
ATOM     50  H   LIG d   1       7.021   2.186  -4.755  0.00  0.00     0.028 H 
ATOM     51  H   LIG d   1       8.013   0.704  -4.535  0.00  0.00     0.028 H 
ATOM     52  H   LIG d   1       7.960   1.950  -3.243  0.00  0.00     0.028 H 
ENDBRANCH   1  49
BRANCH   5  53
ATOM     53  C   LIG d   1       3.390  -0.037  -4.189  0.00  0.00    -0.055 C 
ATOM     54  H   LIG d   1       3.869   0.413  -5.071  0.00  0.00     0.024 H 
ATOM     55  H   LIG d   1       3.111   0.756  -3.480  0.00  0.00     0.024 H 
ATOM     56  H   LIG d   1       2.488  -0.584  -4.500  0.00  0.00     0.024 H 
ENDBRANCH   5  53
TORSDOF 5
ENDMDL
MODEL 3
REMARK VINA RESULT:      -6.8      2.543      3.590
REMARK  5 active torsions:
REMARK  status: ('A' for Active; 'I' for Inactive)
REMARK    1  A    between atoms: C_1  and  C_2 
REMARK    2  A    between atoms: C_6  and  C_29 
REMARK    3  A    between atoms: C_17  and  C_19 
REMARK    4  A    between atoms: C_19  and  N_20 
REMARK       I    between atoms: N_23  and  C_26 
REMARK    5  A    between atoms: C_26  and  C_28 
ROOT
ATOM      1  C   LIG d   1       6.181   0.775  -3.367  0.00  0.00    -0.051 C 
ATOM      2  C   LIG d   1       5.498   1.349  -2.391  0.00  0.00    -0.081 C 
ATOM      3  C   LIG d   1       4.264   0.779  -1.764  0.00  0.00    -0.033 C 
ATOM      4  C   LIG d   1       4.111  -0.716  -2.055  0.00  0.00    -0.040 C 
ATOM      5  C   LIG d   1       4.326  -0.942  -3.551  0.00  0.00    -0.003 C 
ATOM      6  C   LIG d   1       5.728  -0.535  -3.886  0.00  0.00    -0.042 C 
ATOM      7  C   LIG d   1       6.561  -1.312  -4.543  0.00  0.00    -0.073 C 
ATOM      8  C   LIG d   1       6.239  -2.701  -4.955  0.00  0.00     0.029 C 
ATOM      9  H   LIG d   1       7.223  -3.182  -4.853  0.00  0.00     0.039 H 
ATOM     10  C   LIG d   1       5.099  -3.304  -4.100  0.00  0.00     0.111 C 
ATOM     11  H   LIG d   1       5.393  -3.610  -3.085  0.00  0.00     0.074 H 
ATOM     12  C   LIG d   1       3.937  -2.314  -4.015  0.00  0.00    -0.006 C 
ATOM     13  O   LIG d   1       4.638  -4.393  -4.988  0.00  0.00    -0.461 OA
ATOM     14  C   LIG d   1       4.596  -3.893  -6.242  0.00  0.00     0.312 C 
ATOM     15  O   LIG d   1       3.850  -4.259  -7.119  0.00  0.00    -0.251 OA
ATOM     16  C   LIG d   1       5.638  -2.794  -6.369  0.00  0.00     0.079 C 
ATOM     17  H   LIG d   1       5.210  -1.846  -6.724  0.00  0.00     0.043 H 
ATOM     18  H   LIG d   1       5.830   2.315  -1.983  0.00  0.00     0.058 H 
ATOM     19  H   LIG d   1       4.310   0.913  -0.673  0.00  0.00     0.031 H 
ATOM     20  H   LIG d   1       3.378   1.298  -2.160  0.00  0.00     0.031 H 
ATOM     21  H   LIG d   1       4.859  -1.280  -1.479  0.00  0.00     0.028 H 
ATOM     22  H   LIG d   1       3.102  -1.045  -1.766  0.00  0.00     0.028 H 
ATOM     23  H   LIG d   1       7.560  -0.941  -4.816  0.00  0.00     0.058 H 
ATOM     24  H   LIG d   1       3.201  -2.742  -3.318  0.00  0.00     0.031 H 
ATOM     25  H   LIG d   1       3.497  -2.250  -5.021  0.00  0.00     0.031 H 
ENDROOT
BRANCH  16  26
ATOM     26  C   LIG d   1       6.713  -3.186  -7.385  0.00  0.00     0.013 C 
ATOM     27  H   LIG d   1       7.638  -3.457  -6.854  0.00  0.00     0.043 H 
ATOM     28  H   LIG d   1       6.364  -4.046  -7.975  0.00  0.00     0.043 H 
BRANCH  26  29
ATOM     29  N   LIG d   1       6.976  -2.052  -8.282  0.00  0.00    -0.299 N 
ATOM     30  C   LIG d   1       5.794  -1.188  -8.398  0.00  0.00     0.015 C 
ATOM     31  C   LIG d   1       6.045  -0.126  -9.474  0.00  0.00     0.028 C 
ATOM     32  H   LIG d   1       4.921  -1.797  -8.678  0.00  0.00     0.044 H 
ATOM     33  H   LIG d   1       5.602  -0.696  -7.433  0.00  0.00     0.044 H 
ATOM     34  N   LIG d   1       7.298   0.574  -9.155  0.00  0.00    -0.299 N 
ATOM     35  H   LIG d   1       5.215   0.595  -9.490  0.00  0.00     0.048 H 
ATOM     36  H   LIG d   1       6.134  -0.605 -10.460  0.00  0.00     0.048 H 
ATOM     37  C   LIG d   1       8.499  -0.233  -8.888  0.00  0.00     0.028 C 
ATOM     38  C   LIG d   1       7.345   1.921  -9.108  0.00  0.00     0.212 C 
ATOM     39  C   LIG d   1       8.150  -1.290  -7.836  0.00  0.00     0.015 C 
ATOM     40  H   LIG d   1       9.306   0.411  -8.509  0.00  0.00     0.048 H 
ATOM     41  H   LIG d   1       8.829  -0.729  -9.812  0.00  0.00     0.048 H 
ATOM     42  H   LIG d   1       7.926  -0.797  -6.879  0.00  0.00     0.044 H 
ATOM     43  H   LIG d   1       9.003  -1.974  -7.705  0.00  0.00     0.044 H 
ATOM     44  O   LIG d   1       6.327   2.568  -9.236  0.00  0.00    -0.276 OA
BRANCH  38  45
ATOM     45  C   LIG d   1       8.662   2.622  -8.896  0.00  0.00     0.012 C 
ATOM     46  H   LIG d   1       9.425   1.888  -8.603  0.00  0.00     0.032 H 
ATOM     47  H   LIG d   1       8.552   3.376  -8.102  0.00  0.00     0.032 H 
ATOM     48  H   LIG d   1       8.968   3.117  -9.830  0.00  0.00     0.032 H 
ENDBRANCH  38  45
ENDBRANCH  26  29
ENDBRANCH  16  26
BRANCH   1  49
ATOM     49  C   LIG d   1       7.401   1.445  -3.943  0.00  0.00    -0.040 C 
ATOM     50  H   LIG d   1       7.430   2.496  -3.619  0.00  0.00     0.028 H 
ATOM     51  H   LIG d   1       7.359   1.400  -5.041  0.00  0.00     0.028 H 
ATOM     52  H   LIG d   1       8.304   0.928  -3.589  0.00  0.00     0.028 H 
ENDBRANCH   1  49
BRANCH   5  53
ATOM     53  C   LIG d   1       3.399   0.035  -4.278  0.00  0.00    -0.055 C 
ATOM     54  H   LIG d   1       2.819  -0.508  -5.038  0.00  0.00     0.024 H 
ATOM     55  H   LIG d   1       4.000   0.817  -4.765  0.00  0.00     0.024 H 
ATOM     56  H   LIG d   1       2.713   0.498  -3.553  0.00  0.00     0.024 H 
ENDBRANCH   5  53
TORSDOF 5
ENDMDL
MODEL 4
REMARK VINA RESULT:      -6.7      2.627      6.031
REMARK  5 active torsions:
REMARK  status: ('A' for Active; 'I' for Inactive)
REMARK    1  A    between atoms: C_1  and  C_2 
REMARK    2  A    between atoms: C_6  and  C_29 
REMARK    3  A    between atoms: C_17  and  C_19 
REMARK    4  A    between atoms: C_19  and  N_20 
REMARK       I    between atoms: N_23  and  C_26 
REMARK    5  A    between atoms: C_26  and  C_28 
ROOT
ATOM      1  C   LIG d   1       3.180   1.112  -7.943  0.00  0.00    -0.051 C 
ATOM      2  C   LIG d   1       2.914   2.098  -8.783  0.00  0.00    -0.081 C 
ATOM      3  C   LIG d   1       3.508   2.237 -10.151  0.00  0.00    -0.033 C 
ATOM      4  C   LIG d   1       4.111   0.923 -10.650  0.00  0.00    -0.040 C 
ATOM      5  C   LIG d   1       4.990   0.342  -9.543  0.00  0.00    -0.003 C 
ATOM      6  C   LIG d   1       4.115   0.044  -8.364  0.00  0.00    -0.042 C 
ATOM      7  C   LIG d   1       4.102  -1.124  -7.758  0.00  0.00    -0.073 C 
ATOM      8  C   LIG d   1       4.888  -2.297  -8.219  0.00  0.00     0.029 C 
ATOM      9  H   LIG d   1       4.205  -3.120  -7.958  0.00  0.00     0.039 H 
ATOM     10  C   LIG d   1       5.268  -2.182  -9.714  0.00  0.00     0.111 C 
ATOM     11  H   LIG d   1       4.447  -2.381 -10.418  0.00  0.00     0.074 H 
ATOM     12  C   LIG d   1       5.853  -0.798  -9.994  0.00  0.00    -0.006 C 
ATOM     13  O   LIG d   1       6.408  -3.123  -9.779  0.00  0.00    -0.461 OA
ATOM     14  C   LIG d   1       7.165  -2.905  -8.682  0.00  0.00     0.312 C 
ATOM     15  O   LIG d   1       8.358  -3.084  -8.606  0.00  0.00    -0.251 OA
ATOM     16  C   LIG d   1       6.274  -2.399  -7.560  0.00  0.00     0.079 C 
ATOM     17  H   LIG d   1       6.628  -1.447  -7.138  0.00  0.00     0.043 H 
ATOM     18  H   LIG d   1       2.210   2.892  -8.493  0.00  0.00     0.058 H 
ATOM     19  H   LIG d   1       2.727   2.549 -10.860  0.00  0.00     0.031 H 
ATOM     20  H   LIG d   1       4.306   2.995 -10.129  0.00  0.00     0.031 H 
ATOM     21  H   LIG d   1       3.303   0.219 -10.897  0.00  0.00     0.028 H 
ATOM     22  H   LIG d   1       4.717   1.115 -11.548  0.00  0.00     0.028 H 
ATOM     23  H   LIG d   1       3.485  -1.271  -6.860  0.00  0.00     0.058 H 
ATOM     24  H   LIG d   1       6.012  -0.731 -11.080  0.00  0.00     0.031 H 
ATOM     25  H   LIG d   1       6.824  -0.750  -9.478  0.00  0.00     0.031 H 
ENDROOT
BRANCH  16  26
ATOM     26  C   LIG d   1       6.247  -3.398  -6.401  0.00  0.00     0.013 C 
ATOM     27  H   LIG d   1       5.303  -3.963  -6.427  0.00  0.00     0.043 H 
ATOM     28  H   LIG d   1       7.094  -4.092  -6.495  0.00  0.00     0.043 H 
BRANCH  26  29
ATOM     29  N   LIG d   1       6.348  -2.672  -5.127  0.00  0.00    -0.299 N 
ATOM     30  C   LIG d   1       7.009  -1.373  -5.312  0.00  0.00     0.015 C 
ATOM     31  C   LIG d   1       7.258  -0.731  -3.943  0.00  0.00     0.028 C 
ATOM     32  H   LIG d   1       7.968  -1.521  -5.829  0.00  0.00     0.044 H 
ATOM     33  H   LIG d   1       6.365  -0.716  -5.915  0.00  0.00     0.044 H 
ATOM     34  N   LIG d   1       5.982  -0.682  -3.212  0.00  0.00    -0.299 N 
ATOM     35  H   LIG d   1       7.645   0.290  -4.073  0.00  0.00     0.048 H 
ATOM     36  H   LIG d   1       7.984  -1.329  -3.374  0.00  0.00     0.048 H 
ATOM     37  C   LIG d   1       5.194  -1.918  -3.103  0.00  0.00     0.028 C 
ATOM     38  C   LIG d   1       5.548   0.468  -2.656  0.00  0.00     0.212 C 
ATOM     39  C   LIG d   1       5.026  -2.513  -4.505  0.00  0.00     0.015 C 
ATOM     40  H   LIG d   1       4.204  -1.696  -2.678  0.00  0.00     0.048 H 
ATOM     41  H   LIG d   1       5.716  -2.639  -2.457  0.00  0.00     0.048 H 
ATOM     42  H   LIG d   1       4.410  -1.841  -5.119  0.00  0.00     0.044 H 
ATOM     43  H   LIG d   1       4.536  -3.496  -4.431  0.00  0.00     0.044 H 
ATOM     44  O   LIG d   1       6.162   1.498  -2.836  0.00  0.00    -0.276 OA
BRANCH  38  45
ATOM     45  C   LIG d   1       4.300   0.471  -1.811  0.00  0.00     0.012 C 
ATOM     46  H   LIG d   1       3.430   0.695  -2.444  0.00  0.00     0.032 H 
ATOM     47  H   LIG d   1       4.391   1.238  -1.027  0.00  0.00     0.032 H 
ATOM     48  H   LIG d   1       4.171  -0.516  -1.345  0.00  0.00     0.032 H 
ENDBRANCH  38  45
ENDBRANCH  26  29
ENDBRANCH  16  26
BRANCH   1  49
ATOM     49  C   LIG d   1       2.543   1.077  -6.579  0.00  0.00    -0.040 C 
ATOM     50  H   LIG d   1       2.929   0.214  -6.016  0.00  0.00     0.028 H 
ATOM     51  H   LIG d   1       1.452   0.986  -6.686  0.00  0.00     0.028 H 
ATOM     52  H   LIG d   1       2.783   2.003  -6.038  0.00  0.00     0.028 H 
ENDBRANCH   1  49
BRANCH   5  53
ATOM     53  C   LIG d   1       5.944   1.458  -9.111  0.00  0.00    -0.055 C 
ATOM     54  H   LIG d   1       5.450   2.091  -8.360  0.00  0.00     0.024 H 
ATOM     55  H   LIG d   1       6.214   2.068  -9.985  0.00  0.00     0.024 H 
ATOM     56  H   LIG d   1       6.853   1.016  -8.678  0.00  0.00     0.024 H 
ENDBRANCH   5  53
TORSDOF 5
ENDMDL
MODEL 5
REMARK VINA RESULT:      -6.6      2.767      3.059
REMARK  5 active torsions:
REMARK  status: ('A' for Active; 'I' for Inactive)
REMARK    1  A    between atoms: C_1  and  C_2 
REMARK    2  A    between atoms: C_6  and  C_29 
REMARK    3  A    between atoms: C_17  and  C_19 
REMARK    4  A    between atoms: C_19  and  N_20 
REMARK       I    between atoms: N_23  and  C_26 
REMARK    5  A    between atoms: C_26  and  C_28 
ROOT
ATOM      1  C   LIG d   1       3.468   0.188  -4.745  0.00  0.00    -0.051 C 
ATOM      2  C   LIG d   1       2.962   0.805  -3.691  0.00  0.00    -0.081 C 
ATOM      3  C   LIG d   1       3.543   0.752  -2.312  0.00  0.00    -0.033 C 
ATOM      4  C   LIG d   1       4.998   0.278  -2.321  0.00  0.00    -0.040 C 
ATOM      5  C   LIG d   1       5.093  -0.977  -3.188  0.00  0.00    -0.003 C 
ATOM      6  C   LIG d   1       4.708  -0.606  -4.587  0.00  0.00    -0.042 C 
ATOM      7  C   LIG d   1       5.450  -0.892  -5.634  0.00  0.00    -0.073 C 
ATOM      8  C   LIG d   1       6.783  -1.539  -5.544  0.00  0.00     0.029 C 
ATOM      9  H   LIG d   1       7.307  -1.054  -6.381  0.00  0.00     0.039 H 
ATOM     10  C   LIG d   1       7.420  -1.350  -4.147  0.00  0.00     0.111 C 
ATOM     11  H   LIG d   1       7.829  -0.347  -3.955  0.00  0.00     0.074 H 
ATOM     12  C   LIG d   1       6.401  -1.699  -3.062  0.00  0.00    -0.006 C 
ATOM     13  O   LIG d   1       8.407  -2.453  -4.145  0.00  0.00    -0.461 OA
ATOM     14  C   LIG d   1       7.792  -3.536  -4.667  0.00  0.00     0.312 C 
ATOM     15  O   LIG d   1       8.048  -4.686  -4.400  0.00  0.00    -0.251 OA
ATOM     16  C   LIG d   1       6.724  -3.073  -5.645  0.00  0.00     0.079 C 
ATOM     17  H   LIG d   1       5.733  -3.488  -5.414  0.00  0.00     0.043 H 
ATOM     18  H   LIG d   1       2.051   1.411  -3.795  0.00  0.00     0.058 H 
ATOM     19  H   LIG d   1       3.511   1.754  -1.861  0.00  0.00     0.031 H 
ATOM     20  H   LIG d   1       2.958   0.053  -1.695  0.00  0.00     0.031 H 
ATOM     21  H   LIG d   1       5.639   1.070  -2.734  0.00  0.00     0.028 H 
ATOM     22  H   LIG d   1       5.315   0.049  -1.293  0.00  0.00     0.028 H 
ATOM     23  H   LIG d   1       5.092  -0.649  -6.645  0.00  0.00     0.058 H 
ATOM     24  H   LIG d   1       6.865  -1.452  -2.096  0.00  0.00     0.031 H 
ATOM     25  H   LIG d   1       6.230  -2.784  -3.121  0.00  0.00     0.031 H 
ENDROOT
BRANCH  16  26
ATOM     26  C   LIG d   1       7.060  -3.532  -7.065  0.00  0.00     0.013 C 
ATOM     27  H   LIG d   1       6.906  -2.698  -7.766  0.00  0.00     0.043 H 
ATOM     28  H   LIG d   1       8.109  -3.859  -7.108  0.00  0.00     0.043 H 
BRANCH  26  29
ATOM     29  N   LIG d   1       6.184  -4.652  -7.438  0.00  0.00    -0.299 N 
ATOM     30  C   LIG d   1       4.776  -4.331  -7.169  0.00  0.00     0.015 C 
ATOM     31  C   LIG d   1       3.918  -5.580  -7.397  0.00  0.00     0.028 C 
ATOM     32  H   LIG d   1       4.669  -3.997  -6.126  0.00  0.00     0.044 H 
ATOM     33  H   LIG d   1       4.446  -3.529  -7.846  0.00  0.00     0.044 H 
ATOM     34  N   LIG d   1       4.192  -6.093  -8.748  0.00  0.00    -0.299 N 
ATOM     35  H   LIG d   1       2.852  -5.323  -7.312  0.00  0.00     0.048 H 
ATOM     36  H   LIG d   1       4.170  -6.350  -6.654  0.00  0.00     0.048 H 
ATOM     37  C   LIG d   1       5.593  -6.310  -9.140  0.00  0.00     0.028 C 
ATOM     38  C   LIG d   1       3.184  -6.359  -9.604  0.00  0.00     0.212 C 
ATOM     39  C   LIG d   1       6.384  -5.033  -8.843  0.00  0.00     0.015 C 
ATOM     40  H   LIG d   1       5.651  -6.537 -10.215  0.00  0.00     0.048 H 
ATOM     41  H   LIG d   1       6.017  -7.147  -8.566  0.00  0.00     0.048 H 
ATOM     42  H   LIG d   1       6.033  -4.221  -9.496  0.00  0.00     0.044 H 
ATOM     43  H   LIG d   1       7.454  -5.213  -9.024  0.00  0.00     0.044 H 
ATOM     44  O   LIG d   1       2.043  -6.085  -9.301  0.00  0.00    -0.276 OA
BRANCH  38  45
ATOM     45  C   LIG d   1       3.478  -6.995 -10.938  0.00  0.00     0.012 C 
ATOM     46  H   LIG d   1       4.243  -7.774 -10.813  0.00  0.00     0.032 H 
ATOM     47  H   LIG d   1       3.844  -6.228 -11.638  0.00  0.00     0.032 H 
ATOM     48  H   LIG d   1       2.558  -7.446 -11.339  0.00  0.00     0.032 H 
ENDBRANCH  38  45
ENDBRANCH  26  29
ENDBRANCH  16  26
BRANCH   1  49
ATOM     49  C   LIG d   1       2.793   0.290  -6.088  0.00  0.00    -0.040 C 
ATOM     50  H   LIG d   1       1.966   1.013  -6.029  0.00  0.00     0.028 H 
ATOM     51  H   LIG d   1       2.398  -0.696  -6.376  0.00  0.00     0.028 H 
ATOM     52  H   LIG d   1       3.521   0.627  -6.840  0.00  0.00     0.028 H 
ENDBRANCH   1  49
BRANCH   5  53
ATOM     53  C   LIG d   1       4.020  -1.943  -2.678  0.00  0.00    -0.055 C 
ATOM     54  H   LIG d   1       3.800  -2.689  -3.456  0.00  0.00     0.024 H 
ATOM     55  H   LIG d   1       3.105  -1.382  -2.439  0.00  0.00     0.024 H 
ATOM     56  H   LIG d   1       4.385  -2.451  -1.773  0.00  0.00     0.024 H 
ENDBRANCH   5  53
TORSDOF 5
ENDMDL
MODEL 6
REMARK VINA RESULT:      -6.6      5.090      7.746
REMARK  5 active torsions:
REMARK  status: ('A' for Active; 'I' for Inactive)
REMARK    1  A    between atoms: C_1  and  C_2 
REMARK    2  A    between atoms: C_6  and  C_29 
REMARK    3  A    between atoms: C_17  and  C_19 
REMARK    4  A    between atoms: C_19  and  N_20 
REMARK       I    between atoms: N_23  and  C_26 
REMARK    5  A    between atoms: C_26  and  C_28 
ROOT
ATOM      1  C   LIG d   1       4.555   0.083  -2.590  0.00  0.00    -0.051 C 
ATOM      2  C   LIG d   1       3.827  -0.996  -2.356  0.00  0.00    -0.081 C 
ATOM      3  C   LIG d   1       4.079  -2.343  -2.960  0.00  0.00    -0.033 C 
ATOM      4  C   LIG d   1       5.495  -2.461  -3.527  0.00  0.00    -0.040 C 
ATOM      5  C   LIG d   1       5.779  -1.227  -4.383  0.00  0.00    -0.003 C 
ATOM      6  C   LIG d   1       5.723  -0.022  -3.495  0.00  0.00    -0.042 C 
ATOM      7  C   LIG d   1       6.682   0.876  -3.445  0.00  0.00    -0.073 C 
ATOM      8  C   LIG d   1       7.957   0.759  -4.198  0.00  0.00     0.029 C 
ATOM      9  H   LIG d   1       8.659   1.225  -3.490  0.00  0.00     0.039 H 
ATOM     10  C   LIG d   1       8.261  -0.707  -4.588  0.00  0.00     0.111 C 
ATOM     11  H   LIG d   1       8.620  -1.341  -3.765  0.00  0.00     0.074 H 
ATOM     12  C   LIG d   1       7.020  -1.343  -5.215  0.00  0.00    -0.006 C 
ATOM     13  O   LIG d   1       9.215  -0.501  -5.700  0.00  0.00    -0.461 OA
ATOM     14  C   LIG d   1       8.729   0.506  -6.459  0.00  0.00     0.312 C 
ATOM     15  O   LIG d   1       8.913   0.642  -7.645  0.00  0.00    -0.251 OA
ATOM     16  C   LIG d   1       7.914   1.438  -5.577  0.00  0.00     0.079 C 
ATOM     17  H   LIG d   1       6.894   1.592  -5.957  0.00  0.00     0.043 H 
ATOM     18  H   LIG d   1       2.965  -0.939  -1.675  0.00  0.00     0.058 H 
ATOM     19  H   LIG d   1       3.950  -3.119  -2.192  0.00  0.00     0.031 H 
ATOM     20  H   LIG d   1       3.365  -2.516  -3.780  0.00  0.00     0.031 H 
ATOM     21  H   LIG d   1       6.217  -2.518  -2.700  0.00  0.00     0.028 H 
ATOM     22  H   LIG d   1       5.570  -3.370  -4.142  0.00  0.00     0.028 H 
ATOM     23  H   LIG d   1       6.564   1.773  -2.820  0.00  0.00     0.058 H 
ATOM     24  H   LIG d   1       7.254  -2.405  -5.380  0.00  0.00     0.031 H 
ATOM     25  H   LIG d   1       6.861  -0.847  -6.184  0.00  0.00     0.031 H 
ENDROOT
BRANCH  16  26
ATOM     26  C   LIG d   1       8.562   2.823  -5.516  0.00  0.00     0.013 C 
ATOM     27  H   LIG d   1       8.897   3.116  -6.522  0.00  0.00     0.043 H 
ATOM     28  H   LIG d   1       7.829   3.555  -5.146  0.00  0.00     0.043 H 
BRANCH  26  29
ATOM     29  N   LIG d   1       9.716   2.784  -4.607  0.00  0.00    -0.299 N 
ATOM     30  C   LIG d   1      10.977   2.907  -5.352  0.00  0.00     0.015 C 
ATOM     31  C   LIG d   1      12.154   2.680  -4.398  0.00  0.00     0.028 C 
ATOM     32  H   LIG d   1      11.003   2.155  -6.154  0.00  0.00     0.044 H 
ATOM     33  H   LIG d   1      11.047   3.913  -5.791  0.00  0.00     0.044 H 
ATOM     34  N   LIG d   1      12.013   3.598  -3.257  0.00  0.00    -0.299 N 
ATOM     35  H   LIG d   1      13.102   2.884  -4.917  0.00  0.00     0.048 H 
ATOM     36  H   LIG d   1      12.149   1.642  -4.036  0.00  0.00     0.048 H 
ATOM     37  C   LIG d   1      10.727   3.631  -2.544  0.00  0.00     0.028 C 
ATOM     38  C   LIG d   1      13.037   4.388  -2.875  0.00  0.00     0.212 C 
ATOM     39  C   LIG d   1       9.606   3.820  -3.572  0.00  0.00     0.015 C 
ATOM     40  H   LIG d   1      10.715   4.468  -1.830  0.00  0.00     0.048 H 
ATOM     41  H   LIG d   1      10.574   2.686  -2.003  0.00  0.00     0.048 H 
ATOM     42  H   LIG d   1       9.696   4.813  -4.035  0.00  0.00     0.044 H 
ATOM     43  H   LIG d   1       8.630   3.735  -3.071  0.00  0.00     0.044 H 
ATOM     44  O   LIG d   1      14.057   4.419  -3.530  0.00  0.00    -0.276 OA
BRANCH  38  45
ATOM     45  C   LIG d   1      12.914   5.234  -1.633  0.00  0.00     0.012 C 
ATOM     46  H   LIG d   1      13.894   5.660  -1.381  0.00  0.00     0.032 H 
ATOM     47  H   LIG d   1      12.559   4.610  -0.799  0.00  0.00     0.032 H 
ATOM     48  H   LIG d   1      12.195   6.047  -1.814  0.00  0.00     0.032 H 
ENDBRANCH  38  45
ENDBRANCH  26  29
ENDBRANCH  16  26
BRANCH   1  49
ATOM     49  C   LIG d   1       4.203   1.398  -1.947  0.00  0.00    -0.040 C 
ATOM     50  H   LIG d   1       4.331   1.319  -0.856  0.00  0.00     0.028 H 
ATOM     51  H   LIG d   1       3.157   1.650  -2.176  0.00  0.00     0.028 H 
ATOM     52  H   LIG d   1       4.864   2.185  -2.336  0.00  0.00     0.028 H 
ENDBRANCH   1  49
BRANCH   5  53
ATOM     53  C   LIG d   1       4.613  -1.101  -5.367  0.00  0.00    -0.055 C 
ATOM     54  H   LIG d   1       3.949  -1.971  -5.262  0.00  0.00     0.024 H 
ATOM     55  H   LIG d   1       5.004  -1.061  -6.395  0.00  0.00     0.024 H 
ATOM     56  H   LIG d   1       4.050  -0.181  -5.153  0.00  0.00     0.024 H 
ENDBRANCH   5  53
TORSDOF 5
ENDMDL
MODEL 7
REMARK VINA RESULT:      -6.5      1.754      2.088
REMARK  5 active torsions:
REMARK  status: ('A' for Active; 'I' for Inactive)
REMARK    1  A    between atoms: C_1  and  C_2 
REMARK    2  A    between atoms: C_6  and  C_29 
REMARK    3  A    between atoms: C_17  and  C_19 
REMARK    4  A    between atoms: C_19  and  N_20 
REMARK       I    between atoms: N_23  and  C_26 
REMARK    5  A    between atoms: C_26  and  C_28 
ROOT
ATOM      1  C   LIG d   1       3.384  -0.489  -4.285  0.00  0.00    -0.051 C 
ATOM      2  C   LIG d   1       2.919  -0.890  -3.114  0.00  0.00    -0.081 C 
ATOM      3  C   LIG d   1       3.691  -1.705  -2.123  0.00  0.00    -0.033 C 
ATOM      4  C   LIG d   1       5.196  -1.666  -2.398  0.00  0.00    -0.040 C 
ATOM      5  C   LIG d   1       5.424  -1.939  -3.884  0.00  0.00    -0.003 C 
ATOM      6  C   LIG d   1       4.771  -0.839  -4.665  0.00  0.00    -0.042 C 
ATOM      7  C   LIG d   1       5.397  -0.152  -5.595  0.00  0.00    -0.073 C 
ATOM      8  C   LIG d   1       6.835  -0.331  -5.921  0.00  0.00     0.029 C 
ATOM      9  H   LIG d   1       7.119   0.700  -6.180  0.00  0.00     0.039 H 
ATOM     10  C   LIG d   1       7.614  -0.974  -4.750  0.00  0.00     0.111 C 
ATOM     11  H   LIG d   1       7.828  -0.299  -3.908  0.00  0.00     0.074 H 
ATOM     12  C   LIG d   1       6.858  -2.200  -4.236  0.00  0.00    -0.006 C 
ATOM     13  O   LIG d   1       8.798  -1.500  -5.465  0.00  0.00    -0.461 OA
ATOM     14  C   LIG d   1       8.353  -2.062  -6.609  0.00  0.00     0.312 C 
ATOM     15  O   LIG d   1       8.879  -2.981  -7.191  0.00  0.00    -0.251 OA
ATOM     16  C   LIG d   1       7.082  -1.351  -7.046  0.00  0.00     0.079 C 
ATOM     17  H   LIG d   1       6.243  -2.044  -7.199  0.00  0.00     0.043 H 
ATOM     18  H   LIG d   1       1.895  -0.625  -2.810  0.00  0.00     0.058 H 
ATOM     19  H   LIG d   1       3.516  -1.313  -1.110  0.00  0.00     0.031 H 
ATOM     20  H   LIG d   1       3.359  -2.753  -2.174  0.00  0.00     0.031 H 
ATOM     21  H   LIG d   1       5.591  -0.674  -2.134  0.00  0.00     0.028 H 
ATOM     22  H   LIG d   1       5.699  -2.434  -1.794  0.00  0.00     0.028 H 
ATOM     23  H   LIG d   1       4.854   0.605  -6.179  0.00  0.00     0.058 H 
ATOM     24  H   LIG d   1       7.395  -2.558  -3.346  0.00  0.00     0.031 H 
ATOM     25  H   LIG d   1       6.909  -2.962  -5.028  0.00  0.00     0.031 H 
ENDROOT
BRANCH  16  26
ATOM     26  C   LIG d   1       7.297  -0.637  -8.382  0.00  0.00     0.013 C 
ATOM     27  H   LIG d   1       7.342   0.449  -8.214  0.00  0.00     0.043 H 
ATOM     28  H   LIG d   1       8.240  -0.978  -8.833  0.00  0.00     0.043 H 
BRANCH  26  29
ATOM     29  N   LIG d   1       6.181  -0.947  -9.288  0.00  0.00    -0.299 N 
ATOM     30  C   LIG d   1       5.619  -2.273  -8.996  0.00  0.00     0.015 C 
ATOM     31  C   LIG d   1       4.587  -2.634 -10.069  0.00  0.00     0.028 C 
ATOM     32  H   LIG d   1       6.426  -3.021  -8.994  0.00  0.00     0.044 H 
ATOM     33  H   LIG d   1       5.134  -2.256  -8.009  0.00  0.00     0.044 H 
ATOM     34  N   LIG d   1       3.602  -1.545 -10.153  0.00  0.00    -0.299 N 
ATOM     35  H   LIG d   1       4.077  -3.570  -9.798  0.00  0.00     0.048 H 
ATOM     36  H   LIG d   1       5.084  -2.755 -11.042  0.00  0.00     0.048 H 
ATOM     37  C   LIG d   1       4.096  -0.169 -10.308  0.00  0.00     0.028 C 
ATOM     38  C   LIG d   1       2.280  -1.803 -10.091  0.00  0.00     0.212 C 
ATOM     39  C   LIG d   1       5.148   0.095  -9.226  0.00  0.00     0.015 C 
ATOM     40  H   LIG d   1       3.266   0.543 -10.195  0.00  0.00     0.048 H 
ATOM     41  H   LIG d   1       4.552  -0.044 -11.302  0.00  0.00     0.048 H 
ATOM     42  H   LIG d   1       4.669   0.079  -8.236  0.00  0.00     0.044 H 
ATOM     43  H   LIG d   1       5.610   1.079  -9.394  0.00  0.00     0.044 H 
ATOM     44  O   LIG d   1       1.891  -2.929  -9.868  0.00  0.00    -0.276 OA
BRANCH  38  45
ATOM     45  C   LIG d   1       1.284  -0.690 -10.299  0.00  0.00     0.012 C 
ATOM     46  H   LIG d   1       1.570  -0.103 -11.183  0.00  0.00     0.032 H 
ATOM     47  H   LIG d   1       1.274  -0.038  -9.412  0.00  0.00     0.032 H 
ATOM     48  H   LIG d   1       0.283  -1.118 -10.451  0.00  0.00     0.032 H 
ENDBRANCH  38  45
ENDBRANCH  26  29
ENDBRANCH  16  26
BRANCH   1  49
ATOM     49  C   LIG d   1       2.515   0.312  -5.220  0.00  0.00    -0.040 C 
ATOM     50  H   LIG d   1       2.920   0.249  -6.241  0.00  0.00     0.028 H 
ATOM     51  H   LIG d   1       2.500   1.363  -4.895  0.00  0.00     0.028 H 
ATOM     52  H   LIG d   1       1.493  -0.091  -5.206  0.00  0.00     0.028 H 
ENDBRANCH   1  49
BRANCH   5  53
ATOM     53  C   LIG d   1       4.661  -3.224  -4.215  0.00  0.00    -0.055 C 
ATOM     54  H   LIG d   1       4.711  -3.911  -3.357  0.00  0.00     0.024 H 
ATOM     55  H   LIG d   1       5.113  -3.703  -5.095  0.00  0.00     0.024 H 
ATOM     56  H   LIG d   1       3.609  -2.981  -4.430  0.00  0.00     0.024 H 
ENDBRANCH   5  53
TORSDOF 5
ENDMDL
MODEL 8
REMARK VINA RESULT:      -6.2      3.515      6.181
REMARK  5 active torsions:
REMARK  status: ('A' for Active; 'I' for Inactive)
REMARK    1  A    between atoms: C_1  and  C_2 
REMARK    2  A    between atoms: C_6  and  C_29 
REMARK    3  A    between atoms: C_17  and  C_19 
REMARK    4  A    between atoms: C_19  and  N_20 
REMARK       I    between atoms: N_23  and  C_26 
REMARK    5  A    between atoms: C_26  and  C_28 
ROOT
ATOM      1  C   LIG d   1       5.949   0.895  -3.306  0.00  0.00    -0.051 C 
ATOM      2  C   LIG d   1       5.094   1.634  -2.621  0.00  0.00    -0.081 C 
ATOM      3  C   LIG d   1       3.695   1.224  -2.280  0.00  0.00    -0.033 C 
ATOM      4  C   LIG d   1       3.489  -0.286  -2.421  0.00  0.00    -0.040 C 
ATOM      5  C   LIG d   1       4.057  -0.728  -3.769  0.00  0.00    -0.003 C 
ATOM      6  C   LIG d   1       5.529  -0.448  -3.768  0.00  0.00    -0.042 C 
ATOM      7  C   LIG d   1       6.430  -1.352  -4.084  0.00  0.00    -0.073 C 
ATOM      8  C   LIG d   1       6.101  -2.765  -4.398  0.00  0.00     0.029 C 
ATOM      9  H   LIG d   1       6.980  -3.281  -3.982  0.00  0.00     0.039 H 
ATOM     10  C   LIG d   1       4.732  -3.181  -3.809  0.00  0.00     0.111 C 
ATOM     11  H   LIG d   1       4.729  -3.360  -2.724  0.00  0.00     0.074 H 
ATOM     12  C   LIG d   1       3.680  -2.127  -4.153  0.00  0.00    -0.006 C 
ATOM     13  O   LIG d   1       4.418  -4.356  -4.651  0.00  0.00    -0.461 OA
ATOM     14  C   LIG d   1       4.742  -4.032  -5.922  0.00  0.00     0.312 C 
ATOM     15  O   LIG d   1       4.215  -4.474  -6.915  0.00  0.00    -0.251 OA
ATOM     16  C   LIG d   1       5.876  -3.019  -5.898  0.00  0.00     0.079 C 
ATOM     17  H   LIG d   1       5.638  -2.108  -6.465  0.00  0.00     0.043 H 
ATOM     18  H   LIG d   1       5.395   2.628  -2.258  0.00  0.00     0.058 H 
ATOM     19  H   LIG d   1       3.473   1.505  -1.240  0.00  0.00     0.031 H 
ATOM     20  H   LIG d   1       2.989   1.732  -2.955  0.00  0.00     0.031 H 
ATOM     21  H   LIG d   1       4.012  -0.805  -1.605  0.00  0.00     0.028 H 
ATOM     22  H   LIG d   1       2.415  -0.516  -2.373  0.00  0.00     0.028 H 
ATOM     23  H   LIG d   1       7.495  -1.077  -4.124  0.00  0.00     0.058 H 
ATOM     24  H   LIG d   1       2.756  -2.414  -3.630  0.00  0.00     0.031 H 
ATOM     25  H   LIG d   1       3.518  -2.179  -5.240  0.00  0.00     0.031 H 
ENDROOT
BRANCH  16  26
ATOM     26  C   LIG d   1       7.135  -3.607  -6.540  0.00  0.00     0.013 C 
ATOM     27  H   LIG d   1       6.852  -4.420  -7.225  0.00  0.00     0.043 H 
ATOM     28  H   LIG d   1       7.662  -2.821  -7.100  0.00  0.00     0.043 H 
BRANCH  26  29
ATOM     29  N   LIG d   1       8.018  -4.135  -5.490  0.00  0.00    -0.299 N 
ATOM     30  C   LIG d   1       8.118  -5.598  -5.574  0.00  0.00     0.015 C 
ATOM     31  C   LIG d   1       8.895  -6.124  -4.363  0.00  0.00     0.028 C 
ATOM     32  H   LIG d   1       7.108  -6.035  -5.582  0.00  0.00     0.044 H 
ATOM     33  H   LIG d   1       8.645  -5.878  -6.499  0.00  0.00     0.044 H 
ATOM     34  N   LIG d   1      10.181  -5.416  -4.291  0.00  0.00    -0.299 N 
ATOM     35  H   LIG d   1       9.076  -7.203  -4.473  0.00  0.00     0.048 H 
ATOM     36  H   LIG d   1       8.323  -5.941  -3.441  0.00  0.00     0.048 H 
ATOM     37  C   LIG d   1      10.171  -3.946  -4.340  0.00  0.00     0.028 C 
ATOM     38  C   LIG d   1      11.340  -6.097  -4.181  0.00  0.00     0.212 C 
ATOM     39  C   LIG d   1       9.344  -3.506  -5.553  0.00  0.00     0.015 C 
ATOM     40  H   LIG d   1      11.199  -3.567  -4.440  0.00  0.00     0.048 H 
ATOM     41  H   LIG d   1       9.720  -3.543  -3.422  0.00  0.00     0.048 H 
ATOM     42  H   LIG d   1       9.853  -3.815  -6.477  0.00  0.00     0.044 H 
ATOM     43  H   LIG d   1       9.231  -2.412  -5.543  0.00  0.00     0.044 H 
ATOM     44  O   LIG d   1      11.340  -7.308  -4.237  0.00  0.00    -0.276 OA
BRANCH  38  45
ATOM     45  C   LIG d   1      12.637  -5.352  -3.989  0.00  0.00     0.012 C 
ATOM     46  H   LIG d   1      13.392  -6.033  -3.572  0.00  0.00     0.032 H 
ATOM     47  H   LIG d   1      12.477  -4.511  -3.296  0.00  0.00     0.032 H 
ATOM     48  H   LIG d   1      12.985  -4.967  -4.958  0.00  0.00     0.032 H 
ENDBRANCH  38  45
ENDBRANCH  26  29
ENDBRANCH  16  26
BRANCH   1  49
ATOM     49  C   LIG d   1       7.330   1.411  -3.614  0.00  0.00    -0.040 C 
ATOM     50  H   LIG d   1       7.521   1.328  -4.695  0.00  0.00     0.028 H 
ATOM     51  H   LIG d   1       8.075   0.816  -3.064  0.00  0.00     0.028 H 
ATOM     52  H   LIG d   1       7.405   2.464  -3.309  0.00  0.00     0.028 H 
ENDBRANCH   1  49
BRANCH   5  53
ATOM     53  C   LIG d   1       3.437   0.189  -4.826  0.00  0.00    -0.055 C 
ATOM     54  H   LIG d   1       3.612   1.239  -4.549  0.00  0.00     0.024 H 
ATOM     55  H   LIG d   1       2.356   0.000  -4.887  0.00  0.00     0.024 H 
ATOM     56  H   LIG d   1       3.899  -0.014  -5.804  0.00  0.00     0.024 H 
ENDBRANCH   5  53
TORSDOF 5
ENDMDL
MODEL 9
REMARK VINA RESULT:      -6.1      3.065      5.754
REMARK  5 active torsions:
REMARK  status: ('A' for Active; 'I' for Inactive)
REMARK    1  A    between atoms: C_1  and  C_2 
REMARK    2  A    between atoms: C_6  and  C_29 
REMARK    3  A    between atoms: C_17  and  C_19 
REMARK    4  A    between atoms: C_19  and  N_20 
REMARK       I    between atoms: N_23  and  C_26 
REMARK    5  A    between atoms: C_26  and  C_28 
ROOT
ATOM      1  C   LIG d   1       5.170  -1.753  -3.688  0.00  0.00    -0.051 C 
ATOM      2  C   LIG d   1       4.505  -1.798  -2.546  0.00  0.00    -0.081 C 
ATOM      3  C   LIG d   1       3.168  -1.165  -2.312  0.00  0.00    -0.033 C 
ATOM      4  C   LIG d   1       2.453  -0.835  -3.624  0.00  0.00    -0.040 C 
ATOM      5  C   LIG d   1       3.437  -0.113  -4.544  0.00  0.00    -0.003 C 
ATOM      6  C   LIG d   1       4.566  -1.050  -4.843  0.00  0.00    -0.042 C 
ATOM      7  C   LIG d   1       4.976  -1.312  -6.065  0.00  0.00    -0.073 C 
ATOM      8  C   LIG d   1       4.318  -0.775  -7.284  0.00  0.00     0.029 C 
ATOM      9  H   LIG d   1       4.454  -1.617  -7.980  0.00  0.00     0.039 H 
ATOM     10  C   LIG d   1       2.855  -0.354  -7.009  0.00  0.00     0.111 C 
ATOM     11  H   LIG d   1       2.142  -1.186  -6.919  0.00  0.00     0.074 H 
ATOM     12  C   LIG d   1       2.793   0.507  -5.747  0.00  0.00    -0.006 C 
ATOM     13  O   LIG d   1       2.620   0.570  -8.141  0.00  0.00    -0.461 OA
ATOM     14  C   LIG d   1       3.725   1.337  -8.263  0.00  0.00     0.312 C 
ATOM     15  O   LIG d   1       3.751   2.466  -8.692  0.00  0.00    -0.251 OA
ATOM     16  C   LIG d   1       4.929   0.549  -7.773  0.00  0.00     0.079 C 
ATOM     17  H   LIG d   1       5.493   1.083  -6.995  0.00  0.00     0.043 H 
ATOM     18  H   LIG d   1       4.931  -2.329  -1.682  0.00  0.00     0.058 H 
ATOM     19  H   LIG d   1       2.531  -1.853  -1.737  0.00  0.00     0.031 H 
ATOM     20  H   LIG d   1       3.299  -0.229  -1.747  0.00  0.00     0.031 H 
ATOM     21  H   LIG d   1       2.109  -1.766  -4.098  0.00  0.00     0.028 H 
ATOM     22  H   LIG d   1       1.588  -0.188  -3.417  0.00  0.00     0.028 H 
ATOM     23  H   LIG d   1       5.848  -1.961  -6.226  0.00  0.00     0.058 H 
ATOM     24  H   LIG d   1       1.729   0.694  -5.540  0.00  0.00     0.031 H 
ATOM     25  H   LIG d   1       3.294   1.457  -5.983  0.00  0.00     0.031 H 
ENDROOT
BRANCH  16  26
ATOM     26  C   LIG d   1       5.911   0.298  -8.919  0.00  0.00     0.013 C 
ATOM     27  H   LIG d   1       5.804  -0.738  -9.273  0.00  0.00     0.043 H 
ATOM     28  H   LIG d   1       5.697   0.993  -9.744  0.00  0.00     0.043 H 
BRANCH  26  29
ATOM     29  N   LIG d   1       7.285   0.514  -8.442  0.00  0.00    -0.299 N 
ATOM     30  C   LIG d   1       7.304   1.415  -7.282  0.00  0.00     0.015 C 
ATOM     31  C   LIG d   1       8.755   1.757  -6.929  0.00  0.00     0.028 C 
ATOM     32  H   LIG d   1       6.757   2.338  -7.526  0.00  0.00     0.044 H 
ATOM     33  H   LIG d   1       6.824   0.920  -6.424  0.00  0.00     0.044 H 
ATOM     34  N   LIG d   1       9.501   0.502  -6.754  0.00  0.00    -0.299 N 
ATOM     35  H   LIG d   1       8.788   2.336  -5.995  0.00  0.00     0.048 H 
ATOM     36  H   LIG d   1       9.210   2.344  -7.740  0.00  0.00     0.048 H 
ATOM     37  C   LIG d   1       9.419  -0.511  -7.817  0.00  0.00     0.028 C 
ATOM     38  C   LIG d   1      10.242   0.286  -5.649  0.00  0.00     0.212 C 
ATOM     39  C   LIG d   1       7.942  -0.764  -8.135  0.00  0.00     0.015 C 
ATOM     40  H   LIG d   1       9.887  -1.448  -7.480  0.00  0.00     0.048 H 
ATOM     41  H   LIG d   1       9.932  -0.149  -8.720  0.00  0.00     0.048 H 
ATOM     42  H   LIG d   1       7.453  -1.228  -7.266  0.00  0.00     0.044 H 
ATOM     43  H   LIG d   1       7.862  -1.435  -9.003  0.00  0.00     0.044 H 
ATOM     44  O   LIG d   1      10.224   1.089  -4.740  0.00  0.00    -0.276 OA
BRANCH  38  45
ATOM     45  C   LIG d   1      11.093  -0.953  -5.541  0.00  0.00     0.012 C 
ATOM     46  H   LIG d   1      10.527  -1.743  -5.028  0.00  0.00     0.032 H 
ATOM     47  H   LIG d   1      12.005  -0.724  -4.969  0.00  0.00     0.032 H 
ATOM     48  H   LIG d   1      11.370  -1.296  -6.549  0.00  0.00     0.032 H 
ENDBRANCH  38  45
ENDBRANCH  26  29
ENDBRANCH  16  26
BRANCH   1  49
ATOM     49  C   LIG d   1       6.521  -2.407  -3.812  0.00  0.00    -0.040 C 
ATOM     50  H   LIG d   1       6.511  -3.113  -4.656  0.00  0.00     0.028 H 
ATOM     51  H   LIG d   1       6.753  -2.949  -2.883  0.00  0.00     0.028 H 
ATOM     52  H   LIG d   1       7.286  -1.637  -3.988  0.00  0.00     0.028 H 
ENDBRANCH   1  49
BRANCH   5  53
ATOM     53  C   LIG d   1       4.027   1.042  -3.731  0.00  0.00    -0.055 C 
ATOM     54  H   LIG d   1       3.215   1.688  -3.369  0.00  0.00     0.024 H 
ATOM     55  H   LIG d   1       4.707   1.628  -4.367  0.00  0.00     0.024 H 
ATOM     56  H   LIG d   1       4.586   0.638  -2.873  0.00  0.00     0.024 H 
ENDBRANCH   5  53
TORSDOF 5
ENDMDL
