MODEL 1
REMARK VINA RESULT:      -6.1      0.000      0.000
REMARK  21 active torsions:
REMARK  status: ('A' for Active; 'I' for Inactive)
REMARK    1  A    between atoms: C_1  and  C_2 
REMARK    2  A    between atoms: C_2  and  O_4 
REMARK    3  A    between atoms: O_4  and  C_5 
REMARK    4  A    between atoms: C_9  and  C_23 
REMARK    5  A    between atoms: C_11  and  O_19 
REMARK    6  A    between atoms: C_13  and  O_15 
REMARK    7  A    between atoms: O_15  and  C_16 
REMARK    8  A    between atoms: C_16  and  C_18 
REMARK    9  A    between atoms: O_19  and  C_20 
REMARK   10  A    between atoms: C_20  and  C_22 
REMARK   11  A    between atoms: C_24  and  O_59 
REMARK   12  A    between atoms: C_28  and  O_29 
REMARK   13  A    between atoms: O_29  and  C_30 
REMARK   14  A    between atoms: C_34  and  C_36 
REMARK   15  A    between atoms: C_39  and  O_42 
REMARK   16  A    between atoms: O_42  and  C_43 
REMARK   17  A    between atoms: C_45  and  O_58 
REMARK   18  A    between atoms: C_47  and  O_57 
REMARK   19  A    between atoms: C_49  and  O_56 
REMARK   20  A    between atoms: C_51  and  C_54 
REMARK   21  A    between atoms: C_54  and  O_55 
ROOT
ATOM      1  C   LIG d   1       6.688  -3.722  -6.828  0.00  0.00     0.069 A 
ATOM      2  C   LIG d   1       7.718  -3.265  -6.011  0.00  0.00     0.130 A 
ATOM      3  C   LIG d   1       8.328  -4.115  -5.101  0.00  0.00     0.024 A 
ATOM      4  C   LIG d   1       7.913  -5.434  -4.998  0.00  0.00     0.146 A 
ATOM      5  C   LIG d   1       6.874  -5.898  -5.822  0.00  0.00     0.106 A 
ATOM      6  C   LIG d   1       6.258  -5.033  -6.734  0.00  0.00     0.144 A 
ATOM      7  C   LIG d   1       6.450  -7.302  -5.694  0.00  0.00     0.197 A 
ATOM      8  O   LIG d   1       5.553  -7.759  -6.385  0.00  0.00    -0.287 OA
ATOM      9  C   LIG d   1       7.125  -8.102  -4.741  0.00  0.00     0.029 A 
ATOM     10  C   LIG d   1       8.119  -7.556  -3.992  0.00  0.00     0.139 A 
ATOM     11  O   LIG d   1       8.497  -6.274  -4.117  0.00  0.00    -0.454 OA
ATOM     12  H   LIG d   1       9.126  -3.749  -4.473  0.00  0.00     0.069 H 
ATOM     13  H   LIG d   1       6.851  -9.138  -4.610  0.00  0.00     0.069 H 
ENDROOT
BRANCH   1  14
ATOM     14  C   LIG d   1       6.037  -2.784  -7.811  0.00  0.00     0.131 C 
ATOM     15  O   LIG d   1       7.022  -2.283  -8.717  0.00  0.00    -0.364 OA
ATOM     16  C   LIG d   1       6.503  -1.400  -9.713  0.00  0.00     0.089 C 
ATOM     17  C   LIG d   1       5.883  -0.175  -9.035  0.00  0.00     0.166 C 
ATOM     18  H   LIG d   1       5.740  -1.917 -10.296  0.00  0.00     0.060 H 
ATOM     19  H   LIG d   1       7.310  -1.081 -10.372  0.00  0.00     0.060 H 
ATOM     20  H   LIG d   1       6.655   0.365  -8.486  0.00  0.00     0.080 H 
ATOM     21  C   LIG d   1       4.791  -0.635  -8.064  0.00  0.00     0.181 C 
ATOM     22  C   LIG d   1       5.399  -1.615  -7.056  0.00  0.00     0.173 C 
ATOM     23  H   LIG d   1       4.385   0.227  -7.536  0.00  0.00     0.081 H 
ATOM     24  H   LIG d   1       6.159  -1.104  -6.466  0.00  0.00     0.080 H 
ATOM     25  H   LIG d   1       5.268  -3.319  -8.368  0.00  0.00     0.069 H 
BRANCH  17  26
ATOM     26  O   LIG d   1       5.313   0.682 -10.025  0.00  0.00    -0.455 OA
BRANCH  26  27
ATOM     27  C   LIG d   1       5.027   1.939  -9.652  0.00  0.00     0.304 C 
ATOM     28  O   LIG d   1       5.902   2.655  -9.225  0.00  0.00    -0.251 OA
BRANCH  27  29
ATOM     29  C   LIG d   1       3.617   2.458  -9.766  0.00  0.00     0.033 C 
ATOM     30  H   LIG d   1       2.926   1.618  -9.838  0.00  0.00     0.034 H 
ATOM     31  H   LIG d   1       3.376   3.053  -8.886  0.00  0.00     0.034 H 
ATOM     32  H   LIG d   1       3.530   3.078 -10.659  0.00  0.00     0.034 H 
ENDBRANCH  27  29
ENDBRANCH  26  27
ENDBRANCH  17  26
BRANCH  21  33
ATOM     33  O   LIG d   1       3.748  -1.286  -8.793  0.00  0.00    -0.454 OA
BRANCH  33  34
ATOM     34  C   LIG d   1       2.522  -0.744  -8.718  0.00  0.00     0.304 C 
ATOM     35  O   LIG d   1       2.187  -0.144  -7.723  0.00  0.00    -0.251 OA
BRANCH  34  36
ATOM     36  C   LIG d   1       1.565  -0.881  -9.874  0.00  0.00     0.033 C 
ATOM     37  H   LIG d   1       2.115  -1.176 -10.768  0.00  0.00     0.034 H 
ATOM     38  H   LIG d   1       0.819  -1.640  -9.639  0.00  0.00     0.034 H 
ATOM     39  H   LIG d   1       1.070   0.073 -10.051  0.00  0.00     0.034 H 
ENDBRANCH  34  36
ENDBRANCH  33  34
ENDBRANCH  21  33
BRANCH  22  40
ATOM     40  O   LIG d   1       4.374  -2.108  -6.190  0.00  0.00    -0.455 OA
BRANCH  40  41
ATOM     41  C   LIG d   1       4.387  -1.672  -4.920  0.00  0.00     0.304 C 
ATOM     42  O   LIG d   1       4.108  -0.523  -4.673  0.00  0.00    -0.251 OA
BRANCH  41  43
ATOM     43  C   LIG d   1       4.748  -2.616  -3.803  0.00  0.00     0.033 C 
ATOM     44  H   LIG d   1       5.164  -3.532  -4.222  0.00  0.00     0.034 H 
ATOM     45  H   LIG d   1       5.485  -2.146  -3.153  0.00  0.00     0.034 H 
ATOM     46  H   LIG d   1       3.855  -2.855  -3.226  0.00  0.00     0.034 H 
ENDBRANCH  41  43
ENDBRANCH  40  41
ENDBRANCH  22  40
ENDBRANCH   1  14
BRANCH   6  47
ATOM     47  O   LIG d   1       5.249  -5.478  -7.526  0.00  0.00    -0.494 OA
BRANCH  47  48
ATOM     48  C   LIG d   1       3.916  -5.195  -7.100  0.00  0.00     0.079 C 
ATOM     49  H   LIG d   1       3.407  -6.127  -6.853  0.00  0.00     0.066 H 
ATOM     50  H   LIG d   1       3.945  -4.553  -6.219  0.00  0.00     0.066 H 
ATOM     51  H   LIG d   1       3.378  -4.688  -7.901  0.00  0.00     0.066 H 
ENDBRANCH  47  48
ENDBRANCH   6  47
BRANCH   2  52
ATOM     52  O   LIG d   1       8.130  -1.975  -6.107  0.00  0.00    -0.506 OA
ATOM     53  H   LIG d   1       7.494  -1.332  -5.762  0.00  0.00     0.292 HD
ENDBRANCH   2  52
BRANCH  10  54
ATOM     54  C   LIG d   1       8.811  -8.406  -3.004  0.00  0.00     0.018 A 
ATOM     55  C   LIG d   1       8.082  -9.047  -1.999  0.00  0.00    -0.048 A 
ATOM     56  C   LIG d   1       8.731  -9.845  -1.082  0.00  0.00    -0.019 A 
ATOM     57  H   LIG d   1       7.011  -8.920  -1.943  0.00  0.00     0.063 H 
ATOM     58  C   LIG d   1      10.110 -10.003  -1.150  0.00  0.00     0.124 A 
ATOM     59  H   LIG d   1       8.168 -10.345  -0.308  0.00  0.00     0.065 H 
ATOM     60  C   LIG d   1      10.839  -9.363  -2.144  0.00  0.00    -0.019 A 
ATOM     61  C   LIG d   1      10.197  -8.569  -3.069  0.00  0.00    -0.048 A 
ATOM     62  H   LIG d   1      11.911  -9.489  -2.193  0.00  0.00     0.065 H 
ATOM     63  H   LIG d   1      10.766  -8.072  -3.842  0.00  0.00     0.063 H 
BRANCH  58  64
ATOM     64  O   LIG d   1      10.747 -10.785  -0.241  0.00  0.00    -0.461 OA
BRANCH  64  65
ATOM     65  C   LIG d   1      10.601 -10.432   1.136  0.00  0.00     0.231 C 
ATOM     66  H   LIG d   1       9.542 -10.326   1.373  0.00  0.00     0.108 H 
ATOM     67  O   LIG d   1      11.173 -11.455   1.953  0.00  0.00    -0.331 OA
ATOM     68  C   LIG d   1      11.058 -11.213   3.357  0.00  0.00     0.114 C 
ATOM     69  C   LIG d   1      11.794  -9.919   3.712  0.00  0.00     0.112 C 
ATOM     70  H   LIG d   1      10.005 -11.117   3.624  0.00  0.00     0.065 H 
ATOM     71  C   LIG d   1      11.209  -8.766   2.891  0.00  0.00     0.115 C 
ATOM     72  H   LIG d   1      11.670  -9.710   4.775  0.00  0.00     0.065 H 
ATOM     73  C   LIG d   1      11.318  -9.107   1.402  0.00  0.00     0.145 C 
ATOM     74  H   LIG d   1      10.161  -8.624   3.157  0.00  0.00     0.065 H 
ATOM     75  H   LIG d   1      10.855  -8.316   0.813  0.00  0.00     0.068 H 
BRANCH  68  76
ATOM     76  C   LIG d   1      11.676 -12.381   4.128  0.00  0.00     0.073 C 
ATOM     77  H   LIG d   1      11.870 -13.206   3.444  0.00  0.00     0.058 H 
ATOM     78  H   LIG d   1      12.612 -12.059   4.586  0.00  0.00     0.058 H 
BRANCH  76  79
ATOM     79  O   LIG d   1      10.772 -12.811   5.148  0.00  0.00    -0.392 OA
ATOM     80  H   LIG d   1      10.163 -13.507   4.866  0.00  0.00     0.209 HD
ENDBRANCH  76  79
ENDBRANCH  68  76
BRANCH  69  81
ATOM     81  O   LIG d   1      13.184 -10.062   3.413  0.00  0.00    -0.387 OA
ATOM     82  H   LIG d   1      13.653  -9.223   3.311  0.00  0.00     0.210 HD
ENDBRANCH  69  81
BRANCH  71  83
ATOM     83  O   LIG d   1      11.938  -7.566   3.162  0.00  0.00    -0.386 OA
ATOM     84  H   LIG d   1      12.836  -7.563   2.804  0.00  0.00     0.210 HD
ENDBRANCH  71  83
BRANCH  73  85
ATOM     85  O   LIG d   1      12.696  -9.229   1.039  0.00  0.00    -0.383 OA
ATOM     86  H   LIG d   1      13.200  -8.408   1.127  0.00  0.00     0.210 HD
ENDBRANCH  73  85
ENDBRANCH  64  65
ENDBRANCH  58  64
ENDBRANCH  10  54
TORSDOF 21
ENDMDL
MODEL 2
REMARK VINA RESULT:      -6.1      8.071     12.050
REMARK  21 active torsions:
REMARK  status: ('A' for Active; 'I' for Inactive)
REMARK    1  A    between atoms: C_1  and  C_2 
REMARK    2  A    between atoms: C_2  and  O_4 
REMARK    3  A    between atoms: O_4  and  C_5 
REMARK    4  A    between atoms: C_9  and  C_23 
REMARK    5  A    between atoms: C_11  and  O_19 
REMARK    6  A    between atoms: C_13  and  O_15 
REMARK    7  A    between atoms: O_15  and  C_16 
REMARK    8  A    between atoms: C_16  and  C_18 
REMARK    9  A    between atoms: O_19  and  C_20 
REMARK   10  A    between atoms: C_20  and  C_22 
REMARK   11  A    between atoms: C_24  and  O_59 
REMARK   12  A    between atoms: C_28  and  O_29 
REMARK   13  A    between atoms: O_29  and  C_30 
REMARK   14  A    between atoms: C_34  and  C_36 
REMARK   15  A    between atoms: C_39  and  O_42 
REMARK   16  A    between atoms: O_42  and  C_43 
REMARK   17  A    between atoms: C_45  and  O_58 
REMARK   18  A    between atoms: C_47  and  O_57 
REMARK   19  A    between atoms: C_49  and  O_56 
REMARK   20  A    between atoms: C_51  and  C_54 
REMARK   21  A    between atoms: C_54  and  O_55 
ROOT
ATOM      1  C   LIG d   1       6.862  -0.233  -7.975  0.00  0.00     0.069 A 
ATOM      2  C   LIG d   1       7.537   0.768  -8.668  0.00  0.00     0.130 A 
ATOM      3  C   LIG d   1       8.185   1.785  -7.986  0.00  0.00     0.024 A 
ATOM      4  C   LIG d   1       8.165   1.815  -6.601  0.00  0.00     0.146 A 
ATOM      5  C   LIG d   1       7.484   0.806  -5.898  0.00  0.00     0.106 A 
ATOM      6  C   LIG d   1       6.826  -0.216  -6.593  0.00  0.00     0.144 A 
ATOM      7  C   LIG d   1       7.477   0.858  -4.426  0.00  0.00     0.197 A 
ATOM      8  O   LIG d   1       6.901   0.008  -3.765  0.00  0.00    -0.287 OA
ATOM      9  C   LIG d   1       8.162   1.931  -3.809  0.00  0.00     0.029 A 
ATOM     10  C   LIG d   1       8.791   2.857  -4.580  0.00  0.00     0.139 A 
ATOM     11  O   LIG d   1       8.791   2.799  -5.922  0.00  0.00    -0.454 OA
ATOM     12  H   LIG d   1       8.706   2.556  -8.535  0.00  0.00     0.069 H 
ATOM     13  H   LIG d   1       8.185   2.013  -2.732  0.00  0.00     0.069 H 
ENDROOT
BRANCH   1  14
ATOM     14  C   LIG d   1       6.163  -1.332  -8.733  0.00  0.00     0.131 C 
ATOM     15  O   LIG d   1       7.127  -2.100  -9.456  0.00  0.00    -0.364 OA
ATOM     16  C   LIG d   1       6.570  -3.191 -10.192  0.00  0.00     0.089 C 
ATOM     17  C   LIG d   1       5.584  -2.652 -11.233  0.00  0.00     0.166 C 
ATOM     18  H   LIG d   1       6.047  -3.862  -9.509  0.00  0.00     0.060 H 
ATOM     19  H   LIG d   1       7.368  -3.734 -10.696  0.00  0.00     0.060 H 
ATOM     20  H   LIG d   1       6.115  -2.015 -11.940  0.00  0.00     0.080 H 
ATOM     21  C   LIG d   1       4.498  -1.837 -10.523  0.00  0.00     0.181 C 
ATOM     22  C   LIG d   1       5.161  -0.718  -9.715  0.00  0.00     0.173 C 
ATOM     23  H   LIG d   1       3.826  -1.404 -11.263  0.00  0.00     0.081 H 
ATOM     24  H   LIG d   1       5.682  -0.041 -10.390  0.00  0.00     0.080 H 
ATOM     25  H   LIG d   1       5.635  -1.977  -8.031  0.00  0.00     0.069 H 
BRANCH  17  26
ATOM     26  O   LIG d   1       4.983  -3.744 -11.931  0.00  0.00    -0.455 OA
BRANCH  26  27
ATOM     27  C   LIG d   1       4.596  -3.519 -13.197  0.00  0.00     0.304 C 
ATOM     28  O   LIG d   1       5.423  -3.304 -14.051  0.00  0.00    -0.251 OA
BRANCH  27  29
ATOM     29  C   LIG d   1       3.131  -3.535 -13.551  0.00  0.00     0.033 C 
ATOM     30  H   LIG d   1       2.543  -3.262 -12.676  0.00  0.00     0.034 H 
ATOM     31  H   LIG d   1       2.943  -2.820 -14.352  0.00  0.00     0.034 H 
ATOM     32  H   LIG d   1       2.849  -4.535 -13.882  0.00  0.00     0.034 H 
ENDBRANCH  27  29
ENDBRANCH  26  27
ENDBRANCH  17  26
BRANCH  21  33
ATOM     33  O   LIG d   1       3.760  -2.688  -9.644  0.00  0.00    -0.454 OA
BRANCH  33  34
ATOM     34  C   LIG d   1       2.473  -2.916  -9.955  0.00  0.00     0.304 C 
ATOM     35  O   LIG d   1       2.060  -4.050 -10.022  0.00  0.00    -0.251 OA
BRANCH  34  36
ATOM     36  C   LIG d   1       1.545  -1.758 -10.217  0.00  0.00     0.033 C 
ATOM     37  H   LIG d   1       1.417  -1.632 -11.293  0.00  0.00     0.034 H 
ATOM     38  H   LIG d   1       0.578  -1.956  -9.756  0.00  0.00     0.034 H 
ATOM     39  H   LIG d   1       1.971  -0.848  -9.794  0.00  0.00     0.034 H 
ENDBRANCH  34  36
ENDBRANCH  33  34
ENDBRANCH  21  33
BRANCH  22  40
ATOM     40  O   LIG d   1       4.163   0.005  -8.989  0.00  0.00    -0.455 OA
BRANCH  40  41
ATOM     41  C   LIG d   1       3.935   1.272  -9.366  0.00  0.00     0.304 C 
ATOM     42  O   LIG d   1       4.623   1.784 -10.217  0.00  0.00    -0.251 OA
BRANCH  41  43
ATOM     43  C   LIG d   1       2.819   2.058  -8.727  0.00  0.00     0.033 C 
ATOM     44  H   LIG d   1       2.095   1.371  -8.290  0.00  0.00     0.034 H 
ATOM     45  H   LIG d   1       3.227   2.701  -7.947  0.00  0.00     0.034 H 
ATOM     46  H   LIG d   1       2.327   2.671  -9.482  0.00  0.00     0.034 H 
ENDBRANCH  41  43
ENDBRANCH  40  41
ENDBRANCH  22  40
ENDBRANCH   1  14
BRANCH   6  47
ATOM     47  O   LIG d   1       6.164  -1.188  -5.915  0.00  0.00    -0.494 OA
BRANCH  47  48
ATOM     48  C   LIG d   1       4.748  -1.043  -5.793  0.00  0.00     0.079 C 
ATOM     49  H   LIG d   1       4.434  -1.365  -4.800  0.00  0.00     0.066 H 
ATOM     50  H   LIG d   1       4.476   0.003  -5.938  0.00  0.00     0.066 H 
ATOM     51  H   LIG d   1       4.253  -1.655  -6.547  0.00  0.00     0.066 H 
ENDBRANCH  47  48
ENDBRANCH   6  47
BRANCH   2  52
ATOM     52  O   LIG d   1       7.561   0.745 -10.025  0.00  0.00    -0.506 OA
ATOM     53  H   LIG d   1       8.376   0.378 -10.398  0.00  0.00     0.292 HD
ENDBRANCH   2  52
BRANCH  10  54
ATOM     54  C   LIG d   1       9.501   3.968  -3.918  0.00  0.00     0.018 A 
ATOM     55  C   LIG d   1      10.121   3.765  -2.682  0.00  0.00    -0.048 A 
ATOM     56  C   LIG d   1      10.789   4.804  -2.070  0.00  0.00    -0.019 A 
ATOM     57  H   LIG d   1      10.080   2.795  -2.208  0.00  0.00     0.063 H 
ATOM     58  C   LIG d   1      10.835   6.054  -2.675  0.00  0.00     0.124 A 
ATOM     59  H   LIG d   1      11.272   4.647  -1.117  0.00  0.00     0.065 H 
ATOM     60  C   LIG d   1      10.215   6.261  -3.901  0.00  0.00    -0.019 A 
ATOM     61  C   LIG d   1       9.552   5.226  -4.523  0.00  0.00    -0.048 A 
ATOM     62  H   LIG d   1      10.255   7.234  -4.368  0.00  0.00     0.065 H 
ATOM     63  H   LIG d   1       9.071   5.388  -5.477  0.00  0.00     0.063 H 
BRANCH  58  64
ATOM     64  O   LIG d   1      11.489   7.076  -2.066  0.00  0.00    -0.461 OA
BRANCH  64  65
ATOM     65  C   LIG d   1      10.764   7.818  -1.084  0.00  0.00     0.231 C 
ATOM     66  H   LIG d   1      10.284   7.128  -0.389  0.00  0.00     0.108 H 
ATOM     67  O   LIG d   1      11.663   8.666  -0.367  0.00  0.00    -0.331 OA
ATOM     68  C   LIG d   1      11.042   9.438   0.663  0.00  0.00     0.114 C 
ATOM     69  C   LIG d   1       9.986  10.358   0.043  0.00  0.00     0.112 C 
ATOM     70  H   LIG d   1      10.565   8.769   1.380  0.00  0.00     0.065 H 
ATOM     71  C   LIG d   1       8.965   9.509  -0.719  0.00  0.00     0.115 C 
ATOM     72  H   LIG d   1       9.481  10.915   0.832  0.00  0.00     0.065 H 
ATOM     73  C   LIG d   1       9.697   8.672  -1.773  0.00  0.00     0.145 C 
ATOM     74  H   LIG d   1       8.448   8.848  -0.023  0.00  0.00     0.065 H 
ATOM     75  H   LIG d   1       8.984   8.025  -2.283  0.00  0.00     0.068 H 
BRANCH  68  76
ATOM     76  C   LIG d   1      12.100  10.282   1.376  0.00  0.00     0.073 C 
ATOM     77  H   LIG d   1      12.538   9.704   2.189  0.00  0.00     0.058 H 
ATOM     78  H   LIG d   1      12.879  10.562   0.667  0.00  0.00     0.058 H 
BRANCH  76  79
ATOM     79  O   LIG d   1      11.492  11.461   1.905  0.00  0.00    -0.392 OA
ATOM     80  H   LIG d   1      12.034  12.257   1.817  0.00  0.00     0.209 HD
ENDBRANCH  76  79
ENDBRANCH  68  76
BRANCH  69  81
ATOM     81  O   LIG d   1      10.617  11.271  -0.857  0.00  0.00    -0.387 OA
ATOM     82  H   LIG d   1      10.936  10.861  -1.673  0.00  0.00     0.210 HD
ENDBRANCH  69  81
BRANCH  71  83
ATOM     83  O   LIG d   1       8.016  10.363  -1.362  0.00  0.00    -0.386 OA
ATOM     84  H   LIG d   1       7.771  11.140  -0.841  0.00  0.00     0.210 HD
ENDBRANCH  71  83
BRANCH  73  85
ATOM     85  O   LIG d   1      10.321   9.539  -2.723  0.00  0.00    -0.383 OA
ATOM     86  H   LIG d   1      11.281   9.432  -2.782  0.00  0.00     0.210 HD
ENDBRANCH  73  85
ENDBRANCH  64  65
ENDBRANCH  58  64
ENDBRANCH  10  54
TORSDOF 21
ENDMDL
MODEL 3
REMARK VINA RESULT:      -6.0      9.049     12.793
REMARK  21 active torsions:
REMARK  status: ('A' for Active; 'I' for Inactive)
REMARK    1  A    between atoms: C_1  and  C_2 
REMARK    2  A    between atoms: C_2  and  O_4 
REMARK    3  A    between atoms: O_4  and  C_5 
REMARK    4  A    between atoms: C_9  and  C_23 
REMARK    5  A    between atoms: C_11  and  O_19 
REMARK    6  A    between atoms: C_13  and  O_15 
REMARK    7  A    between atoms: O_15  and  C_16 
REMARK    8  A    between atoms: C_16  and  C_18 
REMARK    9  A    between atoms: O_19  and  C_20 
REMARK   10  A    between atoms: C_20  and  C_22 
REMARK   11  A    between atoms: C_24  and  O_59 
REMARK   12  A    between atoms: C_28  and  O_29 
REMARK   13  A    between atoms: O_29  and  C_30 
REMARK   14  A    between atoms: C_34  and  C_36 
REMARK   15  A    between atoms: C_39  and  O_42 
REMARK   16  A    between atoms: O_42  and  C_43 
REMARK   17  A    between atoms: C_45  and  O_58 
REMARK   18  A    between atoms: C_47  and  O_57 
REMARK   19  A    between atoms: C_49  and  O_56 
REMARK   20  A    between atoms: C_51  and  C_54 
REMARK   21  A    between atoms: C_54  and  O_55 
ROOT
ATOM      1  C   LIG d   1      11.346   6.359  -3.053  0.00  0.00     0.069 A 
ATOM      2  C   LIG d   1      11.299   5.546  -1.924  0.00  0.00     0.130 A 
ATOM      3  C   LIG d   1      10.688   4.303  -1.974  0.00  0.00     0.024 A 
ATOM      4  C   LIG d   1      10.113   3.859  -3.155  0.00  0.00     0.146 A 
ATOM      5  C   LIG d   1      10.158   4.678  -4.296  0.00  0.00     0.106 A 
ATOM      6  C   LIG d   1      10.773   5.935  -4.238  0.00  0.00     0.144 A 
ATOM      7  C   LIG d   1       9.542   4.185  -5.539  0.00  0.00     0.197 A 
ATOM      8  O   LIG d   1       9.552   4.854  -6.560  0.00  0.00    -0.287 OA
ATOM      9  C   LIG d   1       8.938   2.906  -5.504  0.00  0.00     0.029 A 
ATOM     10  C   LIG d   1       8.948   2.192  -4.347  0.00  0.00     0.139 A 
ATOM     11  O   LIG d   1       9.514   2.651  -3.219  0.00  0.00    -0.454 OA
ATOM     12  H   LIG d   1      10.658   3.681  -1.092  0.00  0.00     0.069 H 
ATOM     13  H   LIG d   1       8.473   2.500  -6.390  0.00  0.00     0.069 H 
ENDROOT
BRANCH   1  14
ATOM     14  C   LIG d   1      12.015   7.708  -2.980  0.00  0.00     0.131 C 
ATOM     15  O   LIG d   1      13.403   7.535  -2.689  0.00  0.00    -0.364 OA
ATOM     16  C   LIG d   1      14.141   8.757  -2.624  0.00  0.00     0.089 C 
ATOM     17  C   LIG d   1      13.574   9.636  -1.505  0.00  0.00     0.166 C 
ATOM     18  H   LIG d   1      14.059   9.283  -3.576  0.00  0.00     0.060 H 
ATOM     19  H   LIG d   1      15.188   8.539  -2.419  0.00  0.00     0.060 H 
ATOM     20  H   LIG d   1      13.695   9.128  -0.548  0.00  0.00     0.080 H 
ATOM     21  C   LIG d   1      12.086   9.889  -1.768  0.00  0.00     0.181 C 
ATOM     22  C   LIG d   1      11.362   8.544  -1.876  0.00  0.00     0.173 C 
ATOM     23  H   LIG d   1      11.664  10.466  -0.946  0.00  0.00     0.081 H 
ATOM     24  H   LIG d   1      11.436   8.013  -0.927  0.00  0.00     0.080 H 
ATOM     25  H   LIG d   1      11.904   8.219  -3.937  0.00  0.00     0.069 H 
BRANCH  17  26
ATOM     26  O   LIG d   1      14.273  10.882  -1.476  0.00  0.00    -0.455 OA
BRANCH  26  27
ATOM     27  C   LIG d   1      14.375  11.495  -0.286  0.00  0.00     0.304 C 
ATOM     28  O   LIG d   1      13.841  12.565  -0.110  0.00  0.00    -0.251 OA
BRANCH  27  29
ATOM     29  C   LIG d   1      15.157  10.850   0.829  0.00  0.00     0.033 C 
ATOM     30  H   LIG d   1      15.418   9.830   0.547  0.00  0.00     0.034 H 
ATOM     31  H   LIG d   1      16.066  11.421   1.013  0.00  0.00     0.034 H 
ATOM     32  H   LIG d   1      14.549  10.832   1.734  0.00  0.00     0.034 H 
ENDBRANCH  27  29
ENDBRANCH  26  27
ENDBRANCH  17  26
BRANCH  21  33
ATOM     33  O   LIG d   1      11.933  10.612  -2.991  0.00  0.00    -0.454 OA
BRANCH  33  34
ATOM     34  C   LIG d   1      11.103  11.668  -2.974  0.00  0.00     0.304 C 
ATOM     35  O   LIG d   1      11.182  12.485  -2.087  0.00  0.00    -0.251 OA
BRANCH  34  36
ATOM     36  C   LIG d   1      10.073  11.833  -4.062  0.00  0.00     0.033 C 
ATOM     37  H   LIG d   1       9.710  12.861  -4.065  0.00  0.00     0.034 H 
ATOM     38  H   LIG d   1      10.525  11.604  -5.027  0.00  0.00     0.034 H 
ATOM     39  H   LIG d   1       9.240  11.154  -3.880  0.00  0.00     0.034 H 
ENDBRANCH  34  36
ENDBRANCH  33  34
ENDBRANCH  21  33
BRANCH  22  40
ATOM     40  O   LIG d   1       9.986   8.764  -2.194  0.00  0.00    -0.455 OA
BRANCH  40  41
ATOM     41  C   LIG d   1       9.111   8.716  -1.177  0.00  0.00     0.304 C 
ATOM     42  O   LIG d   1       8.611   7.664  -0.859  0.00  0.00    -0.251 OA
BRANCH  41  43
ATOM     43  C   LIG d   1       8.752   9.976  -0.433  0.00  0.00     0.033 C 
ATOM     44  H   LIG d   1       8.107  10.595  -1.055  0.00  0.00     0.034 H 
ATOM     45  H   LIG d   1       8.229   9.717   0.488  0.00  0.00     0.034 H 
ATOM     46  H   LIG d   1       9.661  10.527  -0.192  0.00  0.00     0.034 H 
ENDBRANCH  41  43
ENDBRANCH  40  41
ENDBRANCH  22  40
ENDBRANCH   1  14
BRANCH   6  47
ATOM     47  O   LIG d   1      10.812   6.730  -5.338  0.00  0.00    -0.494 OA
BRANCH  47  48
ATOM     48  C   LIG d   1       9.836   7.770  -5.421  0.00  0.00     0.079 C 
ATOM     49  H   LIG d   1      10.204   8.561  -6.075  0.00  0.00     0.066 H 
ATOM     50  H   LIG d   1       8.908   7.367  -5.826  0.00  0.00     0.066 H 
ATOM     51  H   LIG d   1       9.652   8.176  -4.427  0.00  0.00     0.066 H 
ENDBRANCH  47  48
ENDBRANCH   6  47
BRANCH   2  52
ATOM     52  O   LIG d   1      11.860   5.974  -0.765  0.00  0.00    -0.506 OA
ATOM     53  H   LIG d   1      12.712   5.562  -0.564  0.00  0.00     0.292 HD
ENDBRANCH   2  52
BRANCH  10  54
ATOM     54  C   LIG d   1       8.314   0.860  -4.330  0.00  0.00     0.018 A 
ATOM     55  C   LIG d   1       8.840  -0.177  -5.108  0.00  0.00    -0.048 A 
ATOM     56  C   LIG d   1       8.249  -1.421  -5.084  0.00  0.00    -0.019 A 
ATOM     57  H   LIG d   1       9.711  -0.003  -5.723  0.00  0.00     0.063 H 
ATOM     58  C   LIG d   1       7.124  -1.642  -4.298  0.00  0.00     0.124 A 
ATOM     59  H   LIG d   1       8.657  -2.223  -5.680  0.00  0.00     0.065 H 
ATOM     60  C   LIG d   1       6.595  -0.614  -3.529  0.00  0.00    -0.019 A 
ATOM     61  C   LIG d   1       7.184   0.631  -3.541  0.00  0.00    -0.048 A 
ATOM     62  H   LIG d   1       5.721  -0.791  -2.918  0.00  0.00     0.065 H 
ATOM     63  H   LIG d   1       6.772   1.430  -2.941  0.00  0.00     0.063 H 
BRANCH  58  64
ATOM     64  O   LIG d   1       6.541  -2.868  -4.282  0.00  0.00    -0.461 OA
BRANCH  64  65
ATOM     65  C   LIG d   1       6.188  -3.436  -5.545  0.00  0.00     0.231 C 
ATOM     66  H   LIG d   1       7.021  -3.323  -6.240  0.00  0.00     0.108 H 
ATOM     67  O   LIG d   1       5.894  -4.825  -5.378  0.00  0.00    -0.331 OA
ATOM     68  C   LIG d   1       5.552  -5.499  -6.590  0.00  0.00     0.114 C 
ATOM     69  C   LIG d   1       4.295  -4.863  -7.189  0.00  0.00     0.112 C 
ATOM     70  H   LIG d   1       6.376  -5.413  -7.299  0.00  0.00     0.065 H 
ATOM     71  C   LIG d   1       4.550  -3.372  -7.426  0.00  0.00     0.115 C 
ATOM     72  H   LIG d   1       4.058  -5.348  -8.137  0.00  0.00     0.065 H 
ATOM     73  C   LIG d   1       4.958  -2.718  -6.103  0.00  0.00     0.145 C 
ATOM     74  H   LIG d   1       5.352  -3.250  -8.155  0.00  0.00     0.065 H 
ATOM     75  H   LIG d   1       5.193  -1.668  -6.273  0.00  0.00     0.068 H 
BRANCH  68  76
ATOM     76  C   LIG d   1       5.286  -6.977  -6.294  0.00  0.00     0.073 C 
ATOM     77  H   LIG d   1       4.750  -7.423  -7.131  0.00  0.00     0.058 H 
ATOM     78  H   LIG d   1       6.235  -7.495  -6.152  0.00  0.00     0.058 H 
BRANCH  76  79
ATOM     79  O   LIG d   1       4.499  -7.092  -5.108  0.00  0.00    -0.392 OA
ATOM     80  H   LIG d   1       4.380  -8.000  -4.800  0.00  0.00     0.209 HD
ENDBRANCH  76  79
ENDBRANCH  68  76
BRANCH  69  81
ATOM     81  O   LIG d   1       3.200  -5.024  -6.285  0.00  0.00    -0.387 OA
ATOM     82  H   LIG d   1       2.406  -4.534  -6.538  0.00  0.00     0.210 HD
ENDBRANCH  69  81
BRANCH  71  83
ATOM     83  O   LIG d   1       3.358  -2.754  -7.919  0.00  0.00    -0.386 OA
ATOM     84  H   LIG d   1       3.519  -1.987  -8.485  0.00  0.00     0.210 HD
ENDBRANCH  71  83
BRANCH  73  85
ATOM     85  O   LIG d   1       3.881  -2.820  -5.167  0.00  0.00    -0.383 OA
ATOM     86  H   LIG d   1       4.070  -3.393  -4.411  0.00  0.00     0.210 HD
ENDBRANCH  73  85
ENDBRANCH  64  65
ENDBRANCH  58  64
ENDBRANCH  10  54
TORSDOF 21
ENDMDL
MODEL 4
REMARK VINA RESULT:      -6.0      6.309     15.654
REMARK  21 active torsions:
REMARK  status: ('A' for Active; 'I' for Inactive)
REMARK    1  A    between atoms: C_1  and  C_2 
REMARK    2  A    between atoms: C_2  and  O_4 
REMARK    3  A    between atoms: O_4  and  C_5 
REMARK    4  A    between atoms: C_9  and  C_23 
REMARK    5  A    between atoms: C_11  and  O_19 
REMARK    6  A    between atoms: C_13  and  O_15 
REMARK    7  A    between atoms: O_15  and  C_16 
REMARK    8  A    between atoms: C_16  and  C_18 
REMARK    9  A    between atoms: O_19  and  C_20 
REMARK   10  A    between atoms: C_20  and  C_22 
REMARK   11  A    between atoms: C_24  and  O_59 
REMARK   12  A    between atoms: C_28  and  O_29 
REMARK   13  A    between atoms: O_29  and  C_30 
REMARK   14  A    between atoms: C_34  and  C_36 
REMARK   15  A    between atoms: C_39  and  O_42 
REMARK   16  A    between atoms: O_42  and  C_43 
REMARK   17  A    between atoms: C_45  and  O_58 
REMARK   18  A    between atoms: C_47  and  O_57 
REMARK   19  A    between atoms: C_49  and  O_56 
REMARK   20  A    between atoms: C_51  and  C_54 
REMARK   21  A    between atoms: C_54  and  O_55 
ROOT
ATOM      1  C   LIG d   1       7.191   0.283  -6.861  0.00  0.00     0.069 A 
ATOM      2  C   LIG d   1       6.585   0.503  -8.095  0.00  0.00     0.130 A 
ATOM      3  C   LIG d   1       6.911   1.615  -8.855  0.00  0.00     0.024 A 
ATOM      4  C   LIG d   1       7.848   2.524  -8.387  0.00  0.00     0.146 A 
ATOM      5  C   LIG d   1       8.462   2.305  -7.142  0.00  0.00     0.106 A 
ATOM      6  C   LIG d   1       8.123   1.182  -6.377  0.00  0.00     0.144 A 
ATOM      7  C   LIG d   1       9.454   3.284  -6.667  0.00  0.00     0.197 A 
ATOM      8  O   LIG d   1      10.018   3.144  -5.593  0.00  0.00    -0.287 OA
ATOM      9  C   LIG d   1       9.729   4.392  -7.503  0.00  0.00     0.029 A 
ATOM     10  C   LIG d   1       9.079   4.512  -8.691  0.00  0.00     0.139 A 
ATOM     11  O   LIG d   1       8.176   3.613  -9.115  0.00  0.00    -0.454 OA
ATOM     12  H   LIG d   1       6.434   1.775  -9.810  0.00  0.00     0.069 H 
ATOM     13  H   LIG d   1      10.448   5.137  -7.199  0.00  0.00     0.069 H 
ENDROOT
BRANCH   1  14
ATOM     14  C   LIG d   1       6.824  -0.932  -6.050  0.00  0.00     0.131 C 
ATOM     15  O   LIG d   1       7.392  -2.096  -6.652  0.00  0.00    -0.364 OA
ATOM     16  C   LIG d   1       7.126  -3.308  -5.942  0.00  0.00     0.089 C 
ATOM     17  C   LIG d   1       5.615  -3.547  -5.891  0.00  0.00     0.166 C 
ATOM     18  H   LIG d   1       7.516  -3.229  -4.927  0.00  0.00     0.060 H 
ATOM     19  H   LIG d   1       7.608  -4.141  -6.453  0.00  0.00     0.060 H 
ATOM     20  H   LIG d   1       5.231  -3.668  -6.904  0.00  0.00     0.080 H 
ATOM     21  C   LIG d   1       4.937  -2.344  -5.227  0.00  0.00     0.181 C 
ATOM     22  C   LIG d   1       5.300  -1.074  -6.002  0.00  0.00     0.173 C 
ATOM     23  H   LIG d   1       3.856  -2.482  -5.239  0.00  0.00     0.081 H 
ATOM     24  H   LIG d   1       4.910  -1.144  -7.018  0.00  0.00     0.080 H 
ATOM     25  H   LIG d   1       7.210  -0.820  -5.036  0.00  0.00     0.069 H 
BRANCH  17  26
ATOM     26  O   LIG d   1       5.343  -4.727  -5.133  0.00  0.00    -0.455 OA
BRANCH  26  27
ATOM     27  C   LIG d   1       4.549  -5.648  -5.703  0.00  0.00     0.304 C 
ATOM     28  O   LIG d   1       3.450  -5.336  -6.097  0.00  0.00    -0.251 OA
BRANCH  27  29
ATOM     29  C   LIG d   1       5.029  -7.069  -5.849  0.00  0.00     0.033 C 
ATOM     30  H   LIG d   1       5.974  -7.190  -5.321  0.00  0.00     0.034 H 
ATOM     31  H   LIG d   1       4.287  -7.748  -5.429  0.00  0.00     0.034 H 
ATOM     32  H   LIG d   1       5.171  -7.296  -6.906  0.00  0.00     0.034 H 
ENDBRANCH  27  29
ENDBRANCH  26  27
ENDBRANCH  17  26
BRANCH  21  33
ATOM     33  O   LIG d   1       5.391  -2.225  -3.877  0.00  0.00    -0.454 OA
BRANCH  33  34
ATOM     34  C   LIG d   1       4.451  -2.170  -2.920  0.00  0.00     0.304 C 
ATOM     35  O   LIG d   1       3.630  -3.053  -2.829  0.00  0.00    -0.251 OA
BRANCH  34  36
ATOM     36  C   LIG d   1       4.419  -1.009  -1.960  0.00  0.00     0.033 C 
ATOM     37  H   LIG d   1       5.218  -0.310  -2.209  0.00  0.00     0.034 H 
ATOM     38  H   LIG d   1       3.457  -0.503  -2.034  0.00  0.00     0.034 H 
ATOM     39  H   LIG d   1       4.561  -1.374  -0.943  0.00  0.00     0.034 H 
ENDBRANCH  34  36
ENDBRANCH  33  34
ENDBRANCH  21  33
BRANCH  22  40
ATOM     40  O   LIG d   1       4.734   0.064  -5.350  0.00  0.00    -0.455 OA
BRANCH  40  41
ATOM     41  C   LIG d   1       3.500   0.433  -5.728  0.00  0.00     0.304 C 
ATOM     42  O   LIG d   1       3.283   0.722  -6.881  0.00  0.00    -0.251 OA
BRANCH  41  43
ATOM     43  C   LIG d   1       2.386   0.484  -4.716  0.00  0.00     0.033 C 
ATOM     44  H   LIG d   1       1.789   1.381  -4.877  0.00  0.00     0.034 H 
ATOM     45  H   LIG d   1       1.754  -0.398  -4.825  0.00  0.00     0.034 H 
ATOM     46  H   LIG d   1       2.808   0.505  -3.711  0.00  0.00     0.034 H 
ENDBRANCH  41  43
ENDBRANCH  40  41
ENDBRANCH  22  40
ENDBRANCH   1  14
BRANCH   6  47
ATOM     47  O   LIG d   1       8.711   0.973  -5.171  0.00  0.00    -0.494 OA
BRANCH  47  48
ATOM     48  C   LIG d   1       7.940   1.287  -4.011  0.00  0.00     0.079 C 
ATOM     49  H   LIG d   1       7.615   0.365  -3.529  0.00  0.00     0.066 H 
ATOM     50  H   LIG d   1       8.549   1.865  -3.315  0.00  0.00     0.066 H 
ATOM     51  H   LIG d   1       7.067   1.872  -4.301  0.00  0.00     0.066 H 
ENDBRANCH  47  48
ENDBRANCH   6  47
BRANCH   2  52
ATOM     52  O   LIG d   1       5.667  -0.383  -8.559  0.00  0.00    -0.506 OA
ATOM     53  H   LIG d   1       5.516  -1.137  -7.971  0.00  0.00     0.292 HD
ENDBRANCH   2  52
BRANCH  10  54
ATOM     54  C   LIG d   1       9.380   5.674  -9.550  0.00  0.00     0.018 A 
ATOM     55  C   LIG d   1       9.162   5.601 -10.929  0.00  0.00    -0.048 A 
ATOM     56  C   LIG d   1       9.438   6.690 -11.726  0.00  0.00    -0.019 A 
ATOM     57  H   LIG d   1       8.776   4.693 -11.368  0.00  0.00     0.063 H 
ATOM     58  C   LIG d   1       9.942   7.856 -11.161  0.00  0.00     0.124 A 
ATOM     59  H   LIG d   1       9.266   6.637 -12.791  0.00  0.00     0.065 H 
ATOM     60  C   LIG d   1      10.164   7.930  -9.792  0.00  0.00    -0.019 A 
ATOM     61  C   LIG d   1       9.885   6.848  -8.987  0.00  0.00    -0.048 A 
ATOM     62  H   LIG d   1      10.556   8.839  -9.358  0.00  0.00     0.065 H 
ATOM     63  H   LIG d   1      10.058   6.908  -7.922  0.00  0.00     0.063 H 
BRANCH  58  64
ATOM     64  O   LIG d   1      10.217   8.925 -11.951  0.00  0.00    -0.461 OA
BRANCH  64  65
ATOM     65  C   LIG d   1      10.210   8.708 -13.364  0.00  0.00     0.231 C 
ATOM     66  H   LIG d   1       9.578   7.851 -13.596  0.00  0.00     0.108 H 
ATOM     67  O   LIG d   1       9.699   9.869 -14.022  0.00  0.00    -0.331 OA
ATOM     68  C   LIG d   1       9.624   9.749 -15.443  0.00  0.00     0.114 C 
ATOM     69  C   LIG d   1      11.028   9.519 -16.009  0.00  0.00     0.112 C 
ATOM     70  H   LIG d   1       8.984   8.905 -15.703  0.00  0.00     0.065 H 
ATOM     71  C   LIG d   1      11.629   8.264 -15.368  0.00  0.00     0.115 C 
ATOM     72  H   LIG d   1      10.967   9.383 -17.089  0.00  0.00     0.065 H 
ATOM     73  C   LIG d   1      11.637   8.436 -13.846  0.00  0.00     0.145 C 
ATOM     74  H   LIG d   1      11.027   7.395 -15.634  0.00  0.00     0.065 H 
ATOM     75  H   LIG d   1      12.013   7.526 -13.380  0.00  0.00     0.068 H 
BRANCH  68  76
ATOM     76  C   LIG d   1       9.039  11.034 -16.034  0.00  0.00     0.073 C 
ATOM     77  H   LIG d   1       7.951  10.987 -15.999  0.00  0.00     0.058 H 
ATOM     78  H   LIG d   1       9.386  11.890 -15.455  0.00  0.00     0.058 H 
BRANCH  76  79
ATOM     79  O   LIG d   1       9.466  11.173 -17.390  0.00  0.00    -0.392 OA
ATOM     80  H   LIG d   1      10.278  11.685 -17.497  0.00  0.00     0.209 HD
ENDBRANCH  76  79
ENDBRANCH  68  76
BRANCH  69  81
ATOM     81  O   LIG d   1      11.852  10.648 -15.716  0.00  0.00    -0.387 OA
ATOM     82  H   LIG d   1      11.622  11.100 -14.893  0.00  0.00     0.210 HD
ENDBRANCH  69  81
BRANCH  71  83
ATOM     83  O   LIG d   1      12.967   8.082 -15.836  0.00  0.00    -0.386 OA
ATOM     84  H   LIG d   1      13.234   7.155 -15.909  0.00  0.00     0.210 HD
ENDBRANCH  71  83
BRANCH  73  85
ATOM     85  O   LIG d   1      12.478   9.537 -13.493  0.00  0.00    -0.383 OA
ATOM     86  H   LIG d   1      12.529   9.703 -12.542  0.00  0.00     0.210 HD
ENDBRANCH  73  85
ENDBRANCH  64  65
ENDBRANCH  58  64
ENDBRANCH  10  54
TORSDOF 21
ENDMDL
MODEL 5
REMARK VINA RESULT:      -5.9      7.271     12.443
REMARK  21 active torsions:
REMARK  status: ('A' for Active; 'I' for Inactive)
REMARK    1  A    between atoms: C_1  and  C_2 
REMARK    2  A    between atoms: C_2  and  O_4 
REMARK    3  A    between atoms: O_4  and  C_5 
REMARK    4  A    between atoms: C_9  and  C_23 
REMARK    5  A    between atoms: C_11  and  O_19 
REMARK    6  A    between atoms: C_13  and  O_15 
REMARK    7  A    between atoms: O_15  and  C_16 
REMARK    8  A    between atoms: C_16  and  C_18 
REMARK    9  A    between atoms: O_19  and  C_20 
REMARK   10  A    between atoms: C_20  and  C_22 
REMARK   11  A    between atoms: C_24  and  O_59 
REMARK   12  A    between atoms: C_28  and  O_29 
REMARK   13  A    between atoms: O_29  and  C_30 
REMARK   14  A    between atoms: C_34  and  C_36 
REMARK   15  A    between atoms: C_39  and  O_42 
REMARK   16  A    between atoms: O_42  and  C_43 
REMARK   17  A    between atoms: C_45  and  O_58 
REMARK   18  A    between atoms: C_47  and  O_57 
REMARK   19  A    between atoms: C_49  and  O_56 
REMARK   20  A    between atoms: C_51  and  C_54 
REMARK   21  A    between atoms: C_54  and  O_55 
ROOT
ATOM      1  C   LIG d   1       7.599  -0.149  -6.861  0.00  0.00     0.069 A 
ATOM      2  C   LIG d   1       7.633  -1.511  -6.575  0.00  0.00     0.130 A 
ATOM      3  C   LIG d   1       6.659  -2.362  -7.074  0.00  0.00     0.024 A 
ATOM      4  C   LIG d   1       5.638  -1.859  -7.865  0.00  0.00     0.146 A 
ATOM      5  C   LIG d   1       5.600  -0.485  -8.154  0.00  0.00     0.106 A 
ATOM      6  C   LIG d   1       6.584   0.370  -7.643  0.00  0.00     0.144 A 
ATOM      7  C   LIG d   1       4.506   0.026  -8.996  0.00  0.00     0.197 A 
ATOM      8  O   LIG d   1       4.424   1.211  -9.280  0.00  0.00    -0.287 OA
ATOM      9  C   LIG d   1       3.553  -0.910  -9.464  0.00  0.00     0.029 A 
ATOM     10  C   LIG d   1       3.679  -2.220  -9.127  0.00  0.00     0.139 A 
ATOM     11  O   LIG d   1       4.682  -2.675  -8.358  0.00  0.00    -0.454 OA
ATOM     12  H   LIG d   1       6.697  -3.417  -6.846  0.00  0.00     0.069 H 
ATOM     13  H   LIG d   1       2.731  -0.584 -10.085  0.00  0.00     0.069 H 
ENDROOT
BRANCH   1  14
ATOM     14  C   LIG d   1       8.666   0.761  -6.310  0.00  0.00     0.131 C 
ATOM     15  O   LIG d   1       9.954   0.206  -6.585  0.00  0.00    -0.364 OA
ATOM     16  C   LIG d   1      11.044   1.008  -6.126  0.00  0.00     0.089 C 
ATOM     17  C   LIG d   1      10.960   1.160  -4.605  0.00  0.00     0.166 C 
ATOM     18  H   LIG d   1      10.994   1.992  -6.593  0.00  0.00     0.060 H 
ATOM     19  H   LIG d   1      11.985   0.528  -6.391  0.00  0.00     0.060 H 
ATOM     20  H   LIG d   1      11.052   0.180  -4.136  0.00  0.00     0.080 H 
ATOM     21  C   LIG d   1       9.609   1.780  -4.234  0.00  0.00     0.181 C 
ATOM     22  C   LIG d   1       8.486   0.903  -4.796  0.00  0.00     0.173 C 
ATOM     23  H   LIG d   1       9.519   1.838  -3.150  0.00  0.00     0.081 H 
ATOM     24  H   LIG d   1       8.526  -0.082  -4.331  0.00  0.00     0.080 H 
ATOM     25  H   LIG d   1       8.584   1.741  -6.779  0.00  0.00     0.069 H 
BRANCH  17  26
ATOM     26  O   LIG d   1      12.015   2.008  -4.150  0.00  0.00    -0.455 OA
BRANCH  26  27
ATOM     27  C   LIG d   1      13.260   1.507  -4.188  0.00  0.00     0.304 C 
ATOM     28  O   LIG d   1      14.154   2.146  -4.689  0.00  0.00    -0.251 OA
BRANCH  27  29
ATOM     29  C   LIG d   1      13.542   0.146  -3.605  0.00  0.00     0.033 C 
ATOM     30  H   LIG d   1      14.192  -0.411  -4.278  0.00  0.00     0.034 H 
ATOM     31  H   LIG d   1      14.031   0.259  -2.637  0.00  0.00     0.034 H 
ATOM     32  H   LIG d   1      12.603  -0.395  -3.476  0.00  0.00     0.034 H 
ENDBRANCH  27  29
ENDBRANCH  26  27
ENDBRANCH  17  26
BRANCH  21  33
ATOM     33  O   LIG d   1       9.515   3.091  -4.795  0.00  0.00    -0.454 OA
BRANCH  33  34
ATOM     34  C   LIG d   1       9.516   4.123  -3.936  0.00  0.00     0.304 C 
ATOM     35  O   LIG d   1       9.555   3.917  -2.745  0.00  0.00    -0.251 OA
BRANCH  34  36
ATOM     36  C   LIG d   1       9.470   5.536  -4.455  0.00  0.00     0.033 C 
ATOM     37  H   LIG d   1      10.065   6.181  -3.808  0.00  0.00     0.034 H 
ATOM     38  H   LIG d   1       9.873   5.565  -5.467  0.00  0.00     0.034 H 
ATOM     39  H   LIG d   1       8.438   5.886  -4.466  0.00  0.00     0.034 H 
ENDBRANCH  34  36
ENDBRANCH  33  34
ENDBRANCH  21  33
BRANCH  22  40
ATOM     40  O   LIG d   1       7.221   1.509  -4.521  0.00  0.00    -0.455 OA
BRANCH  40  41
ATOM     41  C   LIG d   1       6.493   0.976  -3.527  0.00  0.00     0.304 C 
ATOM     42  O   LIG d   1       5.770   1.680  -2.862  0.00  0.00    -0.251 OA
BRANCH  41  43
ATOM     43  C   LIG d   1       6.576  -0.501  -3.241  0.00  0.00     0.033 C 
ATOM     44  H   LIG d   1       7.468  -0.707  -2.650  0.00  0.00     0.034 H 
ATOM     45  H   LIG d   1       5.691  -0.815  -2.687  0.00  0.00     0.034 H 
ATOM     46  H   LIG d   1       6.630  -1.051  -4.181  0.00  0.00     0.034 H 
ENDBRANCH  41  43
ENDBRANCH  40  41
ENDBRANCH  22  40
ENDBRANCH   1  14
BRANCH   6  47
ATOM     47  O   LIG d   1       6.546   1.699  -7.917  0.00  0.00    -0.494 OA
BRANCH  47  48
ATOM     48  C   LIG d   1       7.488   2.193  -8.870  0.00  0.00     0.079 C 
ATOM     49  H   LIG d   1       8.401   2.495  -8.356  0.00  0.00     0.066 H 
ATOM     50  H   LIG d   1       7.720   1.409  -9.591  0.00  0.00     0.066 H 
ATOM     51  H   LIG d   1       7.063   3.051  -9.391  0.00  0.00     0.066 H 
ENDBRANCH  47  48
ENDBRANCH   6  47
BRANCH   2  52
ATOM     52  O   LIG d   1       8.631  -2.010  -5.803  0.00  0.00    -0.506 OA
ATOM     53  H   LIG d   1       8.489  -2.924  -5.518  0.00  0.00     0.292 HD
ENDBRANCH   2  52
BRANCH  10  54
ATOM     54  C   LIG d   1       2.675  -3.181  -9.624  0.00  0.00     0.018 A 
ATOM     55  C   LIG d   1       2.882  -4.555  -9.467  0.00  0.00    -0.048 A 
ATOM     56  C   LIG d   1       1.939  -5.448  -9.927  0.00  0.00    -0.019 A 
ATOM     57  H   LIG d   1       3.777  -4.915  -8.981  0.00  0.00     0.063 H 
ATOM     58  C   LIG d   1       0.791  -4.985 -10.558  0.00  0.00     0.124 A 
ATOM     59  H   LIG d   1       2.095  -6.509  -9.802  0.00  0.00     0.065 H 
ATOM     60  C   LIG d   1       0.585  -3.621 -10.722  0.00  0.00    -0.019 A 
ATOM     61  C   LIG d   1       1.519  -2.721 -10.259  0.00  0.00    -0.048 A 
ATOM     62  H   LIG d   1      -0.310  -3.265 -11.212  0.00  0.00     0.065 H 
ATOM     63  H   LIG d   1       1.357  -1.660 -10.386  0.00  0.00     0.063 H 
BRANCH  58  64
ATOM     64  O   LIG d   1      -0.132  -5.868 -11.016  0.00  0.00    -0.461 OA
BRANCH  64  65
ATOM     65  C   LIG d   1      -1.476  -5.398 -11.140  0.00  0.00     0.231 C 
ATOM     66  H   LIG d   1      -1.468  -4.371 -11.505  0.00  0.00     0.108 H 
ATOM     67  O   LIG d   1      -2.187  -6.225 -12.064  0.00  0.00    -0.331 OA
ATOM     68  C   LIG d   1      -3.541  -5.825 -12.283  0.00  0.00     0.114 C 
ATOM     69  C   LIG d   1      -4.313  -5.894 -10.962  0.00  0.00     0.112 C 
ATOM     70  H   LIG d   1      -3.560  -4.803 -12.662  0.00  0.00     0.065 H 
ATOM     71  C   LIG d   1      -3.621  -5.001  -9.929  0.00  0.00     0.115 C 
ATOM     72  H   LIG d   1      -5.334  -5.547 -11.119  0.00  0.00     0.065 H 
ATOM     73  C   LIG d   1      -2.164  -5.450  -9.775  0.00  0.00     0.145 C 
ATOM     74  H   LIG d   1      -3.650  -3.964 -10.265  0.00  0.00     0.065 H 
ATOM     75  H   LIG d   1      -1.651  -4.785  -9.081  0.00  0.00     0.068 H 
BRANCH  68  76
ATOM     76  C   LIG d   1      -4.190  -6.761 -13.304  0.00  0.00     0.073 C 
ATOM     77  H   LIG d   1      -3.989  -6.395 -14.311  0.00  0.00     0.058 H 
ATOM     78  H   LIG d   1      -3.777  -7.764 -13.191  0.00  0.00     0.058 H 
BRANCH  76  79
ATOM     79  O   LIG d   1      -5.601  -6.800 -13.085  0.00  0.00    -0.392 OA
ATOM     80  H   LIG d   1      -5.900  -7.568 -12.580  0.00  0.00     0.209 HD
ENDBRANCH  76  79
ENDBRANCH  68  76
BRANCH  69  81
ATOM     81  O   LIG d   1      -4.334  -7.243 -10.492  0.00  0.00    -0.387 OA
ATOM     82  H   LIG d   1      -5.124  -7.469  -9.981  0.00  0.00     0.210 HD
ENDBRANCH  69  81
BRANCH  71  83
ATOM     83  O   LIG d   1      -4.292  -5.115  -8.671  0.00  0.00    -0.386 OA
ATOM     84  H   LIG d   1      -3.845  -5.694  -8.039  0.00  0.00     0.210 HD
ENDBRANCH  71  83
BRANCH  73  85
ATOM     85  O   LIG d   1      -2.126  -6.788  -9.272  0.00  0.00    -0.383 OA
ATOM     86  H   LIG d   1      -2.443  -6.875  -8.362  0.00  0.00     0.210 HD
ENDBRANCH  73  85
ENDBRANCH  64  65
ENDBRANCH  58  64
ENDBRANCH  10  54
TORSDOF 21
ENDMDL
MODEL 6
REMARK VINA RESULT:      -5.9     11.404     15.324
REMARK  21 active torsions:
REMARK  status: ('A' for Active; 'I' for Inactive)
REMARK    1  A    between atoms: C_1  and  C_2 
REMARK    2  A    between atoms: C_2  and  O_4 
REMARK    3  A    between atoms: O_4  and  C_5 
REMARK    4  A    between atoms: C_9  and  C_23 
REMARK    5  A    between atoms: C_11  and  O_19 
REMARK    6  A    between atoms: C_13  and  O_15 
REMARK    7  A    between atoms: O_15  and  C_16 
REMARK    8  A    between atoms: C_16  and  C_18 
REMARK    9  A    between atoms: O_19  and  C_20 
REMARK   10  A    between atoms: C_20  and  C_22 
REMARK   11  A    between atoms: C_24  and  O_59 
REMARK   12  A    between atoms: C_28  and  O_29 
REMARK   13  A    between atoms: O_29  and  C_30 
REMARK   14  A    between atoms: C_34  and  C_36 
REMARK   15  A    between atoms: C_39  and  O_42 
REMARK   16  A    between atoms: O_42  and  C_43 
REMARK   17  A    between atoms: C_45  and  O_58 
REMARK   18  A    between atoms: C_47  and  O_57 
REMARK   19  A    between atoms: C_49  and  O_56 
REMARK   20  A    between atoms: C_51  and  C_54 
REMARK   21  A    between atoms: C_54  and  O_55 
ROOT
ATOM      1  C   LIG d   1      12.058   8.160  -0.576  0.00  0.00     0.069 A 
ATOM      2  C   LIG d   1      11.339   7.268   0.214  0.00  0.00     0.130 A 
ATOM      3  C   LIG d   1      10.677   6.192  -0.357  0.00  0.00     0.024 A 
ATOM      4  C   LIG d   1      10.725   5.997  -1.729  0.00  0.00     0.146 A 
ATOM      5  C   LIG d   1      11.449   6.896  -2.530  0.00  0.00     0.106 A 
ATOM      6  C   LIG d   1      12.111   7.984  -1.947  0.00  0.00     0.144 A 
ATOM      7  C   LIG d   1      11.486   6.669  -3.984  0.00  0.00     0.197 A 
ATOM      8  O   LIG d   1      12.100   7.418  -4.727  0.00  0.00    -0.287 OA
ATOM      9  C   LIG d   1      10.783   5.548  -4.486  0.00  0.00     0.029 A 
ATOM     10  C   LIG d   1      10.112   4.738  -3.625  0.00  0.00     0.139 A 
ATOM     11  O   LIG d   1      10.085   4.955  -2.301  0.00  0.00    -0.454 OA
ATOM     12  H   LIG d   1      10.123   5.507   0.267  0.00  0.00     0.069 H 
ATOM     13  H   LIG d   1      10.779   5.339  -5.545  0.00  0.00     0.069 H 
ENDROOT
BRANCH   1  14
ATOM     14  C   LIG d   1      12.771   9.323   0.062  0.00  0.00     0.131 C 
ATOM     15  O   LIG d   1      13.450   8.878   1.238  0.00  0.00    -0.364 OA
ATOM     16  C   LIG d   1      14.186   9.903   1.909  0.00  0.00     0.089 C 
ATOM     17  C   LIG d   1      13.225  11.006   2.362  0.00  0.00     0.166 C 
ATOM     18  H   LIG d   1      14.928  10.323   1.230  0.00  0.00     0.060 H 
ATOM     19  H   LIG d   1      14.688   9.479   2.779  0.00  0.00     0.060 H 
ATOM     20  H   LIG d   1      12.509  10.594   3.074  0.00  0.00     0.080 H 
ATOM     21  C   LIG d   1      12.478  11.555   1.142  0.00  0.00     0.181 C 
ATOM     22  C   LIG d   1      11.753  10.402   0.440  0.00  0.00     0.173 C 
ATOM     23  H   LIG d   1      11.752  12.300   1.465  0.00  0.00     0.081 H 
ATOM     24  H   LIG d   1      11.007   9.979   1.111  0.00  0.00     0.080 H 
ATOM     25  H   LIG d   1      13.494   9.735  -0.642  0.00  0.00     0.069 H 
BRANCH  17  26
ATOM     26  O   LIG d   1      13.965  12.058   2.983  0.00  0.00    -0.455 OA
BRANCH  26  27
ATOM     27  C   LIG d   1      13.421  12.626   4.071  0.00  0.00     0.304 C 
ATOM     28  O   LIG d   1      12.951  13.737   4.001  0.00  0.00    -0.251 OA
BRANCH  27  29
ATOM     29  C   LIG d   1      13.396  11.878   5.379  0.00  0.00     0.033 C 
ATOM     30  H   LIG d   1      12.548  12.215   5.974  0.00  0.00     0.034 H 
ATOM     31  H   LIG d   1      13.302  10.810   5.184  0.00  0.00     0.034 H 
ATOM     32  H   LIG d   1      14.321  12.068   5.923  0.00  0.00     0.034 H 
ENDBRANCH  27  29
ENDBRANCH  26  27
ENDBRANCH  17  26
BRANCH  21  33
ATOM     33  O   LIG d   1      13.411  12.152   0.240  0.00  0.00    -0.454 OA
BRANCH  33  34
ATOM     34  C   LIG d   1      13.213  13.442  -0.075  0.00  0.00     0.304 C 
ATOM     35  O   LIG d   1      13.922  13.980  -0.893  0.00  0.00    -0.251 OA
BRANCH  34  36
ATOM     36  C   LIG d   1      12.106  14.219   0.590  0.00  0.00     0.033 C 
ATOM     37  H   LIG d   1      11.379  13.525   1.013  0.00  0.00     0.034 H 
ATOM     38  H   LIG d   1      12.523  14.838   1.384  0.00  0.00     0.034 H 
ATOM     39  H   LIG d   1      11.615  14.855  -0.146  0.00  0.00     0.034 H 
ENDBRANCH  34  36
ENDBRANCH  33  34
ENDBRANCH  21  33
BRANCH  22  40
ATOM     40  O   LIG d   1      11.112  10.889  -0.741  0.00  0.00    -0.455 OA
BRANCH  40  41
ATOM     41  C   LIG d   1       9.806  10.614  -0.883  0.00  0.00     0.304 C 
ATOM     42  O   LIG d   1       9.168  10.210   0.060  0.00  0.00    -0.251 OA
BRANCH  41  43
ATOM     43  C   LIG d   1       9.136  10.809  -2.218  0.00  0.00     0.033 C 
ATOM     44  H   LIG d   1       9.825  10.528  -3.015  0.00  0.00     0.034 H 
ATOM     45  H   LIG d   1       8.244  10.185  -2.272  0.00  0.00     0.034 H 
ATOM     46  H   LIG d   1       8.856  11.856  -2.334  0.00  0.00     0.034 H 
ENDBRANCH  41  43
ENDBRANCH  40  41
ENDBRANCH  22  40
ENDBRANCH   1  14
BRANCH   6  47
ATOM     47  O   LIG d   1      12.806   8.857  -2.720  0.00  0.00    -0.494 OA
BRANCH  47  48
ATOM     48  C   LIG d   1      14.231   8.743  -2.707  0.00  0.00     0.079 C 
ATOM     49  H   LIG d   1      14.615   9.108  -1.754  0.00  0.00     0.066 H 
ATOM     50  H   LIG d   1      14.513   7.699  -2.837  0.00  0.00     0.066 H 
ATOM     51  H   LIG d   1      14.650   9.337  -3.520  0.00  0.00     0.066 H 
ENDBRANCH  47  48
ENDBRANCH   6  47
BRANCH   2  52
ATOM     52  O   LIG d   1      11.288   7.452   1.558  0.00  0.00    -0.506 OA
ATOM     53  H   LIG d   1      10.439   7.214   1.956  0.00  0.00     0.292 HD
ENDBRANCH   2  52
BRANCH  10  54
ATOM     54  C   LIG d   1       9.385   3.574  -4.168  0.00  0.00     0.018 A 
ATOM     55  C   LIG d   1       9.013   2.524  -3.323  0.00  0.00    -0.048 A 
ATOM     56  C   LIG d   1       8.329   1.442  -3.832  0.00  0.00    -0.019 A 
ATOM     57  H   LIG d   1       9.260   2.562  -2.272  0.00  0.00     0.063 H 
ATOM     58  C   LIG d   1       8.019   1.389  -5.186  0.00  0.00     0.124 A 
ATOM     59  H   LIG d   1       8.038   0.632  -3.179  0.00  0.00     0.065 H 
ATOM     60  C   LIG d   1       8.391   2.428  -6.029  0.00  0.00    -0.019 A 
ATOM     61  C   LIG d   1       9.069   3.516  -5.527  0.00  0.00    -0.048 A 
ATOM     62  H   LIG d   1       8.146   2.383  -7.081  0.00  0.00     0.065 H 
ATOM     63  H   LIG d   1       9.357   4.324  -6.185  0.00  0.00     0.063 H 
BRANCH  58  64
ATOM     64  O   LIG d   1       7.349   0.319  -5.684  0.00  0.00    -0.461 OA
BRANCH  64  65
ATOM     65  C   LIG d   1       6.493  -0.389  -4.785  0.00  0.00     0.231 C 
ATOM     66  H   LIG d   1       7.093  -0.850  -4.000  0.00  0.00     0.108 H 
ATOM     67  O   LIG d   1       5.561   0.522  -4.198  0.00  0.00    -0.331 OA
ATOM     68  C   LIG d   1       4.669  -0.080  -3.258  0.00  0.00     0.114 C 
ATOM     69  C   LIG d   1       3.835  -1.153  -3.962  0.00  0.00     0.112 C 
ATOM     70  H   LIG d   1       5.245  -0.538  -2.453  0.00  0.00     0.065 H 
ATOM     71  C   LIG d   1       4.774  -2.187  -4.591  0.00  0.00     0.115 C 
ATOM     72  H   LIG d   1       3.186  -1.644  -3.237  0.00  0.00     0.065 H 
ATOM     73  C   LIG d   1       5.733  -1.474  -5.550  0.00  0.00     0.145 C 
ATOM     74  H   LIG d   1       5.345  -2.686  -3.808  0.00  0.00     0.065 H 
ATOM     75  H   LIG d   1       6.439  -2.195  -5.960  0.00  0.00     0.068 H 
BRANCH  68  76
ATOM     76  C   LIG d   1       3.742   0.989  -2.677  0.00  0.00     0.073 C 
ATOM     77  H   LIG d   1       2.754   0.561  -2.511  0.00  0.00     0.058 H 
ATOM     78  H   LIG d   1       4.148   1.347  -1.731  0.00  0.00     0.058 H 
BRANCH  76  79
ATOM     79  O   LIG d   1       3.640   2.081  -3.593  0.00  0.00    -0.392 OA
ATOM     80  H   LIG d   1       3.609   1.814  -4.522  0.00  0.00     0.209 HD
ENDBRANCH  76  79
ENDBRANCH  68  76
BRANCH  69  81
ATOM     81  O   LIG d   1       3.039  -0.546  -4.982  0.00  0.00    -0.387 OA
ATOM     82  H   LIG d   1       2.330  -1.113  -5.316  0.00  0.00     0.210 HD
ENDBRANCH  69  81
BRANCH  71  83
ATOM     83  O   LIG d   1       4.007  -3.154  -5.313  0.00  0.00    -0.386 OA
ATOM     84  H   LIG d   1       3.584  -3.818  -4.751  0.00  0.00     0.210 HD
ENDBRANCH  71  83
BRANCH  73  85
ATOM     85  O   LIG d   1       4.988  -0.875  -6.614  0.00  0.00    -0.383 OA
ATOM     86  H   LIG d   1       5.252   0.034  -6.815  0.00  0.00     0.210 HD
ENDBRANCH  73  85
ENDBRANCH  64  65
ENDBRANCH  58  64
ENDBRANCH  10  54
TORSDOF 21
ENDMDL
MODEL 7
REMARK VINA RESULT:      -5.8      6.958     11.109
REMARK  21 active torsions:
REMARK  status: ('A' for Active; 'I' for Inactive)
REMARK    1  A    between atoms: C_1  and  C_2 
REMARK    2  A    between atoms: C_2  and  O_4 
REMARK    3  A    between atoms: O_4  and  C_5 
REMARK    4  A    between atoms: C_9  and  C_23 
REMARK    5  A    between atoms: C_11  and  O_19 
REMARK    6  A    between atoms: C_13  and  O_15 
REMARK    7  A    between atoms: O_15  and  C_16 
REMARK    8  A    between atoms: C_16  and  C_18 
REMARK    9  A    between atoms: O_19  and  C_20 
REMARK   10  A    between atoms: C_20  and  C_22 
REMARK   11  A    between atoms: C_24  and  O_59 
REMARK   12  A    between atoms: C_28  and  O_29 
REMARK   13  A    between atoms: O_29  and  C_30 
REMARK   14  A    between atoms: C_34  and  C_36 
REMARK   15  A    between atoms: C_39  and  O_42 
REMARK   16  A    between atoms: O_42  and  C_43 
REMARK   17  A    between atoms: C_45  and  O_58 
REMARK   18  A    between atoms: C_47  and  O_57 
REMARK   19  A    between atoms: C_49  and  O_56 
REMARK   20  A    between atoms: C_51  and  C_54 
REMARK   21  A    between atoms: C_54  and  O_55 
ROOT
ATOM      1  C   LIG d   1       5.275  -2.090  -8.480  0.00  0.00     0.069 A 
ATOM      2  C   LIG d   1       4.518  -1.173  -7.755  0.00  0.00     0.130 A 
ATOM      3  C   LIG d   1       5.125  -0.096  -7.127  0.00  0.00     0.024 A 
ATOM      4  C   LIG d   1       6.497   0.075  -7.216  0.00  0.00     0.146 A 
ATOM      5  C   LIG d   1       7.264  -0.848  -7.946  0.00  0.00     0.106 A 
ATOM      6  C   LIG d   1       6.646  -1.937  -8.574  0.00  0.00     0.144 A 
ATOM      7  C   LIG d   1       8.720  -0.645  -8.027  0.00  0.00     0.197 A 
ATOM      8  O   LIG d   1       9.434  -1.416  -8.648  0.00  0.00    -0.287 OA
ATOM      9  C   LIG d   1       9.259   0.479  -7.357  0.00  0.00     0.029 A 
ATOM     10  C   LIG d   1       8.430   1.314  -6.676  0.00  0.00     0.139 A 
ATOM     11  O   LIG d   1       7.103   1.119  -6.610  0.00  0.00    -0.454 OA
ATOM     12  H   LIG d   1       4.527   0.608  -6.568  0.00  0.00     0.069 H 
ATOM     13  H   LIG d   1      10.321   0.672  -7.385  0.00  0.00     0.069 H 
ENDROOT
BRANCH   1  14
ATOM     14  C   LIG d   1       4.599  -3.254  -9.156  0.00  0.00     0.131 C 
ATOM     15  O   LIG d   1       3.634  -2.768 -10.091  0.00  0.00    -0.364 OA
ATOM     16  C   LIG d   1       2.950  -3.795 -10.811  0.00  0.00     0.089 C 
ATOM     17  C   LIG d   1       2.183  -4.682  -9.826  0.00  0.00     0.166 C 
ATOM     18  H   LIG d   1       3.674  -4.401 -11.357  0.00  0.00     0.060 H 
ATOM     19  H   LIG d   1       2.251  -3.343 -11.513  0.00  0.00     0.060 H 
ATOM     20  H   LIG d   1       1.430  -4.086  -9.310  0.00  0.00     0.080 H 
ATOM     21  C   LIG d   1       3.163  -5.267  -8.804  0.00  0.00     0.181 C 
ATOM     22  C   LIG d   1       3.898  -4.120  -8.105  0.00  0.00     0.173 C 
ATOM     23  H   LIG d   1       2.616  -5.853  -8.067  0.00  0.00     0.081 H 
ATOM     24  H   LIG d   1       3.182  -3.512  -7.553  0.00  0.00     0.080 H 
ATOM     25  H   LIG d   1       5.345  -3.852  -9.680  0.00  0.00     0.069 H 
BRANCH  17  26
ATOM     26  O   LIG d   1       1.545  -5.745 -10.538  0.00  0.00    -0.455 OA
BRANCH  26  27
ATOM     27  C   LIG d   1       0.283  -6.040 -10.189  0.00  0.00     0.304 C 
ATOM     28  O   LIG d   1       0.040  -7.082  -9.627  0.00  0.00    -0.251 OA
BRANCH  27  29
ATOM     29  C   LIG d   1      -0.831  -5.073 -10.497  0.00  0.00     0.033 C 
ATOM     30  H   LIG d   1      -0.449  -4.053 -10.453  0.00  0.00     0.034 H 
ATOM     31  H   LIG d   1      -1.219  -5.272 -11.496  0.00  0.00     0.034 H 
ATOM     32  H   LIG d   1      -1.630  -5.194  -9.766  0.00  0.00     0.034 H 
ENDBRANCH  27  29
ENDBRANCH  26  27
ENDBRANCH  17  26
BRANCH  21  33
ATOM     33  O   LIG d   1       4.111  -6.101  -9.475  0.00  0.00    -0.454 OA
BRANCH  33  34
ATOM     34  C   LIG d   1       4.214  -7.370  -9.047  0.00  0.00     0.304 C 
ATOM     35  O   LIG d   1       3.228  -7.969  -8.687  0.00  0.00    -0.251 OA
BRANCH  34  36
ATOM     36  C   LIG d   1       5.560  -8.047  -9.017  0.00  0.00     0.033 C 
ATOM     37  H   LIG d   1       6.315  -7.373  -9.421  0.00  0.00     0.034 H 
ATOM     38  H   LIG d   1       5.814  -8.306  -7.990  0.00  0.00     0.034 H 
ATOM     39  H   LIG d   1       5.524  -8.954  -9.621  0.00  0.00     0.034 H 
ENDBRANCH  34  36
ENDBRANCH  33  34
ENDBRANCH  21  33
BRANCH  22  40
ATOM     40  O   LIG d   1       4.869  -4.653  -7.201  0.00  0.00    -0.455 OA
BRANCH  40  41
ATOM     41  C   LIG d   1       4.544  -4.672  -5.899  0.00  0.00     0.304 C 
ATOM     42  O   LIG d   1       3.917  -5.600  -5.446  0.00  0.00    -0.251 OA
BRANCH  41  43
ATOM     43  C   LIG d   1       4.962  -3.535  -5.002  0.00  0.00     0.033 C 
ATOM     44  H   LIG d   1       5.056  -2.623  -5.591  0.00  0.00     0.034 H 
ATOM     45  H   LIG d   1       4.211  -3.391  -4.225  0.00  0.00     0.034 H 
ATOM     46  H   LIG d   1       5.921  -3.770  -4.541  0.00  0.00     0.034 H 
ENDBRANCH  41  43
ENDBRANCH  40  41
ENDBRANCH  22  40
ENDBRANCH   1  14
BRANCH   6  47
ATOM     47  O   LIG d   1       7.386  -2.834  -9.275  0.00  0.00    -0.494 OA
BRANCH  47  48
ATOM     48  C   LIG d   1       7.751  -4.040  -8.603  0.00  0.00     0.079 C 
ATOM     49  H   LIG d   1       8.505  -4.568  -9.187  0.00  0.00     0.066 H 
ATOM     50  H   LIG d   1       8.156  -3.800  -7.619  0.00  0.00     0.066 H 
ATOM     51  H   LIG d   1       6.871  -4.673  -8.488  0.00  0.00     0.066 H 
ENDBRANCH  47  48
ENDBRANCH   6  47
BRANCH   2  52
ATOM     52  O   LIG d   1       3.174  -1.335  -7.665  0.00  0.00    -0.506 OA
ATOM     53  H   LIG d   1       2.745  -1.543  -8.507  0.00  0.00     0.292 HD
ENDBRANCH   2  52
BRANCH  10  54
ATOM     54  C   LIG d   1       9.010   2.481  -5.984  0.00  0.00     0.018 A 
ATOM     55  C   LIG d   1       8.869   2.617  -4.600  0.00  0.00    -0.048 A 
ATOM     56  C   LIG d   1       9.418   3.704  -3.957  0.00  0.00    -0.019 A 
ATOM     57  H   LIG d   1       8.333   1.868  -4.035  0.00  0.00     0.063 H 
ATOM     58  C   LIG d   1      10.100   4.672  -4.685  0.00  0.00     0.124 A 
ATOM     59  H   LIG d   1       9.313   3.808  -2.887  0.00  0.00     0.065 H 
ATOM     60  C   LIG d   1      10.238   4.544  -6.061  0.00  0.00    -0.019 A 
ATOM     61  C   LIG d   1       9.698   3.456  -6.711  0.00  0.00    -0.048 A 
ATOM     62  H   LIG d   1      10.771   5.298  -6.622  0.00  0.00     0.065 H 
ATOM     63  H   LIG d   1       9.807   3.357  -7.781  0.00  0.00     0.063 H 
BRANCH  58  64
ATOM     64  O   LIG d   1      10.635   5.745  -4.048  0.00  0.00    -0.461 OA
BRANCH  64  65
ATOM     65  C   LIG d   1      10.087   6.083  -2.772  0.00  0.00     0.231 C 
ATOM     66  H   LIG d   1       9.212   5.461  -2.577  0.00  0.00     0.108 H 
ATOM     67  O   LIG d   1      11.067   5.858  -1.757  0.00  0.00    -0.331 OA
ATOM     68  C   LIG d   1      10.612   6.141  -0.432  0.00  0.00     0.114 C 
ATOM     69  C   LIG d   1      10.222   7.618  -0.333  0.00  0.00     0.112 C 
ATOM     70  H   LIG d   1       9.744   5.520  -0.206  0.00  0.00     0.065 H 
ATOM     71  C   LIG d   1       9.145   7.926  -1.377  0.00  0.00     0.115 C 
ATOM     72  H   LIG d   1       9.833   7.826   0.664  0.00  0.00     0.065 H 
ATOM     73  C   LIG d   1       9.676   7.557  -2.766  0.00  0.00     0.145 C 
ATOM     74  H   LIG d   1       8.250   7.341  -1.162  0.00  0.00     0.065 H 
ATOM     75  H   LIG d   1       8.896   7.722  -3.509  0.00  0.00     0.068 H 
BRANCH  68  76
ATOM     76  C   LIG d   1      11.730   5.839   0.567  0.00  0.00     0.073 C 
ATOM     77  H   LIG d   1      11.828   4.760   0.686  0.00  0.00     0.058 H 
ATOM     78  H   LIG d   1      12.669   6.252   0.197  0.00  0.00     0.058 H 
BRANCH  76  79
ATOM     79  O   LIG d   1      11.415   6.430   1.828  0.00  0.00    -0.392 OA
ATOM     80  H   LIG d   1      10.488   6.689   1.921  0.00  0.00     0.209 HD
ENDBRANCH  76  79
ENDBRANCH  68  76
BRANCH  69  81
ATOM     81  O   LIG d   1      11.371   8.433  -0.576  0.00  0.00    -0.387 OA
ATOM     82  H   LIG d   1      11.930   8.118  -1.299  0.00  0.00     0.210 HD
ENDBRANCH  69  81
BRANCH  71  83
ATOM     83  O   LIG d   1       8.827   9.319  -1.342  0.00  0.00    -0.386 OA
ATOM     84  H   LIG d   1       8.443   9.655  -2.163  0.00  0.00     0.210 HD
ENDBRANCH  71  83
BRANCH  73  85
ATOM     85  O   LIG d   1      10.811   8.369  -3.076  0.00  0.00    -0.383 OA
ATOM     86  H   LIG d   1      10.908   9.143  -2.505  0.00  0.00     0.210 HD
ENDBRANCH  73  85
ENDBRANCH  64  65
ENDBRANCH  58  64
ENDBRANCH  10  54
TORSDOF 21
ENDMDL
MODEL 8
REMARK VINA RESULT:      -5.8      7.849     12.642
REMARK  21 active torsions:
REMARK  status: ('A' for Active; 'I' for Inactive)
REMARK    1  A    between atoms: C_1  and  C_2 
REMARK    2  A    between atoms: C_2  and  O_4 
REMARK    3  A    between atoms: O_4  and  C_5 
REMARK    4  A    between atoms: C_9  and  C_23 
REMARK    5  A    between atoms: C_11  and  O_19 
REMARK    6  A    between atoms: C_13  and  O_15 
REMARK    7  A    between atoms: O_15  and  C_16 
REMARK    8  A    between atoms: C_16  and  C_18 
REMARK    9  A    between atoms: O_19  and  C_20 
REMARK   10  A    between atoms: C_20  and  C_22 
REMARK   11  A    between atoms: C_24  and  O_59 
REMARK   12  A    between atoms: C_28  and  O_29 
REMARK   13  A    between atoms: O_29  and  C_30 
REMARK   14  A    between atoms: C_34  and  C_36 
REMARK   15  A    between atoms: C_39  and  O_42 
REMARK   16  A    between atoms: O_42  and  C_43 
REMARK   17  A    between atoms: C_45  and  O_58 
REMARK   18  A    between atoms: C_47  and  O_57 
REMARK   19  A    between atoms: C_49  and  O_56 
REMARK   20  A    between atoms: C_51  and  C_54 
REMARK   21  A    between atoms: C_54  and  O_55 
ROOT
ATOM      1  C   LIG d   1       7.785   0.934  -8.122  0.00  0.00     0.069 A 
ATOM      2  C   LIG d   1       8.482   1.986  -8.709  0.00  0.00     0.130 A 
ATOM      3  C   LIG d   1       9.097   2.950  -7.925  0.00  0.00     0.024 A 
ATOM      4  C   LIG d   1       9.019   2.874  -6.543  0.00  0.00     0.146 A 
ATOM      5  C   LIG d   1       8.316   1.813  -5.948  0.00  0.00     0.106 A 
ATOM      6  C   LIG d   1       7.693   0.845  -6.745  0.00  0.00     0.144 A 
ATOM      7  C   LIG d   1       8.248   1.752  -4.478  0.00  0.00     0.197 A 
ATOM      8  O   LIG d   1       7.652   0.853  -3.908  0.00  0.00    -0.287 OA
ATOM      9  C   LIG d   1       8.902   2.777  -3.753  0.00  0.00     0.029 A 
ATOM     10  C   LIG d   1       9.556   3.761  -4.426  0.00  0.00     0.139 A 
ATOM     11  O   LIG d   1       9.612   3.806  -5.766  0.00  0.00    -0.454 OA
ATOM     12  H   LIG d   1       9.634   3.762  -8.392  0.00  0.00     0.069 H 
ATOM     13  H   LIG d   1       8.881   2.777  -2.674  0.00  0.00     0.069 H 
ENDROOT
BRANCH   1  14
ATOM     14  C   LIG d   1       7.124  -0.106  -8.990  0.00  0.00     0.131 C 
ATOM     15  O   LIG d   1       8.052  -0.566  -9.973  0.00  0.00    -0.364 OA
ATOM     16  C   LIG d   1       7.532  -1.579 -10.836  0.00  0.00     0.089 C 
ATOM     17  C   LIG d   1       6.331  -1.024 -11.608  0.00  0.00     0.166 C 
ATOM     18  H   LIG d   1       7.217  -2.438 -10.242  0.00  0.00     0.060 H 
ATOM     19  H   LIG d   1       8.304  -1.888 -11.540  0.00  0.00     0.060 H 
ATOM     20  H   LIG d   1       6.654  -0.193 -12.234  0.00  0.00     0.080 H 
ATOM     21  C   LIG d   1       5.275  -0.535 -10.611  0.00  0.00     0.181 C 
ATOM     22  C   LIG d   1       5.907   0.509  -9.686  0.00  0.00     0.173 C 
ATOM     23  H   LIG d   1       4.443  -0.087 -11.153  0.00  0.00     0.081 H 
ATOM     24  H   LIG d   1       6.221   1.372 -10.272  0.00  0.00     0.080 H 
ATOM     25  H   LIG d   1       6.804  -0.944  -8.370  0.00  0.00     0.069 H 
BRANCH  17  26
ATOM     26  O   LIG d   1       5.774  -2.052 -12.429  0.00  0.00    -0.455 OA
BRANCH  26  27
ATOM     27  C   LIG d   1       5.069  -1.660 -13.501  0.00  0.00     0.304 C 
ATOM     28  O   LIG d   1       5.463  -0.742 -14.181  0.00  0.00    -0.251 OA
BRANCH  27  29
ATOM     29  C   LIG d   1       3.785  -2.365 -13.857  0.00  0.00     0.033 C 
ATOM     30  H   LIG d   1       3.805  -2.646 -14.909  0.00  0.00     0.034 H 
ATOM     31  H   LIG d   1       3.679  -3.259 -13.243  0.00  0.00     0.034 H 
ATOM     32  H   LIG d   1       2.942  -1.697 -13.675  0.00  0.00     0.034 H 
ENDBRANCH  27  29
ENDBRANCH  26  27
ENDBRANCH  17  26
BRANCH  21  33
ATOM     33  O   LIG d   1       4.804  -1.639  -9.835  0.00  0.00    -0.454 OA
BRANCH  33  34
ATOM     34  C   LIG d   1       3.479  -1.855  -9.825  0.00  0.00     0.304 C 
ATOM     35  O   LIG d   1       3.019  -2.758  -9.167  0.00  0.00    -0.251 OA
BRANCH  34  36
ATOM     36  C   LIG d   1       2.565  -0.971 -10.634  0.00  0.00     0.033 C 
ATOM     37  H   LIG d   1       2.035  -1.574 -11.371  0.00  0.00     0.034 H 
ATOM     38  H   LIG d   1       1.846  -0.490  -9.972  0.00  0.00     0.034 H 
ATOM     39  H   LIG d   1       3.155  -0.209 -11.144  0.00  0.00     0.034 H 
ENDBRANCH  34  36
ENDBRANCH  33  34
ENDBRANCH  21  33
BRANCH  22  40
ATOM     40  O   LIG d   1       4.952   0.919  -8.704  0.00  0.00    -0.455 OA
BRANCH  40  41
ATOM     41  C   LIG d   1       4.309   2.076  -8.926  0.00  0.00     0.304 C 
ATOM     42  O   LIG d   1       4.914   3.034  -9.345  0.00  0.00    -0.251 OA
BRANCH  41  43
ATOM     43  C   LIG d   1       2.830   2.180  -8.655  0.00  0.00     0.033 C 
ATOM     44  H   LIG d   1       2.670   2.692  -7.706  0.00  0.00     0.034 H 
ATOM     45  H   LIG d   1       2.352   2.743  -9.456  0.00  0.00     0.034 H 
ATOM     46  H   LIG d   1       2.399   1.181  -8.605  0.00  0.00     0.034 H 
ENDBRANCH  41  43
ENDBRANCH  40  41
ENDBRANCH  22  40
ENDBRANCH   1  14
BRANCH   6  47
ATOM     47  O   LIG d   1       7.009  -0.177  -6.171  0.00  0.00    -0.494 OA
BRANCH  47  48
ATOM     48  C   LIG d   1       7.646  -1.456  -6.154  0.00  0.00     0.079 C 
ATOM     49  H   LIG d   1       6.918  -2.221  -5.883  0.00  0.00     0.066 H 
ATOM     50  H   LIG d   1       8.051  -1.673  -7.142  0.00  0.00     0.066 H 
ATOM     51  H   LIG d   1       8.455  -1.449  -5.424  0.00  0.00     0.066 H 
ENDBRANCH  47  48
ENDBRANCH   6  47
BRANCH   2  52
ATOM     52  O   LIG d   1       8.562   2.067 -10.061  0.00  0.00    -0.506 OA
ATOM     53  H   LIG d   1       8.013   2.764 -10.447  0.00  0.00     0.292 HD
ENDBRANCH   2  52
BRANCH  10  54
ATOM     54  C   LIG d   1      10.233   4.820  -3.652  0.00  0.00     0.018 A 
ATOM     55  C   LIG d   1       9.941   4.991  -2.296  0.00  0.00    -0.048 A 
ATOM     56  C   LIG d   1      10.580   5.977  -1.576  0.00  0.00    -0.019 A 
ATOM     57  H   LIG d   1       9.220   4.350  -1.812  0.00  0.00     0.063 H 
ATOM     58  C   LIG d   1      11.503   6.808  -2.200  0.00  0.00     0.124 A 
ATOM     59  H   LIG d   1      10.359   6.108  -0.527  0.00  0.00     0.065 H 
ATOM     60  C   LIG d   1      11.791   6.644  -3.549  0.00  0.00    -0.019 A 
ATOM     61  C   LIG d   1      11.163   5.657  -4.274  0.00  0.00    -0.048 A 
ATOM     62  H   LIG d   1      12.511   7.292  -4.029  0.00  0.00     0.065 H 
ATOM     63  H   LIG d   1      11.388   5.530  -5.324  0.00  0.00     0.063 H 
BRANCH  58  64
ATOM     64  O   LIG d   1      12.126   7.782  -1.488  0.00  0.00    -0.461 OA
BRANCH  64  65
ATOM     65  C   LIG d   1      11.710   9.128  -1.727  0.00  0.00     0.231 C 
ATOM     66  H   LIG d   1      12.574   9.730  -2.008  0.00  0.00     0.108 H 
ATOM     67  O   LIG d   1      10.750   9.150  -2.785  0.00  0.00    -0.331 OA
ATOM     68  C   LIG d   1      10.285  10.458  -3.124  0.00  0.00     0.114 C 
ATOM     69  C   LIG d   1       9.598  11.085  -1.908  0.00  0.00     0.112 C 
ATOM     70  H   LIG d   1      11.130  11.077  -3.424  0.00  0.00     0.065 H 
ATOM     71  C   LIG d   1      10.585  11.123  -0.737  0.00  0.00     0.115 C 
ATOM     72  H   LIG d   1       9.281  12.099  -2.152  0.00  0.00     0.065 H 
ATOM     73  C   LIG d   1      11.081   9.702  -0.455  0.00  0.00     0.145 C 
ATOM     74  H   LIG d   1      11.431  11.761  -0.994  0.00  0.00     0.065 H 
ATOM     75  H   LIG d   1      11.825   9.728   0.341  0.00  0.00     0.068 H 
BRANCH  68  76
ATOM     76  C   LIG d   1       9.287  10.360  -4.280  0.00  0.00     0.073 C 
ATOM     77  H   LIG d   1       9.791  10.607  -5.215  0.00  0.00     0.058 H 
ATOM     78  H   LIG d   1       8.893   9.345  -4.335  0.00  0.00     0.058 H 
BRANCH  76  79
ATOM     79  O   LIG d   1       8.213  11.277  -4.062  0.00  0.00    -0.392 OA
ATOM     80  H   LIG d   1       8.453  12.203  -4.198  0.00  0.00     0.209 HD
ENDBRANCH  76  79
ENDBRANCH  68  76
BRANCH  69  81
ATOM     81  O   LIG d   1       8.457  10.303  -1.547  0.00  0.00    -0.387 OA
ATOM     82  H   LIG d   1       8.040   9.849  -2.292  0.00  0.00     0.210 HD
ENDBRANCH  69  81
BRANCH  71  83
ATOM     83  O   LIG d   1       9.931  11.641   0.424  0.00  0.00    -0.386 OA
ATOM     84  H   LIG d   1      10.139  11.162   1.238  0.00  0.00     0.210 HD
ENDBRANCH  71  83
BRANCH  73  85
ATOM     85  O   LIG d   1       9.981   8.881  -0.055  0.00  0.00    -0.383 OA
ATOM     86  H   LIG d   1      10.209   8.214   0.607  0.00  0.00     0.210 HD
ENDBRANCH  73  85
ENDBRANCH  64  65
ENDBRANCH  58  64
ENDBRANCH  10  54
TORSDOF 21
ENDMDL
MODEL 9
REMARK VINA RESULT:      -5.6      7.168     12.654
REMARK  21 active torsions:
REMARK  status: ('A' for Active; 'I' for Inactive)
REMARK    1  A    between atoms: C_1  and  C_2 
REMARK    2  A    between atoms: C_2  and  O_4 
REMARK    3  A    between atoms: O_4  and  C_5 
REMARK    4  A    between atoms: C_9  and  C_23 
REMARK    5  A    between atoms: C_11  and  O_19 
REMARK    6  A    between atoms: C_13  and  O_15 
REMARK    7  A    between atoms: O_15  and  C_16 
REMARK    8  A    between atoms: C_16  and  C_18 
REMARK    9  A    between atoms: O_19  and  C_20 
REMARK   10  A    between atoms: C_20  and  C_22 
REMARK   11  A    between atoms: C_24  and  O_59 
REMARK   12  A    between atoms: C_28  and  O_29 
REMARK   13  A    between atoms: O_29  and  C_30 
REMARK   14  A    between atoms: C_34  and  C_36 
REMARK   15  A    between atoms: C_39  and  O_42 
REMARK   16  A    between atoms: O_42  and  C_43 
REMARK   17  A    between atoms: C_45  and  O_58 
REMARK   18  A    between atoms: C_47  and  O_57 
REMARK   19  A    between atoms: C_49  and  O_56 
REMARK   20  A    between atoms: C_51  and  C_54 
REMARK   21  A    between atoms: C_54  and  O_55 
ROOT
ATOM      1  C   LIG d   1       4.758  -1.448  -7.276  0.00  0.00     0.069 A 
ATOM      2  C   LIG d   1       5.179  -2.774  -7.330  0.00  0.00     0.130 A 
ATOM      3  C   LIG d   1       4.521  -3.692  -8.135  0.00  0.00     0.024 A 
ATOM      4  C   LIG d   1       3.433  -3.293  -8.895  0.00  0.00     0.146 A 
ATOM      5  C   LIG d   1       3.005  -1.956  -8.843  0.00  0.00     0.106 A 
ATOM      6  C   LIG d   1       3.670  -1.035  -8.023  0.00  0.00     0.144 A 
ATOM      7  C   LIG d   1       1.847  -1.556  -9.659  0.00  0.00     0.197 A 
ATOM      8  O   LIG d   1       1.433  -0.408  -9.652  0.00  0.00    -0.287 OA
ATOM      9  C   LIG d   1       1.233  -2.555 -10.452  0.00  0.00     0.029 A 
ATOM     10  C   LIG d   1       1.725  -3.822 -10.432  0.00  0.00     0.139 A 
ATOM     11  O   LIG d   1       2.782  -4.175  -9.684  0.00  0.00    -0.454 OA
ATOM     12  H   LIG d   1       4.858  -4.717  -8.169  0.00  0.00     0.069 H 
ATOM     13  H   LIG d   1       0.380  -2.311 -11.068  0.00  0.00     0.069 H 
ENDROOT
BRANCH   1  14
ATOM     14  C   LIG d   1       5.484  -0.465  -6.396  0.00  0.00     0.131 C 
ATOM     15  O   LIG d   1       6.777  -0.199  -6.944  0.00  0.00    -0.364 OA
ATOM     16  C   LIG d   1       7.543   0.747  -6.197  0.00  0.00     0.089 C 
ATOM     17  C   LIG d   1       7.780   0.208  -4.783  0.00  0.00     0.166 C 
ATOM     18  H   LIG d   1       7.001   1.692  -6.140  0.00  0.00     0.060 H 
ATOM     19  H   LIG d   1       8.502   0.908  -6.689  0.00  0.00     0.060 H 
ATOM     20  H   LIG d   1       8.359  -0.714  -4.838  0.00  0.00     0.080 H 
ATOM     21  C   LIG d   1       6.429  -0.073  -4.118  0.00  0.00     0.181 C 
ATOM     22  C   LIG d   1       5.638  -1.052  -4.991  0.00  0.00     0.173 C 
ATOM     23  H   LIG d   1       6.591  -0.510  -3.134  0.00  0.00     0.081 H 
ATOM     24  H   LIG d   1       6.172  -2.001  -5.050  0.00  0.00     0.080 H 
ATOM     25  H   LIG d   1       4.914   0.463  -6.342  0.00  0.00     0.069 H 
BRANCH  17  26
ATOM     26  O   LIG d   1       8.497   1.177  -4.016  0.00  0.00    -0.455 OA
BRANCH  26  27
ATOM     27  C   LIG d   1       9.709   1.537  -4.468  0.00  0.00     0.304 C 
ATOM     28  O   LIG d   1      10.555   0.696  -4.664  0.00  0.00    -0.251 OA
BRANCH  27  29
ATOM     29  C   LIG d   1      10.014   2.989  -4.732  0.00  0.00     0.033 C 
ATOM     30  H   LIG d   1       9.156   3.460  -5.210  0.00  0.00     0.034 H 
ATOM     31  H   LIG d   1      10.227   3.493  -3.789  0.00  0.00     0.034 H 
ATOM     32  H   LIG d   1      10.882   3.064  -5.387  0.00  0.00     0.034 H 
ENDBRANCH  27  29
ENDBRANCH  26  27
ENDBRANCH  17  26
BRANCH  21  33
ATOM     33  O   LIG d   1       5.697   1.147  -3.988  0.00  0.00    -0.454 OA
BRANCH  33  34
ATOM     34  C   LIG d   1       4.973   1.306  -2.868  0.00  0.00     0.304 C 
ATOM     35  O   LIG d   1       5.487   1.137  -1.787  0.00  0.00    -0.251 OA
BRANCH  34  36
ATOM     36  C   LIG d   1       3.521   1.697  -2.959  0.00  0.00     0.033 C 
ATOM     37  H   LIG d   1       3.354   2.264  -3.875  0.00  0.00     0.034 H 
ATOM     38  H   LIG d   1       2.903   0.799  -2.969  0.00  0.00     0.034 H 
ATOM     39  H   LIG d   1       3.255   2.311  -2.099  0.00  0.00     0.034 H 
ENDBRANCH  34  36
ENDBRANCH  33  34
ENDBRANCH  21  33
BRANCH  22  40
ATOM     40  O   LIG d   1       4.345  -1.267  -4.419  0.00  0.00    -0.455 OA
BRANCH  40  41
ATOM     41  C   LIG d   1       4.206  -2.327  -3.608  0.00  0.00     0.304 C 
ATOM     42  O   LIG d   1       4.404  -3.441  -4.030  0.00  0.00    -0.251 OA
BRANCH  41  43
ATOM     43  C   LIG d   1       3.803  -2.127  -2.170  0.00  0.00     0.033 C 
ATOM     44  H   LIG d   1       2.789  -2.498  -2.022  0.00  0.00     0.034 H 
ATOM     45  H   LIG d   1       4.488  -2.672  -1.521  0.00  0.00     0.034 H 
ATOM     46  H   LIG d   1       3.838  -1.065  -1.926  0.00  0.00     0.034 H 
ENDBRANCH  41  43
ENDBRANCH  40  41
ENDBRANCH  22  40
ENDBRANCH   1  14
BRANCH   6  47
ATOM     47  O   LIG d   1       3.254   0.256  -7.967  0.00  0.00    -0.494 OA
BRANCH  47  48
ATOM     48  C   LIG d   1       4.013   1.215  -8.706  0.00  0.00     0.079 C 
ATOM     49  H   LIG d   1       3.391   1.646  -9.490  0.00  0.00     0.066 H 
ATOM     50  H   LIG d   1       4.352   2.005  -8.035  0.00  0.00     0.066 H 
ATOM     51  H   LIG d   1       4.878   0.726  -9.155  0.00  0.00     0.066 H 
ENDBRANCH  47  48
ENDBRANCH   6  47
BRANCH   2  52
ATOM     52  O   LIG d   1       6.244  -3.171  -6.589  0.00  0.00    -0.506 OA
ATOM     53  H   LIG d   1       6.561  -4.060  -6.800  0.00  0.00     0.292 HD
ENDBRANCH   2  52
BRANCH  10  54
ATOM     54  C   LIG d   1       1.072  -4.849 -11.266  0.00  0.00     0.018 A 
ATOM     55  C   LIG d   1       0.232  -4.469 -12.317  0.00  0.00    -0.048 A 
ATOM     56  C   LIG d   1      -0.371  -5.431 -13.097  0.00  0.00    -0.019 A 
ATOM     57  H   LIG d   1       0.058  -3.422 -12.519  0.00  0.00     0.063 H 
ATOM     58  C   LIG d   1      -0.154  -6.778 -12.833  0.00  0.00     0.124 A 
ATOM     59  H   LIG d   1      -1.016  -5.138 -13.912  0.00  0.00     0.065 H 
ATOM     60  C   LIG d   1       0.676  -7.160 -11.786  0.00  0.00    -0.019 A 
ATOM     61  C   LIG d   1       1.287  -6.205 -11.005  0.00  0.00    -0.048 A 
ATOM     62  H   LIG d   1       0.842  -8.209 -11.585  0.00  0.00     0.065 H 
ATOM     63  H   LIG d   1       1.933  -6.503 -10.192  0.00  0.00     0.063 H 
BRANCH  58  64
ATOM     64  O   LIG d   1      -0.754  -7.723 -13.601  0.00  0.00    -0.461 OA
BRANCH  64  65
ATOM     65  C   LIG d   1      -1.679  -8.597 -12.951  0.00  0.00     0.231 C 
ATOM     66  H   LIG d   1      -1.185  -9.091 -12.114  0.00  0.00     0.108 H 
ATOM     67  O   LIG d   1      -2.791  -7.840 -12.467  0.00  0.00    -0.331 OA
ATOM     68  C   LIG d   1      -3.769  -8.618 -11.774  0.00  0.00     0.114 C 
ATOM     69  C   LIG d   1      -4.347  -9.672 -12.722  0.00  0.00     0.112 C 
ATOM     70  H   LIG d   1      -3.302  -9.113 -10.922  0.00  0.00     0.065 H 
ATOM     71  C   LIG d   1      -3.208 -10.545 -13.258  0.00  0.00     0.115 C 
ATOM     72  H   LIG d   1      -5.061 -10.294 -12.183  0.00  0.00     0.065 H 
ATOM     73  C   LIG d   1      -2.173  -9.650 -13.945  0.00  0.00     0.145 C 
ATOM     74  H   LIG d   1      -2.738 -11.078 -12.431  0.00  0.00     0.065 H 
ATOM     75  H   LIG d   1      -1.333 -10.257 -14.282  0.00  0.00     0.068 H 
BRANCH  68  76
ATOM     76  C   LIG d   1      -4.892  -7.704 -11.281  0.00  0.00     0.073 C 
ATOM     77  H   LIG d   1      -5.323  -7.170 -12.127  0.00  0.00     0.058 H 
ATOM     78  H   LIG d   1      -5.663  -8.304 -10.797  0.00  0.00     0.058 H 
BRANCH  76  79
ATOM     79  O   LIG d   1      -4.364  -6.763 -10.344  0.00  0.00    -0.392 OA
ATOM     80  H   LIG d   1      -4.500  -5.840 -10.594  0.00  0.00     0.209 HD
ENDBRANCH  76  79
ENDBRANCH  68  76
BRANCH  69  81
ATOM     81  O   LIG d   1      -5.006  -9.024 -13.812  0.00  0.00    -0.387 OA
ATOM     82  H   LIG d   1      -5.013  -9.540 -14.630  0.00  0.00     0.210 HD
ENDBRANCH  69  81
BRANCH  71  83
ATOM     83  O   LIG d   1      -3.728 -11.486 -14.200  0.00  0.00    -0.386 OA
ATOM     84  H   LIG d   1      -3.120 -12.208 -14.411  0.00  0.00     0.210 HD
ENDBRANCH  71  83
BRANCH  73  85
ATOM     85  O   LIG d   1      -2.773  -9.000 -15.069  0.00  0.00    -0.383 OA
ATOM     86  H   LIG d   1      -2.865  -8.043 -14.966  0.00  0.00     0.210 HD
ENDBRANCH  73  85
ENDBRANCH  64  65
ENDBRANCH  58  64
ENDBRANCH  10  54
TORSDOF 21
ENDMDL
