MODEL 1
REMARK VINA RESULT:      -6.9      0.000      0.000
REMARK  4 active torsions:
REMARK  status: ('A' for Active; 'I' for Inactive)
REMARK    1  A    between atoms: C_1  and  C_2 
REMARK    2  A    between atoms: C_15  and  O_24 
REMARK    3  A    between atoms: C_17  and  O_23 
REMARK    4  A    between atoms: C_19  and  O_22 
ROOT
ATOM      1  C   LIG d   1       4.999   0.520  -2.927  0.00  0.00    -0.033 C 
ATOM      2  H   LIG d   1       4.297   1.004  -3.604  0.00  0.00     0.030 H 
ATOM      3  C   LIG d   1       4.896  -0.993  -3.072  0.00  0.00    -0.028 C 
ATOM      4  C   LIG d   1       5.320  -1.454  -4.451  0.00  0.00    -0.062 C 
ATOM      5  C   LIG d   1       6.097  -0.706  -5.227  0.00  0.00     0.008 C 
ATOM      6  C   LIG d   1       6.483  -1.142  -6.610  0.00  0.00     0.082 C 
ATOM      7  H   LIG d   1       7.443  -1.671  -6.543  0.00  0.00     0.046 H 
ATOM      8  C   LIG d   1       6.662   0.021  -7.549  0.00  0.00     0.174 C 
ATOM      9  O   LIG d   1       7.764   0.484  -7.759  0.00  0.00    -0.291 OA
ATOM     10  C   LIG d   1       5.474   0.579  -8.221  0.00  0.00     0.027 A 
ATOM     11  C   LIG d   1       5.563   1.809  -8.881  0.00  0.00    -0.051 A 
ATOM     12  C   LIG d   1       4.454   2.328  -9.518  0.00  0.00    -0.058 A 
ATOM     13  C   LIG d   1       3.259   1.632  -9.503  0.00  0.00    -0.020 A 
ATOM     14  C   LIG d   1       3.163   0.415  -8.845  0.00  0.00     0.123 A 
ATOM     15  C   LIG d   1       4.268  -0.118  -8.194  0.00  0.00     0.035 A 
ATOM     16  C   LIG d   1       4.122  -1.423  -7.461  0.00  0.00     0.114 C 
ATOM     17  H   LIG d   1       3.509  -2.090  -8.083  0.00  0.00     0.067 H 
ATOM     18  C   LIG d   1       5.456  -2.105  -7.203  0.00  0.00     0.110 C 
ATOM     19  C   LIG d   1       5.289  -3.273  -6.227  0.00  0.00    -0.017 C 
ATOM     20  C   LIG d   1       4.817  -2.815  -4.864  0.00  0.00    -0.028 C 
ATOM     21  C   LIG d   1       6.643   0.568  -4.733  0.00  0.00     0.160 C 
ATOM     22  O   LIG d   1       7.268   1.314  -5.458  0.00  0.00    -0.292 OA
ATOM     23  C   LIG d   1       6.434   0.938  -3.281  0.00  0.00     0.013 C 
ATOM     24  H   LIG d   1       5.531  -1.469  -2.326  0.00  0.00     0.031 H 
ATOM     25  H   LIG d   1       3.861  -1.294  -2.904  0.00  0.00     0.031 H 
ATOM     26  H   LIG d   1       6.495   2.352  -8.892  0.00  0.00     0.062 H 
ATOM     27  H   LIG d   1       4.519   3.277 -10.027  0.00  0.00     0.062 H 
ATOM     28  H   LIG d   1       2.394   2.039 -10.006  0.00  0.00     0.065 H 
ATOM     29  H   LIG d   1       4.571  -3.993  -6.641  0.00  0.00     0.030 H 
ATOM     30  H   LIG d   1       6.251  -3.796  -6.122  0.00  0.00     0.030 H 
ATOM     31  H   LIG d   1       5.164  -3.543  -4.115  0.00  0.00     0.031 H 
ATOM     32  H   LIG d   1       3.727  -2.828  -4.825  0.00  0.00     0.031 H 
ATOM     33  H   LIG d   1       6.558   2.011  -3.148  0.00  0.00     0.035 H 
ATOM     34  H   LIG d   1       7.145   0.398  -2.655  0.00  0.00     0.035 H 
ENDROOT
BRANCH   1  35
ATOM     35  C   LIG d   1       4.685   0.922  -1.485  0.00  0.00    -0.062 C 
ATOM     36  H   LIG d   1       4.773   2.004  -1.382  0.00  0.00     0.023 H 
ATOM     37  H   LIG d   1       3.671   0.614  -1.234  0.00  0.00     0.023 H 
ATOM     38  H   LIG d   1       5.390   0.436  -0.810  0.00  0.00     0.023 H 
ENDBRANCH   1  35
BRANCH  18  39
ATOM     39  O   LIG d   1       5.970  -2.610  -8.456  0.00  0.00    -0.385 OA
ATOM     40  H   LIG d   1       5.358  -3.193  -8.925  0.00  0.00     0.210 HD
ENDBRANCH  18  39
BRANCH  16  41
ATOM     41  O   LIG d   1       3.413  -1.175  -6.250  0.00  0.00    -0.384 OA
ATOM     42  H   LIG d   1       2.835  -1.901  -5.977  0.00  0.00     0.210 HD
ENDBRANCH  16  41
BRANCH  14  43
ATOM     43  O   LIG d   1       1.981  -0.257  -8.839  0.00  0.00    -0.506 OA
ATOM     44  H   LIG d   1       2.028  -1.132  -8.430  0.00  0.00     0.292 HD
ENDBRANCH  14  43
TORSDOF 4
ENDMDL
MODEL 2
REMARK VINA RESULT:      -6.7      1.792      5.587
REMARK  4 active torsions:
REMARK  status: ('A' for Active; 'I' for Inactive)
REMARK    1  A    between atoms: C_1  and  C_2 
REMARK    2  A    between atoms: C_15  and  O_24 
REMARK    3  A    between atoms: C_17  and  O_23 
REMARK    4  A    between atoms: C_19  and  O_22 
ROOT
ATOM      1  C   LIG d   1       4.894   0.235  -8.802  0.00  0.00    -0.033 C 
ATOM      2  H   LIG d   1       4.361   0.552  -7.907  0.00  0.00     0.030 H 
ATOM      3  C   LIG d   1       6.365   0.609  -8.686  0.00  0.00    -0.028 C 
ATOM      4  C   LIG d   1       7.046  -0.133  -7.556  0.00  0.00    -0.062 C 
ATOM      5  C   LIG d   1       6.549  -1.265  -7.067  0.00  0.00     0.008 C 
ATOM      6  C   LIG d   1       7.198  -1.979  -5.919  0.00  0.00     0.082 C 
ATOM      7  H   LIG d   1       7.891  -2.725  -6.332  0.00  0.00     0.046 H 
ATOM      8  C   LIG d   1       6.201  -2.705  -5.056  0.00  0.00     0.174 C 
ATOM      9  O   LIG d   1       5.983  -3.887  -5.221  0.00  0.00    -0.291 OA
ATOM     10  C   LIG d   1       5.503  -1.955  -3.996  0.00  0.00     0.027 A 
ATOM     11  C   LIG d   1       4.391  -2.519  -3.361  0.00  0.00    -0.051 A 
ATOM     12  C   LIG d   1       3.742  -1.822  -2.364  0.00  0.00    -0.058 A 
ATOM     13  C   LIG d   1       4.192  -0.567  -1.992  0.00  0.00    -0.020 A 
ATOM     14  C   LIG d   1       5.289   0.001  -2.622  0.00  0.00     0.123 A 
ATOM     15  C   LIG d   1       5.948  -0.685  -3.633  0.00  0.00     0.035 A 
ATOM     16  C   LIG d   1       7.114  -0.027  -4.318  0.00  0.00     0.114 C 
ATOM     17  H   LIG d   1       7.716   0.476  -3.549  0.00  0.00     0.067 H 
ATOM     18  C   LIG d   1       8.007  -1.022  -5.045  0.00  0.00     0.110 C 
ATOM     19  C   LIG d   1       9.008  -0.294  -5.946  0.00  0.00    -0.017 C 
ATOM     20  C   LIG d   1       8.322   0.488  -7.046  0.00  0.00    -0.028 C 
ATOM     21  C   LIG d   1       5.357  -1.881  -7.671  0.00  0.00     0.160 C 
ATOM     22  O   LIG d   1       4.828  -2.855  -7.178  0.00  0.00    -0.292 OA
ATOM     23  C   LIG d   1       4.799  -1.292  -8.947  0.00  0.00     0.013 C 
ATOM     24  H   LIG d   1       6.870   0.374  -9.622  0.00  0.00     0.031 H 
ATOM     25  H   LIG d   1       6.443   1.681  -8.499  0.00  0.00     0.031 H 
ATOM     26  H   LIG d   1       4.041  -3.498  -3.652  0.00  0.00     0.062 H 
ATOM     27  H   LIG d   1       2.884  -2.255  -1.872  0.00  0.00     0.062 H 
ATOM     28  H   LIG d   1       3.684  -0.026  -1.208  0.00  0.00     0.065 H 
ATOM     29  H   LIG d   1       9.618   0.387  -5.338  0.00  0.00     0.030 H 
ATOM     30  H   LIG d   1       9.691  -1.031  -6.395  0.00  0.00     0.030 H 
ATOM     31  H   LIG d   1       9.018   0.573  -7.895  0.00  0.00     0.031 H 
ATOM     32  H   LIG d   1       8.122   1.506  -6.707  0.00  0.00     0.031 H 
ATOM     33  H   LIG d   1       3.761  -1.595  -9.075  0.00  0.00     0.035 H 
ATOM     34  H   LIG d   1       5.393  -1.623  -9.799  0.00  0.00     0.035 H 
ENDROOT
BRANCH   1  35
ATOM     35  C   LIG d   1       4.284   0.909 -10.032  0.00  0.00    -0.062 C 
ATOM     36  H   LIG d   1       4.105   0.162 -10.806  0.00  0.00     0.023 H 
ATOM     37  H   LIG d   1       3.341   1.381  -9.758  0.00  0.00     0.023 H 
ATOM     38  H   LIG d   1       4.973   1.665 -10.411  0.00  0.00     0.023 H 
ENDBRANCH   1  35
BRANCH  18  39
ATOM     39  O   LIG d   1       8.734  -1.796  -4.065  0.00  0.00    -0.385 OA
ATOM     40  H   LIG d   1       8.357  -2.671  -3.897  0.00  0.00     0.210 HD
ENDBRANCH  18  39
BRANCH  16  41
ATOM     41  O   LIG d   1       6.605   0.968  -5.201  0.00  0.00    -0.384 OA
ATOM     42  H   LIG d   1       6.916   1.863  -5.006  0.00  0.00     0.210 HD
ENDBRANCH  16  41
BRANCH  14  43
ATOM     43  O   LIG d   1       5.717   1.235  -2.246  0.00  0.00    -0.506 OA
ATOM     44  H   LIG d   1       6.550   1.504  -2.657  0.00  0.00     0.292 HD
ENDBRANCH  14  43
TORSDOF 4
ENDMDL
MODEL 3
REMARK VINA RESULT:      -6.3      2.067      5.218
REMARK  4 active torsions:
REMARK  status: ('A' for Active; 'I' for Inactive)
REMARK    1  A    between atoms: C_1  and  C_2 
REMARK    2  A    between atoms: C_15  and  O_24 
REMARK    3  A    between atoms: C_17  and  O_23 
REMARK    4  A    between atoms: C_19  and  O_22 
ROOT
ATOM      1  C   LIG d   1       4.739  -5.496  -7.378  0.00  0.00    -0.033 C 
ATOM      2  H   LIG d   1       3.976  -5.143  -6.684  0.00  0.00     0.030 H 
ATOM      3  C   LIG d   1       4.926  -4.481  -8.498  0.00  0.00    -0.028 C 
ATOM      4  C   LIG d   1       5.464  -3.165  -7.979  0.00  0.00    -0.062 C 
ATOM      5  C   LIG d   1       6.107  -3.084  -6.818  0.00  0.00     0.008 C 
ATOM      6  C   LIG d   1       6.604  -1.775  -6.281  0.00  0.00     0.082 C 
ATOM      7  H   LIG d   1       7.645  -1.647  -6.609  0.00  0.00     0.046 H 
ATOM      8  C   LIG d   1       6.586  -1.727  -4.777  0.00  0.00     0.174 C 
ATOM      9  O   LIG d   1       7.587  -1.977  -4.136  0.00  0.00    -0.291 OA
ATOM     10  C   LIG d   1       5.332  -1.357  -4.094  0.00  0.00     0.027 A 
ATOM     11  C   LIG d   1       5.205  -1.560  -2.716  0.00  0.00    -0.051 A 
ATOM     12  C   LIG d   1       4.036  -1.207  -2.075  0.00  0.00    -0.058 A 
ATOM     13  C   LIG d   1       2.992  -0.652  -2.795  0.00  0.00    -0.020 A 
ATOM     14  C   LIG d   1       3.110  -0.454  -4.163  0.00  0.00     0.123 A 
ATOM     15  C   LIG d   1       4.278  -0.811  -4.824  0.00  0.00     0.035 A 
ATOM     16  C   LIG d   1       4.361  -0.614  -6.312  0.00  0.00     0.114 C 
ATOM     17  H   LIG d   1       3.901   0.355  -6.549  0.00  0.00     0.067 H 
ATOM     18  C   LIG d   1       5.793  -0.600  -6.825  0.00  0.00     0.110 C 
ATOM     19  C   LIG d   1       5.823  -0.676  -8.354  0.00  0.00    -0.017 C 
ATOM     20  C   LIG d   1       5.238  -1.972  -8.872  0.00  0.00    -0.028 C 
ATOM     21  C   LIG d   1       6.391  -4.298  -6.035  0.00  0.00     0.160 C 
ATOM     22  O   LIG d   1       6.883  -4.236  -4.927  0.00  0.00    -0.292 OA
ATOM     23  C   LIG d   1       6.078  -5.648  -6.641  0.00  0.00     0.013 C 
ATOM     24  H   LIG d   1       5.619  -4.884  -9.234  0.00  0.00     0.031 H 
ATOM     25  H   LIG d   1       3.962  -4.302  -8.976  0.00  0.00     0.031 H 
ATOM     26  H   LIG d   1       6.019  -1.993  -2.155  0.00  0.00     0.062 H 
ATOM     27  H   LIG d   1       3.935  -1.362  -1.012  0.00  0.00     0.062 H 
ATOM     28  H   LIG d   1       2.080  -0.373  -2.289  0.00  0.00     0.065 H 
ATOM     29  H   LIG d   1       5.263   0.172  -8.771  0.00  0.00     0.030 H 
ATOM     30  H   LIG d   1       6.863  -0.582  -8.699  0.00  0.00     0.030 H 
ATOM     31  H   LIG d   1       5.696  -2.191  -9.850  0.00  0.00     0.031 H 
ATOM     32  H   LIG d   1       4.168  -1.850  -9.053  0.00  0.00     0.031 H 
ATOM     33  H   LIG d   1       5.995  -6.398  -5.857  0.00  0.00     0.035 H 
ATOM     34  H   LIG d   1       6.861  -5.927  -7.346  0.00  0.00     0.035 H 
ENDROOT
BRANCH   1  35
ATOM     35  C   LIG d   1       4.318  -6.843  -7.966  0.00  0.00    -0.062 C 
ATOM     36  H   LIG d   1       3.955  -6.698  -8.984  0.00  0.00     0.023 H 
ATOM     37  H   LIG d   1       5.173  -7.518  -7.978  0.00  0.00     0.023 H 
ATOM     38  H   LIG d   1       3.523  -7.274  -7.356  0.00  0.00     0.023 H 
ENDBRANCH   1  35
BRANCH  18  39
ATOM     39  O   LIG d   1       6.424   0.630  -6.403  0.00  0.00    -0.385 OA
ATOM     40  H   LIG d   1       6.363   1.345  -7.050  0.00  0.00     0.210 HD
ENDBRANCH  18  39
BRANCH  16  41
ATOM     41  O   LIG d   1       3.586  -1.634  -6.938  0.00  0.00    -0.384 OA
ATOM     42  H   LIG d   1       3.188  -2.261  -6.318  0.00  0.00     0.210 HD
ENDBRANCH  16  41
BRANCH  14  43
ATOM     43  O   LIG d   1       2.076   0.091  -4.856  0.00  0.00    -0.506 OA
ATOM     44  H   LIG d   1       2.088  -0.108  -5.802  0.00  0.00     0.292 HD
ENDBRANCH  14  43
TORSDOF 4
ENDMDL
MODEL 4
REMARK VINA RESULT:      -6.3      2.015      3.021
REMARK  4 active torsions:
REMARK  status: ('A' for Active; 'I' for Inactive)
REMARK    1  A    between atoms: C_1  and  C_2 
REMARK    2  A    between atoms: C_15  and  O_24 
REMARK    3  A    between atoms: C_17  and  O_23 
REMARK    4  A    between atoms: C_19  and  O_22 
ROOT
ATOM      1  C   LIG d   1       3.918  -1.873  -3.650  0.00  0.00    -0.033 C 
ATOM      2  H   LIG d   1       3.262  -2.404  -4.339  0.00  0.00     0.030 H 
ATOM      3  C   LIG d   1       5.373  -2.145  -4.011  0.00  0.00    -0.028 C 
ATOM      4  C   LIG d   1       5.726  -1.591  -5.375  0.00  0.00    -0.062 C 
ATOM      5  C   LIG d   1       5.011  -0.622  -5.940  0.00  0.00     0.008 C 
ATOM      6  C   LIG d   1       5.333  -0.102  -7.309  0.00  0.00     0.082 C 
ATOM      7  H   LIG d   1       5.999   0.765  -7.195  0.00  0.00     0.046 H 
ATOM      8  C   LIG d   1       4.107   0.356  -8.052  0.00  0.00     0.174 C 
ATOM      9  O   LIG d   1       3.786   1.526  -8.058  0.00  0.00    -0.291 OA
ATOM     10  C   LIG d   1       3.310  -0.644  -8.787  0.00  0.00     0.027 A 
ATOM     11  C   LIG d   1       2.036  -0.308  -9.259  0.00  0.00    -0.051 A 
ATOM     12  C   LIG d   1       1.293  -1.239  -9.953  0.00  0.00    -0.058 A 
ATOM     13  C   LIG d   1       1.807  -2.503 -10.182  0.00  0.00    -0.020 A 
ATOM     14  C   LIG d   1       3.066  -2.845  -9.711  0.00  0.00     0.123 A 
ATOM     15  C   LIG d   1       3.824  -1.921  -9.005  0.00  0.00     0.035 A 
ATOM     16  C   LIG d   1       5.171  -2.334  -8.480  0.00  0.00     0.114 C 
ATOM     17  H   LIG d   1       5.667  -2.931  -9.258  0.00  0.00     0.067 H 
ATOM     18  C   LIG d   1       6.064  -1.147  -8.151  0.00  0.00     0.110 C 
ATOM     19  C   LIG d   1       7.301  -1.597  -7.371  0.00  0.00    -0.017 C 
ATOM     20  C   LIG d   1       6.942  -2.197  -6.028  0.00  0.00    -0.028 C 
ATOM     21  C   LIG d   1       3.896   0.005  -5.213  0.00  0.00     0.160 C 
ATOM     22  O   LIG d   1       3.168   0.816  -5.748  0.00  0.00    -0.292 OA
ATOM     23  C   LIG d   1       3.672  -0.361  -3.763  0.00  0.00     0.013 C 
ATOM     24  H   LIG d   1       6.019  -1.688  -3.263  0.00  0.00     0.031 H 
ATOM     25  H   LIG d   1       5.540  -3.222  -4.016  0.00  0.00     0.031 H 
ATOM     26  H   LIG d   1       1.636   0.678  -9.079  0.00  0.00     0.062 H 
ATOM     27  H   LIG d   1       0.310  -0.983 -10.317  0.00  0.00     0.062 H 
ATOM     28  H   LIG d   1       1.224  -3.229 -10.729  0.00  0.00     0.065 H 
ATOM     29  H   LIG d   1       7.857  -2.335  -7.964  0.00  0.00     0.030 H 
ATOM     30  H   LIG d   1       7.966  -0.734  -7.217  0.00  0.00     0.030 H 
ATOM     31  H   LIG d   1       7.796  -2.055  -5.346  0.00  0.00     0.031 H 
ATOM     32  H   LIG d   1       6.803  -3.275  -6.128  0.00  0.00     0.031 H 
ATOM     33  H   LIG d   1       2.651  -0.122  -3.472  0.00  0.00     0.035 H 
ATOM     34  H   LIG d   1       4.378   0.179  -3.131  0.00  0.00     0.035 H 
ENDROOT
BRANCH   1  35
ATOM     35  C   LIG d   1       3.646  -2.335  -2.218  0.00  0.00    -0.062 C 
ATOM     36  H   LIG d   1       3.842  -3.405  -2.138  0.00  0.00     0.023 H 
ATOM     37  H   LIG d   1       4.296  -1.794  -1.532  0.00  0.00     0.023 H 
ATOM     38  H   LIG d   1       2.604  -2.138  -1.964  0.00  0.00     0.023 H 
ENDBRANCH   1  35
BRANCH  18  39
ATOM     39  O   LIG d   1       6.487  -0.528  -9.387  0.00  0.00    -0.385 OA
ATOM     40  H   LIG d   1       7.428  -0.641  -9.580  0.00  0.00     0.210 HD
ENDBRANCH  18  39
BRANCH  16  41
ATOM     41  O   LIG d   1       4.967  -3.171  -7.345  0.00  0.00    -0.384 OA
ATOM     42  H   LIG d   1       4.596  -2.712  -6.579  0.00  0.00     0.210 HD
ENDBRANCH  16  41
BRANCH  14  43
ATOM     43  O   LIG d   1       3.557  -4.091  -9.944  0.00  0.00    -0.506 OA
ATOM     44  H   LIG d   1       3.352  -4.731  -9.250  0.00  0.00     0.292 HD
ENDBRANCH  14  43
TORSDOF 4
ENDMDL
MODEL 5
REMARK VINA RESULT:      -6.3      2.267      3.640
REMARK  4 active torsions:
REMARK  status: ('A' for Active; 'I' for Inactive)
REMARK    1  A    between atoms: C_1  and  C_2 
REMARK    2  A    between atoms: C_15  and  O_24 
REMARK    3  A    between atoms: C_17  and  O_23 
REMARK    4  A    between atoms: C_19  and  O_22 
ROOT
ATOM      1  C   LIG d   1       8.163   1.890  -4.640  0.00  0.00    -0.033 C 
ATOM      2  H   LIG d   1       7.579   1.864  -5.560  0.00  0.00     0.030 H 
ATOM      3  C   LIG d   1       7.229   1.867  -3.437  0.00  0.00    -0.028 C 
ATOM      4  C   LIG d   1       6.450   0.572  -3.356  0.00  0.00    -0.062 C 
ATOM      5  C   LIG d   1       6.870  -0.533  -3.964  0.00  0.00     0.008 C 
ATOM      6  C   LIG d   1       6.078  -1.807  -3.920  0.00  0.00     0.082 C 
ATOM      7  H   LIG d   1       6.442  -2.404  -3.073  0.00  0.00     0.046 H 
ATOM      8  C   LIG d   1       6.245  -2.629  -5.170  0.00  0.00     0.174 C 
ATOM      9  O   LIG d   1       7.051  -3.536  -5.212  0.00  0.00    -0.291 OA
ATOM     10  C   LIG d   1       5.399  -2.322  -6.338  0.00  0.00     0.027 A 
ATOM     11  C   LIG d   1       5.707  -2.879  -7.584  0.00  0.00    -0.051 A 
ATOM     12  C   LIG d   1       4.912  -2.599  -8.676  0.00  0.00    -0.058 A 
ATOM     13  C   LIG d   1       3.812  -1.771  -8.538  0.00  0.00    -0.020 A 
ATOM     14  C   LIG d   1       3.506  -1.210  -7.307  0.00  0.00     0.123 A 
ATOM     15  C   LIG d   1       4.300  -1.477  -6.199  0.00  0.00     0.035 A 
ATOM     16  C   LIG d   1       3.960  -0.827  -4.886  0.00  0.00     0.114 C 
ATOM     17  H   LIG d   1       2.868  -0.862  -4.768  0.00  0.00     0.067 H 
ATOM     18  C   LIG d   1       4.591  -1.537  -3.698  0.00  0.00     0.110 C 
ATOM     19  C   LIG d   1       4.450  -0.695  -2.426  0.00  0.00    -0.017 C 
ATOM     20  C   LIG d   1       5.189   0.622  -2.530  0.00  0.00    -0.028 C 
ATOM     21  C   LIG d   1       8.160  -0.553  -4.671  0.00  0.00     0.160 C 
ATOM     22  O   LIG d   1       8.514  -1.517  -5.318  0.00  0.00    -0.292 OA
ATOM     23  C   LIG d   1       9.069   0.652  -4.566  0.00  0.00     0.013 C 
ATOM     24  H   LIG d   1       7.814   1.989  -2.527  0.00  0.00     0.031 H 
ATOM     25  H   LIG d   1       6.524   2.695  -3.521  0.00  0.00     0.031 H 
ATOM     26  H   LIG d   1       6.565  -3.524  -7.692  0.00  0.00     0.062 H 
ATOM     27  H   LIG d   1       5.147  -3.027  -9.639  0.00  0.00     0.062 H 
ATOM     28  H   LIG d   1       3.190  -1.557  -9.394  0.00  0.00     0.065 H 
ATOM     29  H   LIG d   1       3.387  -0.504  -2.232  0.00  0.00     0.030 H 
ATOM     30  H   LIG d   1       4.841  -1.266  -1.571  0.00  0.00     0.030 H 
ATOM     31  H   LIG d   1       5.466   0.944  -1.513  0.00  0.00     0.031 H 
ATOM     32  H   LIG d   1       4.523   1.391  -2.926  0.00  0.00     0.031 H 
ATOM     33  H   LIG d   1       9.780   0.655  -5.389  0.00  0.00     0.035 H 
ATOM     34  H   LIG d   1       9.598   0.634  -3.613  0.00  0.00     0.035 H 
ENDROOT
BRANCH   1  35
ATOM     35  C   LIG d   1       9.017   3.158  -4.607  0.00  0.00    -0.062 C 
ATOM     36  H   LIG d   1      10.015   2.934  -4.986  0.00  0.00     0.023 H 
ATOM     37  H   LIG d   1       8.555   3.924  -5.229  0.00  0.00     0.023 H 
ATOM     38  H   LIG d   1       9.092   3.519  -3.581  0.00  0.00     0.023 H 
ENDBRANCH   1  35
BRANCH  18  39
ATOM     39  O   LIG d   1       3.918  -2.801  -3.501  0.00  0.00    -0.385 OA
ATOM     40  H   LIG d   1       3.416  -3.103  -4.271  0.00  0.00     0.210 HD
ENDBRANCH  18  39
BRANCH  16  41
ATOM     41  O   LIG d   1       4.352   0.541  -4.954  0.00  0.00    -0.384 OA
ATOM     42  H   LIG d   1       4.125   1.055  -4.167  0.00  0.00     0.210 HD
ENDBRANCH  16  41
BRANCH  14  43
ATOM     43  O   LIG d   1       2.423  -0.398  -7.187  0.00  0.00    -0.506 OA
ATOM     44  H   LIG d   1       2.595   0.418  -6.697  0.00  0.00     0.292 HD
ENDBRANCH  14  43
TORSDOF 4
ENDMDL
MODEL 6
REMARK VINA RESULT:      -6.3      2.187      4.463
REMARK  4 active torsions:
REMARK  status: ('A' for Active; 'I' for Inactive)
REMARK    1  A    between atoms: C_1  and  C_2 
REMARK    2  A    between atoms: C_15  and  O_24 
REMARK    3  A    between atoms: C_17  and  O_23 
REMARK    4  A    between atoms: C_19  and  O_22 
ROOT
ATOM      1  C   LIG d   1       8.024  -4.414  -4.731  0.00  0.00    -0.033 C 
ATOM      2  H   LIG d   1       7.304  -4.186  -3.946  0.00  0.00     0.030 H 
ATOM      3  C   LIG d   1       7.314  -4.485  -6.077  0.00  0.00    -0.028 C 
ATOM      4  C   LIG d   1       6.730  -3.146  -6.475  0.00  0.00    -0.062 C 
ATOM      5  C   LIG d   1       7.181  -2.008  -5.955  0.00  0.00     0.008 C 
ATOM      6  C   LIG d   1       6.575  -0.683  -6.315  0.00  0.00     0.082 C 
ATOM      7  H   LIG d   1       7.149  -0.265  -7.154  0.00  0.00     0.046 H 
ATOM      8  C   LIG d   1       6.636   0.303  -5.180  0.00  0.00     0.174 C 
ATOM      9  O   LIG d   1       7.532   1.119  -5.114  0.00  0.00    -0.291 OA
ATOM     10  C   LIG d   1       5.575   0.269  -4.156  0.00  0.00     0.027 A 
ATOM     11  C   LIG d   1       5.740   0.979  -2.961  0.00  0.00    -0.051 A 
ATOM     12  C   LIG d   1       4.746   0.955  -2.006  0.00  0.00    -0.058 A 
ATOM     13  C   LIG d   1       3.588   0.231  -2.229  0.00  0.00    -0.020 A 
ATOM     14  C   LIG d   1       3.422  -0.480  -3.408  0.00  0.00     0.123 A 
ATOM     15  C   LIG d   1       4.417  -0.472  -4.377  0.00  0.00     0.035 A 
ATOM     16  C   LIG d   1       4.219  -1.280  -5.630  0.00  0.00     0.114 C 
ATOM     17  H   LIG d   1       3.176  -1.154  -5.950  0.00  0.00     0.067 H 
ATOM     18  C   LIG d   1       5.124  -0.832  -6.767  0.00  0.00     0.110 C 
ATOM     19  C   LIG d   1       5.091  -1.843  -7.917  0.00  0.00    -0.017 C 
ATOM     20  C   LIG d   1       5.629  -3.196  -7.503  0.00  0.00    -0.028 C 
ATOM     21  C   LIG d   1       8.328  -2.009  -5.033  0.00  0.00     0.160 C 
ATOM     22  O   LIG d   1       8.688  -0.997  -4.469  0.00  0.00    -0.292 OA
ATOM     23  C   LIG d   1       9.080  -3.301  -4.806  0.00  0.00     0.013 C 
ATOM     24  H   LIG d   1       8.022  -4.806  -6.839  0.00  0.00     0.031 H 
ATOM     25  H   LIG d   1       6.506  -5.214  -6.012  0.00  0.00     0.031 H 
ATOM     26  H   LIG d   1       6.643   1.543  -2.787  0.00  0.00     0.062 H 
ATOM     27  H   LIG d   1       4.870   1.502  -1.083  0.00  0.00     0.062 H 
ATOM     28  H   LIG d   1       2.810   0.218  -1.481  0.00  0.00     0.065 H 
ATOM     29  H   LIG d   1       4.059  -1.953  -8.276  0.00  0.00     0.030 H 
ATOM     30  H   LIG d   1       5.688  -1.456  -8.756  0.00  0.00     0.030 H 
ATOM     31  H   LIG d   1       6.027  -3.699  -8.398  0.00  0.00     0.031 H 
ATOM     32  H   LIG d   1       4.814  -3.822  -7.134  0.00  0.00     0.031 H 
ATOM     33  H   LIG d   1       9.638  -3.248  -3.873  0.00  0.00     0.035 H 
ATOM     34  H   LIG d   1       9.758  -3.486  -5.639  0.00  0.00     0.035 H 
ENDROOT
BRANCH   1  35
ATOM     35  C   LIG d   1       8.704  -5.752  -4.435  0.00  0.00    -0.062 C 
ATOM     36  H   LIG d   1       8.059  -6.568  -4.763  0.00  0.00     0.023 H 
ATOM     37  H   LIG d   1       9.653  -5.803  -4.968  0.00  0.00     0.023 H 
ATOM     38  H   LIG d   1       8.883  -5.839  -3.364  0.00  0.00     0.023 H 
ENDBRANCH   1  35
BRANCH  18  39
ATOM     39  O   LIG d   1       4.660   0.447  -7.254  0.00  0.00    -0.385 OA
ATOM     40  H   LIG d   1       4.814   1.180  -6.642  0.00  0.00     0.210 HD
ENDBRANCH  18  39
BRANCH  16  41
ATOM     41  O   LIG d   1       4.418  -2.654  -5.307  0.00  0.00    -0.384 OA
ATOM     42  H   LIG d   1       4.195  -2.879  -4.393  0.00  0.00     0.210 HD
ENDBRANCH  16  41
BRANCH  14  43
ATOM     43  O   LIG d   1       2.279  -1.188  -3.613  0.00  0.00    -0.506 OA
ATOM     44  H   LIG d   1       1.911  -1.582  -2.811  0.00  0.00     0.292 HD
ENDBRANCH  14  43
TORSDOF 4
ENDMDL
MODEL 7
REMARK VINA RESULT:      -6.1      2.265      4.995
REMARK  4 active torsions:
REMARK  status: ('A' for Active; 'I' for Inactive)
REMARK    1  A    between atoms: C_1  and  C_2 
REMARK    2  A    between atoms: C_15  and  O_24 
REMARK    3  A    between atoms: C_17  and  O_23 
REMARK    4  A    between atoms: C_19  and  O_22 
ROOT
ATOM      1  C   LIG d   1       3.595  -0.509  -7.511  0.00  0.00    -0.033 C 
ATOM      2  H   LIG d   1       4.468   0.104  -7.731  0.00  0.00     0.030 H 
ATOM      3  C   LIG d   1       4.018  -1.959  -7.315  0.00  0.00    -0.028 C 
ATOM      4  C   LIG d   1       4.912  -2.123  -6.104  0.00  0.00    -0.062 C 
ATOM      5  C   LIG d   1       4.925  -1.228  -5.121  0.00  0.00     0.008 C 
ATOM      6  C   LIG d   1       5.841  -1.367  -3.941  0.00  0.00     0.082 C 
ATOM      7  H   LIG d   1       5.295  -1.897  -3.148  0.00  0.00     0.046 H 
ATOM      8  C   LIG d   1       6.273  -0.035  -3.390  0.00  0.00     0.174 C 
ATOM      9  O   LIG d   1       5.695   0.464  -2.447  0.00  0.00    -0.291 OA
ATOM     10  C   LIG d   1       7.425   0.647  -4.010  0.00  0.00     0.027 A 
ATOM     11  C   LIG d   1       7.684   1.988  -3.705  0.00  0.00    -0.051 A 
ATOM     12  C   LIG d   1       8.765   2.626  -4.278  0.00  0.00    -0.058 A 
ATOM     13  C   LIG d   1       9.591   1.939  -5.150  0.00  0.00    -0.020 A 
ATOM     14  C   LIG d   1       9.335   0.612  -5.461  0.00  0.00     0.123 A 
ATOM     15  C   LIG d   1       8.246  -0.042  -4.899  0.00  0.00     0.035 A 
ATOM     16  C   LIG d   1       7.978  -1.471  -5.282  0.00  0.00     0.114 C 
ATOM     17  H   LIG d   1       8.942  -1.996  -5.318  0.00  0.00     0.067 H 
ATOM     18  C   LIG d   1       7.082  -2.189  -4.285  0.00  0.00     0.110 C 
ATOM     19  C   LIG d   1       6.614  -3.534  -4.847  0.00  0.00    -0.017 C 
ATOM     20  C   LIG d   1       5.761  -3.369  -6.087  0.00  0.00    -0.028 C 
ATOM     21  C   LIG d   1       4.000  -0.084  -5.139  0.00  0.00     0.160 C 
ATOM     22  O   LIG d   1       4.066   0.797  -4.308  0.00  0.00    -0.292 OA
ATOM     23  C   LIG d   1       2.935  -0.023  -6.212  0.00  0.00     0.013 C 
ATOM     24  H   LIG d   1       3.131  -2.578  -7.190  0.00  0.00     0.031 H 
ATOM     25  H   LIG d   1       4.562  -2.290  -8.200  0.00  0.00     0.031 H 
ATOM     26  H   LIG d   1       7.039   2.523  -3.025  0.00  0.00     0.062 H 
ATOM     27  H   LIG d   1       8.967   3.660  -4.045  0.00  0.00     0.062 H 
ATOM     28  H   LIG d   1      10.438   2.440  -5.593  0.00  0.00     0.065 H 
ATOM     29  H   LIG d   1       7.489  -4.154  -5.084  0.00  0.00     0.030 H 
ATOM     30  H   LIG d   1       6.036  -4.066  -4.077  0.00  0.00     0.030 H 
ATOM     31  H   LIG d   1       5.087  -4.237  -6.161  0.00  0.00     0.031 H 
ATOM     32  H   LIG d   1       6.393  -3.392  -6.977  0.00  0.00     0.031 H 
ATOM     33  H   LIG d   1       2.580   0.999  -6.328  0.00  0.00     0.035 H 
ATOM     34  H   LIG d   1       2.106  -0.680  -5.947  0.00  0.00     0.035 H 
ENDROOT
BRANCH   1  35
ATOM     35  C   LIG d   1       2.595  -0.415  -8.664  0.00  0.00    -0.062 C 
ATOM     36  H   LIG d   1       2.994   0.239  -9.440  0.00  0.00     0.023 H 
ATOM     37  H   LIG d   1       2.423  -1.408  -9.079  0.00  0.00     0.023 H 
ATOM     38  H   LIG d   1       1.653  -0.007  -8.296  0.00  0.00     0.023 H 
ENDBRANCH   1  35
BRANCH  18  39
ATOM     39  O   LIG d   1       7.831  -2.422  -3.071  0.00  0.00    -0.385 OA
ATOM     40  H   LIG d   1       8.790  -2.397  -3.191  0.00  0.00     0.210 HD
ENDBRANCH  18  39
BRANCH  16  41
ATOM     41  O   LIG d   1       7.422  -1.481  -6.594  0.00  0.00    -0.384 OA
ATOM     42  H   LIG d   1       7.360  -2.361  -6.989  0.00  0.00     0.210 HD
ENDBRANCH  16  41
BRANCH  14  43
ATOM     43  O   LIG d   1      10.155  -0.049  -6.321  0.00  0.00    -0.506 OA
ATOM     44  H   LIG d   1      10.721   0.531  -6.848  0.00  0.00     0.292 HD
ENDBRANCH  14  43
TORSDOF 4
ENDMDL
MODEL 8
REMARK VINA RESULT:      -6.1      2.495      4.454
REMARK  4 active torsions:
REMARK  status: ('A' for Active; 'I' for Inactive)
REMARK    1  A    between atoms: C_1  and  C_2 
REMARK    2  A    between atoms: C_15  and  O_24 
REMARK    3  A    between atoms: C_17  and  O_23 
REMARK    4  A    between atoms: C_19  and  O_22 
ROOT
ATOM      1  C   LIG d   1       9.060   1.745  -5.253  0.00  0.00    -0.033 C 
ATOM      2  H   LIG d   1       8.279   1.888  -4.507  0.00  0.00     0.030 H 
ATOM      3  C   LIG d   1       9.690   0.369  -5.083  0.00  0.00    -0.028 C 
ATOM      4  C   LIG d   1       8.696  -0.741  -5.354  0.00  0.00    -0.062 C 
ATOM      5  C   LIG d   1       7.601  -0.534  -6.079  0.00  0.00     0.008 C 
ATOM      6  C   LIG d   1       6.593  -1.620  -6.313  0.00  0.00     0.082 C 
ATOM      7  H   LIG d   1       6.850  -2.122  -7.256  0.00  0.00     0.046 H 
ATOM      8  C   LIG d   1       5.192  -1.085  -6.443  0.00  0.00     0.174 C 
ATOM      9  O   LIG d   1       4.708  -0.873  -7.535  0.00  0.00    -0.291 OA
ATOM     10  C   LIG d   1       4.413  -0.838  -5.215  0.00  0.00     0.027 A 
ATOM     11  C   LIG d   1       3.226  -0.100  -5.283  0.00  0.00    -0.051 A 
ATOM     12  C   LIG d   1       2.491   0.126  -4.138  0.00  0.00    -0.058 A 
ATOM     13  C   LIG d   1       2.928  -0.377  -2.925  0.00  0.00    -0.020 A 
ATOM     14  C   LIG d   1       4.108  -1.103  -2.850  0.00  0.00     0.123 A 
ATOM     15  C   LIG d   1       4.862  -1.333  -3.993  0.00  0.00     0.035 A 
ATOM     16  C   LIG d   1       6.153  -2.096  -3.872  0.00  0.00     0.114 C 
ATOM     17  H   LIG d   1       5.985  -2.931  -3.179  0.00  0.00     0.067 H 
ATOM     18  C   LIG d   1       6.625  -2.666  -5.200  0.00  0.00     0.110 C 
ATOM     19  C   LIG d   1       8.060  -3.189  -5.087  0.00  0.00    -0.017 C 
ATOM     20  C   LIG d   1       9.045  -2.085  -4.766  0.00  0.00    -0.028 C 
ATOM     21  C   LIG d   1       7.362   0.771  -6.716  0.00  0.00     0.160 C 
ATOM     22  O   LIG d   1       6.322   1.014  -7.293  0.00  0.00    -0.292 OA
ATOM     23  C   LIG d   1       8.450   1.821  -6.661  0.00  0.00     0.013 C 
ATOM     24  H   LIG d   1      10.529   0.271  -5.769  0.00  0.00     0.031 H 
ATOM     25  H   LIG d   1      10.053   0.271  -4.059  0.00  0.00     0.031 H 
ATOM     26  H   LIG d   1       2.886   0.293  -6.229  0.00  0.00     0.062 H 
ATOM     27  H   LIG d   1       1.575   0.695  -4.187  0.00  0.00     0.062 H 
ATOM     28  H   LIG d   1       2.349  -0.202  -2.031  0.00  0.00     0.065 H 
ATOM     29  H   LIG d   1       8.106  -3.959  -4.306  0.00  0.00     0.030 H 
ATOM     30  H   LIG d   1       8.346  -3.667  -6.035  0.00  0.00     0.030 H 
ATOM     31  H   LIG d   1      10.032  -2.378  -5.158  0.00  0.00     0.031 H 
ATOM     32  H   LIG d   1       9.158  -1.992  -3.684  0.00  0.00     0.031 H 
ATOM     33  H   LIG d   1       8.025   2.807  -6.835  0.00  0.00     0.035 H 
ATOM     34  H   LIG d   1       9.212   1.603  -7.409  0.00  0.00     0.035 H 
ENDROOT
BRANCH   1  35
ATOM     35  C   LIG d   1      10.130   2.825  -5.095  0.00  0.00    -0.062 C 
ATOM     36  H   LIG d   1      11.057   2.371  -4.744  0.00  0.00     0.023 H 
ATOM     37  H   LIG d   1      10.304   3.308  -6.057  0.00  0.00     0.023 H 
ATOM     38  H   LIG d   1       9.793   3.568  -4.371  0.00  0.00     0.023 H 
ENDBRANCH   1  35
BRANCH  18  39
ATOM     39  O   LIG d   1       5.756  -3.759  -5.572  0.00  0.00    -0.385 OA
ATOM     40  H   LIG d   1       5.778  -4.506  -4.957  0.00  0.00     0.210 HD
ENDBRANCH  18  39
BRANCH  16  41
ATOM     41  O   LIG d   1       7.126  -1.231  -3.293  0.00  0.00    -0.384 OA
ATOM     42  H   LIG d   1       7.250  -0.401  -3.774  0.00  0.00     0.210 HD
ENDBRANCH  16  41
BRANCH  14  43
ATOM     43  O   LIG d   1       4.524  -1.590  -1.652  0.00  0.00    -0.506 OA
ATOM     44  H   LIG d   1       5.072  -2.384  -1.718  0.00  0.00     0.292 HD
ENDBRANCH  14  43
TORSDOF 4
ENDMDL
MODEL 9
REMARK VINA RESULT:      -6.0      9.000     11.862
REMARK  4 active torsions:
REMARK  status: ('A' for Active; 'I' for Inactive)
REMARK    1  A    between atoms: C_1  and  C_2 
REMARK    2  A    between atoms: C_15  and  O_24 
REMARK    3  A    between atoms: C_17  and  O_23 
REMARK    4  A    between atoms: C_19  and  O_22 
ROOT
ATOM      1  C   LIG d   1      14.291   9.467  -1.419  0.00  0.00    -0.033 C 
ATOM      2  H   LIG d   1      14.085   8.852  -2.294  0.00  0.00     0.030 H 
ATOM      3  C   LIG d   1      13.215  10.535  -1.275  0.00  0.00    -0.028 C 
ATOM      4  C   LIG d   1      11.855   9.928  -1.002  0.00  0.00    -0.062 C 
ATOM      5  C   LIG d   1      11.726   8.703  -0.503  0.00  0.00     0.008 C 
ATOM      6  C   LIG d   1      10.379   8.084  -0.272  0.00  0.00     0.082 C 
ATOM      7  H   LIG d   1      10.083   8.294   0.765  0.00  0.00     0.046 H 
ATOM      8  C   LIG d   1      10.397   6.589  -0.452  0.00  0.00     0.174 C 
ATOM      9  O   LIG d   1      10.518   5.851   0.504  0.00  0.00    -0.291 OA
ATOM     10  C   LIG d   1      10.247   6.038  -1.811  0.00  0.00     0.027 A 
ATOM     11  C   LIG d   1      10.523   4.687  -2.047  0.00  0.00    -0.051 A 
ATOM     12  C   LIG d   1      10.376   4.168  -3.317  0.00  0.00    -0.058 A 
ATOM     13  C   LIG d   1       9.955   4.982  -4.353  0.00  0.00    -0.020 A 
ATOM     14  C   LIG d   1       9.687   6.324  -4.127  0.00  0.00     0.123 A 
ATOM     15  C   LIG d   1       9.837   6.863  -2.856  0.00  0.00     0.035 A 
ATOM     16  C   LIG d   1       9.569   8.329  -2.651  0.00  0.00     0.114 C 
ATOM     17  H   LIG d   1       8.671   8.590  -3.228  0.00  0.00     0.067 H 
ATOM     18  C   LIG d   1       9.319   8.683  -1.194  0.00  0.00     0.110 C 
ATOM     19  C   LIG d   1       9.326  10.201  -0.995  0.00  0.00    -0.017 C 
ATOM     20  C   LIG d   1      10.674  10.812  -1.316  0.00  0.00    -0.028 C 
ATOM     21  C   LIG d   1      12.913   7.924  -0.118  0.00  0.00     0.160 C 
ATOM     22  O   LIG d   1      12.824   6.769   0.242  0.00  0.00    -0.292 OA
ATOM     23  C   LIG d   1      14.269   8.594  -0.155  0.00  0.00     0.013 C 
ATOM     24  H   LIG d   1      13.478  11.202  -0.456  0.00  0.00     0.031 H 
ATOM     25  H   LIG d   1      13.163  11.110  -2.201  0.00  0.00     0.031 H 
ATOM     26  H   LIG d   1      10.851   4.052  -1.239  0.00  0.00     0.062 H 
ATOM     27  H   LIG d   1      10.588   3.126  -3.502  0.00  0.00     0.062 H 
ATOM     28  H   LIG d   1       9.838   4.572  -5.344  0.00  0.00     0.065 H 
ATOM     29  H   LIG d   1       8.556  10.656  -1.632  0.00  0.00     0.030 H 
ATOM     30  H   LIG d   1       9.063  10.430   0.049  0.00  0.00     0.030 H 
ATOM     31  H   LIG d   1      10.782  11.739  -0.732  0.00  0.00     0.031 H 
ATOM     32  H   LIG d   1      10.706  11.104  -2.368  0.00  0.00     0.031 H 
ATOM     33  H   LIG d   1      15.055   7.842  -0.202  0.00  0.00     0.035 H 
ATOM     34  H   LIG d   1      14.399   9.217   0.730  0.00  0.00     0.035 H 
ENDROOT
BRANCH   1  35
ATOM     35  C   LIG d   1      15.661  10.130  -1.564  0.00  0.00    -0.062 C 
ATOM     36  H   LIG d   1      16.402   9.379  -1.838  0.00  0.00     0.023 H 
ATOM     37  H   LIG d   1      15.614  10.894  -2.340  0.00  0.00     0.023 H 
ATOM     38  H   LIG d   1      15.944  10.591  -0.618  0.00  0.00     0.023 H 
ENDBRANCH   1  35
BRANCH  18  39
ATOM     39  O   LIG d   1       8.026   8.165  -0.806  0.00  0.00    -0.385 OA
ATOM     40  H   LIG d   1       7.359   8.848  -0.654  0.00  0.00     0.210 HD
ENDBRANCH  18  39
BRANCH  16  41
ATOM     41  O   LIG d   1      10.667   9.059  -3.191  0.00  0.00    -0.384 OA
ATOM     42  H   LIG d   1      10.730   9.969  -2.870  0.00  0.00     0.210 HD
ENDBRANCH  16  41
BRANCH  14  43
ATOM     43  O   LIG d   1       9.275   7.111  -5.155  0.00  0.00    -0.506 OA
ATOM     44  H   LIG d   1       9.773   6.982  -5.974  0.00  0.00     0.292 HD
ENDBRANCH  14  43
TORSDOF 4
ENDMDL
