MODEL 1
REMARK VINA RESULT:      -6.4      0.000      0.000
REMARK  9 active torsions:
REMARK  status: ('A' for Active; 'I' for Inactive)
REMARK    1  A    between atoms: C_1  and  O_2 
REMARK    2  A    between atoms: O_2  and  C_3 
REMARK    3  A    between atoms: C_5  and  C_13 
REMARK    4  A    between atoms: C_7  and  O_11 
REMARK    5  A    between atoms: C_8  and  O_9 
REMARK    6  A    between atoms: O_9  and  C_10 
REMARK    7  A    between atoms: O_11  and  C_12 
REMARK       I    between atoms: C_13  and  N_15 
REMARK       I    between atoms: N_15  and  CA_16 
REMARK    8  A    between atoms: CA_16  and  CB_18 
REMARK       I    between atoms: CA_16  and  C_25 
REMARK    9  A    between atoms: CB_18  and  CG_19 
ROOT
ATOM      1  C   UNK d   0       3.779  -5.358  -8.375  0.00  0.00     0.166 A 
ATOM      2  C   UNK d   0       3.696  -3.998  -8.142  0.00  0.00    -0.004 A 
ATOM      3  C   UNK d   0       4.741  -3.338  -7.492  0.00  0.00     0.044 A 
ATOM      4  C   UNK d   0       5.871  -4.051  -7.084  0.00  0.00    -0.004 A 
ATOM      5  C   UNK d   0       5.946  -5.412  -7.315  0.00  0.00     0.166 A 
ATOM      6  C   UNK d   0       4.903  -6.069  -7.964  0.00  0.00     0.203 A 
ATOM      7  H   UNK d   0       2.823  -3.448  -8.460  0.00  0.00     0.066 H 
ATOM      8  H   UNK d   0       6.681  -3.542  -6.586  0.00  0.00     0.066 H 
ENDROOT
BRANCH   3   9
ATOM      9  C   UNK d   0       4.654  -1.885  -7.241  0.00  0.00     0.245 C 
ATOM     10  O   UNK d   0       5.581  -1.159  -7.546  0.00  0.00    -0.270 OA
ATOM     11  N   PHE d   1       3.549  -1.364  -6.674  0.00  0.00    -0.303 N 
ATOM     12  CA  PHE d   1       3.462   0.077  -6.426  0.00  0.00     0.067 C 
ATOM     13  H   PHE d   1       2.809  -1.943  -6.430  0.00  0.00     0.150 HD
ATOM     14  HA  PHE d   1       4.447   0.459  -6.157  0.00  0.00     0.056 H 
ATOM     15  C   PHE d   1       2.977   0.774  -7.671  0.00  0.00     0.062 C 
ATOM     16  O   PHE d   1       2.732   0.133  -8.665  0.00  0.00    -0.548 OA
ATOM     17  OXT PHE d   1       2.820   2.107  -7.676  0.00  0.00    -0.548 OA
BRANCH  12  18
ATOM     18  CB  PHE d   1       2.483   0.339  -5.279  0.00  0.00    -0.004 C 
ATOM     19  HB1 PHE d   1       2.135   1.371  -5.328  0.00  0.00     0.034 H 
ATOM     20  HB2 PHE d   1       1.632  -0.336  -5.366  0.00  0.00     0.034 H 
BRANCH  18  21
ATOM     21  CG  PHE d   1       3.178   0.106  -3.963  0.00  0.00    -0.045 A 
ATOM     22  CD1 PHE d   1       3.662   1.179  -3.237  0.00  0.00    -0.059 A 
ATOM     23  CE1 PHE d   1       4.299   0.965  -2.028  0.00  0.00    -0.061 A 
ATOM     24  HD1 PHE d   1       3.544   2.184  -3.615  0.00  0.00     0.062 H 
ATOM     25  CZ  PHE d   1       4.451  -0.321  -1.545  0.00  0.00    -0.062 A 
ATOM     26  HE1 PHE d   1       4.678   1.803  -1.462  0.00  0.00     0.062 H 
ATOM     27  CE2 PHE d   1       3.965  -1.393  -2.270  0.00  0.00    -0.061 A 
ATOM     28  HZ  PHE d   1       4.947  -0.489  -0.601  0.00  0.00     0.062 H 
ATOM     29  CD2 PHE d   1       3.325  -1.179  -3.476  0.00  0.00    -0.059 A 
ATOM     30  HE2 PHE d   1       4.083  -2.398  -1.893  0.00  0.00     0.062 H 
ATOM     31  HD2 PHE d   1       2.941  -2.017  -4.041  0.00  0.00     0.062 H 
ENDBRANCH  18  21
ENDBRANCH  12  18
ENDBRANCH   3   9
BRANCH   1  32
ATOM     32  O   UNK d   0       2.762  -6.003  -9.007  0.00  0.00    -0.491 OA
BRANCH  32  33
ATOM     33  C   UNK d   0       2.080  -5.285 -10.038  0.00  0.00     0.079 C 
ATOM     34  H   UNK d   0       2.652  -5.347 -10.964  0.00  0.00     0.066 H 
ATOM     35  H   UNK d   0       1.092  -5.721 -10.191  0.00  0.00     0.066 H 
ATOM     36  H   UNK d   0       1.974  -4.241  -9.744  0.00  0.00     0.066 H 
ENDBRANCH  32  33
ENDBRANCH   1  32
BRANCH   5  37
ATOM     37  O   UNK d   0       7.044  -6.109  -6.915  0.00  0.00    -0.491 OA
BRANCH  37  38
ATOM     38  C   UNK d   0       7.449  -5.954  -5.554  0.00  0.00     0.079 C 
ATOM     39  H   UNK d   0       6.746  -6.473  -4.904  0.00  0.00     0.066 H 
ATOM     40  H   UNK d   0       8.447  -6.376  -5.422  0.00  0.00     0.066 H 
ATOM     41  H   UNK d   0       7.467  -4.895  -5.298  0.00  0.00     0.066 H 
ENDBRANCH  37  38
ENDBRANCH   5  37
BRANCH   6  42
ATOM     42  O   UNK d   0       4.983  -7.406  -8.195  0.00  0.00    -0.488 OA
BRANCH  42  43
ATOM     43  C   UNK d   0       4.517  -8.272  -7.159  0.00  0.00     0.079 C 
ATOM     44  H   UNK d   0       5.076  -8.079  -6.244  0.00  0.00     0.066 H 
ATOM     45  H   UNK d   0       3.457  -8.091  -6.983  0.00  0.00     0.066 H 
ATOM     46  H   UNK d   0       4.663  -9.310  -7.460  0.00  0.00     0.066 H 
ENDBRANCH  42  43
ENDBRANCH   6  42
TORSDOF 11
ENDMDL
MODEL 2
REMARK VINA RESULT:      -6.3      0.507      2.647
REMARK  9 active torsions:
REMARK  status: ('A' for Active; 'I' for Inactive)
REMARK    1  A    between atoms: C_1  and  O_2 
REMARK    2  A    between atoms: O_2  and  C_3 
REMARK    3  A    between atoms: C_5  and  C_13 
REMARK    4  A    between atoms: C_7  and  O_11 
REMARK    5  A    between atoms: C_8  and  O_9 
REMARK    6  A    between atoms: O_9  and  C_10 
REMARK    7  A    between atoms: O_11  and  C_12 
REMARK       I    between atoms: C_13  and  N_15 
REMARK       I    between atoms: N_15  and  CA_16 
REMARK    8  A    between atoms: CA_16  and  CB_18 
REMARK       I    between atoms: CA_16  and  C_25 
REMARK    9  A    between atoms: CB_18  and  CG_19 
ROOT
ATOM      1  C   UNK d   0       6.078  -5.422  -7.287  0.00  0.00     0.166 A 
ATOM      2  C   UNK d   0       5.986  -4.059  -7.074  0.00  0.00    -0.004 A 
ATOM      3  C   UNK d   0       4.817  -3.378  -7.418  0.00  0.00     0.044 A 
ATOM      4  C   UNK d   0       3.740  -4.075  -7.971  0.00  0.00    -0.004 A 
ATOM      5  C   UNK d   0       3.840  -5.437  -8.187  0.00  0.00     0.166 A 
ATOM      6  C   UNK d   0       5.007  -6.115  -7.843  0.00  0.00     0.203 A 
ATOM      7  H   UNK d   0       6.818  -3.522  -6.643  0.00  0.00     0.066 H 
ATOM      8  H   UNK d   0       2.834  -3.551  -8.234  0.00  0.00     0.066 H 
ENDROOT
BRANCH   3   9
ATOM      9  C   UNK d   0       4.716  -1.922  -7.192  0.00  0.00     0.245 C 
ATOM     10  O   UNK d   0       5.637  -1.193  -7.503  0.00  0.00    -0.270 OA
ATOM     11  N   PHE d   1       3.603  -1.402  -6.638  0.00  0.00    -0.303 N 
ATOM     12  CA  PHE d   1       3.502   0.042  -6.413  0.00  0.00     0.067 C 
ATOM     13  H   PHE d   1       2.867  -1.983  -6.389  0.00  0.00     0.150 HD
ATOM     14  HA  PHE d   1       4.482   0.437  -6.146  0.00  0.00     0.056 H 
ATOM     15  C   PHE d   1       3.017   0.714  -7.672  0.00  0.00     0.062 C 
ATOM     16  O   PHE d   1       2.784   0.055  -8.657  0.00  0.00    -0.548 OA
ATOM     17  OXT PHE d   1       2.849   2.046  -7.700  0.00  0.00    -0.548 OA
BRANCH  12  18
ATOM     18  CB  PHE d   1       2.514   0.313  -5.276  0.00  0.00    -0.004 C 
ATOM     19  HB1 PHE d   1       2.163   1.343  -5.339  0.00  0.00     0.034 H 
ATOM     20  HB2 PHE d   1       1.666  -0.365  -5.362  0.00  0.00     0.034 H 
BRANCH  18  21
ATOM     21  CG  PHE d   1       3.200   0.096  -3.953  0.00  0.00    -0.045 A 
ATOM     22  CD1 PHE d   1       3.365  -1.186  -3.461  0.00  0.00    -0.059 A 
ATOM     23  CE1 PHE d   1       3.996  -1.385  -2.247  0.00  0.00    -0.061 A 
ATOM     24  HD1 PHE d   1       3.000  -2.031  -4.026  0.00  0.00     0.062 H 
ATOM     25  CZ  PHE d   1       4.462  -0.302  -1.525  0.00  0.00    -0.062 A 
ATOM     26  HE1 PHE d   1       4.124  -2.386  -1.863  0.00  0.00     0.062 H 
ATOM     27  CE2 PHE d   1       4.298   0.979  -2.017  0.00  0.00    -0.061 A 
ATOM     28  HZ  PHE d   1       4.955  -0.457  -0.577  0.00  0.00     0.062 H 
ATOM     29  CD2 PHE d   1       3.672   1.178  -3.233  0.00  0.00    -0.059 A 
ATOM     30  HE2 PHE d   1       4.663   1.825  -1.453  0.00  0.00     0.062 H 
ATOM     31  HD2 PHE d   1       3.547   2.179  -3.620  0.00  0.00     0.062 H 
ENDBRANCH  18  21
ENDBRANCH  12  18
ENDBRANCH   3   9
BRANCH   1  32
ATOM     32  O   UNK d   0       7.217  -6.086  -6.952  0.00  0.00    -0.491 OA
BRANCH  32  33
ATOM     33  C   UNK d   0       8.360  -5.875  -7.783  0.00  0.00     0.079 C 
ATOM     34  H   UNK d   0       9.266  -5.961  -7.184  0.00  0.00     0.066 H 
ATOM     35  H   UNK d   0       8.376  -6.624  -8.576  0.00  0.00     0.066 H 
ATOM     36  H   UNK d   0       8.309  -4.880  -8.225  0.00  0.00     0.066 H 
ENDBRANCH  32  33
ENDBRANCH   1  32
BRANCH   5  37
ATOM     37  O   UNK d   0       2.794  -6.117  -8.730  0.00  0.00    -0.491 OA
BRANCH  37  38
ATOM     38  C   UNK d   0       2.478  -5.839 -10.096  0.00  0.00     0.079 C 
ATOM     39  H   UNK d   0       3.398  -5.672 -10.655  0.00  0.00     0.066 H 
ATOM     40  H   UNK d   0       1.940  -6.685 -10.524  0.00  0.00     0.066 H 
ATOM     41  H   UNK d   0       1.854  -4.946 -10.149  0.00  0.00     0.066 H 
ENDBRANCH  37  38
ENDBRANCH   5  37
BRANCH   6  42
ATOM     42  O   UNK d   0       5.100  -7.455  -8.050  0.00  0.00    -0.488 OA
BRANCH  42  43
ATOM     43  C   UNK d   0       4.654  -8.307  -6.994  0.00  0.00     0.079 C 
ATOM     44  H   UNK d   0       5.515  -8.752  -6.497  0.00  0.00     0.066 H 
ATOM     45  H   UNK d   0       4.079  -7.724  -6.274  0.00  0.00     0.066 H 
ATOM     46  H   UNK d   0       4.025  -9.097  -7.405  0.00  0.00     0.066 H 
ENDBRANCH  42  43
ENDBRANCH   6  42
TORSDOF 11
ENDMDL
MODEL 3
REMARK VINA RESULT:      -6.3      2.272      4.849
REMARK  9 active torsions:
REMARK  status: ('A' for Active; 'I' for Inactive)
REMARK    1  A    between atoms: C_1  and  O_2 
REMARK    2  A    between atoms: O_2  and  C_3 
REMARK    3  A    between atoms: C_5  and  C_13 
REMARK    4  A    between atoms: C_7  and  O_11 
REMARK    5  A    between atoms: C_8  and  O_9 
REMARK    6  A    between atoms: O_9  and  C_10 
REMARK    7  A    between atoms: O_11  and  C_12 
REMARK       I    between atoms: C_13  and  N_15 
REMARK       I    between atoms: N_15  and  CA_16 
REMARK    8  A    between atoms: CA_16  and  CB_18 
REMARK       I    between atoms: CA_16  and  C_25 
REMARK    9  A    between atoms: CB_18  and  CG_19 
ROOT
ATOM      1  C   UNK d   0       2.844  -0.878  -9.195  0.00  0.00     0.166 A 
ATOM      2  C   UNK d   0       3.545  -1.266  -8.069  0.00  0.00    -0.004 A 
ATOM      3  C   UNK d   0       3.848  -2.615  -7.869  0.00  0.00     0.044 A 
ATOM      4  C   UNK d   0       3.450  -3.567  -8.810  0.00  0.00    -0.004 A 
ATOM      5  C   UNK d   0       2.744  -3.173  -9.932  0.00  0.00     0.166 A 
ATOM      6  C   UNK d   0       2.443  -1.828 -10.130  0.00  0.00     0.203 A 
ATOM      7  H   UNK d   0       3.855  -0.529  -7.344  0.00  0.00     0.066 H 
ATOM      8  H   UNK d   0       3.687  -4.609  -8.659  0.00  0.00     0.066 H 
ENDROOT
BRANCH   3   9
ATOM      9  C   UNK d   0       4.597  -3.033  -6.666  0.00  0.00     0.245 C 
ATOM     10  O   UNK d   0       5.451  -3.894  -6.750  0.00  0.00    -0.270 OA
ATOM     11  N   PHE d   1       4.332  -2.461  -5.476  0.00  0.00    -0.303 N 
ATOM     12  CA  PHE d   1       5.074  -2.875  -4.282  0.00  0.00     0.067 C 
ATOM     13  H   PHE d   1       3.650  -1.774  -5.407  0.00  0.00     0.150 HD
ATOM     14  HA  PHE d   1       5.289  -3.942  -4.341  0.00  0.00     0.056 H 
ATOM     15  C   PHE d   1       6.367  -2.105  -4.202  0.00  0.00     0.062 C 
ATOM     16  O   PHE d   1       6.643  -1.297  -5.056  0.00  0.00    -0.548 OA
ATOM     17  OXT PHE d   1       7.214  -2.321  -3.184  0.00  0.00    -0.548 OA
BRANCH  12  18
ATOM     18  CB  PHE d   1       4.233  -2.592  -3.035  0.00  0.00    -0.004 C 
ATOM     19  HB1 PHE d   1       3.271  -3.098  -3.124  0.00  0.00     0.034 H 
ATOM     20  HB2 PHE d   1       4.757  -2.961  -2.153  0.00  0.00     0.034 H 
BRANCH  18  21
ATOM     21  CG  PHE d   1       4.010  -1.108  -2.905  0.00  0.00    -0.045 A 
ATOM     22  CD1 PHE d   1       4.581  -0.412  -1.855  0.00  0.00    -0.059 A 
ATOM     23  CE1 PHE d   1       4.378   0.950  -1.736  0.00  0.00    -0.061 A 
ATOM     24  HD1 PHE d   1       5.186  -0.934  -1.128  0.00  0.00     0.062 H 
ATOM     25  CZ  PHE d   1       3.603   1.616  -2.667  0.00  0.00    -0.062 A 
ATOM     26  HE1 PHE d   1       4.823   1.493  -0.916  0.00  0.00     0.062 H 
ATOM     27  CE2 PHE d   1       3.033   0.921  -3.717  0.00  0.00    -0.061 A 
ATOM     28  HZ  PHE d   1       3.444   2.680  -2.575  0.00  0.00     0.062 H 
ATOM     29  CD2 PHE d   1       3.241  -0.440  -3.838  0.00  0.00    -0.059 A 
ATOM     30  HE2 PHE d   1       2.428   1.442  -4.445  0.00  0.00     0.062 H 
ATOM     31  HD2 PHE d   1       2.799  -0.983  -4.661  0.00  0.00     0.062 H 
ENDBRANCH  18  21
ENDBRANCH  12  18
ENDBRANCH   3   9
BRANCH   1  32
ATOM     32  O   UNK d   0       2.548   0.435  -9.391  0.00  0.00    -0.491 OA
BRANCH  32  33
ATOM     33  C   UNK d   0       3.607   1.280  -9.844  0.00  0.00     0.079 C 
ATOM     34  H   UNK d   0       4.354   0.680 -10.364  0.00  0.00     0.066 H 
ATOM     35  H   UNK d   0       3.208   2.031 -10.526  0.00  0.00     0.066 H 
ATOM     36  H   UNK d   0       4.068   1.774  -8.989  0.00  0.00     0.066 H 
ENDBRANCH  32  33
ENDBRANCH   1  32
BRANCH   5  37
ATOM     37  O   UNK d   0       2.351  -4.100 -10.847  0.00  0.00    -0.491 OA
BRANCH  37  38
ATOM     38  C   UNK d   0       1.191  -4.872 -10.531  0.00  0.00     0.079 C 
ATOM     39  H   UNK d   0       0.784  -5.306 -11.443  0.00  0.00     0.066 H 
ATOM     40  H   UNK d   0       1.463  -5.669  -9.838  0.00  0.00     0.066 H 
ATOM     41  H   UNK d   0       0.442  -4.229 -10.068  0.00  0.00     0.066 H 
ENDBRANCH  37  38
ENDBRANCH   5  37
BRANCH   6  42
ATOM     42  O   UNK d   0       1.755  -1.443 -11.237  0.00  0.00    -0.488 OA
BRANCH  42  43
ATOM     43  C   UNK d   0       2.514  -1.220 -12.427  0.00  0.00     0.079 C 
ATOM     44  H   UNK d   0       2.224  -0.268 -12.871  0.00  0.00     0.066 H 
ATOM     45  H   UNK d   0       3.576  -1.199 -12.183  0.00  0.00     0.066 H 
ATOM     46  H   UNK d   0       2.320  -2.024 -13.137  0.00  0.00     0.066 H 
ENDBRANCH  42  43
ENDBRANCH   6  42
TORSDOF 11
ENDMDL
MODEL 4
REMARK VINA RESULT:      -6.1      2.302      5.081
REMARK  9 active torsions:
REMARK  status: ('A' for Active; 'I' for Inactive)
REMARK    1  A    between atoms: C_1  and  O_2 
REMARK    2  A    between atoms: O_2  and  C_3 
REMARK    3  A    between atoms: C_5  and  C_13 
REMARK    4  A    between atoms: C_7  and  O_11 
REMARK    5  A    between atoms: C_8  and  O_9 
REMARK    6  A    between atoms: O_9  and  C_10 
REMARK    7  A    between atoms: O_11  and  C_12 
REMARK       I    between atoms: C_13  and  N_15 
REMARK       I    between atoms: N_15  and  CA_16 
REMARK    8  A    between atoms: CA_16  and  CB_18 
REMARK       I    between atoms: CA_16  and  C_25 
REMARK    9  A    between atoms: CB_18  and  CG_19 
ROOT
ATOM      1  C   UNK d   0       3.139  -2.744  -9.492  0.00  0.00     0.166 A 
ATOM      2  C   UNK d   0       3.770  -3.283  -8.387  0.00  0.00    -0.004 A 
ATOM      3  C   UNK d   0       4.147  -2.454  -7.327  0.00  0.00     0.044 A 
ATOM      4  C   UNK d   0       3.879  -1.085  -7.384  0.00  0.00    -0.004 A 
ATOM      5  C   UNK d   0       3.252  -0.550  -8.495  0.00  0.00     0.166 A 
ATOM      6  C   UNK d   0       2.877  -1.378  -9.550  0.00  0.00     0.203 A 
ATOM      7  H   UNK d   0       3.973  -4.342  -8.343  0.00  0.00     0.066 H 
ATOM      8  H   UNK d   0       4.165  -0.443  -6.564  0.00  0.00     0.066 H 
ENDROOT
BRANCH   3   9
ATOM      9  C   UNK d   0       4.821  -3.027  -6.145  0.00  0.00     0.245 C 
ATOM     10  O   UNK d   0       4.444  -4.087  -5.684  0.00  0.00    -0.270 OA
ATOM     11  N   PHE d   1       5.854  -2.374  -5.577  0.00  0.00    -0.303 N 
ATOM     12  CA  PHE d   1       6.524  -2.942  -4.405  0.00  0.00     0.067 C 
ATOM     13  H   PHE d   1       6.155  -1.528  -5.945  0.00  0.00     0.150 HD
ATOM     14  HA  PHE d   1       5.792  -3.455  -3.782  0.00  0.00     0.056 H 
ATOM     15  C   PHE d   1       7.577  -3.923  -4.853  0.00  0.00     0.062 C 
ATOM     16  O   PHE d   1       7.748  -4.129  -6.031  0.00  0.00    -0.548 OA
ATOM     17  OXT PHE d   1       8.322  -4.569  -3.943  0.00  0.00    -0.548 OA
BRANCH  12  18
ATOM     18  CB  PHE d   1       7.181  -1.819  -3.599  0.00  0.00    -0.004 C 
ATOM     19  HB1 PHE d   1       7.744  -2.248  -2.770  0.00  0.00     0.034 H 
ATOM     20  HB2 PHE d   1       7.857  -1.257  -4.244  0.00  0.00     0.034 H 
BRANCH  18  21
ATOM     21  CG  PHE d   1       6.118  -0.898  -3.060  0.00  0.00    -0.045 A 
ATOM     22  CD1 PHE d   1       6.242   0.470  -3.219  0.00  0.00    -0.059 A 
ATOM     23  CE1 PHE d   1       5.265   1.314  -2.725  0.00  0.00    -0.061 A 
ATOM     24  HD1 PHE d   1       7.103   0.878  -3.727  0.00  0.00     0.062 H 
ATOM     25  CZ  PHE d   1       4.164   0.791  -2.073  0.00  0.00    -0.062 A 
ATOM     26  HE1 PHE d   1       5.363   2.383  -2.848  0.00  0.00     0.062 H 
ATOM     27  CE2 PHE d   1       4.039  -0.576  -1.916  0.00  0.00    -0.061 A 
ATOM     28  HZ  PHE d   1       3.400   1.450  -1.688  0.00  0.00     0.062 H 
ATOM     29  CD2 PHE d   1       5.013  -1.421  -2.414  0.00  0.00    -0.059 A 
ATOM     30  HE2 PHE d   1       3.179  -0.985  -1.407  0.00  0.00     0.062 H 
ATOM     31  HD2 PHE d   1       4.914  -2.491  -2.295  0.00  0.00     0.062 H 
ENDBRANCH  18  21
ENDBRANCH  12  18
ENDBRANCH   3   9
BRANCH   1  32
ATOM     32  O   UNK d   0       2.772  -3.550 -10.525  0.00  0.00    -0.491 OA
BRANCH  32  33
ATOM     33  C   UNK d   0       1.632  -4.388 -10.321  0.00  0.00     0.079 C 
ATOM     34  H   UNK d   0       1.799  -5.352 -10.801  0.00  0.00     0.066 H 
ATOM     35  H   UNK d   0       1.476  -4.536  -9.252  0.00  0.00     0.066 H 
ATOM     36  H   UNK d   0       0.751  -3.914 -10.754  0.00  0.00     0.066 H 
ENDBRANCH  32  33
ENDBRANCH   1  32
BRANCH   5  37
ATOM     37  O   UNK d   0       2.995   0.784  -8.553  0.00  0.00    -0.491 OA
BRANCH  37  38
ATOM     38  C   UNK d   0       4.080   1.639  -8.919  0.00  0.00     0.079 C 
ATOM     39  H   UNK d   0       4.532   1.277  -9.842  0.00  0.00     0.066 H 
ATOM     40  H   UNK d   0       3.709   2.653  -9.069  0.00  0.00     0.066 H 
ATOM     41  H   UNK d   0       4.826   1.639  -8.125  0.00  0.00     0.066 H 
ENDBRANCH  37  38
ENDBRANCH   5  37
BRANCH   6  42
ATOM     42  O   UNK d   0       2.255  -0.852 -10.637  0.00  0.00    -0.488 OA
BRANCH  42  43
ATOM     43  C   UNK d   0       3.076  -0.527 -11.761  0.00  0.00     0.079 C 
ATOM     44  H   UNK d   0       3.630  -1.412 -12.074  0.00  0.00     0.066 H 
ATOM     45  H   UNK d   0       2.448  -0.182 -12.582  0.00  0.00     0.066 H 
ATOM     46  H   UNK d   0       3.777   0.260 -11.483  0.00  0.00     0.066 H 
ENDBRANCH  42  43
ENDBRANCH   6  42
TORSDOF 11
ENDMDL
MODEL 5
REMARK VINA RESULT:      -6.0      6.427      9.734
REMARK  9 active torsions:
REMARK  status: ('A' for Active; 'I' for Inactive)
REMARK    1  A    between atoms: C_1  and  O_2 
REMARK    2  A    between atoms: O_2  and  C_3 
REMARK    3  A    between atoms: C_5  and  C_13 
REMARK    4  A    between atoms: C_7  and  O_11 
REMARK    5  A    between atoms: C_8  and  O_9 
REMARK    6  A    between atoms: O_9  and  C_10 
REMARK    7  A    between atoms: O_11  and  C_12 
REMARK       I    between atoms: C_13  and  N_15 
REMARK       I    between atoms: N_15  and  CA_16 
REMARK    8  A    between atoms: CA_16  and  CB_18 
REMARK       I    between atoms: CA_16  and  C_25 
REMARK    9  A    between atoms: CB_18  and  CG_19 
ROOT
ATOM      1  C   UNK d   0      12.228   3.240  -3.440  0.00  0.00     0.166 A 
ATOM      2  C   UNK d   0      11.220   2.462  -3.976  0.00  0.00    -0.004 A 
ATOM      3  C   UNK d   0       9.883   2.810  -3.763  0.00  0.00     0.044 A 
ATOM      4  C   UNK d   0       9.569   3.947  -3.016  0.00  0.00    -0.004 A 
ATOM      5  C   UNK d   0      10.582   4.720  -2.477  0.00  0.00     0.166 A 
ATOM      6  C   UNK d   0      11.914   4.371  -2.690  0.00  0.00     0.203 A 
ATOM      7  H   UNK d   0      11.464   1.585  -4.556  0.00  0.00     0.066 H 
ATOM      8  H   UNK d   0       8.538   4.221  -2.854  0.00  0.00     0.066 H 
ENDROOT
BRANCH   3   9
ATOM      9  C   UNK d   0       8.804   1.980  -4.335  0.00  0.00     0.245 C 
ATOM     10  O   UNK d   0       8.131   2.406  -5.253  0.00  0.00    -0.270 OA
ATOM     11  N   PHE d   1       8.566   0.750  -3.838  0.00  0.00    -0.303 N 
ATOM     12  CA  PHE d   1       7.495  -0.074  -4.404  0.00  0.00     0.067 C 
ATOM     13  H   PHE d   1       9.103   0.410  -3.105  0.00  0.00     0.150 HD
ATOM     14  HA  PHE d   1       6.665   0.566  -4.705  0.00  0.00     0.056 H 
ATOM     15  C   PHE d   1       8.016  -0.818  -5.607  0.00  0.00     0.062 C 
ATOM     16  O   PHE d   1       9.163  -0.672  -5.957  0.00  0.00    -0.548 OA
ATOM     17  OXT PHE d   1       7.205  -1.640  -6.291  0.00  0.00    -0.548 OA
BRANCH  12  18
ATOM     18  CB  PHE d   1       7.012  -1.076  -3.353  0.00  0.00    -0.004 C 
ATOM     19  HB1 PHE d   1       7.122  -2.089  -3.740  0.00  0.00     0.034 H 
ATOM     20  HB2 PHE d   1       7.607  -0.967  -2.447  0.00  0.00     0.034 H 
BRANCH  18  21
ATOM     21  CG  PHE d   1       5.563  -0.813  -3.038  0.00  0.00    -0.045 A 
ATOM     22  CD1 PHE d   1       4.637  -1.836  -3.139  0.00  0.00    -0.059 A 
ATOM     23  CE1 PHE d   1       3.307  -1.595  -2.848  0.00  0.00    -0.061 A 
ATOM     24  HD1 PHE d   1       4.953  -2.822  -3.445  0.00  0.00     0.062 H 
ATOM     25  CZ  PHE d   1       2.902  -0.332  -2.457  0.00  0.00    -0.062 A 
ATOM     26  HE1 PHE d   1       2.584  -2.393  -2.928  0.00  0.00     0.062 H 
ATOM     27  CE2 PHE d   1       3.828   0.690  -2.355  0.00  0.00    -0.061 A 
ATOM     28  HZ  PHE d   1       1.864  -0.143  -2.230  0.00  0.00     0.062 H 
ATOM     29  CD2 PHE d   1       5.159   0.448  -2.641  0.00  0.00    -0.059 A 
ATOM     30  HE2 PHE d   1       3.513   1.676  -2.049  0.00  0.00     0.062 H 
ATOM     31  HD2 PHE d   1       5.883   1.245  -2.557  0.00  0.00     0.062 H 
ENDBRANCH  18  21
ENDBRANCH  12  18
ENDBRANCH   3   9
BRANCH   1  32
ATOM     32  O   UNK d   0      13.530   2.902  -3.645  0.00  0.00    -0.491 OA
BRANCH  32  33
ATOM     33  C   UNK d   0      13.805   1.531  -3.938  0.00  0.00     0.079 C 
ATOM     34  H   UNK d   0      14.799   1.446  -4.379  0.00  0.00     0.066 H 
ATOM     35  H   UNK d   0      13.766   0.948  -3.017  0.00  0.00     0.066 H 
ATOM     36  H   UNK d   0      13.062   1.153  -4.639  0.00  0.00     0.066 H 
ENDBRANCH  32  33
ENDBRANCH   1  32
BRANCH   5  37
ATOM     37  O   UNK d   0      10.278   5.825  -1.745  0.00  0.00    -0.491 OA
BRANCH  37  38
ATOM     38  C   UNK d   0       9.592   6.881  -2.419  0.00  0.00     0.079 C 
ATOM     39  H   UNK d   0       8.651   7.086  -1.910  0.00  0.00     0.066 H 
ATOM     40  H   UNK d   0      10.212   7.778  -2.414  0.00  0.00     0.066 H 
ATOM     41  H   UNK d   0       9.391   6.585  -3.449  0.00  0.00     0.066 H 
ENDBRANCH  37  38
ENDBRANCH   5  37
BRANCH   6  42
ATOM     42  O   UNK d   0      12.907   5.135  -2.166  0.00  0.00    -0.488 OA
BRANCH  42  43
ATOM     43  C   UNK d   0      13.417   6.189  -2.985  0.00  0.00     0.079 C 
ATOM     44  H   UNK d   0      12.590   6.801  -3.346  0.00  0.00     0.066 H 
ATOM     45  H   UNK d   0      14.098   6.807  -2.400  0.00  0.00     0.066 H 
ATOM     46  H   UNK d   0      13.951   5.764  -3.834  0.00  0.00     0.066 H 
ENDBRANCH  42  43
ENDBRANCH   6  42
TORSDOF 11
ENDMDL
MODEL 6
REMARK VINA RESULT:      -6.0      6.065      9.507
REMARK  9 active torsions:
REMARK  status: ('A' for Active; 'I' for Inactive)
REMARK    1  A    between atoms: C_1  and  O_2 
REMARK    2  A    between atoms: O_2  and  C_3 
REMARK    3  A    between atoms: C_5  and  C_13 
REMARK    4  A    between atoms: C_7  and  O_11 
REMARK    5  A    between atoms: C_8  and  O_9 
REMARK    6  A    between atoms: O_9  and  C_10 
REMARK    7  A    between atoms: O_11  and  C_12 
REMARK       I    between atoms: C_13  and  N_15 
REMARK       I    between atoms: N_15  and  CA_16 
REMARK    8  A    between atoms: CA_16  and  CB_18 
REMARK       I    between atoms: CA_16  and  C_25 
REMARK    9  A    between atoms: CB_18  and  CG_19 
ROOT
ATOM      1  C   UNK d   0       9.893   4.701  -3.327  0.00  0.00     0.166 A 
ATOM      2  C   UNK d   0       9.207   3.526  -3.570  0.00  0.00    -0.004 A 
ATOM      3  C   UNK d   0       9.006   3.096  -4.883  0.00  0.00     0.044 A 
ATOM      4  C   UNK d   0       9.503   3.850  -5.948  0.00  0.00    -0.004 A 
ATOM      5  C   UNK d   0      10.184   5.028  -5.700  0.00  0.00     0.166 A 
ATOM      6  C   UNK d   0      10.384   5.455  -4.389  0.00  0.00     0.203 A 
ATOM      7  H   UNK d   0       8.826   2.942  -2.745  0.00  0.00     0.066 H 
ATOM      8  H   UNK d   0       9.352   3.517  -6.964  0.00  0.00     0.066 H 
ENDROOT
BRANCH   3   9
ATOM      9  C   UNK d   0       8.273   1.841  -5.145  0.00  0.00     0.245 C 
ATOM     10  O   UNK d   0       7.723   1.670  -6.215  0.00  0.00    -0.270 OA
ATOM     11  N   PHE d   1       8.214   0.885  -4.197  0.00  0.00    -0.303 N 
ATOM     12  CA  PHE d   1       7.488  -0.360  -4.456  0.00  0.00     0.067 C 
ATOM     13  H   PHE d   1       8.653   1.021  -3.343  0.00  0.00     0.150 HD
ATOM     14  HA  PHE d   1       6.616  -0.150  -5.077  0.00  0.00     0.056 H 
ATOM     15  C   PHE d   1       8.391  -1.330  -5.174  0.00  0.00     0.062 C 
ATOM     16  O   PHE d   1       9.525  -1.011  -5.444  0.00  0.00    -0.548 OA
ATOM     17  OXT PHE d   1       7.936  -2.545  -5.516  0.00  0.00    -0.548 OA
BRANCH  12  18
ATOM     18  CB  PHE d   1       7.033  -0.972  -3.129  0.00  0.00    -0.004 C 
ATOM     19  HB1 PHE d   1       7.212  -2.047  -3.145  0.00  0.00     0.034 H 
ATOM     20  HB2 PHE d   1       7.595  -0.522  -2.311  0.00  0.00     0.034 H 
BRANCH  18  21
ATOM     21  CG  PHE d   1       5.563  -0.710  -2.933  0.00  0.00    -0.045 A 
ATOM     22  CD1 PHE d   1       5.125   0.557  -2.593  0.00  0.00    -0.059 A 
ATOM     23  CE1 PHE d   1       3.776   0.798  -2.414  0.00  0.00    -0.061 A 
ATOM     24  HD1 PHE d   1       5.838   1.358  -2.466  0.00  0.00     0.062 H 
ATOM     25  CZ  PHE d   1       2.863  -0.228  -2.575  0.00  0.00    -0.062 A 
ATOM     26  HE1 PHE d   1       3.434   1.787  -2.147  0.00  0.00     0.062 H 
ATOM     27  CE2 PHE d   1       3.301  -1.494  -2.917  0.00  0.00    -0.061 A 
ATOM     28  HZ  PHE d   1       1.809  -0.041  -2.436  0.00  0.00     0.062 H 
ATOM     29  CD2 PHE d   1       4.650  -1.734  -3.100  0.00  0.00    -0.059 A 
ATOM     30  HE2 PHE d   1       2.588  -2.296  -3.043  0.00  0.00     0.062 H 
ATOM     31  HD2 PHE d   1       4.991  -2.722  -3.371  0.00  0.00     0.062 H 
ENDBRANCH  18  21
ENDBRANCH  12  18
ENDBRANCH   3   9
BRANCH   1  32
ATOM     32  O   UNK d   0      10.090   5.122  -2.048  0.00  0.00    -0.491 OA
BRANCH  32  33
ATOM     33  C   UNK d   0      11.303   4.718  -1.412  0.00  0.00     0.079 C 
ATOM     34  H   UNK d   0      11.290   3.639  -1.253  0.00  0.00     0.066 H 
ATOM     35  H   UNK d   0      12.151   4.981  -2.045  0.00  0.00     0.066 H 
ATOM     36  H   UNK d   0      11.397   5.226  -0.452  0.00  0.00     0.066 H 
ENDBRANCH  32  33
ENDBRANCH   1  32
BRANCH   5  37
ATOM     37  O   UNK d   0      10.665   5.766  -6.736  0.00  0.00    -0.491 OA
BRANCH  37  38
ATOM     38  C   UNK d   0      11.646   5.150  -7.571  0.00  0.00     0.079 C 
ATOM     39  H   UNK d   0      11.712   4.089  -7.333  0.00  0.00     0.066 H 
ATOM     40  H   UNK d   0      11.361   5.271  -8.617  0.00  0.00     0.066 H 
ATOM     41  H   UNK d   0      12.615   5.621  -7.402  0.00  0.00     0.066 H 
ENDBRANCH  37  38
ENDBRANCH   5  37
BRANCH   6  42
ATOM     42  O   UNK d   0      11.059   6.609  -4.148  0.00  0.00    -0.488 OA
BRANCH  42  43
ATOM     43  C   UNK d   0      10.285   7.807  -4.055  0.00  0.00     0.079 C 
ATOM     44  H   UNK d   0      10.934   8.671  -4.192  0.00  0.00     0.066 H 
ATOM     45  H   UNK d   0       9.517   7.803  -4.828  0.00  0.00     0.066 H 
ATOM     46  H   UNK d   0       9.813   7.860  -3.074  0.00  0.00     0.066 H 
ENDBRANCH  42  43
ENDBRANCH   6  42
TORSDOF 11
ENDMDL
MODEL 7
REMARK VINA RESULT:      -5.8      4.249      5.880
REMARK  9 active torsions:
REMARK  status: ('A' for Active; 'I' for Inactive)
REMARK    1  A    between atoms: C_1  and  O_2 
REMARK    2  A    between atoms: O_2  and  C_3 
REMARK    3  A    between atoms: C_5  and  C_13 
REMARK    4  A    between atoms: C_7  and  O_11 
REMARK    5  A    between atoms: C_8  and  O_9 
REMARK    6  A    between atoms: O_9  and  C_10 
REMARK    7  A    between atoms: O_11  and  C_12 
REMARK       I    between atoms: C_13  and  N_15 
REMARK       I    between atoms: N_15  and  CA_16 
REMARK    8  A    between atoms: CA_16  and  CB_18 
REMARK       I    between atoms: CA_16  and  C_25 
REMARK    9  A    between atoms: CB_18  and  CG_19 
ROOT
ATOM      1  C   UNK d   0       6.084  -0.678 -10.552  0.00  0.00     0.166 A 
ATOM      2  C   UNK d   0       6.824  -0.763  -9.388  0.00  0.00    -0.004 A 
ATOM      3  C   UNK d   0       6.550   0.098  -8.323  0.00  0.00     0.044 A 
ATOM      4  C   UNK d   0       5.524   1.040  -8.435  0.00  0.00    -0.004 A 
ATOM      5  C   UNK d   0       4.790   1.125  -9.604  0.00  0.00     0.166 A 
ATOM      6  C   UNK d   0       5.065   0.264 -10.665  0.00  0.00     0.203 A 
ATOM      7  H   UNK d   0       7.615  -1.494  -9.302  0.00  0.00     0.066 H 
ATOM      8  H   UNK d   0       5.307   1.704  -7.612  0.00  0.00     0.066 H 
ENDROOT
BRANCH   3   9
ATOM      9  C   UNK d   0       7.338   0.009  -7.079  0.00  0.00     0.245 C 
ATOM     10  O   UNK d   0       8.123  -0.906  -6.920  0.00  0.00    -0.270 OA
ATOM     11  N   PHE d   1       7.189   0.942  -6.118  0.00  0.00    -0.303 N 
ATOM     12  CA  PHE d   1       7.971   0.855  -4.883  0.00  0.00     0.067 C 
ATOM     13  H   PHE d   1       6.563   1.673  -6.244  0.00  0.00     0.150 HD
ATOM     14  HA  PHE d   1       8.106  -0.193  -4.612  0.00  0.00     0.056 H 
ATOM     15  C   PHE d   1       9.319   1.496  -5.094  0.00  0.00     0.062 C 
ATOM     16  O   PHE d   1       9.598   1.973  -6.168  0.00  0.00    -0.548 OA
ATOM     17  OXT PHE d   1      10.209   1.532  -4.091  0.00  0.00    -0.548 OA
BRANCH  12  18
ATOM     18  CB  PHE d   1       7.231   1.581  -3.757  0.00  0.00    -0.004 C 
ATOM     19  HB1 PHE d   1       7.943   1.876  -2.986  0.00  0.00     0.034 H 
ATOM     20  HB2 PHE d   1       6.741   2.468  -4.158  0.00  0.00     0.034 H 
BRANCH  18  21
ATOM     21  CG  PHE d   1       6.198   0.661  -3.161  0.00  0.00    -0.045 A 
ATOM     22  CD1 PHE d   1       5.099   1.187  -2.506  0.00  0.00    -0.059 A 
ATOM     23  CE1 PHE d   1       4.150   0.343  -1.960  0.00  0.00    -0.061 A 
ATOM     24  HD1 PHE d   1       4.983   2.257  -2.422  0.00  0.00     0.062 H 
ATOM     25  CZ  PHE d   1       4.300  -1.027  -2.068  0.00  0.00    -0.062 A 
ATOM     26  HE1 PHE d   1       3.293   0.754  -1.448  0.00  0.00     0.062 H 
ATOM     27  CE2 PHE d   1       5.398  -1.553  -2.723  0.00  0.00    -0.061 A 
ATOM     28  HZ  PHE d   1       3.559  -1.687  -1.642  0.00  0.00     0.062 H 
ATOM     29  CD2 PHE d   1       6.344  -0.709  -3.273  0.00  0.00    -0.059 A 
ATOM     30  HE2 PHE d   1       5.514  -2.623  -2.808  0.00  0.00     0.062 H 
ATOM     31  HD2 PHE d   1       7.200  -1.119  -3.789  0.00  0.00     0.062 H 
ENDBRANCH  18  21
ENDBRANCH  12  18
ENDBRANCH   3   9
BRANCH   1  32
ATOM     32  O   UNK d   0       6.351  -1.516 -11.590  0.00  0.00    -0.491 OA
BRANCH  32  33
ATOM     33  C   UNK d   0       7.605  -2.201 -11.565  0.00  0.00     0.079 C 
ATOM     34  H   UNK d   0       7.940  -2.310 -10.534  0.00  0.00     0.066 H 
ATOM     35  H   UNK d   0       7.489  -3.187 -12.015  0.00  0.00     0.066 H 
ATOM     36  H   UNK d   0       8.342  -1.630 -12.129  0.00  0.00     0.066 H 
ENDBRANCH  32  33
ENDBRANCH   1  32
BRANCH   5  37
ATOM     37  O   UNK d   0       3.794   2.044  -9.716  0.00  0.00    -0.491 OA
BRANCH  37  38
ATOM     38  C   UNK d   0       2.833   2.091  -8.659  0.00  0.00     0.079 C 
ATOM     39  H   UNK d   0       2.166   1.234  -8.737  0.00  0.00     0.066 H 
ATOM     40  H   UNK d   0       3.348   2.066  -7.698  0.00  0.00     0.066 H 
ATOM     41  H   UNK d   0       2.253   3.011  -8.737  0.00  0.00     0.066 H 
ENDBRANCH  37  38
ENDBRANCH   5  37
BRANCH   6  42
ATOM     42  O   UNK d   0       4.339   0.345 -11.810  0.00  0.00    -0.488 OA
BRANCH  42  43
ATOM     43  C   UNK d   0       3.179  -0.483 -11.902  0.00  0.00     0.079 C 
ATOM     44  H   UNK d   0       3.387  -1.453 -11.450  0.00  0.00     0.066 H 
ATOM     45  H   UNK d   0       2.350  -0.008 -11.378  0.00  0.00     0.066 H 
ATOM     46  H   UNK d   0       2.914  -0.623 -12.950  0.00  0.00     0.066 H 
ENDBRANCH  42  43
ENDBRANCH   6  42
TORSDOF 11
ENDMDL
MODEL 8
REMARK VINA RESULT:      -5.8      3.267      4.919
REMARK  9 active torsions:
REMARK  status: ('A' for Active; 'I' for Inactive)
REMARK    1  A    between atoms: C_1  and  O_2 
REMARK    2  A    between atoms: O_2  and  C_3 
REMARK    3  A    between atoms: C_5  and  C_13 
REMARK    4  A    between atoms: C_7  and  O_11 
REMARK    5  A    between atoms: C_8  and  O_9 
REMARK    6  A    between atoms: O_9  and  C_10 
REMARK    7  A    between atoms: O_11  and  C_12 
REMARK       I    between atoms: C_13  and  N_15 
REMARK       I    between atoms: N_15  and  CA_16 
REMARK    8  A    between atoms: CA_16  and  CB_18 
REMARK       I    between atoms: CA_16  and  C_25 
REMARK    9  A    between atoms: CB_18  and  CG_19 
ROOT
ATOM      1  C   UNK d   0       9.720  -0.639  -5.728  0.00  0.00     0.166 A 
ATOM      2  C   UNK d   0       8.560  -0.055  -6.200  0.00  0.00    -0.004 A 
ATOM      3  C   UNK d   0       7.327  -0.674  -5.976  0.00  0.00     0.044 A 
ATOM      4  C   UNK d   0       7.269  -1.877  -5.269  0.00  0.00    -0.004 A 
ATOM      5  C   UNK d   0       8.434  -2.460  -4.803  0.00  0.00     0.166 A 
ATOM      6  C   UNK d   0       9.662  -1.841  -5.028  0.00  0.00     0.203 A 
ATOM      7  H   UNK d   0       8.606   0.877  -6.743  0.00  0.00     0.066 H 
ATOM      8  H   UNK d   0       6.318  -2.354  -5.090  0.00  0.00     0.066 H 
ENDROOT
BRANCH   3   9
ATOM      9  C   UNK d   0       6.086  -0.052  -6.479  0.00  0.00     0.245 C 
ATOM     10  O   UNK d   0       6.136   0.758  -7.384  0.00  0.00    -0.270 OA
ATOM     11  N   PHE d   1       4.899  -0.382  -5.935  0.00  0.00    -0.303 N 
ATOM     12  CA  PHE d   1       3.667   0.234  -6.434  0.00  0.00     0.067 C 
ATOM     13  H   PHE d   1       4.858  -1.029  -5.213  0.00  0.00     0.150 HD
ATOM     14  HA  PHE d   1       3.869   1.265  -6.723  0.00  0.00     0.056 H 
ATOM     15  C   PHE d   1       3.170  -0.534  -7.631  0.00  0.00     0.062 C 
ATOM     16  O   PHE d   1       3.783  -1.496  -8.029  0.00  0.00    -0.548 OA
ATOM     17  OXT PHE d   1       2.047  -0.148  -8.258  0.00  0.00    -0.548 OA
BRANCH  12  18
ATOM     18  CB  PHE d   1       2.603   0.211  -5.334  0.00  0.00    -0.004 C 
ATOM     19  HB1 PHE d   1       2.097   1.176  -5.299  0.00  0.00     0.034 H 
ATOM     20  HB2 PHE d   1       1.876  -0.572  -5.548  0.00  0.00     0.034 H 
BRANCH  18  21
ATOM     21  CG  PHE d   1       3.260  -0.060  -4.006  0.00  0.00    -0.045 A 
ATOM     22  CD1 PHE d   1       3.740   0.990  -3.245  0.00  0.00    -0.059 A 
ATOM     23  CE1 PHE d   1       4.342   0.741  -2.025  0.00  0.00    -0.061 A 
ATOM     24  HD1 PHE d   1       3.646   2.004  -3.604  0.00  0.00     0.062 H 
ATOM     25  CZ  PHE d   1       4.463  -0.557  -1.567  0.00  0.00    -0.062 A 
ATOM     26  HE1 PHE d   1       4.718   1.561  -1.432  0.00  0.00     0.062 H 
ATOM     27  CE2 PHE d   1       3.982  -1.607  -2.327  0.00  0.00    -0.061 A 
ATOM     28  HZ  PHE d   1       4.932  -0.752  -0.614  0.00  0.00     0.062 H 
ATOM     29  CD2 PHE d   1       3.376  -1.357  -3.544  0.00  0.00    -0.059 A 
ATOM     30  HE2 PHE d   1       4.076  -2.621  -1.969  0.00  0.00     0.062 H 
ATOM     31  HD2 PHE d   1       2.996  -2.177  -4.137  0.00  0.00     0.062 H 
ENDBRANCH  18  21
ENDBRANCH  12  18
ENDBRANCH   3   9
BRANCH   1  32
ATOM     32  O   UNK d   0      10.921  -0.038  -5.946  0.00  0.00    -0.491 OA
BRANCH  32  33
ATOM     33  C   UNK d   0      11.394  -0.004  -7.294  0.00  0.00     0.079 C 
ATOM     34  H   UNK d   0      10.547   0.083  -7.975  0.00  0.00     0.066 H 
ATOM     35  H   UNK d   0      12.056   0.852  -7.425  0.00  0.00     0.066 H 
ATOM     36  H   UNK d   0      11.941  -0.922  -7.510  0.00  0.00     0.066 H 
ENDBRANCH  32  33
ENDBRANCH   1  32
BRANCH   5  37
ATOM     37  O   UNK d   0       8.379  -3.634  -4.119  0.00  0.00    -0.491 OA
BRANCH  37  38
ATOM     38  C   UNK d   0       8.072  -4.809  -4.871  0.00  0.00     0.079 C 
ATOM     39  H   UNK d   0       7.063  -5.142  -4.629  0.00  0.00     0.066 H 
ATOM     40  H   UNK d   0       8.135  -4.586  -5.937  0.00  0.00     0.066 H 
ATOM     41  H   UNK d   0       8.784  -5.597  -4.622  0.00  0.00     0.066 H 
ENDBRANCH  37  38
ENDBRANCH   5  37
BRANCH   6  42
ATOM     42  O   UNK d   0      10.803  -2.413  -4.564  0.00  0.00    -0.488 OA
BRANCH  42  43
ATOM     43  C   UNK d   0      11.478  -3.319  -5.438  0.00  0.00     0.079 C 
ATOM     44  H   UNK d   0      12.523  -3.025  -5.532  0.00  0.00     0.066 H 
ATOM     45  H   UNK d   0      11.419  -4.328  -5.031  0.00  0.00     0.066 H 
ATOM     46  H   UNK d   0      11.005  -3.296  -6.420  0.00  0.00     0.066 H 
ENDBRANCH  42  43
ENDBRANCH   6  42
TORSDOF 11
ENDMDL
MODEL 9
REMARK VINA RESULT:      -5.7      3.175      8.044
REMARK  9 active torsions:
REMARK  status: ('A' for Active; 'I' for Inactive)
REMARK    1  A    between atoms: C_1  and  O_2 
REMARK    2  A    between atoms: O_2  and  C_3 
REMARK    3  A    between atoms: C_5  and  C_13 
REMARK    4  A    between atoms: C_7  and  O_11 
REMARK    5  A    between atoms: C_8  and  O_9 
REMARK    6  A    between atoms: O_9  and  C_10 
REMARK    7  A    between atoms: O_11  and  C_12 
REMARK       I    between atoms: C_13  and  N_15 
REMARK       I    between atoms: N_15  and  CA_16 
REMARK    8  A    between atoms: CA_16  and  CB_18 
REMARK       I    between atoms: CA_16  and  C_25 
REMARK    9  A    between atoms: CB_18  and  CG_19 
ROOT
ATOM      1  C   UNK d   0       7.025  -2.602  -4.396  0.00  0.00     0.166 A 
ATOM      2  C   UNK d   0       6.515  -3.703  -5.057  0.00  0.00    -0.004 A 
ATOM      3  C   UNK d   0       5.171  -4.050  -4.900  0.00  0.00     0.044 A 
ATOM      4  C   UNK d   0       4.343  -3.279  -4.082  0.00  0.00    -0.004 A 
ATOM      5  C   UNK d   0       4.859  -2.181  -3.418  0.00  0.00     0.166 A 
ATOM      6  C   UNK d   0       6.200  -1.837  -3.576  0.00  0.00     0.203 A 
ATOM      7  H   UNK d   0       7.156  -4.297  -5.692  0.00  0.00     0.066 H 
ATOM      8  H   UNK d   0       3.303  -3.543  -3.962  0.00  0.00     0.066 H 
ENDROOT
BRANCH   3   9
ATOM      9  C   UNK d   0       4.625  -5.227  -5.605  0.00  0.00     0.245 C 
ATOM     10  O   UNK d   0       3.467  -5.230  -5.976  0.00  0.00    -0.270 OA
ATOM     11  N   PHE d   1       5.410  -6.298  -5.837  0.00  0.00    -0.303 N 
ATOM     12  CA  PHE d   1       4.869  -7.465  -6.537  0.00  0.00     0.067 C 
ATOM     13  H   PHE d   1       6.334  -6.296  -5.542  0.00  0.00     0.150 HD
ATOM     14  HA  PHE d   1       3.823  -7.602  -6.259  0.00  0.00     0.056 H 
ATOM     15  C   PHE d   1       4.968  -7.251  -8.025  0.00  0.00     0.062 C 
ATOM     16  O   PHE d   1       5.439  -6.226  -8.457  0.00  0.00    -0.548 OA
ATOM     17  OXT PHE d   1       4.529  -8.196  -8.871  0.00  0.00    -0.548 OA
BRANCH  12  18
ATOM     18  CB  PHE d   1       5.668  -8.711  -6.146  0.00  0.00    -0.004 C 
ATOM     19  HB1 PHE d   1       5.992  -9.232  -7.047  0.00  0.00     0.034 H 
ATOM     20  HB2 PHE d   1       6.541  -8.414  -5.564  0.00  0.00     0.034 H 
BRANCH  18  21
ATOM     21  CG  PHE d   1       4.801  -9.625  -5.321  0.00  0.00    -0.045 A 
ATOM     22  CD1 PHE d   1       4.325 -10.804  -5.865  0.00  0.00    -0.059 A 
ATOM     23  CE1 PHE d   1       3.530 -11.644  -5.108  0.00  0.00    -0.061 A 
ATOM     24  HD1 PHE d   1       4.574 -11.068  -6.882  0.00  0.00     0.062 H 
ATOM     25  CZ  PHE d   1       3.210 -11.305  -3.806  0.00  0.00    -0.062 A 
ATOM     26  HE1 PHE d   1       3.158 -12.564  -5.533  0.00  0.00     0.062 H 
ATOM     27  CE2 PHE d   1       3.687 -10.128  -3.261  0.00  0.00    -0.061 A 
ATOM     28  HZ  PHE d   1       2.590 -11.961  -3.213  0.00  0.00     0.062 H 
ATOM     29  CD2 PHE d   1       4.486  -9.290  -4.017  0.00  0.00    -0.059 A 
ATOM     30  HE2 PHE d   1       3.438  -9.863  -2.244  0.00  0.00     0.062 H 
ATOM     31  HD2 PHE d   1       4.862  -8.371  -3.591  0.00  0.00     0.062 H 
ENDBRANCH  18  21
ENDBRANCH  12  18
ENDBRANCH   3   9
BRANCH   1  32
ATOM     32  O   UNK d   0       8.333  -2.263  -4.547  0.00  0.00    -0.491 OA
BRANCH  32  33
ATOM     33  C   UNK d   0       8.715  -1.694  -5.801  0.00  0.00     0.079 C 
ATOM     34  H   UNK d   0       8.790  -0.611  -5.701  0.00  0.00     0.066 H 
ATOM     35  H   UNK d   0       9.682  -2.098  -6.104  0.00  0.00     0.066 H 
ATOM     36  H   UNK d   0       7.968  -1.939  -6.554  0.00  0.00     0.066 H 
ENDBRANCH  32  33
ENDBRANCH   1  32
BRANCH   5  37
ATOM     37  O   UNK d   0       4.055  -1.432  -2.616  0.00  0.00    -0.491 OA
BRANCH  37  38
ATOM     38  C   UNK d   0       2.921  -0.816  -3.229  0.00  0.00     0.079 C 
ATOM     39  H   UNK d   0       3.251  -0.182  -4.050  0.00  0.00     0.066 H 
ATOM     40  H   UNK d   0       2.250  -1.588  -3.610  0.00  0.00     0.066 H 
ATOM     41  H   UNK d   0       2.394  -0.210  -2.491  0.00  0.00     0.066 H 
ENDBRANCH  37  38
ENDBRANCH   5  37
BRANCH   6  42
ATOM     42  O   UNK d   0       6.702  -0.754  -2.928  0.00  0.00    -0.488 OA
BRANCH  42  43
ATOM     43  C   UNK d   0       6.591   0.508  -3.590  0.00  0.00     0.079 C 
ATOM     44  H   UNK d   0       5.600   0.598  -4.036  0.00  0.00     0.066 H 
ATOM     45  H   UNK d   0       6.739   1.311  -2.868  0.00  0.00     0.066 H 
ATOM     46  H   UNK d   0       7.347   0.577  -4.371  0.00  0.00     0.066 H 
ENDBRANCH  42  43
ENDBRANCH   6  42
TORSDOF 11
ENDMDL
MODEL 10
REMARK VINA RESULT:      -5.7      2.722      5.034
REMARK  9 active torsions:
REMARK  status: ('A' for Active; 'I' for Inactive)
REMARK    1  A    between atoms: C_1  and  O_2 
REMARK    2  A    between atoms: O_2  and  C_3 
REMARK    3  A    between atoms: C_5  and  C_13 
REMARK    4  A    between atoms: C_7  and  O_11 
REMARK    5  A    between atoms: C_8  and  O_9 
REMARK    6  A    between atoms: O_9  and  C_10 
REMARK    7  A    between atoms: O_11  and  C_12 
REMARK       I    between atoms: C_13  and  N_15 
REMARK       I    between atoms: N_15  and  CA_16 
REMARK    8  A    between atoms: CA_16  and  CB_18 
REMARK       I    between atoms: CA_16  and  C_25 
REMARK    9  A    between atoms: CB_18  and  CG_19 
ROOT
ATOM      1  C   UNK d   0       3.962   0.315  -9.464  0.00  0.00     0.166 A 
ATOM      2  C   UNK d   0       5.035   0.409  -8.599  0.00  0.00    -0.004 A 
ATOM      3  C   UNK d   0       5.413  -0.698  -7.835  0.00  0.00     0.044 A 
ATOM      4  C   UNK d   0       4.709  -1.899  -7.952  0.00  0.00    -0.004 A 
ATOM      5  C   UNK d   0       3.632  -1.985  -8.815  0.00  0.00     0.166 A 
ATOM      6  C   UNK d   0       3.257  -0.881  -9.576  0.00  0.00     0.203 A 
ATOM      7  H   UNK d   0       5.581   1.337  -8.513  0.00  0.00     0.066 H 
ATOM      8  H   UNK d   0       5.002  -2.757  -7.366  0.00  0.00     0.066 H 
ENDROOT
BRANCH   3   9
ATOM      9  C   UNK d   0       6.560  -0.601  -6.911  0.00  0.00     0.245 C 
ATOM     10  O   UNK d   0       7.695  -0.597  -7.347  0.00  0.00    -0.270 OA
ATOM     11  N   PHE d   1       6.348  -0.516  -5.582  0.00  0.00    -0.303 N 
ATOM     12  CA  PHE d   1       7.486  -0.419  -4.664  0.00  0.00     0.067 C 
ATOM     13  H   PHE d   1       5.443  -0.519  -5.233  0.00  0.00     0.150 HD
ATOM     14  HA  PHE d   1       8.315  -1.012  -5.050  0.00  0.00     0.056 H 
ATOM     15  C   PHE d   1       7.913   1.021  -4.542  0.00  0.00     0.062 C 
ATOM     16  O   PHE d   1       7.329   1.878  -5.162  0.00  0.00    -0.548 OA
ATOM     17  OXT PHE d   1       8.943   1.351  -3.748  0.00  0.00    -0.548 OA
BRANCH  12  18
ATOM     18  CB  PHE d   1       7.077  -0.949  -3.288  0.00  0.00    -0.004 C 
ATOM     19  HB1 PHE d   1       7.190  -2.033  -3.268  0.00  0.00     0.034 H 
ATOM     20  HB2 PHE d   1       7.713  -0.504  -2.523  0.00  0.00     0.034 H 
BRANCH  18  21
ATOM     21  CG  PHE d   1       5.639  -0.589  -3.018  0.00  0.00    -0.045 A 
ATOM     22  CD1 PHE d   1       4.636  -1.506  -3.278  0.00  0.00    -0.059 A 
ATOM     23  CE1 PHE d   1       3.317  -1.176  -3.029  0.00  0.00    -0.061 A 
ATOM     24  HD1 PHE d   1       4.885  -2.479  -3.675  0.00  0.00     0.062 H 
ATOM     25  CZ  PHE d   1       3.000   0.070  -2.521  0.00  0.00    -0.062 A 
ATOM     26  HE1 PHE d   1       2.534  -1.891  -3.233  0.00  0.00     0.062 H 
ATOM     27  CE2 PHE d   1       4.002   0.985  -2.260  0.00  0.00    -0.061 A 
ATOM     28  HZ  PHE d   1       1.970   0.328  -2.326  0.00  0.00     0.062 H 
ATOM     29  CD2 PHE d   1       5.322   0.654  -2.504  0.00  0.00    -0.059 A 
ATOM     30  HE2 PHE d   1       3.755   1.959  -1.863  0.00  0.00     0.062 H 
ATOM     31  HD2 PHE d   1       6.106   1.368  -2.297  0.00  0.00     0.062 H 
ENDBRANCH  18  21
ENDBRANCH  12  18
ENDBRANCH   3   9
BRANCH   1  32
ATOM     32  O   UNK d   0       3.593   1.393 -10.208  0.00  0.00    -0.491 OA
BRANCH  32  33
ATOM     33  C   UNK d   0       3.670   2.673  -9.579  0.00  0.00     0.079 C 
ATOM     34  H   UNK d   0       3.826   2.544  -8.508  0.00  0.00     0.066 H 
ATOM     35  H   UNK d   0       4.503   3.236 -10.002  0.00  0.00     0.066 H 
ATOM     36  H   UNK d   0       2.741   3.218  -9.748  0.00  0.00     0.066 H 
ENDBRANCH  32  33
ENDBRANCH   1  32
BRANCH   5  37
ATOM     37  O   UNK d   0       2.943  -3.153  -8.926  0.00  0.00    -0.491 OA
BRANCH  37  38
ATOM     38  C   UNK d   0       3.710  -4.356  -8.990  0.00  0.00     0.079 C 
ATOM     39  H   UNK d   0       3.409  -5.022  -8.183  0.00  0.00     0.066 H 
ATOM     40  H   UNK d   0       3.540  -4.845  -9.950  0.00  0.00     0.066 H 
ATOM     41  H   UNK d   0       4.769  -4.117  -8.887  0.00  0.00     0.066 H 
ENDBRANCH  37  38
ENDBRANCH   5  37
BRANCH   6  42
ATOM     42  O   UNK d   0       2.203  -0.970 -10.428  0.00  0.00    -0.488 OA
BRANCH  42  43
ATOM     43  C   UNK d   0       2.489  -1.345 -11.777  0.00  0.00     0.079 C 
ATOM     44  H   UNK d   0       1.631  -1.113 -12.408  0.00  0.00     0.066 H 
ATOM     45  H   UNK d   0       3.359  -0.793 -12.131  0.00  0.00     0.066 H 
ATOM     46  H   UNK d   0       2.694  -2.414 -11.822  0.00  0.00     0.066 H 
ENDBRANCH  42  43
ENDBRANCH   6  42
TORSDOF 11
ENDMDL
