MODEL 1
REMARK VINA RESULT:      -5.3      0.000      0.000
REMARK  11 active torsions:
REMARK  status: ('A' for Active; 'I' for Inactive)
REMARK    1  A    between atoms: C_1  and  O_2 
REMARK    2  A    between atoms: O_2  and  C_3 
REMARK    3  A    between atoms: C_5  and  C_10 
REMARK    4  A    between atoms: C_8  and  O_9 
REMARK    5  A    between atoms: C_12  and  C_27 
REMARK    6  A    between atoms: C_16  and  C_23 
REMARK    7  A    between atoms: C_18  and  O_21 
REMARK    8  A    between atoms: O_21  and  C_22 
REMARK    9  A    between atoms: C_24  and  C_25 
REMARK   10  A    between atoms: C_25  and  O_26 
REMARK   11  A    between atoms: C_27  and  O_28 
ROOT
ATOM      1  C   LIG d   1       5.574  -2.283  -5.448  0.00  0.00     0.134 C 
ATOM      2  H   LIG d   1       6.626  -2.547  -5.554  0.00  0.00     0.079 H 
ATOM      3  C   LIG d   1       5.021  -1.689  -6.764  0.00  0.00     0.052 C 
ATOM      4  H   LIG d   1       5.821  -1.247  -7.358  0.00  0.00     0.041 H 
ATOM      5  C   LIG d   1       4.453  -2.917  -7.449  0.00  0.00     0.008 A 
ATOM      6  C   LIG d   1       4.066  -3.150  -8.749  0.00  0.00    -0.047 A 
ATOM      7  C   LIG d   1       3.573  -4.404  -9.116  0.00  0.00    -0.021 A 
ATOM      8  C   LIG d   1       3.478  -5.412  -8.157  0.00  0.00    -0.009 A 
ATOM      9  C   LIG d   1       3.865  -5.170  -6.854  0.00  0.00     0.162 A 
ATOM     10  C   LIG d   1       4.355  -3.913  -6.485  0.00  0.00     0.167 A 
ATOM     11  O   LIG d   1       4.769  -3.462  -5.269  0.00  0.00    -0.480 OA
ATOM     12  H   LIG d   1       4.143  -2.363  -9.485  0.00  0.00     0.063 H 
ATOM     13  H   LIG d   1       3.101  -6.386  -8.434  0.00  0.00     0.066 H 
ENDROOT
BRANCH   1  14
ATOM     14  C   LIG d   1       5.377  -1.323  -4.303  0.00  0.00    -0.003 A 
ATOM     15  C   LIG d   1       6.098  -0.145  -4.258  0.00  0.00    -0.010 A 
ATOM     16  C   LIG d   1       5.914   0.742  -3.210  0.00  0.00     0.162 A 
ATOM     17  H   LIG d   1       6.804   0.086  -5.043  0.00  0.00     0.066 H 
ATOM     18  C   LIG d   1       5.009   0.440  -2.198  0.00  0.00     0.159 A 
ATOM     19  C   LIG d   1       4.292  -0.746  -2.245  0.00  0.00    -0.016 A 
ATOM     20  C   LIG d   1       4.477  -1.624  -3.298  0.00  0.00    -0.051 A 
ATOM     21  H   LIG d   1       3.589  -0.983  -1.461  0.00  0.00     0.066 H 
ATOM     22  H   LIG d   1       3.918  -2.548  -3.333  0.00  0.00     0.062 H 
BRANCH  16  23
ATOM     23  O   LIG d   1       6.619   1.904  -3.169  0.00  0.00    -0.491 OA
BRANCH  23  24
ATOM     24  C   LIG d   1       7.859   1.936  -3.877  0.00  0.00     0.079 C 
ATOM     25  H   LIG d   1       7.763   1.371  -4.804  0.00  0.00     0.066 H 
ATOM     26  H   LIG d   1       8.119   2.969  -4.108  0.00  0.00     0.066 H 
ATOM     27  H   LIG d   1       8.642   1.493  -3.261  0.00  0.00     0.066 H 
ENDBRANCH  23  24
ENDBRANCH  16  23
BRANCH  18  28
ATOM     28  O   LIG d   1       4.827   1.305  -1.164  0.00  0.00    -0.503 OA
ATOM     29  H   LIG d   1       5.537   1.954  -1.067  0.00  0.00     0.292 HD
ENDBRANCH  18  28
ENDBRANCH   1  14
BRANCH   3  30
ATOM     30  C   LIG d   1       3.922  -0.663  -6.482  0.00  0.00     0.055 C 
ATOM     31  H   LIG d   1       2.958  -1.071  -6.783  0.00  0.00     0.056 H 
ATOM     32  H   LIG d   1       3.902  -0.435  -5.416  0.00  0.00     0.056 H 
BRANCH  30  33
ATOM     33  O   LIG d   1       4.185   0.532  -7.220  0.00  0.00    -0.394 OA
ATOM     34  H   LIG d   1       4.039   0.447  -8.172  0.00  0.00     0.209 HD
ENDBRANCH  30  33
ENDBRANCH   3  30
BRANCH   9  35
ATOM     35  O   LIG d   1       3.770  -6.158  -5.925  0.00  0.00    -0.491 OA
BRANCH  35  36
ATOM     36  C   LIG d   1       4.898  -7.023  -5.778  0.00  0.00     0.079 C 
ATOM     37  H   LIG d   1       5.405  -6.802  -4.839  0.00  0.00     0.066 H 
ATOM     38  H   LIG d   1       4.562  -8.060  -5.776  0.00  0.00     0.066 H 
ATOM     39  H   LIG d   1       5.586  -6.866  -6.609  0.00  0.00     0.066 H 
ENDBRANCH  35  36
ENDBRANCH   9  35
BRANCH   7  40
ATOM     40  C   LIG d   1       3.156  -4.660 -10.511  0.00  0.00    -0.056 C 
ATOM     41  C   LIG d   1       1.982  -4.223 -10.942  0.00  0.00    -0.058 C 
ATOM     42  H   LIG d   1       1.328  -3.680 -10.274  0.00  0.00     0.059 H 
ATOM     43  H   LIG d   1       3.809  -5.203 -11.179  0.00  0.00     0.062 H 
BRANCH  41  44
ATOM     44  C   LIG d   1       1.556  -4.485 -12.364  0.00  0.00     0.063 C 
ATOM     45  H   LIG d   1       1.633  -3.563 -12.941  0.00  0.00     0.060 H 
ATOM     46  H   LIG d   1       2.203  -5.244 -12.803  0.00  0.00     0.060 H 
BRANCH  44  47
ATOM     47  O   LIG d   1       0.203  -4.944 -12.379  0.00  0.00    -0.391 OA
ATOM     48  H   LIG d   1      -0.415  -4.332 -12.801  0.00  0.00     0.210 HD
ENDBRANCH  44  47
ENDBRANCH  41  44
ENDBRANCH   7  40
TORSDOF 11
ENDMDL
MODEL 2
REMARK VINA RESULT:      -5.3      3.174      6.499
REMARK  11 active torsions:
REMARK  status: ('A' for Active; 'I' for Inactive)
REMARK    1  A    between atoms: C_1  and  O_2 
REMARK    2  A    between atoms: O_2  and  C_3 
REMARK    3  A    between atoms: C_5  and  C_10 
REMARK    4  A    between atoms: C_8  and  O_9 
REMARK    5  A    between atoms: C_12  and  C_27 
REMARK    6  A    between atoms: C_16  and  C_23 
REMARK    7  A    between atoms: C_18  and  O_21 
REMARK    8  A    between atoms: O_21  and  C_22 
REMARK    9  A    between atoms: C_24  and  C_25 
REMARK   10  A    between atoms: C_25  and  O_26 
REMARK   11  A    between atoms: C_27  and  O_28 
ROOT
ATOM      1  C   LIG d   1       8.989   1.224  -4.217  0.00  0.00     0.134 C 
ATOM      2  H   LIG d   1       9.672   0.838  -3.460  0.00  0.00     0.079 H 
ATOM      3  C   LIG d   1       8.634   0.128  -5.248  0.00  0.00     0.052 C 
ATOM      4  H   LIG d   1       9.420  -0.626  -5.301  0.00  0.00     0.041 H 
ATOM      5  C   LIG d   1       7.363  -0.455  -4.663  0.00  0.00     0.008 A 
ATOM      6  C   LIG d   1       6.682  -1.624  -4.919  0.00  0.00    -0.047 A 
ATOM      7  C   LIG d   1       5.515  -1.921  -4.212  0.00  0.00    -0.021 A 
ATOM      8  C   LIG d   1       5.049  -1.025  -3.249  0.00  0.00    -0.009 A 
ATOM      9  C   LIG d   1       5.735   0.146  -3.000  0.00  0.00     0.162 A 
ATOM     10  C   LIG d   1       6.902   0.445  -3.710  0.00  0.00     0.167 A 
ATOM     11  O   LIG d   1       7.712   1.538  -3.635  0.00  0.00    -0.480 OA
ATOM     12  H   LIG d   1       7.051  -2.310  -5.667  0.00  0.00     0.063 H 
ATOM     13  H   LIG d   1       4.149  -1.249  -2.696  0.00  0.00     0.066 H 
ENDROOT
BRANCH   1  14
ATOM     14  C   LIG d   1       9.576   2.432  -4.900  0.00  0.00    -0.003 A 
ATOM     15  C   LIG d   1       9.065   3.690  -4.639  0.00  0.00    -0.010 A 
ATOM     16  C   LIG d   1       9.608   4.802  -5.262  0.00  0.00     0.162 A 
ATOM     17  H   LIG d   1       8.244   3.805  -3.947  0.00  0.00     0.066 H 
ATOM     18  C   LIG d   1      10.661   4.649  -6.158  0.00  0.00     0.159 A 
ATOM     19  C   LIG d   1      11.166   3.385  -6.419  0.00  0.00    -0.016 A 
ATOM     20  C   LIG d   1      10.623   2.280  -5.790  0.00  0.00    -0.051 A 
ATOM     21  H   LIG d   1      11.984   3.264  -7.113  0.00  0.00     0.066 H 
ATOM     22  H   LIG d   1      11.018   1.296  -5.995  0.00  0.00     0.062 H 
BRANCH  16  23
ATOM     23  O   LIG d   1       9.108   6.040  -5.002  0.00  0.00    -0.491 OA
BRANCH  23  24
ATOM     24  C   LIG d   1       9.477   6.641  -3.759  0.00  0.00     0.079 C 
ATOM     25  H   LIG d   1       8.580   6.959  -3.229  0.00  0.00     0.066 H 
ATOM     26  H   LIG d   1      10.020   5.916  -3.152  0.00  0.00     0.066 H 
ATOM     27  H   LIG d   1      10.113   7.506  -3.948  0.00  0.00     0.066 H 
ENDBRANCH  23  24
ENDBRANCH  16  23
BRANCH  18  28
ATOM     28  O   LIG d   1      11.194   5.737  -6.775  0.00  0.00    -0.503 OA
ATOM     29  H   LIG d   1      11.895   6.171  -6.269  0.00  0.00     0.292 HD
ENDBRANCH  18  28
ENDBRANCH   1  14
BRANCH   3  30
ATOM     30  C   LIG d   1       8.372   0.738  -6.627  0.00  0.00     0.055 C 
ATOM     31  H   LIG d   1       9.052   1.575  -6.788  0.00  0.00     0.056 H 
ATOM     32  H   LIG d   1       8.538  -0.017  -7.395  0.00  0.00     0.056 H 
BRANCH  30  33
ATOM     33  O   LIG d   1       7.022   1.200  -6.695  0.00  0.00    -0.394 OA
ATOM     34  H   LIG d   1       6.801   1.869  -6.033  0.00  0.00     0.209 HD
ENDBRANCH  30  33
ENDBRANCH   3  30
BRANCH   9  35
ATOM     35  O   LIG d   1       5.275   1.013  -2.059  0.00  0.00    -0.491 OA
BRANCH  35  36
ATOM     36  C   LIG d   1       3.889   1.354  -2.112  0.00  0.00     0.079 C 
ATOM     37  H   LIG d   1       3.780   2.438  -2.092  0.00  0.00     0.066 H 
ATOM     38  H   LIG d   1       3.453   0.961  -3.032  0.00  0.00     0.066 H 
ATOM     39  H   LIG d   1       3.374   0.921  -1.254  0.00  0.00     0.066 H 
ENDBRANCH  35  36
ENDBRANCH   9  35
BRANCH   7  40
ATOM     40  C   LIG d   1       4.780  -3.174  -4.483  0.00  0.00    -0.056 C 
ATOM     41  C   LIG d   1       5.299  -4.084  -5.295  0.00  0.00    -0.058 C 
ATOM     42  H   LIG d   1       6.259  -3.910  -5.760  0.00  0.00     0.059 H 
ATOM     43  H   LIG d   1       3.821  -3.348  -4.018  0.00  0.00     0.062 H 
BRANCH  41  44
ATOM     44  C   LIG d   1       4.550  -5.362  -5.572  0.00  0.00     0.063 C 
ATOM     45  H   LIG d   1       5.112  -5.966  -6.284  0.00  0.00     0.060 H 
ATOM     46  H   LIG d   1       4.424  -5.918  -4.643  0.00  0.00     0.060 H 
BRANCH  44  47
ATOM     47  O   LIG d   1       3.266  -5.053  -6.118  0.00  0.00    -0.391 OA
ATOM     48  H   LIG d   1       3.252  -4.250  -6.657  0.00  0.00     0.210 HD
ENDBRANCH  44  47
ENDBRANCH  41  44
ENDBRANCH   7  40
TORSDOF 11
ENDMDL
MODEL 3
REMARK VINA RESULT:      -5.2     11.978     15.479
REMARK  11 active torsions:
REMARK  status: ('A' for Active; 'I' for Inactive)
REMARK    1  A    between atoms: C_1  and  O_2 
REMARK    2  A    between atoms: O_2  and  C_3 
REMARK    3  A    between atoms: C_5  and  C_10 
REMARK    4  A    between atoms: C_8  and  O_9 
REMARK    5  A    between atoms: C_12  and  C_27 
REMARK    6  A    between atoms: C_16  and  C_23 
REMARK    7  A    between atoms: C_18  and  O_21 
REMARK    8  A    between atoms: O_21  and  C_22 
REMARK    9  A    between atoms: C_24  and  C_25 
REMARK   10  A    between atoms: C_25  and  O_26 
REMARK   11  A    between atoms: C_27  and  O_28 
ROOT
ATOM      1  C   LIG d   1      11.652   7.877  -2.261  0.00  0.00     0.134 C 
ATOM      2  H   LIG d   1      12.683   7.584  -2.459  0.00  0.00     0.079 H 
ATOM      3  C   LIG d   1      10.904   6.765  -1.490  0.00  0.00     0.052 C 
ATOM      4  H   LIG d   1      11.356   5.790  -1.677  0.00  0.00     0.041 H 
ATOM      5  C   LIG d   1      11.108   7.189  -0.049  0.00  0.00     0.008 A 
ATOM      6  C   LIG d   1      10.945   6.517   1.141  0.00  0.00    -0.047 A 
ATOM      7  C   LIG d   1      11.218   7.161   2.349  0.00  0.00    -0.021 A 
ATOM      8  C   LIG d   1      11.654   8.487   2.338  0.00  0.00    -0.009 A 
ATOM      9  C   LIG d   1      11.812   9.155   1.140  0.00  0.00     0.162 A 
ATOM     10  C   LIG d   1      11.535   8.511  -0.070  0.00  0.00     0.167 A 
ATOM     11  O   LIG d   1      11.606   8.984  -1.345  0.00  0.00    -0.480 OA
ATOM     12  H   LIG d   1      10.607   5.491   1.140  0.00  0.00     0.063 H 
ATOM     13  H   LIG d   1      11.870   8.991   3.268  0.00  0.00     0.066 H 
ENDROOT
BRANCH   1  14
ATOM     14  C   LIG d   1      10.936   8.214  -3.543  0.00  0.00    -0.003 A 
ATOM     15  C   LIG d   1      10.373   9.466  -3.711  0.00  0.00    -0.010 A 
ATOM     16  C   LIG d   1       9.719   9.780  -4.891  0.00  0.00     0.162 A 
ATOM     17  H   LIG d   1      10.446  10.200  -2.922  0.00  0.00     0.066 H 
ATOM     18  C   LIG d   1       9.622   8.830  -5.903  0.00  0.00     0.159 A 
ATOM     19  C   LIG d   1      10.184   7.575  -5.727  0.00  0.00    -0.016 A 
ATOM     20  C   LIG d   1      10.840   7.270  -4.548  0.00  0.00    -0.051 A 
ATOM     21  H   LIG d   1      10.110   6.836  -6.511  0.00  0.00     0.066 H 
ATOM     22  H   LIG d   1      11.277   6.292  -4.413  0.00  0.00     0.062 H 
BRANCH  16  23
ATOM     23  O   LIG d   1       9.170  11.012  -5.059  0.00  0.00    -0.491 OA
BRANCH  23  24
ATOM     24  C   LIG d   1       8.713  11.684  -3.884  0.00  0.00     0.079 C 
ATOM     25  H   LIG d   1       7.982  11.061  -3.369  0.00  0.00     0.066 H 
ATOM     26  H   LIG d   1       9.558  11.874  -3.222  0.00  0.00     0.066 H 
ATOM     27  H   LIG d   1       8.250  12.631  -4.163  0.00  0.00     0.066 H 
ENDBRANCH  23  24
ENDBRANCH  16  23
BRANCH  18  28
ATOM     28  O   LIG d   1       8.978   9.131  -7.062  0.00  0.00    -0.503 OA
ATOM     29  H   LIG d   1       9.554   9.146  -7.839  0.00  0.00     0.292 HD
ENDBRANCH  18  28
ENDBRANCH   1  14
BRANCH   3  30
ATOM     30  C   LIG d   1       9.417   6.753  -1.852  0.00  0.00     0.055 C 
ATOM     31  H   LIG d   1       9.301   6.967  -2.914  0.00  0.00     0.056 H 
ATOM     32  H   LIG d   1       8.998   5.771  -1.631  0.00  0.00     0.056 H 
BRANCH  30  33
ATOM     33  O   LIG d   1       8.733   7.747  -1.088  0.00  0.00    -0.394 OA
ATOM     34  H   LIG d   1       9.259   8.124  -0.369  0.00  0.00     0.209 HD
ENDBRANCH  30  33
ENDBRANCH   3  30
BRANCH   9  35
ATOM     35  O   LIG d   1      12.238  10.446   1.137  0.00  0.00    -0.491 OA
BRANCH  35  36
ATOM     36  C   LIG d   1      13.650  10.664   1.162  0.00  0.00     0.079 C 
ATOM     37  H   LIG d   1      14.166   9.706   1.111  0.00  0.00     0.066 H 
ATOM     38  H   LIG d   1      13.938  11.278   0.308  0.00  0.00     0.066 H 
ATOM     39  H   LIG d   1      13.923  11.176   2.085  0.00  0.00     0.066 H 
ENDBRANCH  35  36
ENDBRANCH   9  35
BRANCH   7  40
ATOM     40  C   LIG d   1      11.045   6.444   3.631  0.00  0.00    -0.056 C 
ATOM     41  C   LIG d   1      11.375   7.035   4.770  0.00  0.00    -0.058 C 
ATOM     42  H   LIG d   1      11.771   8.041   4.763  0.00  0.00     0.059 H 
ATOM     43  H   LIG d   1      10.649   5.440   3.638  0.00  0.00     0.062 H 
BRANCH  41  44
ATOM     44  C   LIG d   1      11.200   6.305   6.077  0.00  0.00     0.063 C 
ATOM     45  H   LIG d   1      11.372   6.994   6.904  0.00  0.00     0.060 H 
ATOM     46  H   LIG d   1      10.186   5.910   6.138  0.00  0.00     0.060 H 
BRANCH  44  47
ATOM     47  O   LIG d   1      12.136   5.229   6.150  0.00  0.00    -0.391 OA
ATOM     48  H   LIG d   1      13.036   5.473   5.891  0.00  0.00     0.210 HD
ENDBRANCH  44  47
ENDBRANCH  41  44
ENDBRANCH   7  40
TORSDOF 11
ENDMDL
MODEL 4
REMARK VINA RESULT:      -5.1     10.646     12.437
REMARK  11 active torsions:
REMARK  status: ('A' for Active; 'I' for Inactive)
REMARK    1  A    between atoms: C_1  and  O_2 
REMARK    2  A    between atoms: O_2  and  C_3 
REMARK    3  A    between atoms: C_5  and  C_10 
REMARK    4  A    between atoms: C_8  and  O_9 
REMARK    5  A    between atoms: C_12  and  C_27 
REMARK    6  A    between atoms: C_16  and  C_23 
REMARK    7  A    between atoms: C_18  and  O_21 
REMARK    8  A    between atoms: O_21  and  C_22 
REMARK    9  A    between atoms: C_24  and  C_25 
REMARK   10  A    between atoms: C_25  and  O_26 
REMARK   11  A    between atoms: C_27  and  O_28 
ROOT
ATOM      1  C   LIG d   1      11.803   6.963  -1.085  0.00  0.00     0.134 C 
ATOM      2  H   LIG d   1      12.862   7.119  -1.292  0.00  0.00     0.079 H 
ATOM      3  C   LIG d   1      10.952   8.099  -1.699  0.00  0.00     0.052 C 
ATOM      4  H   LIG d   1      11.541   9.010  -1.812  0.00  0.00     0.041 H 
ATOM      5  C   LIG d   1      10.583   7.522  -3.051  0.00  0.00     0.008 A 
ATOM      6  C   LIG d   1      10.080   8.100  -4.195  0.00  0.00    -0.047 A 
ATOM      7  C   LIG d   1       9.835   7.316  -5.323  0.00  0.00    -0.021 A 
ATOM      8  C   LIG d   1      10.103   5.947  -5.281  0.00  0.00    -0.009 A 
ATOM      9  C   LIG d   1      10.605   5.374  -4.129  0.00  0.00     0.162 A 
ATOM     10  C   LIG d   1      10.847   6.159  -2.998  0.00  0.00     0.167 A 
ATOM     11  O   LIG d   1      11.317   5.797  -1.771  0.00  0.00    -0.480 OA
ATOM     12  H   LIG d   1       9.875   9.160  -4.217  0.00  0.00     0.063 H 
ATOM     13  H   LIG d   1       9.919   5.335  -6.151  0.00  0.00     0.066 H 
ENDROOT
BRANCH   1  14
ATOM     14  C   LIG d   1      11.558   6.853   0.397  0.00  0.00    -0.003 A 
ATOM     15  C   LIG d   1      11.843   7.922   1.226  0.00  0.00    -0.010 A 
ATOM     16  C   LIG d   1      11.613   7.824   2.589  0.00  0.00     0.162 A 
ATOM     17  H   LIG d   1      12.243   8.835   0.810  0.00  0.00     0.066 H 
ATOM     18  C   LIG d   1      11.104   6.644   3.122  0.00  0.00     0.159 A 
ATOM     19  C   LIG d   1      10.825   5.574   2.287  0.00  0.00    -0.016 A 
ATOM     20  C   LIG d   1      11.052   5.680   0.927  0.00  0.00    -0.051 A 
ATOM     21  H   LIG d   1      10.429   4.657   2.699  0.00  0.00     0.066 H 
ATOM     22  H   LIG d   1      10.834   4.845   0.278  0.00  0.00     0.062 H 
BRANCH  16  23
ATOM     23  O   LIG d   1      11.888   8.877   3.403  0.00  0.00    -0.491 OA
BRANCH  23  24
ATOM     24  C   LIG d   1      12.563   9.992   2.818  0.00  0.00     0.079 C 
ATOM     25  H   LIG d   1      12.186  10.916   3.256  0.00  0.00     0.066 H 
ATOM     26  H   LIG d   1      13.634   9.910   3.009  0.00  0.00     0.066 H 
ATOM     27  H   LIG d   1      12.386  10.001   1.742  0.00  0.00     0.066 H 
ENDBRANCH  23  24
ENDBRANCH  16  23
BRANCH  18  28
ATOM     28  O   LIG d   1      10.880   6.542   4.460  0.00  0.00    -0.503 OA
ATOM     29  H   LIG d   1      11.576   6.933   5.005  0.00  0.00     0.292 HD
ENDBRANCH  18  28
ENDBRANCH   1  14
BRANCH   3  30
ATOM     30  C   LIG d   1       9.701   8.362  -0.857  0.00  0.00     0.055 C 
ATOM     31  H   LIG d   1       9.916   8.144   0.189  0.00  0.00     0.056 H 
ATOM     32  H   LIG d   1       9.410   9.408  -0.957  0.00  0.00     0.056 H 
BRANCH  30  33
ATOM     33  O   LIG d   1       8.636   7.524  -1.310  0.00  0.00    -0.394 OA
ATOM     34  H   LIG d   1       8.509   7.533  -2.269  0.00  0.00     0.209 HD
ENDBRANCH  30  33
ENDBRANCH   3  30
BRANCH   9  35
ATOM     35  O   LIG d   1      10.865   4.040  -4.096  0.00  0.00    -0.491 OA
BRANCH  35  36
ATOM     36  C   LIG d   1      12.176   3.624  -4.485  0.00  0.00     0.079 C 
ATOM     37  H   LIG d   1      12.914   4.094  -3.837  0.00  0.00     0.066 H 
ATOM     38  H   LIG d   1      12.253   2.539  -4.399  0.00  0.00     0.066 H 
ATOM     39  H   LIG d   1      12.359   3.919  -5.519  0.00  0.00     0.066 H 
ENDBRANCH  35  36
ENDBRANCH   9  35
BRANCH   7  40
ATOM     40  C   LIG d   1       9.294   7.932  -6.554  0.00  0.00    -0.056 C 
ATOM     41  C   LIG d   1       9.676   7.483  -7.741  0.00  0.00    -0.058 C 
ATOM     42  H   LIG d   1      10.382   6.668  -7.810  0.00  0.00     0.059 H 
ATOM     43  H   LIG d   1       8.588   8.746  -6.485  0.00  0.00     0.062 H 
BRANCH  41  44
ATOM     44  C   LIG d   1       9.126   8.110  -8.996  0.00  0.00     0.063 C 
ATOM     45  H   LIG d   1       9.947   8.498  -9.599  0.00  0.00     0.060 H 
ATOM     46  H   LIG d   1       8.578   7.360  -9.567  0.00  0.00     0.060 H 
BRANCH  44  47
ATOM     47  O   LIG d   1       8.245   9.180  -8.647  0.00  0.00    -0.391 OA
ATOM     48  H   LIG d   1       7.933   9.694  -9.404  0.00  0.00     0.210 HD
ENDBRANCH  44  47
ENDBRANCH  41  44
ENDBRANCH   7  40
TORSDOF 11
ENDMDL
MODEL 5
REMARK VINA RESULT:      -5.1      3.045      7.718
REMARK  11 active torsions:
REMARK  status: ('A' for Active; 'I' for Inactive)
REMARK    1  A    between atoms: C_1  and  O_2 
REMARK    2  A    between atoms: O_2  and  C_3 
REMARK    3  A    between atoms: C_5  and  C_10 
REMARK    4  A    between atoms: C_8  and  O_9 
REMARK    5  A    between atoms: C_12  and  C_27 
REMARK    6  A    between atoms: C_16  and  C_23 
REMARK    7  A    between atoms: C_18  and  O_21 
REMARK    8  A    between atoms: O_21  and  C_22 
REMARK    9  A    between atoms: C_24  and  C_25 
REMARK   10  A    between atoms: C_25  and  O_26 
REMARK   11  A    between atoms: C_27  and  O_28 
ROOT
ATOM      1  C   LIG d   1       4.650  -0.189  -8.108  0.00  0.00     0.134 C 
ATOM      2  H   LIG d   1       5.300   0.638  -8.395  0.00  0.00     0.079 H 
ATOM      3  C   LIG d   1       5.475  -1.471  -7.851  0.00  0.00     0.052 C 
ATOM      4  H   LIG d   1       6.414  -1.447  -8.405  0.00  0.00     0.041 H 
ATOM      5  C   LIG d   1       5.725  -1.391  -6.358  0.00  0.00     0.008 A 
ATOM      6  C   LIG d   1       6.609  -2.051  -5.534  0.00  0.00    -0.047 A 
ATOM      7  C   LIG d   1       6.631  -1.771  -4.167  0.00  0.00    -0.021 A 
ATOM      8  C   LIG d   1       5.751  -0.822  -3.645  0.00  0.00    -0.009 A 
ATOM      9  C   LIG d   1       4.864  -0.167  -4.477  0.00  0.00     0.162 A 
ATOM     10  C   LIG d   1       4.841  -0.449  -5.846  0.00  0.00     0.167 A 
ATOM     11  O   LIG d   1       4.045   0.061  -6.827  0.00  0.00    -0.480 OA
ATOM     12  H   LIG d   1       7.286  -2.784  -5.948  0.00  0.00     0.063 H 
ATOM     13  H   LIG d   1       5.764  -0.599  -2.589  0.00  0.00     0.066 H 
ENDROOT
BRANCH   1  14
ATOM     14  C   LIG d   1       3.597  -0.431  -9.158  0.00  0.00    -0.003 A 
ATOM     15  C   LIG d   1       3.968  -0.625 -10.475  0.00  0.00    -0.010 A 
ATOM     16  C   LIG d   1       3.002  -0.854 -11.441  0.00  0.00     0.162 A 
ATOM     17  H   LIG d   1       5.013  -0.601 -10.751  0.00  0.00     0.066 H 
ATOM     18  C   LIG d   1       1.658  -0.879 -11.085  0.00  0.00     0.159 A 
ATOM     19  C   LIG d   1       1.292  -0.678  -9.763  0.00  0.00    -0.016 A 
ATOM     20  C   LIG d   1       2.262  -0.455  -8.803  0.00  0.00    -0.051 A 
ATOM     21  H   LIG d   1       0.249  -0.697  -9.483  0.00  0.00     0.066 H 
ATOM     22  H   LIG d   1       1.974  -0.299  -7.773  0.00  0.00     0.062 H 
BRANCH  16  23
ATOM     23  O   LIG d   1       3.367  -1.050 -12.737  0.00  0.00    -0.491 OA
BRANCH  23  24
ATOM     24  C   LIG d   1       4.609  -0.482 -13.155  0.00  0.00     0.079 C 
ATOM     25  H   LIG d   1       4.527  -0.148 -14.189  0.00  0.00     0.066 H 
ATOM     26  H   LIG d   1       4.852   0.369 -12.518  0.00  0.00     0.066 H 
ATOM     27  H   LIG d   1       5.397  -1.231 -13.076  0.00  0.00     0.066 H 
ENDBRANCH  23  24
ENDBRANCH  16  23
BRANCH  18  28
ATOM     28  O   LIG d   1       0.705  -1.099 -12.030  0.00  0.00    -0.503 OA
ATOM     29  H   LIG d   1       0.930  -1.800 -12.657  0.00  0.00     0.292 HD
ENDBRANCH  18  28
ENDBRANCH   1  14
BRANCH   3  30
ATOM     30  C   LIG d   1       4.667  -2.721  -8.204  0.00  0.00     0.055 C 
ATOM     31  H   LIG d   1       4.021  -2.507  -9.055  0.00  0.00     0.056 H 
ATOM     32  H   LIG d   1       5.348  -3.533  -8.462  0.00  0.00     0.056 H 
BRANCH  30  33
ATOM     33  O   LIG d   1       3.868  -3.106  -7.084  0.00  0.00    -0.394 OA
ATOM     34  H   LIG d   1       4.300  -3.737  -6.491  0.00  0.00     0.209 HD
ENDBRANCH  30  33
ENDBRANCH   3  30
BRANCH   9  35
ATOM     35  O   LIG d   1       4.011   0.757  -3.962  0.00  0.00    -0.491 OA
BRANCH  35  36
ATOM     36  C   LIG d   1       3.842   0.766  -2.543  0.00  0.00     0.079 C 
ATOM     37  H   LIG d   1       3.392  -0.174  -2.225  0.00  0.00     0.066 H 
ATOM     38  H   LIG d   1       4.814   0.886  -2.062  0.00  0.00     0.066 H 
ATOM     39  H   LIG d   1       3.193   1.595  -2.259  0.00  0.00     0.066 H 
ENDBRANCH  35  36
ENDBRANCH   9  35
BRANCH   7  40
ATOM     40  C   LIG d   1       7.579  -2.476  -3.278  0.00  0.00    -0.056 C 
ATOM     41  C   LIG d   1       8.409  -3.380  -3.779  0.00  0.00    -0.058 C 
ATOM     42  H   LIG d   1       8.394  -3.601  -4.837  0.00  0.00     0.059 H 
ATOM     43  H   LIG d   1       7.595  -2.255  -2.221  0.00  0.00     0.062 H 
BRANCH  41  44
ATOM     44  C   LIG d   1       9.376  -4.099  -2.874  0.00  0.00     0.063 C 
ATOM     45  H   LIG d   1       9.001  -4.077  -1.851  0.00  0.00     0.060 H 
ATOM     46  H   LIG d   1       9.478  -5.134  -3.201  0.00  0.00     0.060 H 
BRANCH  44  47
ATOM     47  O   LIG d   1      10.650  -3.454  -2.929  0.00  0.00    -0.391 OA
ATOM     48  H   LIG d   1      10.656  -2.563  -2.553  0.00  0.00     0.210 HD
ENDBRANCH  44  47
ENDBRANCH  41  44
ENDBRANCH   7  40
TORSDOF 11
ENDMDL
MODEL 6
REMARK VINA RESULT:      -5.1      2.827      5.070
REMARK  11 active torsions:
REMARK  status: ('A' for Active; 'I' for Inactive)
REMARK    1  A    between atoms: C_1  and  O_2 
REMARK    2  A    between atoms: O_2  and  C_3 
REMARK    3  A    between atoms: C_5  and  C_10 
REMARK    4  A    between atoms: C_8  and  O_9 
REMARK    5  A    between atoms: C_12  and  C_27 
REMARK    6  A    between atoms: C_16  and  C_23 
REMARK    7  A    between atoms: C_18  and  O_21 
REMARK    8  A    between atoms: O_21  and  C_22 
REMARK    9  A    between atoms: C_24  and  C_25 
REMARK   10  A    between atoms: C_25  and  O_26 
REMARK   11  A    between atoms: C_27  and  O_28 
ROOT
ATOM      1  C   LIG d   1       4.843  -2.855  -3.698  0.00  0.00     0.134 C 
ATOM      2  H   LIG d   1       4.566  -3.419  -2.807  0.00  0.00     0.079 H 
ATOM      3  C   LIG d   1       6.368  -2.931  -3.944  0.00  0.00     0.052 C 
ATOM      4  H   LIG d   1       6.903  -3.123  -3.014  0.00  0.00     0.041 H 
ATOM      5  C   LIG d   1       6.477  -4.115  -4.885  0.00  0.00     0.008 A 
ATOM      6  C   LIG d   1       7.547  -4.888  -5.274  0.00  0.00    -0.047 A 
ATOM      7  C   LIG d   1       7.357  -5.944  -6.167  0.00  0.00    -0.021 A 
ATOM      8  C   LIG d   1       6.078  -6.206  -6.659  0.00  0.00    -0.009 A 
ATOM      9  C   LIG d   1       5.010  -5.425  -6.267  0.00  0.00     0.162 A 
ATOM     10  C   LIG d   1       5.200  -4.365  -5.374  0.00  0.00     0.167 A 
ATOM     11  O   LIG d   1       4.300  -3.471  -4.878  0.00  0.00    -0.480 OA
ATOM     12  H   LIG d   1       8.533  -4.677  -4.887  0.00  0.00     0.063 H 
ATOM     13  H   LIG d   1       5.923  -7.023  -7.348  0.00  0.00     0.066 H 
ENDROOT
BRANCH   1  14
ATOM     14  C   LIG d   1       4.390  -1.423  -3.586  0.00  0.00    -0.003 A 
ATOM     15  C   LIG d   1       3.813  -0.794  -4.674  0.00  0.00    -0.010 A 
ATOM     16  C   LIG d   1       3.390   0.521  -4.570  0.00  0.00     0.162 A 
ATOM     17  H   LIG d   1       3.690  -1.330  -5.604  0.00  0.00     0.066 H 
ATOM     18  C   LIG d   1       3.556   1.211  -3.374  0.00  0.00     0.159 A 
ATOM     19  C   LIG d   1       4.140   0.576  -2.288  0.00  0.00    -0.016 A 
ATOM     20  C   LIG d   1       4.555  -0.738  -2.396  0.00  0.00    -0.051 A 
ATOM     21  H   LIG d   1       4.269   1.109  -1.358  0.00  0.00     0.066 H 
ATOM     22  H   LIG d   1       5.009  -1.231  -1.549  0.00  0.00     0.062 H 
BRANCH  16  23
ATOM     23  O   LIG d   1       2.818   1.138  -5.639  0.00  0.00    -0.491 OA
BRANCH  23  24
ATOM     24  C   LIG d   1       2.864   0.448  -6.889  0.00  0.00     0.079 C 
ATOM     25  H   LIG d   1       3.158  -0.588  -6.721  0.00  0.00     0.066 H 
ATOM     26  H   LIG d   1       1.878   0.474  -7.354  0.00  0.00     0.066 H 
ATOM     27  H   LIG d   1       3.588   0.931  -7.545  0.00  0.00     0.066 H 
ENDBRANCH  23  24
ENDBRANCH  16  23
BRANCH  18  28
ATOM     28  O   LIG d   1       3.146   2.503  -3.269  0.00  0.00    -0.503 OA
ATOM     29  H   LIG d   1       3.322   2.901  -2.405  0.00  0.00     0.292 HD
ENDBRANCH  18  28
ENDBRANCH   1  14
BRANCH   3  30
ATOM     30  C   LIG d   1       6.879  -1.653  -4.612  0.00  0.00     0.055 C 
ATOM     31  H   LIG d   1       7.295  -1.896  -5.589  0.00  0.00     0.056 H 
ATOM     32  H   LIG d   1       6.052  -0.952  -4.735  0.00  0.00     0.056 H 
BRANCH  30  33
ATOM     33  O   LIG d   1       7.891  -1.060  -3.796  0.00  0.00    -0.394 OA
ATOM     34  H   LIG d   1       7.795  -0.104  -3.683  0.00  0.00     0.209 HD
ENDBRANCH  30  33
ENDBRANCH   3  30
BRANCH   9  35
ATOM     35  O   LIG d   1       3.766  -5.687  -6.750  0.00  0.00    -0.491 OA
BRANCH  35  36
ATOM     36  C   LIG d   1       3.535  -5.413  -8.133  0.00  0.00     0.079 C 
ATOM     37  H   LIG d   1       3.900  -4.415  -8.371  0.00  0.00     0.066 H 
ATOM     38  H   LIG d   1       4.062  -6.148  -8.742  0.00  0.00     0.066 H 
ATOM     39  H   LIG d   1       2.466  -5.469  -8.341  0.00  0.00     0.066 H 
ENDBRANCH  35  36
ENDBRANCH   9  35
BRANCH   7  40
ATOM     40  C   LIG d   1       8.503  -6.777  -6.588  0.00  0.00    -0.056 C 
ATOM     41  C   LIG d   1       9.449  -7.093  -5.715  0.00  0.00    -0.058 C 
ATOM     42  H   LIG d   1       9.382  -6.742  -4.695  0.00  0.00     0.059 H 
ATOM     43  H   LIG d   1       8.569  -7.129  -7.607  0.00  0.00     0.062 H 
BRANCH  41  44
ATOM     44  C   LIG d   1      10.617  -7.943  -6.144  0.00  0.00     0.063 C 
ATOM     45  H   LIG d   1      11.182  -8.255  -5.265  0.00  0.00     0.060 H 
ATOM     46  H   LIG d   1      10.252  -8.823  -6.672  0.00  0.00     0.060 H 
BRANCH  44  47
ATOM     47  O   LIG d   1      11.464  -7.185  -7.010  0.00  0.00    -0.391 OA
ATOM     48  H   LIG d   1      11.163  -7.158  -7.928  0.00  0.00     0.210 HD
ENDBRANCH  44  47
ENDBRANCH  41  44
ENDBRANCH   7  40
TORSDOF 11
ENDMDL
MODEL 7
REMARK VINA RESULT:      -5.0     10.477     12.737
REMARK  11 active torsions:
REMARK  status: ('A' for Active; 'I' for Inactive)
REMARK    1  A    between atoms: C_1  and  O_2 
REMARK    2  A    between atoms: O_2  and  C_3 
REMARK    3  A    between atoms: C_5  and  C_10 
REMARK    4  A    between atoms: C_8  and  O_9 
REMARK    5  A    between atoms: C_12  and  C_27 
REMARK    6  A    between atoms: C_16  and  C_23 
REMARK    7  A    between atoms: C_18  and  O_21 
REMARK    8  A    between atoms: O_21  and  C_22 
REMARK    9  A    between atoms: C_24  and  C_25 
REMARK   10  A    between atoms: C_25  and  O_26 
REMARK   11  A    between atoms: C_27  and  O_28 
ROOT
ATOM      1  C   LIG d   1       9.799   8.064  -2.338  0.00  0.00     0.134 C 
ATOM      2  H   LIG d   1       8.748   7.973  -2.062  0.00  0.00     0.079 H 
ATOM      3  C   LIG d   1      10.294   6.780  -3.043  0.00  0.00     0.052 C 
ATOM      4  H   LIG d   1       9.696   5.918  -2.747  0.00  0.00     0.041 H 
ATOM      5  C   LIG d   1      10.072   7.118  -4.504  0.00  0.00     0.008 A 
ATOM      6  C   LIG d   1      10.040   6.336  -5.636  0.00  0.00    -0.047 A 
ATOM      7  C   LIG d   1       9.803   6.920  -6.882  0.00  0.00    -0.021 A 
ATOM      8  C   LIG d   1       9.601   8.298  -6.967  0.00  0.00    -0.009 A 
ATOM      9  C   LIG d   1       9.638   9.077  -5.827  0.00  0.00     0.162 A 
ATOM     10  C   LIG d   1       9.879   8.492  -4.580  0.00  0.00     0.167 A 
ATOM     11  O   LIG d   1       9.973   9.070  -3.350  0.00  0.00    -0.480 OA
ATOM     12  H   LIG d   1      10.198   5.270  -5.560  0.00  0.00     0.063 H 
ATOM     13  H   LIG d   1       9.414   8.757  -7.926  0.00  0.00     0.066 H 
ENDROOT
BRANCH   1  14
ATOM     14  C   LIG d   1      10.644   8.371  -1.129  0.00  0.00    -0.003 A 
ATOM     15  C   LIG d   1      10.603   7.536  -0.028  0.00  0.00    -0.010 A 
ATOM     16  C   LIG d   1      11.384   7.813   1.082  0.00  0.00     0.162 A 
ATOM     17  H   LIG d   1       9.963   6.666  -0.034  0.00  0.00     0.066 H 
ATOM     18  C   LIG d   1      12.203   8.938   1.090  0.00  0.00     0.159 A 
ATOM     19  C   LIG d   1      12.236   9.774  -0.015  0.00  0.00    -0.016 A 
ATOM     20  C   LIG d   1      11.458   9.488  -1.122  0.00  0.00    -0.051 A 
ATOM     21  H   LIG d   1      12.871  10.647  -0.011  0.00  0.00     0.066 H 
ATOM     22  H   LIG d   1      11.485  10.141  -1.982  0.00  0.00     0.062 H 
BRANCH  16  23
ATOM     23  O   LIG d   1      11.348   6.990   2.164  0.00  0.00    -0.491 OA
BRANCH  23  24
ATOM     24  C   LIG d   1      10.930   5.642   1.940  0.00  0.00     0.079 C 
ATOM     25  H   LIG d   1       9.952   5.640   1.460  0.00  0.00     0.066 H 
ATOM     26  H   LIG d   1      11.652   5.141   1.295  0.00  0.00     0.066 H 
ATOM     27  H   LIG d   1      10.868   5.117   2.893  0.00  0.00     0.066 H 
ENDBRANCH  23  24
ENDBRANCH  16  23
BRANCH  18  28
ATOM     28  O   LIG d   1      12.968   9.217   2.179  0.00  0.00    -0.503 OA
ATOM     29  H   LIG d   1      13.917   9.104   2.031  0.00  0.00     0.292 HD
ENDBRANCH  18  28
ENDBRANCH   1  14
BRANCH   3  30
ATOM     30  C   LIG d   1      11.778   6.537  -2.757  0.00  0.00     0.055 C 
ATOM     31  H   LIG d   1      12.373   6.896  -3.596  0.00  0.00     0.056 H 
ATOM     32  H   LIG d   1      12.066   7.072  -1.852  0.00  0.00     0.056 H 
BRANCH  30  33
ATOM     33  O   LIG d   1      12.005   5.138  -2.576  0.00  0.00    -0.394 OA
ATOM     34  H   LIG d   1      11.216   4.592  -2.695  0.00  0.00     0.209 HD
ENDBRANCH  30  33
ENDBRANCH   3  30
BRANCH   9  35
ATOM     35  O   LIG d   1       9.439  10.418  -5.918  0.00  0.00    -0.491 OA
BRANCH  35  36
ATOM     36  C   LIG d   1      10.588  11.230  -6.171  0.00  0.00     0.079 C 
ATOM     37  H   LIG d   1      10.404  11.859  -7.041  0.00  0.00     0.066 H 
ATOM     38  H   LIG d   1      10.787  11.859  -5.303  0.00  0.00     0.066 H 
ATOM     39  H   LIG d   1      11.450  10.590  -6.361  0.00  0.00     0.066 H 
ENDBRANCH  35  36
ENDBRANCH   9  35
BRANCH   7  40
ATOM     40  C   LIG d   1       9.767   6.085  -8.101  0.00  0.00    -0.056 C 
ATOM     41  C   LIG d   1       8.960   6.408  -9.101  0.00  0.00    -0.058 C 
ATOM     42  H   LIG d   1       8.329   7.281  -9.026  0.00  0.00     0.059 H 
ATOM     43  H   LIG d   1      10.399   5.212  -8.176  0.00  0.00     0.062 H 
BRANCH  41  44
ATOM     44  C   LIG d   1       8.923   5.557 -10.345  0.00  0.00     0.063 C 
ATOM     45  H   LIG d   1       9.922   5.175 -10.554  0.00  0.00     0.060 H 
ATOM     46  H   LIG d   1       8.239   4.721 -10.192  0.00  0.00     0.060 H 
BRANCH  44  47
ATOM     47  O   LIG d   1       8.473   6.345 -11.448  0.00  0.00    -0.391 OA
ATOM     48  H   LIG d   1       8.593   7.297 -11.325  0.00  0.00     0.210 HD
ENDBRANCH  44  47
ENDBRANCH  41  44
ENDBRANCH   7  40
TORSDOF 11
ENDMDL
MODEL 8
REMARK VINA RESULT:      -5.0      8.312     13.493
REMARK  11 active torsions:
REMARK  status: ('A' for Active; 'I' for Inactive)
REMARK    1  A    between atoms: C_1  and  O_2 
REMARK    2  A    between atoms: O_2  and  C_3 
REMARK    3  A    between atoms: C_5  and  C_10 
REMARK    4  A    between atoms: C_8  and  O_9 
REMARK    5  A    between atoms: C_12  and  C_27 
REMARK    6  A    between atoms: C_16  and  C_23 
REMARK    7  A    between atoms: C_18  and  O_21 
REMARK    8  A    between atoms: O_21  and  C_22 
REMARK    9  A    between atoms: C_24  and  C_25 
REMARK   10  A    between atoms: C_25  and  O_26 
REMARK   11  A    between atoms: C_27  and  O_28 
ROOT
ATOM      1  C   LIG d   1      11.160   9.316  -2.107  0.00  0.00     0.134 C 
ATOM      2  H   LIG d   1      11.366   9.641  -3.127  0.00  0.00     0.079 H 
ATOM      3  C   LIG d   1       9.914   8.402  -2.064  0.00  0.00     0.052 C 
ATOM      4  H   LIG d   1       9.251   8.607  -2.904  0.00  0.00     0.041 H 
ATOM      5  C   LIG d   1      10.529   7.022  -2.184  0.00  0.00     0.008 A 
ATOM      6  C   LIG d   1       9.987   5.793  -2.482  0.00  0.00    -0.047 A 
ATOM      7  C   LIG d   1      10.804   4.663  -2.534  0.00  0.00    -0.021 A 
ATOM      8  C   LIG d   1      12.170   4.791  -2.280  0.00  0.00    -0.009 A 
ATOM      9  C   LIG d   1      12.707   6.027  -1.977  0.00  0.00     0.162 A 
ATOM     10  C   LIG d   1      11.887   7.158  -1.923  0.00  0.00     0.167 A 
ATOM     11  O   LIG d   1      12.205   8.450  -1.630  0.00  0.00    -0.480 OA
ATOM     12  H   LIG d   1       8.928   5.704  -2.677  0.00  0.00     0.063 H 
ATOM     13  H   LIG d   1      12.810   3.922  -2.321  0.00  0.00     0.066 H 
ENDROOT
BRANCH   1  14
ATOM     14  C   LIG d   1      10.988  10.500  -1.192  0.00  0.00    -0.003 A 
ATOM     15  C   LIG d   1      11.411  10.425   0.122  0.00  0.00    -0.010 A 
ATOM     16  C   LIG d   1      11.260  11.515   0.963  0.00  0.00     0.162 A 
ATOM     17  H   LIG d   1      11.864   9.516   0.492  0.00  0.00     0.066 H 
ATOM     18  C   LIG d   1      10.672  12.682   0.486  0.00  0.00     0.159 A 
ATOM     19  C   LIG d   1      10.245  12.750  -0.831  0.00  0.00    -0.016 A 
ATOM     20  C   LIG d   1      10.404  11.659  -1.667  0.00  0.00    -0.051 A 
ATOM     21  H   LIG d   1       9.788  13.654  -1.204  0.00  0.00     0.066 H 
ATOM     22  H   LIG d   1      10.070  11.714  -2.693  0.00  0.00     0.062 H 
BRANCH  16  23
ATOM     23  O   LIG d   1      11.680  11.443   2.254  0.00  0.00    -0.491 OA
BRANCH  23  24
ATOM     24  C   LIG d   1      12.461  10.304   2.620  0.00  0.00     0.079 C 
ATOM     25  H   LIG d   1      12.715  10.362   3.679  0.00  0.00     0.066 H 
ATOM     26  H   LIG d   1      11.888   9.396   2.434  0.00  0.00     0.066 H 
ATOM     27  H   LIG d   1      13.376  10.284   2.028  0.00  0.00     0.066 H 
ENDBRANCH  23  24
ENDBRANCH  16  23
BRANCH  18  28
ATOM     28  O   LIG d   1      10.516  13.753   1.309  0.00  0.00    -0.503 OA
ATOM     29  H   LIG d   1       9.612  13.874   1.629  0.00  0.00     0.292 HD
ENDBRANCH  18  28
ENDBRANCH   1  14
BRANCH   3  30
ATOM     30  C   LIG d   1       9.169   8.555  -0.735  0.00  0.00     0.055 C 
ATOM     31  H   LIG d   1       9.633   7.916   0.016  0.00  0.00     0.056 H 
ATOM     32  H   LIG d   1       9.220   9.594  -0.408  0.00  0.00     0.056 H 
BRANCH  30  33
ATOM     33  O   LIG d   1       7.803   8.175  -0.907  0.00  0.00    -0.394 OA
ATOM     34  H   LIG d   1       7.455   7.624  -0.193  0.00  0.00     0.209 HD
ENDBRANCH  30  33
ENDBRANCH   3  30
BRANCH   9  35
ATOM     35  O   LIG d   1      14.039   6.143  -1.732  0.00  0.00    -0.491 OA
BRANCH  35  36
ATOM     36  C   LIG d   1      14.703   5.001  -1.188  0.00  0.00     0.079 C 
ATOM     37  H   LIG d   1      14.606   5.008  -0.103  0.00  0.00     0.066 H 
ATOM     38  H   LIG d   1      14.249   4.093  -1.588  0.00  0.00     0.066 H 
ATOM     39  H   LIG d   1      15.758   5.029  -1.460  0.00  0.00     0.066 H 
ENDBRANCH  35  36
ENDBRANCH   9  35
BRANCH   7  40
ATOM     40  C   LIG d   1      10.226   3.341  -2.854  0.00  0.00    -0.056 C 
ATOM     41  C   LIG d   1       9.253   3.242  -3.748  0.00  0.00    -0.058 C 
ATOM     42  H   LIG d   1       8.881   4.128  -4.243  0.00  0.00     0.059 H 
ATOM     43  H   LIG d   1      10.598   2.455  -2.361  0.00  0.00     0.062 H 
BRANCH  41  44
ATOM     44  C   LIG d   1       8.663   1.895  -4.076  0.00  0.00     0.063 C 
ATOM     45  H   LIG d   1       8.513   1.816  -5.153  0.00  0.00     0.060 H 
ATOM     46  H   LIG d   1       9.345   1.110  -3.745  0.00  0.00     0.060 H 
BRANCH  44  47
ATOM     47  O   LIG d   1       7.409   1.749  -3.408  0.00  0.00    -0.391 OA
ATOM     48  H   LIG d   1       7.481   1.698  -2.444  0.00  0.00     0.210 HD
ENDBRANCH  44  47
ENDBRANCH  41  44
ENDBRANCH   7  40
TORSDOF 11
ENDMDL
MODEL 9
REMARK VINA RESULT:      -4.9      3.569      6.329
REMARK  11 active torsions:
REMARK  status: ('A' for Active; 'I' for Inactive)
REMARK    1  A    between atoms: C_1  and  O_2 
REMARK    2  A    between atoms: O_2  and  C_3 
REMARK    3  A    between atoms: C_5  and  C_10 
REMARK    4  A    between atoms: C_8  and  O_9 
REMARK    5  A    between atoms: C_12  and  C_27 
REMARK    6  A    between atoms: C_16  and  C_23 
REMARK    7  A    between atoms: C_18  and  O_21 
REMARK    8  A    between atoms: O_21  and  C_22 
REMARK    9  A    between atoms: C_24  and  C_25 
REMARK   10  A    between atoms: C_25  and  O_26 
REMARK   11  A    between atoms: C_27  and  O_28 
ROOT
ATOM      1  C   LIG d   1       5.178  -2.439  -3.720  0.00  0.00     0.134 C 
ATOM      2  H   LIG d   1       4.769  -2.943  -2.845  0.00  0.00     0.079 H 
ATOM      3  C   LIG d   1       6.668  -2.087  -3.504  0.00  0.00     0.052 C 
ATOM      4  H   LIG d   1       6.895  -1.992  -2.442  0.00  0.00     0.041 H 
ATOM      5  C   LIG d   1       7.366  -3.293  -4.101  0.00  0.00     0.008 A 
ATOM      6  C   LIG d   1       8.659  -3.755  -3.998  0.00  0.00    -0.047 A 
ATOM      7  C   LIG d   1       9.038  -4.922  -4.662  0.00  0.00    -0.021 A 
ATOM      8  C   LIG d   1       8.098  -5.614  -5.428  0.00  0.00    -0.009 A 
ATOM      9  C   LIG d   1       6.804  -5.143  -5.529  0.00  0.00     0.162 A 
ATOM     10  C   LIG d   1       6.425  -3.972  -4.866  0.00  0.00     0.167 A 
ATOM     11  O   LIG d   1       5.223  -3.332  -4.847  0.00  0.00    -0.480 OA
ATOM     12  H   LIG d   1       9.379  -3.212  -3.404  0.00  0.00     0.063 H 
ATOM     13  H   LIG d   1       8.383  -6.520  -5.942  0.00  0.00     0.066 H 
ENDROOT
BRANCH   1  14
ATOM     14  C   LIG d   1       4.379  -1.204  -4.049  0.00  0.00    -0.003 A 
ATOM     15  C   LIG d   1       3.966  -0.975  -5.348  0.00  0.00    -0.010 A 
ATOM     16  C   LIG d   1       3.225   0.156  -5.651  0.00  0.00     0.162 A 
ATOM     17  H   LIG d   1       4.217  -1.680  -6.127  0.00  0.00     0.066 H 
ATOM     18  C   LIG d   1       2.908   1.066  -4.647  0.00  0.00     0.159 A 
ATOM     19  C   LIG d   1       3.330   0.833  -3.347  0.00  0.00    -0.016 A 
ATOM     20  C   LIG d   1       4.064  -0.301  -3.051  0.00  0.00    -0.051 A 
ATOM     21  H   LIG d   1       3.085   1.537  -2.567  0.00  0.00     0.066 H 
ATOM     22  H   LIG d   1       4.392  -0.481  -2.038  0.00  0.00     0.062 H 
BRANCH  16  23
ATOM     23  O   LIG d   1       2.814   0.380  -6.928  0.00  0.00    -0.491 OA
BRANCH  23  24
ATOM     24  C   LIG d   1       3.748   0.093  -7.970  0.00  0.00     0.079 C 
ATOM     25  H   LIG d   1       4.524   0.858  -7.984  0.00  0.00     0.066 H 
ATOM     26  H   LIG d   1       4.203  -0.882  -7.792  0.00  0.00     0.066 H 
ATOM     27  H   LIG d   1       3.230   0.083  -8.930  0.00  0.00     0.066 H 
ENDBRANCH  23  24
ENDBRANCH  16  23
BRANCH  18  28
ATOM     28  O   LIG d   1       2.186   2.180  -4.940  0.00  0.00    -0.503 OA
ATOM     29  H   LIG d   1       2.716   2.913  -5.282  0.00  0.00     0.292 HD
ENDBRANCH  18  28
ENDBRANCH   1  14
BRANCH   3  30
ATOM     30  C   LIG d   1       7.044  -0.809  -4.258  0.00  0.00     0.055 C 
ATOM     31  H   LIG d   1       7.648  -1.066  -5.128  0.00  0.00     0.056 H 
ATOM     32  H   LIG d   1       6.137  -0.300  -4.583  0.00  0.00     0.056 H 
BRANCH  30  33
ATOM     33  O   LIG d   1       7.791   0.051  -3.395  0.00  0.00    -0.394 OA
ATOM     34  H   LIG d   1       8.338  -0.417  -2.750  0.00  0.00     0.209 HD
ENDBRANCH  30  33
ENDBRANCH   3  30
BRANCH   9  35
ATOM     35  O   LIG d   1       5.894  -5.823  -6.275  0.00  0.00    -0.491 OA
BRANCH  35  36
ATOM     36  C   LIG d   1       5.104  -6.804  -5.601  0.00  0.00     0.079 C 
ATOM     37  H   LIG d   1       5.320  -7.790  -6.012  0.00  0.00     0.066 H 
ATOM     38  H   LIG d   1       5.341  -6.794  -4.537  0.00  0.00     0.066 H 
ATOM     39  H   LIG d   1       4.046  -6.577  -5.739  0.00  0.00     0.066 H 
ENDBRANCH  35  36
ENDBRANCH   9  35
BRANCH   7  40
ATOM     40  C   LIG d   1      10.425  -5.422  -4.555  0.00  0.00    -0.056 C 
ATOM     41  C   LIG d   1      10.915  -5.771  -3.374  0.00  0.00    -0.058 C 
ATOM     42  H   LIG d   1      10.300  -5.689  -2.489  0.00  0.00     0.059 H 
ATOM     43  H   LIG d   1      11.039  -5.504  -5.440  0.00  0.00     0.062 H 
BRANCH  41  44
ATOM     44  C   LIG d   1      12.329  -6.280  -3.264  0.00  0.00     0.063 C 
ATOM     45  H   LIG d   1      12.383  -7.034  -2.478  0.00  0.00     0.060 H 
ATOM     46  H   LIG d   1      12.630  -6.723  -4.214  0.00  0.00     0.060 H 
BRANCH  44  47
ATOM     47  O   LIG d   1      13.202  -5.196  -2.946  0.00  0.00    -0.391 OA
ATOM     48  H   LIG d   1      13.758  -4.909  -3.684  0.00  0.00     0.210 HD
ENDBRANCH  44  47
ENDBRANCH  41  44
ENDBRANCH   7  40
TORSDOF 11
ENDMDL
MODEL 10
REMARK VINA RESULT:      -4.8      8.397     11.478
REMARK  11 active torsions:
REMARK  status: ('A' for Active; 'I' for Inactive)
REMARK    1  A    between atoms: C_1  and  O_2 
REMARK    2  A    between atoms: O_2  and  C_3 
REMARK    3  A    between atoms: C_5  and  C_10 
REMARK    4  A    between atoms: C_8  and  O_9 
REMARK    5  A    between atoms: C_12  and  C_27 
REMARK    6  A    between atoms: C_16  and  C_23 
REMARK    7  A    between atoms: C_18  and  O_21 
REMARK    8  A    between atoms: O_21  and  C_22 
REMARK    9  A    between atoms: C_24  and  C_25 
REMARK   10  A    between atoms: C_25  and  O_26 
REMARK   11  A    between atoms: C_27  and  O_28 
ROOT
ATOM      1  C   LIG d   1       9.505   6.570  -2.213  0.00  0.00     0.134 C 
ATOM      2  H   LIG d   1       8.451   6.377  -2.014  0.00  0.00     0.079 H 
ATOM      3  C   LIG d   1      10.210   5.292  -2.723  0.00  0.00     0.052 C 
ATOM      4  H   LIG d   1       9.692   4.397  -2.380  0.00  0.00     0.041 H 
ATOM      5  C   LIG d   1      10.089   5.445  -4.227  0.00  0.00     0.008 A 
ATOM      6  C   LIG d   1      10.254   4.552  -5.261  0.00  0.00    -0.047 A 
ATOM      7  C   LIG d   1      10.069   4.968  -6.580  0.00  0.00    -0.021 A 
ATOM      8  C   LIG d   1       9.717   6.294  -6.839  0.00  0.00    -0.009 A 
ATOM      9  C   LIG d   1       9.556   7.185  -5.797  0.00  0.00     0.162 A 
ATOM     10  C   LIG d   1       9.745   6.768  -4.475  0.00  0.00     0.167 A 
ATOM     11  O   LIG d   1       9.656   7.479  -3.317  0.00  0.00    -0.480 OA
ATOM     12  H   LIG d   1      10.527   3.528  -5.050  0.00  0.00     0.063 H 
ATOM     13  H   LIG d   1       9.569   6.623  -7.857  0.00  0.00     0.066 H 
ENDROOT
BRANCH   1  14
ATOM     14  C   LIG d   1      10.192   7.105  -0.983  0.00  0.00    -0.003 A 
ATOM     15  C   LIG d   1      10.524   8.445  -0.905  0.00  0.00    -0.010 A 
ATOM     16  C   LIG d   1      11.150   8.939   0.227  0.00  0.00     0.162 A 
ATOM     17  H   LIG d   1      10.293   9.106  -1.727  0.00  0.00     0.066 H 
ATOM     18  C   LIG d   1      11.452   8.084   1.282  0.00  0.00     0.159 A 
ATOM     19  C   LIG d   1      11.121   6.740   1.196  0.00  0.00    -0.016 A 
ATOM     20  C   LIG d   1      10.491   6.254   0.065  0.00  0.00    -0.051 A 
ATOM     21  H   LIG d   1      11.354   6.075   2.013  0.00  0.00     0.066 H 
ATOM     22  H   LIG d   1      10.235   5.207  -0.000  0.00  0.00     0.062 H 
BRANCH  16  23
ATOM     23  O   LIG d   1      11.472  10.258   0.306  0.00  0.00    -0.491 OA
BRANCH  23  24
ATOM     24  C   LIG d   1      10.404  11.175   0.550  0.00  0.00     0.079 C 
ATOM     25  H   LIG d   1      10.111  11.649  -0.387  0.00  0.00     0.066 H 
ATOM     26  H   LIG d   1       9.551  10.636   0.966  0.00  0.00     0.066 H 
ATOM     27  H   LIG d   1      10.732  11.937   1.256  0.00  0.00     0.066 H 
ENDBRANCH  23  24
ENDBRANCH  16  23
BRANCH  18  28
ATOM     28  O   LIG d   1      12.070   8.564   2.394  0.00  0.00    -0.503 OA
ATOM     29  H   LIG d   1      12.976   8.865   2.240  0.00  0.00     0.292 HD
ENDBRANCH  18  28
ENDBRANCH   1  14
BRANCH   3  30
ATOM     30  C   LIG d   1      11.679   5.268  -2.293  0.00  0.00     0.055 C 
ATOM     31  H   LIG d   1      12.283   5.785  -3.038  0.00  0.00     0.056 H 
ATOM     32  H   LIG d   1      11.783   5.769  -1.330  0.00  0.00     0.056 H 
BRANCH  30  33
ATOM     33  O   LIG d   1      12.120   3.914  -2.177  0.00  0.00    -0.394 OA
ATOM     34  H   LIG d   1      13.069   3.796  -2.319  0.00  0.00     0.209 HD
ENDBRANCH  30  33
ENDBRANCH   3  30
BRANCH   9  35
ATOM     35  O   LIG d   1       9.212   8.475  -6.057  0.00  0.00    -0.491 OA
BRANCH  35  36
ATOM     36  C   LIG d   1       9.337   8.920  -7.409  0.00  0.00     0.079 C 
ATOM     37  H   LIG d   1       8.635   8.373  -8.038  0.00  0.00     0.066 H 
ATOM     38  H   LIG d   1       9.118   9.987  -7.461  0.00  0.00     0.066 H 
ATOM     39  H   LIG d   1      10.355   8.742  -7.758  0.00  0.00     0.066 H 
ENDBRANCH  35  36
ENDBRANCH   9  35
BRANCH   7  40
ATOM     40  C   LIG d   1      10.245   4.013  -7.694  0.00  0.00    -0.056 C 
ATOM     41  C   LIG d   1       9.202   3.647  -8.424  0.00  0.00    -0.058 C 
ATOM     42  H   LIG d   1       8.222   4.047  -8.206  0.00  0.00     0.059 H 
ATOM     43  H   LIG d   1      11.225   3.614  -7.913  0.00  0.00     0.062 H 
BRANCH  41  44
ATOM     44  C   LIG d   1       9.380   2.673  -9.560  0.00  0.00     0.063 C 
ATOM     45  H   LIG d   1       9.699   3.211 -10.453  0.00  0.00     0.060 H 
ATOM     46  H   LIG d   1      10.136   1.935  -9.291  0.00  0.00     0.060 H 
BRANCH  44  47
ATOM     47  O   LIG d   1       8.141   2.011  -9.819  0.00  0.00    -0.391 OA
ATOM     48  H   LIG d   1       7.365   2.583  -9.736  0.00  0.00     0.210 HD
ENDBRANCH  44  47
ENDBRANCH  41  44
ENDBRANCH   7  40
TORSDOF 11
ENDMDL
