MODEL 1
REMARK VINA RESULT:      -6.1      0.000      0.000
REMARK  8 active torsions:
REMARK  status: ('A' for Active; 'I' for Inactive)
REMARK    1  A    between atoms: C_1  and  O_2 
REMARK    2  A    between atoms: O_2  and  C_3 
REMARK    3  A    between atoms: C_7  and  C_9 
REMARK       I    between atoms: N_19  and  C_20 
REMARK       I    between atoms: C_20  and  N_22 
REMARK    4  A    between atoms: N_22  and  C_23 
REMARK    5  A    between atoms: C_23  and  C_24 
REMARK    6  A    between atoms: C_24  and  C_25 
REMARK    7  A    between atoms: C_25  and  O_27 
REMARK    8  A    between atoms: O_27  and  C_28 
ROOT
ATOM      1  C   LIG d   1       4.285  -0.825  -7.838  0.00  0.00     0.118 C 
ATOM      2  H   LIG d   1       5.252  -1.327  -7.811  0.00  0.00     0.064 H 
ATOM      3  C   LIG d   1       4.407   0.489  -8.573  0.00  0.00     0.170 A 
ATOM      4  C   LIG d   1       3.570   0.877  -9.559  0.00  0.00     0.148 A 
ATOM      5  N   LIG d   1       3.987   2.107  -9.972  0.00  0.00    -0.247 N 
ATOM      6  H   LIG d   1       3.584   2.647 -10.669  0.00  0.00     0.310 HD
ATOM      7  C   LIG d   1       5.069   2.430  -9.227  0.00  0.00     0.243 A 
ATOM      8  N   LIG d   1       5.312   1.453  -8.393  0.00  0.00    -0.245 N 
ATOM      9  C   LIG d   1       2.411   0.065 -10.074  0.00  0.00     0.029 C 
ATOM     10  C   LIG d   1       2.069  -1.017  -9.041  0.00  0.00     0.025 C 
ATOM     11  N   LIG d   1       3.312  -1.651  -8.576  0.00  0.00    -0.271 N 
ATOM     12  C   LIG d   1       3.557  -2.954  -8.817  0.00  0.00     0.303 C 
ATOM     13  O   LIG d   1       2.792  -3.598  -9.510  0.00  0.00    -0.253 OA
ATOM     14  N   LIG d   1       4.649  -3.544  -8.294  0.00  0.00    -0.299 N 
ATOM     15  H   LIG d   1       5.639   3.344  -9.309  0.00  0.00     0.158 H 
ATOM     16  H   LIG d   1       1.548   0.714 -10.223  0.00  0.00     0.036 H 
ATOM     17  H   LIG d   1       2.685  -0.406 -11.018  0.00  0.00     0.036 H 
ATOM     18  H   LIG d   1       1.552  -0.562  -8.194  0.00  0.00     0.047 H 
ATOM     19  H   LIG d   1       1.425  -1.768  -9.500  0.00  0.00     0.047 H 
ATOM     20  H   LIG d   1       5.219  -3.051  -7.682  0.00  0.00     0.150 HD
ATOM     21  H   LIG d   1       6.035   1.432  -7.746  0.00  0.00     0.310 HD
ENDROOT
BRANCH   1  22
ATOM     22  C   LIG d   1       3.793  -0.583  -6.434  0.00  0.00    -0.015 A 
ATOM     23  C   LIG d   1       2.819   0.370  -6.198  0.00  0.00    -0.056 A 
ATOM     24  C   LIG d   1       2.365   0.593  -4.912  0.00  0.00    -0.058 A 
ATOM     25  H   LIG d   1       2.412   0.939  -7.021  0.00  0.00     0.062 H 
ATOM     26  C   LIG d   1       2.883  -0.134  -3.858  0.00  0.00    -0.020 A 
ATOM     27  H   LIG d   1       1.603   1.338  -4.731  0.00  0.00     0.062 H 
ATOM     28  C   LIG d   1       3.860  -1.090  -4.093  0.00  0.00     0.120 A 
ATOM     29  H   LIG d   1       2.527   0.041  -2.854  0.00  0.00     0.065 H 
ATOM     30  C   LIG d   1       4.318  -1.309  -5.384  0.00  0.00    -0.015 A 
ATOM     31  H   LIG d   1       5.083  -2.051  -5.567  0.00  0.00     0.066 H 
BRANCH  28  32
ATOM     32  O   LIG d   1       4.373  -1.808  -3.058  0.00  0.00    -0.495 OA
BRANCH  32  33
ATOM     33  C   LIG d   1       4.425  -1.161  -1.784  0.00  0.00     0.079 C 
ATOM     34  H   LIG d   1       3.573  -0.489  -1.682  0.00  0.00     0.066 H 
ATOM     35  H   LIG d   1       4.394  -1.912  -0.994  0.00  0.00     0.066 H 
ATOM     36  H   LIG d   1       5.350  -0.589  -1.704  0.00  0.00     0.066 H 
ENDBRANCH  32  33
ENDBRANCH  28  32
ENDBRANCH   1  22
BRANCH  14  37
ATOM     37  C   LIG d   1       4.978  -4.927  -8.649  0.00  0.00     0.023 C 
ATOM     38  H   LIG d   1       4.108  -5.401  -9.103  0.00  0.00     0.047 H 
ATOM     39  H   LIG d   1       5.805  -4.933  -9.358  0.00  0.00     0.047 H 
BRANCH  37  40
ATOM     40  C   LIG d   1       5.379  -5.696  -7.389  0.00  0.00     0.060 C 
ATOM     41  H   LIG d   1       5.202  -6.760  -7.541  0.00  0.00     0.039 H 
ATOM     42  H   LIG d   1       6.438  -5.530  -7.184  0.00  0.00     0.039 H 
BRANCH  40  43
ATOM     43  C   LIG d   1       4.560  -5.210  -6.221  0.00  0.00     0.308 C 
ATOM     44  O   LIG d   1       3.362  -5.371  -6.215  0.00  0.00    -0.251 OA
BRANCH  43  45
ATOM     45  O   LIG d   1       5.161  -4.601  -5.187  0.00  0.00    -0.468 OA
BRANCH  45  46
ATOM     46  C   LIG d   1       6.561  -4.347  -5.310  0.00  0.00     0.082 C 
ATOM     47  H   LIG d   1       7.121  -5.191  -4.908  0.00  0.00     0.066 H 
ATOM     48  H   LIG d   1       6.815  -4.210  -6.362  0.00  0.00     0.066 H 
ATOM     49  H   LIG d   1       6.817  -3.443  -4.755  0.00  0.00     0.066 H 
ENDBRANCH  45  46
ENDBRANCH  43  45
ENDBRANCH  40  43
ENDBRANCH  37  40
ENDBRANCH  14  37
TORSDOF 8
ENDMDL
MODEL 2
REMARK VINA RESULT:      -5.9      2.788      5.960
REMARK  8 active torsions:
REMARK  status: ('A' for Active; 'I' for Inactive)
REMARK    1  A    between atoms: C_1  and  O_2 
REMARK    2  A    between atoms: O_2  and  C_3 
REMARK    3  A    between atoms: C_7  and  C_9 
REMARK       I    between atoms: N_19  and  C_20 
REMARK       I    between atoms: C_20  and  N_22 
REMARK    4  A    between atoms: N_22  and  C_23 
REMARK    5  A    between atoms: C_23  and  C_24 
REMARK    6  A    between atoms: C_24  and  C_25 
REMARK    7  A    between atoms: C_25  and  O_27 
REMARK    8  A    between atoms: O_27  and  C_28 
ROOT
ATOM      1  C   LIG d   1       5.096  -1.248  -6.303  0.00  0.00     0.118 C 
ATOM      2  H   LIG d   1       5.360  -0.676  -7.192  0.00  0.00     0.064 H 
ATOM      3  C   LIG d   1       6.299  -1.378  -5.399  0.00  0.00     0.170 A 
ATOM      4  C   LIG d   1       6.274  -1.111  -4.076  0.00  0.00     0.148 A 
ATOM      5  N   LIG d   1       7.530  -1.344  -3.601  0.00  0.00    -0.247 N 
ATOM      6  H   LIG d   1       7.826  -1.242  -2.683  0.00  0.00     0.310 HD
ATOM      7  C   LIG d   1       8.283  -1.743  -4.651  0.00  0.00     0.243 A 
ATOM      8  N   LIG d   1       7.536  -1.760  -5.723  0.00  0.00    -0.245 N 
ATOM      9  C   LIG d   1       5.063  -0.640  -3.314  0.00  0.00     0.029 C 
ATOM     10  C   LIG d   1       3.809  -0.938  -4.148  0.00  0.00     0.025 C 
ATOM     11  N   LIG d   1       4.050  -0.539  -5.543  0.00  0.00    -0.271 N 
ATOM     12  C   LIG d   1       3.335   0.451  -6.113  0.00  0.00     0.303 C 
ATOM     13  O   LIG d   1       2.545   1.091  -5.445  0.00  0.00    -0.253 OA
ATOM     14  N   LIG d   1       3.495   0.733  -7.420  0.00  0.00    -0.299 N 
ATOM     15  H   LIG d   1       9.330  -2.005  -4.610  0.00  0.00     0.158 H 
ATOM     16  H   LIG d   1       5.003  -1.167  -2.362  0.00  0.00     0.036 H 
ATOM     17  H   LIG d   1       5.136   0.433  -3.137  0.00  0.00     0.036 H 
ATOM     18  H   LIG d   1       3.591  -2.006  -4.107  0.00  0.00     0.047 H 
ATOM     19  H   LIG d   1       2.965  -0.378  -3.748  0.00  0.00     0.047 H 
ATOM     20  H   LIG d   1       4.070   0.175  -7.969  0.00  0.00     0.150 HD
ATOM     21  H   LIG d   1       7.833  -2.008  -6.612  0.00  0.00     0.310 HD
ENDROOT
BRANCH   1  22
ATOM     22  C   LIG d   1       4.602  -2.615  -6.700  0.00  0.00    -0.015 A 
ATOM     23  C   LIG d   1       4.119  -2.831  -7.977  0.00  0.00    -0.056 A 
ATOM     24  C   LIG d   1       3.666  -4.085  -8.345  0.00  0.00    -0.058 A 
ATOM     25  H   LIG d   1       4.096  -2.019  -8.689  0.00  0.00     0.062 H 
ATOM     26  C   LIG d   1       3.695  -5.125  -7.437  0.00  0.00    -0.020 A 
ATOM     27  H   LIG d   1       3.289  -4.251  -9.344  0.00  0.00     0.062 H 
ATOM     28  C   LIG d   1       4.180  -4.911  -6.154  0.00  0.00     0.120 A 
ATOM     29  H   LIG d   1       3.342  -6.104  -7.725  0.00  0.00     0.065 H 
ATOM     30  C   LIG d   1       4.628  -3.651  -5.786  0.00  0.00    -0.015 A 
ATOM     31  H   LIG d   1       5.002  -3.481  -4.787  0.00  0.00     0.066 H 
BRANCH  28  32
ATOM     32  O   LIG d   1       4.209  -5.933  -5.258  0.00  0.00    -0.495 OA
BRANCH  32  33
ATOM     33  C   LIG d   1       4.931  -7.106  -5.636  0.00  0.00     0.079 C 
ATOM     34  H   LIG d   1       5.507  -6.904  -6.540  0.00  0.00     0.066 H 
ATOM     35  H   LIG d   1       5.606  -7.393  -4.830  0.00  0.00     0.066 H 
ATOM     36  H   LIG d   1       4.229  -7.919  -5.829  0.00  0.00     0.066 H 
ENDBRANCH  32  33
ENDBRANCH  28  32
ENDBRANCH   1  22
BRANCH  14  37
ATOM     37  C   LIG d   1       2.805   1.881  -8.013  0.00  0.00     0.023 C 
ATOM     38  H   LIG d   1       1.848   1.557  -8.423  0.00  0.00     0.047 H 
ATOM     39  H   LIG d   1       2.633   2.637  -7.248  0.00  0.00     0.047 H 
BRANCH  37  40
ATOM     40  C   LIG d   1       3.664   2.472  -9.132  0.00  0.00     0.060 C 
ATOM     41  H   LIG d   1       3.116   2.430 -10.073  0.00  0.00     0.039 H 
ATOM     42  H   LIG d   1       3.903   3.510  -8.897  0.00  0.00     0.039 H 
BRANCH  40  43
ATOM     43  C   LIG d   1       4.941   1.680  -9.257  0.00  0.00     0.308 C 
ATOM     44  O   LIG d   1       5.895   1.961  -8.571  0.00  0.00    -0.251 OA
BRANCH  43  45
ATOM     45  O   LIG d   1       5.016   0.662 -10.129  0.00  0.00    -0.468 OA
BRANCH  45  46
ATOM     46  C   LIG d   1       4.165   0.728 -11.275  0.00  0.00     0.082 C 
ATOM     47  H   LIG d   1       3.538   1.616 -11.213  0.00  0.00     0.066 H 
ATOM     48  H   LIG d   1       4.775   0.776 -12.178  0.00  0.00     0.066 H 
ATOM     49  H   LIG d   1       3.534  -0.161 -11.311  0.00  0.00     0.066 H 
ENDBRANCH  45  46
ENDBRANCH  43  45
ENDBRANCH  40  43
ENDBRANCH  37  40
ENDBRANCH  14  37
TORSDOF 8
ENDMDL
MODEL 3
REMARK VINA RESULT:      -5.6      2.805      5.065
REMARK  8 active torsions:
REMARK  status: ('A' for Active; 'I' for Inactive)
REMARK    1  A    between atoms: C_1  and  O_2 
REMARK    2  A    between atoms: O_2  and  C_3 
REMARK    3  A    between atoms: C_7  and  C_9 
REMARK       I    between atoms: N_19  and  C_20 
REMARK       I    between atoms: C_20  and  N_22 
REMARK    4  A    between atoms: N_22  and  C_23 
REMARK    5  A    between atoms: C_23  and  C_24 
REMARK    6  A    between atoms: C_24  and  C_25 
REMARK    7  A    between atoms: C_25  and  O_27 
REMARK    8  A    between atoms: O_27  and  C_28 
ROOT
ATOM      1  C   LIG d   1       3.948  -1.514  -7.305  0.00  0.00     0.118 C 
ATOM      2  H   LIG d   1       3.703  -2.226  -6.517  0.00  0.00     0.064 H 
ATOM      3  C   LIG d   1       3.244  -1.898  -8.585  0.00  0.00     0.170 A 
ATOM      4  C   LIG d   1       2.527  -1.035  -9.335  0.00  0.00     0.148 A 
ATOM      5  N   LIG d   1       2.053  -1.735 -10.402  0.00  0.00    -0.247 N 
ATOM      6  H   LIG d   1       1.503  -1.387 -11.122  0.00  0.00     0.310 HD
ATOM      7  C   LIG d   1       2.492  -3.008 -10.268  0.00  0.00     0.243 A 
ATOM      8  N   LIG d   1       3.204  -3.094  -9.176  0.00  0.00    -0.245 N 
ATOM      9  C   LIG d   1       2.317   0.421  -9.008  0.00  0.00     0.029 C 
ATOM     10  C   LIG d   1       3.373   0.854  -7.983  0.00  0.00     0.025 C 
ATOM     11  N   LIG d   1       3.473  -0.169  -6.930  0.00  0.00    -0.271 N 
ATOM     12  C   LIG d   1       3.139   0.114  -5.655  0.00  0.00     0.303 C 
ATOM     13  O   LIG d   1       2.657   1.196  -5.380  0.00  0.00    -0.253 OA
ATOM     14  N   LIG d   1       3.336  -0.802  -4.687  0.00  0.00    -0.299 N 
ATOM     15  H   LIG d   1       2.287  -3.819 -10.952  0.00  0.00     0.158 H 
ATOM     16  H   LIG d   1       2.420   1.017  -9.914  0.00  0.00     0.036 H 
ATOM     17  H   LIG d   1       1.321   0.560  -8.587  0.00  0.00     0.036 H 
ATOM     18  H   LIG d   1       4.339   0.963  -8.478  0.00  0.00     0.047 H 
ATOM     19  H   LIG d   1       3.081   1.806  -7.539  0.00  0.00     0.047 H 
ATOM     20  H   LIG d   1       3.788  -1.636  -4.894  0.00  0.00     0.150 HD
ATOM     21  H   LIG d   1       3.634  -3.899  -8.847  0.00  0.00     0.310 HD
ENDROOT
BRANCH   1  22
ATOM     22  C   LIG d   1       5.439  -1.487  -7.527  0.00  0.00    -0.015 A 
ATOM     23  C   LIG d   1       5.947  -1.094  -8.752  0.00  0.00    -0.056 A 
ATOM     24  C   LIG d   1       7.313  -1.068  -8.959  0.00  0.00    -0.058 A 
ATOM     25  H   LIG d   1       5.275  -0.806  -9.547  0.00  0.00     0.062 H 
ATOM     26  C   LIG d   1       8.175  -1.436  -7.944  0.00  0.00    -0.020 A 
ATOM     27  H   LIG d   1       7.708  -0.760  -9.916  0.00  0.00     0.062 H 
ATOM     28  C   LIG d   1       7.667  -1.831  -6.715  0.00  0.00     0.120 A 
ATOM     29  H   LIG d   1       9.242  -1.415  -8.107  0.00  0.00     0.065 H 
ATOM     30  C   LIG d   1       6.295  -1.862  -6.511  0.00  0.00    -0.015 A 
ATOM     31  H   LIG d   1       5.898  -2.173  -5.556  0.00  0.00     0.066 H 
BRANCH  28  32
ATOM     32  O   LIG d   1       8.512  -2.194  -5.714  0.00  0.00    -0.495 OA
BRANCH  32  33
ATOM     33  C   LIG d   1       7.925  -2.777  -4.549  0.00  0.00     0.079 C 
ATOM     34  H   LIG d   1       7.470  -1.995  -3.940  0.00  0.00     0.066 H 
ATOM     35  H   LIG d   1       7.162  -3.496  -4.848  0.00  0.00     0.066 H 
ATOM     36  H   LIG d   1       8.695  -3.286  -3.969  0.00  0.00     0.066 H 
ENDBRANCH  32  33
ENDBRANCH  28  32
ENDBRANCH   1  22
BRANCH  14  37
ATOM     37  C   LIG d   1       2.868  -0.540  -3.324  0.00  0.00     0.023 C 
ATOM     38  H   LIG d   1       2.446   0.463  -3.272  0.00  0.00     0.047 H 
ATOM     39  H   LIG d   1       2.104  -1.269  -3.055  0.00  0.00     0.047 H 
BRANCH  37  40
ATOM     40  C   LIG d   1       4.043  -0.651  -2.351  0.00  0.00     0.060 C 
ATOM     41  H   LIG d   1       3.674  -0.936  -1.366  0.00  0.00     0.039 H 
ATOM     42  H   LIG d   1       4.742  -1.407  -2.709  0.00  0.00     0.039 H 
BRANCH  40  43
ATOM     43  C   LIG d   1       4.746   0.679  -2.258  0.00  0.00     0.308 C 
ATOM     44  O   LIG d   1       4.756   1.286  -1.213  0.00  0.00    -0.251 OA
BRANCH  43  45
ATOM     45  O   LIG d   1       5.363   1.188  -3.336  0.00  0.00    -0.468 OA
BRANCH  45  46
ATOM     46  C   LIG d   1       6.633   0.631  -3.680  0.00  0.00     0.082 C 
ATOM     47  H   LIG d   1       6.488  -0.229  -4.333  0.00  0.00     0.066 H 
ATOM     48  H   LIG d   1       7.232   1.382  -4.195  0.00  0.00     0.066 H 
ATOM     49  H   LIG d   1       7.149   0.315  -2.772  0.00  0.00     0.066 H 
ENDBRANCH  45  46
ENDBRANCH  43  45
ENDBRANCH  40  43
ENDBRANCH  37  40
ENDBRANCH  14  37
TORSDOF 8
ENDMDL
MODEL 4
REMARK VINA RESULT:      -5.6      2.692      5.903
REMARK  8 active torsions:
REMARK  status: ('A' for Active; 'I' for Inactive)
REMARK    1  A    between atoms: C_1  and  O_2 
REMARK    2  A    between atoms: O_2  and  C_3 
REMARK    3  A    between atoms: C_7  and  C_9 
REMARK       I    between atoms: N_19  and  C_20 
REMARK       I    between atoms: C_20  and  N_22 
REMARK    4  A    between atoms: N_22  and  C_23 
REMARK    5  A    between atoms: C_23  and  C_24 
REMARK    6  A    between atoms: C_24  and  C_25 
REMARK    7  A    between atoms: C_25  and  O_27 
REMARK    8  A    between atoms: O_27  and  C_28 
ROOT
ATOM      1  C   LIG d   1       5.457  -1.679  -5.897  0.00  0.00     0.118 C 
ATOM      2  H   LIG d   1       5.710  -0.790  -5.320  0.00  0.00     0.064 H 
ATOM      3  C   LIG d   1       6.710  -2.286  -6.484  0.00  0.00     0.170 A 
ATOM      4  C   LIG d   1       7.024  -3.595  -6.390  0.00  0.00     0.148 A 
ATOM      5  N   LIG d   1       8.210  -3.766  -7.036  0.00  0.00    -0.247 N 
ATOM      6  H   LIG d   1       8.694  -4.601  -7.141  0.00  0.00     0.310 HD
ATOM      7  C   LIG d   1       8.587  -2.553  -7.502  0.00  0.00     0.243 A 
ATOM      8  N   LIG d   1       7.680  -1.674  -7.165  0.00  0.00    -0.245 N 
ATOM      9  C   LIG d   1       6.188  -4.633  -5.686  0.00  0.00     0.029 C 
ATOM     10  C   LIG d   1       4.769  -4.080  -5.500  0.00  0.00     0.025 C 
ATOM     11  N   LIG d   1       4.850  -2.693  -5.016  0.00  0.00    -0.271 N 
ATOM     12  C   LIG d   1       4.382  -2.357  -3.797  0.00  0.00     0.303 C 
ATOM     13  O   LIG d   1       3.974  -3.220  -3.044  0.00  0.00    -0.253 OA
ATOM     14  N   LIG d   1       4.369  -1.066  -3.413  0.00  0.00    -0.299 N 
ATOM     15  H   LIG d   1       9.488  -2.347  -8.060  0.00  0.00     0.158 H 
ATOM     16  H   LIG d   1       6.151  -5.541  -6.288  0.00  0.00     0.036 H 
ATOM     17  H   LIG d   1       6.624  -4.854  -4.712  0.00  0.00     0.036 H 
ATOM     18  H   LIG d   1       4.241  -4.103  -6.454  0.00  0.00     0.047 H 
ATOM     19  H   LIG d   1       4.233  -4.690  -4.773  0.00  0.00     0.047 H 
ATOM     20  H   LIG d   1       4.625  -0.371  -4.040  0.00  0.00     0.150 HD
ATOM     21  H   LIG d   1       7.709  -0.727  -7.376  0.00  0.00     0.310 HD
ENDROOT
BRANCH   1  22
ATOM     22  C   LIG d   1       4.496  -1.318  -7.001  0.00  0.00    -0.015 A 
ATOM     23  C   LIG d   1       4.050  -2.293  -7.874  0.00  0.00    -0.056 A 
ATOM     24  C   LIG d   1       3.169  -1.966  -8.887  0.00  0.00    -0.058 A 
ATOM     25  H   LIG d   1       4.390  -3.312  -7.763  0.00  0.00     0.062 H 
ATOM     26  C   LIG d   1       2.732  -0.663  -9.032  0.00  0.00    -0.020 A 
ATOM     27  H   LIG d   1       2.821  -2.729  -9.568  0.00  0.00     0.062 H 
ATOM     28  C   LIG d   1       3.179   0.317  -8.157  0.00  0.00     0.120 A 
ATOM     29  H   LIG d   1       2.043  -0.408  -9.823  0.00  0.00     0.065 H 
ATOM     30  C   LIG d   1       4.068  -0.013  -7.144  0.00  0.00    -0.015 A 
ATOM     31  H   LIG d   1       4.420   0.750  -6.465  0.00  0.00     0.066 H 
BRANCH  28  32
ATOM     32  O   LIG d   1       2.751   1.600  -8.296  0.00  0.00    -0.495 OA
BRANCH  32  33
ATOM     33  C   LIG d   1       3.499   2.441  -9.177  0.00  0.00     0.079 C 
ATOM     34  H   LIG d   1       4.189   3.054  -8.597  0.00  0.00     0.066 H 
ATOM     35  H   LIG d   1       4.062   1.823  -9.877  0.00  0.00     0.066 H 
ATOM     36  H   LIG d   1       2.816   3.087  -9.730  0.00  0.00     0.066 H 
ENDBRANCH  32  33
ENDBRANCH  28  32
ENDBRANCH   1  22
BRANCH  14  37
ATOM     37  C   LIG d   1       3.969  -0.711  -2.049  0.00  0.00     0.023 C 
ATOM     38  H   LIG d   1       2.891  -0.555  -2.016  0.00  0.00     0.047 H 
ATOM     39  H   LIG d   1       4.239  -1.518  -1.369  0.00  0.00     0.047 H 
BRANCH  37  40
ATOM     40  C   LIG d   1       4.684   0.573  -1.625  0.00  0.00     0.060 C 
ATOM     41  H   LIG d   1       4.056   1.125  -0.926  0.00  0.00     0.039 H 
ATOM     42  H   LIG d   1       5.629   0.321  -1.142  0.00  0.00     0.039 H 
BRANCH  40  43
ATOM     43  C   LIG d   1       4.952   1.424  -2.840  0.00  0.00     0.308 C 
ATOM     44  O   LIG d   1       4.037   1.760  -3.556  0.00  0.00    -0.251 OA
BRANCH  43  45
ATOM     45  O   LIG d   1       6.205   1.811  -3.125  0.00  0.00    -0.468 OA
BRANCH  45  46
ATOM     46  C   LIG d   1       7.041   0.860  -3.788  0.00  0.00     0.082 C 
ATOM     47  H   LIG d   1       8.005   0.808  -3.283  0.00  0.00     0.066 H 
ATOM     48  H   LIG d   1       6.565  -0.120  -3.765  0.00  0.00     0.066 H 
ATOM     49  H   LIG d   1       7.189   1.167  -4.825  0.00  0.00     0.066 H 
ENDBRANCH  45  46
ENDBRANCH  43  45
ENDBRANCH  40  43
ENDBRANCH  37  40
ENDBRANCH  14  37
TORSDOF 8
ENDMDL
MODEL 5
REMARK VINA RESULT:      -5.6      2.191      5.017
REMARK  8 active torsions:
REMARK  status: ('A' for Active; 'I' for Inactive)
REMARK    1  A    between atoms: C_1  and  O_2 
REMARK    2  A    between atoms: O_2  and  C_3 
REMARK    3  A    between atoms: C_7  and  C_9 
REMARK       I    between atoms: N_19  and  C_20 
REMARK       I    between atoms: C_20  and  N_22 
REMARK    4  A    between atoms: N_22  and  C_23 
REMARK    5  A    between atoms: C_23  and  C_24 
REMARK    6  A    between atoms: C_24  and  C_25 
REMARK    7  A    between atoms: C_25  and  O_27 
REMARK    8  A    between atoms: O_27  and  C_28 
ROOT
ATOM      1  C   LIG d   1       4.721  -0.314  -6.947  0.00  0.00     0.118 C 
ATOM      2  H   LIG d   1       4.128   0.078  -6.121  0.00  0.00     0.064 H 
ATOM      3  C   LIG d   1       4.392   0.434  -8.217  0.00  0.00     0.170 A 
ATOM      4  C   LIG d   1       5.324   0.956  -9.043  0.00  0.00     0.148 A 
ATOM      5  N   LIG d   1       4.655   1.543 -10.074  0.00  0.00    -0.247 N 
ATOM      6  H   LIG d   1       5.053   2.003 -10.830  0.00  0.00     0.310 HD
ATOM      7  C   LIG d   1       3.334   1.366  -9.844  0.00  0.00     0.243 A 
ATOM      8  N   LIG d   1       3.188   0.700  -8.728  0.00  0.00    -0.245 N 
ATOM      9  C   LIG d   1       6.812   0.880  -8.819  0.00  0.00     0.029 C 
ATOM     10  C   LIG d   1       7.102  -0.226  -7.796  0.00  0.00     0.025 C 
ATOM     11  N   LIG d   1       6.155  -0.107  -6.675  0.00  0.00    -0.271 N 
ATOM     12  C   LIG d   1       6.588   0.183  -5.432  0.00  0.00     0.303 C 
ATOM     13  O   LIG d   1       7.760   0.446  -5.243  0.00  0.00    -0.253 OA
ATOM     14  N   LIG d   1       5.722   0.184  -4.400  0.00  0.00    -0.299 N 
ATOM     15  H   LIG d   1       2.533   1.716 -10.477  0.00  0.00     0.158 H 
ATOM     16  H   LIG d   1       7.311   0.648  -9.760  0.00  0.00     0.036 H 
ATOM     17  H   LIG d   1       7.172   1.835  -8.437  0.00  0.00     0.036 H 
ATOM     18  H   LIG d   1       6.985  -1.201  -8.271  0.00  0.00     0.047 H 
ATOM     19  H   LIG d   1       8.121  -0.120  -7.425  0.00  0.00     0.047 H 
ATOM     20  H   LIG d   1       4.803  -0.098  -4.538  0.00  0.00     0.150 HD
ATOM     21  H   LIG d   1       2.340   0.441  -8.335  0.00  0.00     0.310 HD
ENDROOT
BRANCH   1  22
ATOM     22  C   LIG d   1       4.440  -1.783  -7.129  0.00  0.00    -0.015 A 
ATOM     23  C   LIG d   1       4.012  -2.258  -8.355  0.00  0.00    -0.056 A 
ATOM     24  C   LIG d   1       3.755  -3.605  -8.526  0.00  0.00    -0.058 A 
ATOM     25  H   LIG d   1       3.881  -1.574  -9.181  0.00  0.00     0.062 H 
ATOM     26  C   LIG d   1       3.921  -4.481  -7.471  0.00  0.00    -0.020 A 
ATOM     27  H   LIG d   1       3.421  -3.973  -9.486  0.00  0.00     0.062 H 
ATOM     28  C   LIG d   1       4.350  -4.007  -6.240  0.00  0.00     0.120 A 
ATOM     29  H   LIG d   1       3.720  -5.533  -7.606  0.00  0.00     0.065 H 
ATOM     30  C   LIG d   1       4.603  -2.654  -6.069  0.00  0.00    -0.015 A 
ATOM     31  H   LIG d   1       4.932  -2.283  -5.110  0.00  0.00     0.066 H 
BRANCH  28  32
ATOM     32  O   LIG d   1       4.515  -4.867  -5.199  0.00  0.00    -0.495 OA
BRANCH  32  33
ATOM     33  C   LIG d   1       4.763  -6.237  -5.523  0.00  0.00     0.079 C 
ATOM     34  H   LIG d   1       4.045  -6.869  -5.002  0.00  0.00     0.066 H 
ATOM     35  H   LIG d   1       4.662  -6.380  -6.599  0.00  0.00     0.066 H 
ATOM     36  H   LIG d   1       5.774  -6.506  -5.215  0.00  0.00     0.066 H 
ENDBRANCH  32  33
ENDBRANCH  28  32
ENDBRANCH   1  22
BRANCH  14  37
ATOM     37  C   LIG d   1       6.165   0.610  -3.071  0.00  0.00     0.023 C 
ATOM     38  H   LIG d   1       6.872  -0.118  -2.673  0.00  0.00     0.047 H 
ATOM     39  H   LIG d   1       6.651   1.583  -3.144  0.00  0.00     0.047 H 
BRANCH  37  40
ATOM     40  C   LIG d   1       4.958   0.712  -2.138  0.00  0.00     0.060 C 
ATOM     41  H   LIG d   1       4.824  -0.234  -1.612  0.00  0.00     0.039 H 
ATOM     42  H   LIG d   1       5.124   1.509  -1.413  0.00  0.00     0.039 H 
BRANCH  40  43
ATOM     43  C   LIG d   1       3.722   1.017  -2.945  0.00  0.00     0.308 C 
ATOM     44  O   LIG d   1       3.564   2.120  -3.413  0.00  0.00    -0.251 OA
BRANCH  43  45
ATOM     45  O   LIG d   1       2.799   0.063  -3.145  0.00  0.00    -0.468 OA
BRANCH  45  46
ATOM     46  C   LIG d   1       3.140  -1.264  -2.738  0.00  0.00     0.082 C 
ATOM     47  H   LIG d   1       3.314  -1.881  -3.619  0.00  0.00     0.066 H 
ATOM     48  H   LIG d   1       4.044  -1.236  -2.129  0.00  0.00     0.066 H 
ATOM     49  H   LIG d   1       2.321  -1.686  -2.154  0.00  0.00     0.066 H 
ENDBRANCH  45  46
ENDBRANCH  43  45
ENDBRANCH  40  43
ENDBRANCH  37  40
ENDBRANCH  14  37
TORSDOF 8
ENDMDL
MODEL 6
REMARK VINA RESULT:      -5.5      3.455      6.680
REMARK  8 active torsions:
REMARK  status: ('A' for Active; 'I' for Inactive)
REMARK    1  A    between atoms: C_1  and  O_2 
REMARK    2  A    between atoms: O_2  and  C_3 
REMARK    3  A    between atoms: C_7  and  C_9 
REMARK       I    between atoms: N_19  and  C_20 
REMARK       I    between atoms: C_20  and  N_22 
REMARK    4  A    between atoms: N_22  and  C_23 
REMARK    5  A    between atoms: C_23  and  C_24 
REMARK    6  A    between atoms: C_24  and  C_25 
REMARK    7  A    between atoms: C_25  and  O_27 
REMARK    8  A    between atoms: O_27  and  C_28 
ROOT
ATOM      1  C   LIG d   1       5.498  -0.861  -5.394  0.00  0.00     0.118 C 
ATOM      2  H   LIG d   1       6.550  -0.742  -5.651  0.00  0.00     0.064 H 
ATOM      3  C   LIG d   1       5.185  -2.322  -5.170  0.00  0.00     0.170 A 
ATOM      4  C   LIG d   1       4.524  -2.790  -4.090  0.00  0.00     0.148 A 
ATOM      5  N   LIG d   1       4.427  -4.140  -4.239  0.00  0.00    -0.247 N 
ATOM      6  H   LIG d   1       4.002  -4.759  -3.624  0.00  0.00     0.310 HD
ATOM      7  C   LIG d   1       5.037  -4.456  -5.404  0.00  0.00     0.243 A 
ATOM      8  N   LIG d   1       5.488  -3.359  -5.953  0.00  0.00    -0.245 N 
ATOM      9  C   LIG d   1       4.013  -1.938  -2.957  0.00  0.00     0.029 C 
ATOM     10  C   LIG d   1       3.961  -0.477  -3.423  0.00  0.00     0.025 C 
ATOM     11  N   LIG d   1       5.207  -0.152  -4.134  0.00  0.00    -0.271 N 
ATOM     12  C   LIG d   1       6.061   0.770  -3.648  0.00  0.00     0.303 C 
ATOM     13  O   LIG d   1       5.856   1.275  -2.561  0.00  0.00    -0.253 OA
ATOM     14  N   LIG d   1       7.143   1.131  -4.364  0.00  0.00    -0.299 N 
ATOM     15  H   LIG d   1       5.135  -5.451  -5.813  0.00  0.00     0.158 H 
ATOM     16  H   LIG d   1       3.013  -2.268  -2.675  0.00  0.00     0.036 H 
ATOM     17  H   LIG d   1       4.684  -2.026  -2.103  0.00  0.00     0.036 H 
ATOM     18  H   LIG d   1       3.111  -0.338  -4.092  0.00  0.00     0.047 H 
ATOM     19  H   LIG d   1       3.853   0.177  -2.557  0.00  0.00     0.047 H 
ATOM     20  H   LIG d   1       7.268   0.783  -5.262  0.00  0.00     0.150 HD
ATOM     21  H   LIG d   1       5.967  -3.307  -6.796  0.00  0.00     0.310 HD
ENDROOT
BRANCH   1  22
ATOM     22  C   LIG d   1       4.633  -0.316  -6.501  0.00  0.00    -0.015 A 
ATOM     23  C   LIG d   1       3.288  -0.087  -6.277  0.00  0.00    -0.056 A 
ATOM     24  C   LIG d   1       2.492   0.414  -7.291  0.00  0.00    -0.058 A 
ATOM     25  H   LIG d   1       2.859  -0.299  -5.309  0.00  0.00     0.062 H 
ATOM     26  C   LIG d   1       3.038   0.686  -8.530  0.00  0.00    -0.020 A 
ATOM     27  H   LIG d   1       1.442   0.593  -7.113  0.00  0.00     0.062 H 
ATOM     28  C   LIG d   1       4.388   0.457  -8.757  0.00  0.00     0.120 A 
ATOM     29  H   LIG d   1       2.416   1.078  -9.321  0.00  0.00     0.065 H 
ATOM     30  C   LIG d   1       5.183  -0.051  -7.740  0.00  0.00    -0.015 A 
ATOM     31  H   LIG d   1       6.233  -0.234  -7.916  0.00  0.00     0.066 H 
BRANCH  28  32
ATOM     32  O   LIG d   1       4.928   0.723  -9.975  0.00  0.00    -0.495 OA
BRANCH  32  33
ATOM     33  C   LIG d   1       4.027   1.114 -11.013  0.00  0.00     0.079 C 
ATOM     34  H   LIG d   1       3.290   1.811 -10.612  0.00  0.00     0.066 H 
ATOM     35  H   LIG d   1       4.584   1.595 -11.816  0.00  0.00     0.066 H 
ATOM     36  H   LIG d   1       3.517   0.232 -11.403  0.00  0.00     0.066 H 
ENDBRANCH  32  33
ENDBRANCH  28  32
ENDBRANCH   1  22
BRANCH  14  37
ATOM     37  C   LIG d   1       8.132   2.045  -3.789  0.00  0.00     0.023 C 
ATOM     38  H   LIG d   1       7.621   2.825  -3.225  0.00  0.00     0.047 H 
ATOM     39  H   LIG d   1       8.795   1.493  -3.123  0.00  0.00     0.047 H 
BRANCH  37  40
ATOM     40  C   LIG d   1       8.953   2.683  -4.912  0.00  0.00     0.060 C 
ATOM     41  H   LIG d   1       8.603   3.700  -5.085  0.00  0.00     0.039 H 
ATOM     42  H   LIG d   1      10.005   2.705  -4.626  0.00  0.00     0.039 H 
BRANCH  40  43
ATOM     43  C   LIG d   1       8.792   1.874  -6.173  0.00  0.00     0.308 C 
ATOM     44  O   LIG d   1       9.580   0.994  -6.431  0.00  0.00    -0.251 OA
BRANCH  43  45
ATOM     45  O   LIG d   1       7.774   2.129  -7.010  0.00  0.00    -0.468 OA
BRANCH  45  46
ATOM     46  C   LIG d   1       8.075   2.162  -8.406  0.00  0.00     0.082 C 
ATOM     47  H   LIG d   1       8.066   1.148  -8.804  0.00  0.00     0.066 H 
ATOM     48  H   LIG d   1       7.328   2.763  -8.925  0.00  0.00     0.066 H 
ATOM     49  H   LIG d   1       9.062   2.602  -8.555  0.00  0.00     0.066 H 
ENDBRANCH  45  46
ENDBRANCH  43  45
ENDBRANCH  40  43
ENDBRANCH  37  40
ENDBRANCH  14  37
TORSDOF 8
ENDMDL
MODEL 7
REMARK VINA RESULT:      -5.4      2.833      4.784
REMARK  8 active torsions:
REMARK  status: ('A' for Active; 'I' for Inactive)
REMARK    1  A    between atoms: C_1  and  O_2 
REMARK    2  A    between atoms: O_2  and  C_3 
REMARK    3  A    between atoms: C_7  and  C_9 
REMARK       I    between atoms: N_19  and  C_20 
REMARK       I    between atoms: C_20  and  N_22 
REMARK    4  A    between atoms: N_22  and  C_23 
REMARK    5  A    between atoms: C_23  and  C_24 
REMARK    6  A    between atoms: C_24  and  C_25 
REMARK    7  A    between atoms: C_25  and  O_27 
REMARK    8  A    between atoms: O_27  and  C_28 
ROOT
ATOM      1  C   LIG d   1       4.745  -0.682  -7.209  0.00  0.00     0.118 C 
ATOM      2  H   LIG d   1       4.865  -1.509  -6.510  0.00  0.00     0.064 H 
ATOM      3  C   LIG d   1       4.466  -1.214  -8.594  0.00  0.00     0.170 A 
ATOM      4  C   LIG d   1       3.456  -0.777  -9.376  0.00  0.00     0.148 A 
ATOM      5  N   LIG d   1       3.524  -1.479 -10.542  0.00  0.00    -0.247 N 
ATOM      6  H   LIG d   1       2.931  -1.388 -11.305  0.00  0.00     0.310 HD
ATOM      7  C   LIG d   1       4.572  -2.328 -10.433  0.00  0.00     0.243 A 
ATOM      8  N   LIG d   1       5.128  -2.161  -9.262  0.00  0.00    -0.245 N 
ATOM      9  C   LIG d   1       2.464   0.287  -8.987  0.00  0.00     0.029 C 
ATOM     10  C   LIG d   1       3.030   1.081  -7.802  0.00  0.00     0.025 C 
ATOM     11  N   LIG d   1       3.588   0.143  -6.815  0.00  0.00    -0.271 N 
ATOM     12  C   LIG d   1       3.054   0.039  -5.581  0.00  0.00     0.303 C 
ATOM     13  O   LIG d   1       2.042   0.653  -5.303  0.00  0.00    -0.253 OA
ATOM     14  N   LIG d   1       3.641  -0.747  -4.657  0.00  0.00    -0.299 N 
ATOM     15  H   LIG d   1       4.895  -3.028 -11.189  0.00  0.00     0.158 H 
ATOM     16  H   LIG d   1       2.297   0.958  -9.830  0.00  0.00     0.036 H 
ATOM     17  H   LIG d   1       1.523  -0.179  -8.696  0.00  0.00     0.036 H 
ATOM     18  H   LIG d   1       3.817   1.749  -8.154  0.00  0.00     0.047 H 
ATOM     19  H   LIG d   1       2.234   1.665  -7.341  0.00  0.00     0.047 H 
ATOM     20  H   LIG d   1       4.488  -1.178  -4.855  0.00  0.00     0.150 HD
ATOM     21  H   LIG d   1       5.900  -2.648  -8.931  0.00  0.00     0.310 HD
ENDROOT
BRANCH   1  22
ATOM     22  C   LIG d   1       5.994   0.162  -7.226  0.00  0.00    -0.015 A 
ATOM     23  C   LIG d   1       6.834   0.173  -6.128  0.00  0.00    -0.056 A 
ATOM     24  C   LIG d   1       7.981   0.945  -6.140  0.00  0.00    -0.058 A 
ATOM     25  H   LIG d   1       6.595  -0.424  -5.260  0.00  0.00     0.062 H 
ATOM     26  C   LIG d   1       8.289   1.709  -7.249  0.00  0.00    -0.020 A 
ATOM     27  H   LIG d   1       8.637   0.951  -5.282  0.00  0.00     0.062 H 
ATOM     28  C   LIG d   1       7.447   1.699  -8.352  0.00  0.00     0.120 A 
ATOM     29  H   LIG d   1       9.185   2.311  -7.258  0.00  0.00     0.065 H 
ATOM     30  C   LIG d   1       6.294   0.928  -8.335  0.00  0.00    -0.015 A 
ATOM     31  H   LIG d   1       5.635   0.923  -9.190  0.00  0.00     0.066 H 
BRANCH  28  32
ATOM     32  O   LIG d   1       7.748   2.450  -9.444  0.00  0.00    -0.495 OA
BRANCH  32  33
ATOM     33  C   LIG d   1       9.098   2.901  -9.570  0.00  0.00     0.079 C 
ATOM     34  H   LIG d   1       9.665   2.189 -10.171  0.00  0.00     0.066 H 
ATOM     35  H   LIG d   1       9.112   3.877 -10.053  0.00  0.00     0.066 H 
ATOM     36  H   LIG d   1       9.549   2.979  -8.580  0.00  0.00     0.066 H 
ENDBRANCH  32  33
ENDBRANCH  28  32
ENDBRANCH   1  22
BRANCH  14  37
ATOM     37  C   LIG d   1       3.001  -0.951  -3.355  0.00  0.00     0.023 C 
ATOM     38  H   LIG d   1       3.022  -0.019  -2.790  0.00  0.00     0.047 H 
ATOM     39  H   LIG d   1       1.967  -1.261  -3.503  0.00  0.00     0.047 H 
BRANCH  37  40
ATOM     40  C   LIG d   1       3.753  -2.035  -2.581  0.00  0.00     0.060 C 
ATOM     41  H   LIG d   1       4.307  -1.577  -1.761  0.00  0.00     0.039 H 
ATOM     42  H   LIG d   1       3.040  -2.755  -2.179  0.00  0.00     0.039 H 
BRANCH  40  43
ATOM     43  C   LIG d   1       4.713  -2.739  -3.505  0.00  0.00     0.308 C 
ATOM     44  O   LIG d   1       4.343  -3.697  -4.144  0.00  0.00    -0.251 OA
BRANCH  43  45
ATOM     45  O   LIG d   1       5.977  -2.302  -3.620  0.00  0.00    -0.468 OA
BRANCH  45  46
ATOM     46  C   LIG d   1       6.860  -3.081  -4.429  0.00  0.00     0.082 C 
ATOM     47  H   LIG d   1       7.884  -2.738  -4.285  0.00  0.00     0.066 H 
ATOM     48  H   LIG d   1       6.785  -4.131  -4.142  0.00  0.00     0.066 H 
ATOM     49  H   LIG d   1       6.584  -2.971  -5.479  0.00  0.00     0.066 H 
ENDBRANCH  45  46
ENDBRANCH  43  45
ENDBRANCH  40  43
ENDBRANCH  37  40
ENDBRANCH  14  37
TORSDOF 8
ENDMDL
MODEL 8
REMARK VINA RESULT:      -5.4      2.166      5.331
REMARK  8 active torsions:
REMARK  status: ('A' for Active; 'I' for Inactive)
REMARK    1  A    between atoms: C_1  and  O_2 
REMARK    2  A    between atoms: O_2  and  C_3 
REMARK    3  A    between atoms: C_7  and  C_9 
REMARK       I    between atoms: N_19  and  C_20 
REMARK       I    between atoms: C_20  and  N_22 
REMARK    4  A    between atoms: N_22  and  C_23 
REMARK    5  A    between atoms: C_23  and  C_24 
REMARK    6  A    between atoms: C_24  and  C_25 
REMARK    7  A    between atoms: C_25  and  O_27 
REMARK    8  A    between atoms: O_27  and  C_28 
ROOT
ATOM      1  C   LIG d   1       3.765  -0.677  -7.628  0.00  0.00     0.118 C 
ATOM      2  H   LIG d   1       3.077  -0.543  -6.794  0.00  0.00     0.064 H 
ATOM      3  C   LIG d   1       3.986   0.642  -8.331  0.00  0.00     0.170 A 
ATOM      4  C   LIG d   1       5.205   1.133  -8.638  0.00  0.00     0.148 A 
ATOM      5  N   LIG d   1       5.006   2.327  -9.264  0.00  0.00    -0.247 N 
ATOM      6  H   LIG d   1       5.694   2.920  -9.606  0.00  0.00     0.310 HD
ATOM      7  C   LIG d   1       3.670   2.530  -9.315  0.00  0.00     0.243 A 
ATOM      8  N   LIG d   1       3.068   1.515  -8.752  0.00  0.00    -0.245 N 
ATOM      9  C   LIG d   1       6.512   0.453  -8.324  0.00  0.00     0.029 C 
ATOM     10  C   LIG d   1       6.238  -1.027  -8.024  0.00  0.00     0.025 C 
ATOM     11  N   LIG d   1       5.075  -1.132  -7.129  0.00  0.00    -0.271 N 
ATOM     12  C   LIG d   1       5.204  -1.631  -5.884  0.00  0.00     0.303 C 
ATOM     13  O   LIG d   1       6.305  -1.912  -5.452  0.00  0.00    -0.253 OA
ATOM     14  N   LIG d   1       4.112  -1.818  -5.116  0.00  0.00    -0.299 N 
ATOM     15  H   LIG d   1       3.181   3.390  -9.748  0.00  0.00     0.158 H 
ATOM     16  H   LIG d   1       7.182   0.535  -9.179  0.00  0.00     0.036 H 
ATOM     17  H   LIG d   1       6.968   0.923  -7.453  0.00  0.00     0.036 H 
ATOM     18  H   LIG d   1       6.030  -1.555  -8.956  0.00  0.00     0.047 H 
ATOM     19  H   LIG d   1       7.111  -1.468  -7.542  0.00  0.00     0.047 H 
ATOM     20  H   LIG d   1       3.228  -1.664  -5.486  0.00  0.00     0.150 HD
ATOM     21  H   LIG d   1       2.108   1.412  -8.657  0.00  0.00     0.310 HD
ENDROOT
BRANCH   1  22
ATOM     22  C   LIG d   1       3.206  -1.686  -8.598  0.00  0.00    -0.015 A 
ATOM     23  C   LIG d   1       3.581  -3.014  -8.504  0.00  0.00    -0.056 A 
ATOM     24  C   LIG d   1       3.070  -3.943  -9.391  0.00  0.00    -0.058 A 
ATOM     25  H   LIG d   1       4.274  -3.325  -7.736  0.00  0.00     0.062 H 
ATOM     26  C   LIG d   1       2.184  -3.547 -10.374  0.00  0.00    -0.020 A 
ATOM     27  H   LIG d   1       3.364  -4.980  -9.315  0.00  0.00     0.062 H 
ATOM     28  C   LIG d   1       1.807  -2.216 -10.470  0.00  0.00     0.120 A 
ATOM     29  H   LIG d   1       1.785  -4.274 -11.066  0.00  0.00     0.065 H 
ATOM     30  C   LIG d   1       2.325  -1.284  -9.582  0.00  0.00    -0.015 A 
ATOM     31  H   LIG d   1       2.036  -0.246  -9.658  0.00  0.00     0.066 H 
BRANCH  28  32
ATOM     32  O   LIG d   1       0.936  -1.823 -11.437  0.00  0.00    -0.495 OA
BRANCH  32  33
ATOM     33  C   LIG d   1       1.347  -2.004 -12.794  0.00  0.00     0.079 C 
ATOM     34  H   LIG d   1       1.892  -2.944 -12.885  0.00  0.00     0.066 H 
ATOM     35  H   LIG d   1       0.470  -2.028 -13.439  0.00  0.00     0.066 H 
ATOM     36  H   LIG d   1       1.995  -1.179 -13.091  0.00  0.00     0.066 H 
ENDBRANCH  32  33
ENDBRANCH  28  32
ENDBRANCH   1  22
BRANCH  14  37
ATOM     37  C   LIG d   1       4.259  -2.251  -3.725  0.00  0.00     0.023 C 
ATOM     38  H   LIG d   1       3.864  -3.261  -3.615  0.00  0.00     0.047 H 
ATOM     39  H   LIG d   1       5.314  -2.243  -3.451  0.00  0.00     0.047 H 
BRANCH  37  40
ATOM     40  C   LIG d   1       3.487  -1.300  -2.809  0.00  0.00     0.060 C 
ATOM     41  H   LIG d   1       2.578  -1.788  -2.460  0.00  0.00     0.039 H 
ATOM     42  H   LIG d   1       4.108  -1.036  -1.952  0.00  0.00     0.039 H 
BRANCH  40  43
ATOM     43  C   LIG d   1       3.127  -0.050  -3.571  0.00  0.00     0.308 C 
ATOM     44  O   LIG d   1       2.094  -0.002  -4.198  0.00  0.00    -0.251 OA
BRANCH  43  45
ATOM     45  O   LIG d   1       3.951   1.009  -3.553  0.00  0.00    -0.468 OA
BRANCH  45  46
ATOM     46  C   LIG d   1       4.785   1.160  -2.403  0.00  0.00     0.082 C 
ATOM     47  H   LIG d   1       5.831   1.099  -2.701  0.00  0.00     0.066 H 
ATOM     48  H   LIG d   1       4.595   2.129  -1.940  0.00  0.00     0.066 H 
ATOM     49  H   LIG d   1       4.565   0.367  -1.687  0.00  0.00     0.066 H 
ENDBRANCH  45  46
ENDBRANCH  43  45
ENDBRANCH  40  43
ENDBRANCH  37  40
ENDBRANCH  14  37
TORSDOF 8
ENDMDL
MODEL 9
REMARK VINA RESULT:      -5.4      3.753      5.199
REMARK  8 active torsions:
REMARK  status: ('A' for Active; 'I' for Inactive)
REMARK    1  A    between atoms: C_1  and  O_2 
REMARK    2  A    between atoms: O_2  and  C_3 
REMARK    3  A    between atoms: C_7  and  C_9 
REMARK       I    between atoms: N_19  and  C_20 
REMARK       I    between atoms: C_20  and  N_22 
REMARK    4  A    between atoms: N_22  and  C_23 
REMARK    5  A    between atoms: C_23  and  C_24 
REMARK    6  A    between atoms: C_24  and  C_25 
REMARK    7  A    between atoms: C_25  and  O_27 
REMARK    8  A    between atoms: O_27  and  C_28 
ROOT
ATOM      1  C   LIG d   1       7.259  -1.269  -4.233  0.00  0.00     0.118 C 
ATOM      2  H   LIG d   1       7.855  -1.808  -3.497  0.00  0.00     0.064 H 
ATOM      3  C   LIG d   1       7.836   0.109  -4.455  0.00  0.00     0.170 A 
ATOM      4  C   LIG d   1       8.085   0.630  -5.675  0.00  0.00     0.148 A 
ATOM      5  N   LIG d   1       8.591   1.879  -5.476  0.00  0.00    -0.247 N 
ATOM      6  H   LIG d   1       8.866   2.505  -6.165  0.00  0.00     0.310 HD
ATOM      7  C   LIG d   1       8.640   2.081  -4.139  0.00  0.00     0.243 A 
ATOM      8  N   LIG d   1       8.184   1.013  -3.537  0.00  0.00    -0.245 N 
ATOM      9  C   LIG d   1       7.837  -0.078  -6.981  0.00  0.00     0.029 C 
ATOM     10  C   LIG d   1       6.876  -1.248  -6.733  0.00  0.00     0.025 C 
ATOM     11  N   LIG d   1       7.302  -1.976  -5.527  0.00  0.00    -0.271 N 
ATOM     12  C   LIG d   1       7.720  -3.254  -5.601  0.00  0.00     0.303 C 
ATOM     13  O   LIG d   1       7.842  -3.792  -6.685  0.00  0.00    -0.253 OA
ATOM     14  N   LIG d   1       8.005  -3.937  -4.475  0.00  0.00    -0.299 N 
ATOM     15  H   LIG d   1       8.995   2.976  -3.651  0.00  0.00     0.158 H 
ATOM     16  H   LIG d   1       7.392   0.616  -7.694  0.00  0.00     0.036 H 
ATOM     17  H   LIG d   1       8.780  -0.457  -7.375  0.00  0.00     0.036 H 
ATOM     18  H   LIG d   1       5.865  -0.866  -6.591  0.00  0.00     0.047 H 
ATOM     19  H   LIG d   1       6.894  -1.922  -7.590  0.00  0.00     0.047 H 
ATOM     20  H   LIG d   1       7.837  -3.534  -3.608  0.00  0.00     0.150 HD
ATOM     21  H   LIG d   1       8.113   0.897  -2.577  0.00  0.00     0.310 HD
ENDROOT
BRANCH   1  22
ATOM     22  C   LIG d   1       5.833  -1.158  -3.757  0.00  0.00    -0.015 A 
ATOM     23  C   LIG d   1       5.347  -2.051  -2.819  0.00  0.00    -0.056 A 
ATOM     24  C   LIG d   1       4.040  -1.950  -2.380  0.00  0.00    -0.058 A 
ATOM     25  H   LIG d   1       5.990  -2.826  -2.430  0.00  0.00     0.062 H 
ATOM     26  C   LIG d   1       3.216  -0.960  -2.876  0.00  0.00    -0.020 A 
ATOM     27  H   LIG d   1       3.663  -2.649  -1.646  0.00  0.00     0.062 H 
ATOM     28  C   LIG d   1       3.702  -0.063  -3.817  0.00  0.00     0.120 A 
ATOM     29  H   LIG d   1       2.196  -0.882  -2.532  0.00  0.00     0.065 H 
ATOM     30  C   LIG d   1       5.012  -0.169  -4.261  0.00  0.00    -0.015 A 
ATOM     31  H   LIG d   1       5.391   0.526  -4.997  0.00  0.00     0.066 H 
BRANCH  28  32
ATOM     32  O   LIG d   1       2.893   0.914  -4.308  0.00  0.00    -0.495 OA
BRANCH  32  33
ATOM     33  C   LIG d   1       2.356   0.713  -5.617  0.00  0.00     0.079 C 
ATOM     34  H   LIG d   1       3.168   0.514  -6.317  0.00  0.00     0.066 H 
ATOM     35  H   LIG d   1       1.672  -0.135  -5.603  0.00  0.00     0.066 H 
ATOM     36  H   LIG d   1       1.818   1.608  -5.931  0.00  0.00     0.066 H 
ENDBRANCH  32  33
ENDBRANCH  28  32
ENDBRANCH   1  22
BRANCH  14  37
ATOM     37  C   LIG d   1       8.569  -5.287  -4.558  0.00  0.00     0.023 C 
ATOM     38  H   LIG d   1       7.761  -6.012  -4.653  0.00  0.00     0.047 H 
ATOM     39  H   LIG d   1       9.221  -5.355  -5.429  0.00  0.00     0.047 H 
BRANCH  37  40
ATOM     40  C   LIG d   1       9.374  -5.583  -3.292  0.00  0.00     0.060 C 
ATOM     41  H   LIG d   1       8.743  -6.105  -2.574  0.00  0.00     0.039 H 
ATOM     42  H   LIG d   1      10.231  -6.209  -3.545  0.00  0.00     0.039 H 
BRANCH  40  43
ATOM     43  C   LIG d   1       9.858  -4.289  -2.690  0.00  0.00     0.308 C 
ATOM     44  O   LIG d   1       9.345  -3.863  -1.681  0.00  0.00    -0.251 OA
BRANCH  43  45
ATOM     45  O   LIG d   1      10.859  -3.610  -3.272  0.00  0.00    -0.468 OA
BRANCH  45  46
ATOM     46  C   LIG d   1      12.074  -4.324  -3.508  0.00  0.00     0.082 C 
ATOM     47  H   LIG d   1      11.977  -4.919  -4.415  0.00  0.00     0.066 H 
ATOM     48  H   LIG d   1      12.895  -3.615  -3.623  0.00  0.00     0.066 H 
ATOM     49  H   LIG d   1      12.279  -4.982  -2.662  0.00  0.00     0.066 H 
ENDBRANCH  45  46
ENDBRANCH  43  45
ENDBRANCH  40  43
ENDBRANCH  37  40
ENDBRANCH  14  37
TORSDOF 8
ENDMDL
