MODEL 1
REMARK VINA RESULT:      -6.9      0.000      0.000
REMARK  7 active torsions:
REMARK  status: ('A' for Active; 'I' for Inactive)
REMARK    1  A    between atoms: C_1  and  C_2 
REMARK    2  A    between atoms: C_2  and  C_4 
REMARK    3  A    between atoms: C_2  and  C_8 
REMARK    4  A    between atoms: C_4  and  C_5 
REMARK    5  A    between atoms: C_5  and  C_6 
REMARK    6  A    between atoms: C_14  and  C_31 
REMARK    7  A    between atoms: C_25  and  C_30 
ROOT
ATOM      1  C   LIG d   1       7.976  -5.886  -5.873  0.00  0.00    -0.033 C 
ATOM      2  H   LIG d   1       7.884  -6.259  -6.891  0.00  0.00     0.031 H 
ATOM      3  C   LIG d   1       9.414  -5.357  -5.623  0.00  0.00    -0.049 C 
ATOM      4  C   LIG d   1       9.262  -3.998  -4.890  0.00  0.00    -0.049 C 
ATOM      5  C   LIG d   1       7.779  -3.961  -4.489  0.00  0.00    -0.032 C 
ATOM      6  H   LIG d   1       7.656  -4.609  -3.597  0.00  0.00     0.031 H 
ATOM      7  C   LIG d   1       7.099  -4.631  -5.699  0.00  0.00    -0.026 C 
ATOM      8  C   LIG d   1       5.633  -4.864  -5.465  0.00  0.00    -0.047 C 
ATOM      9  C   LIG d   1       5.023  -3.745  -4.604  0.00  0.00    -0.049 C 
ATOM     10  C   LIG d   1       5.806  -2.448  -4.745  0.00  0.00    -0.032 C 
ATOM     11  H   LIG d   1       5.875  -2.174  -5.798  0.00  0.00     0.031 H 
ATOM     12  C   LIG d   1       7.209  -2.614  -4.163  0.00  0.00    -0.034 C 
ATOM     13  H   LIG d   1       7.101  -2.576  -3.059  0.00  0.00     0.031 H 
ATOM     14  C   LIG d   1       8.099  -1.441  -4.555  0.00  0.00    -0.049 C 
ATOM     15  C   LIG d   1       7.328  -0.129  -4.332  0.00  0.00    -0.049 C 
ATOM     16  C   LIG d   1       6.172  -0.408  -3.382  0.00  0.00    -0.035 C 
ATOM     17  H   LIG d   1       6.574  -0.974  -2.526  0.00  0.00     0.031 H 
ATOM     18  C   LIG d   1       5.110  -1.277  -4.057  0.00  0.00    -0.026 C 
ATOM     19  C   LIG d   1       4.100  -1.722  -3.008  0.00  0.00    -0.047 C 
ATOM     20  C   LIG d   1       3.449  -0.492  -2.367  0.00  0.00    -0.052 C 
ATOM     21  C   LIG d   1       4.495   0.443  -1.768  0.00  0.00    -0.053 C 
ATOM     22  C   LIG d   1       5.538   0.853  -2.813  0.00  0.00    -0.050 C 
ATOM     23  H   LIG d   1       9.930  -5.219  -6.571  0.00  0.00     0.027 H 
ATOM     24  H   LIG d   1       9.963  -6.062  -4.997  0.00  0.00     0.027 H 
ATOM     25  H   LIG d   1       9.519  -3.170  -5.547  0.00  0.00     0.027 H 
ATOM     26  H   LIG d   1       9.895  -3.976  -3.999  0.00  0.00     0.027 H 
ATOM     27  H   LIG d   1       5.436  -5.821  -4.978  0.00  0.00     0.027 H 
ATOM     28  H   LIG d   1       5.109  -4.883  -6.434  0.00  0.00     0.027 H 
ATOM     29  H   LIG d   1       5.025  -4.060  -3.556  0.00  0.00     0.027 H 
ATOM     30  H   LIG d   1       3.986  -3.584  -4.913  0.00  0.00     0.027 H 
ATOM     31  H   LIG d   1       8.378  -1.515  -5.604  0.00  0.00     0.027 H 
ATOM     32  H   LIG d   1       8.994  -1.438  -3.935  0.00  0.00     0.027 H 
ATOM     33  H   LIG d   1       8.001   0.603  -3.879  0.00  0.00     0.027 H 
ATOM     34  H   LIG d   1       6.970   0.252  -5.284  0.00  0.00     0.027 H 
ATOM     35  H   LIG d   1       4.606  -2.311  -2.238  0.00  0.00     0.027 H 
ATOM     36  H   LIG d   1       3.329  -2.339  -3.476  0.00  0.00     0.027 H 
ATOM     37  H   LIG d   1       2.782  -0.829  -1.563  0.00  0.00     0.026 H 
ATOM     38  H   LIG d   1       2.843   0.046  -3.093  0.00  0.00     0.026 H 
ATOM     39  H   LIG d   1       4.996  -0.063  -0.941  0.00  0.00     0.026 H 
ATOM     40  H   LIG d   1       4.000   1.338  -1.386  0.00  0.00     0.026 H 
ATOM     41  H   LIG d   1       6.316   1.447  -2.318  0.00  0.00     0.027 H 
ATOM     42  H   LIG d   1       5.084   1.461  -3.587  0.00  0.00     0.027 H 
ENDROOT
BRANCH   1  43
ATOM     43  C   LIG d   1       7.637  -6.972  -4.859  0.00  0.00    -0.040 C 
ATOM     44  H   LIG d   1       6.957  -6.569  -4.109  0.00  0.00     0.030 H 
BRANCH  43  45
ATOM     45  C   LIG d   1       8.919  -7.453  -4.179  0.00  0.00    -0.062 C 
ATOM     46  H   LIG d   1       9.309  -6.664  -3.537  0.00  0.00     0.023 H 
ATOM     47  H   LIG d   1       8.704  -8.337  -3.579  0.00  0.00     0.023 H 
ATOM     48  H   LIG d   1       9.661  -7.704  -4.938  0.00  0.00     0.023 H 
ENDBRANCH  43  45
BRANCH  43  49
ATOM     49  C   LIG d   1       6.967  -8.146  -5.576  0.00  0.00    -0.045 C 
ATOM     50  H   LIG d   1       6.302  -7.768  -6.351  0.00  0.00     0.027 H 
ATOM     51  H   LIG d   1       7.731  -8.779  -6.029  0.00  0.00     0.027 H 
BRANCH  49  52
ATOM     52  C   LIG d   1       6.160  -8.966  -4.566  0.00  0.00    -0.013 C 
ATOM     53  H   LIG d   1       6.484 -10.005  -4.600  0.00  0.00     0.033 H 
ATOM     54  H   LIG d   1       6.321  -8.567  -3.564  0.00  0.00     0.033 H 
BRANCH  52  55
ATOM     55  C   LIG d   1       4.695  -8.884  -4.910  0.00  0.00     0.042 C 
ATOM     56  O   LIG d   1       3.874  -9.384  -4.178  0.00  0.00    -0.550 OA
ATOM     57  O   LIG d   1       4.303  -8.257  -6.031  0.00  0.00    -0.550 OA
ENDBRANCH  52  55
ENDBRANCH  49  52
ENDBRANCH  43  49
ENDBRANCH   1  43
BRANCH   7  58
ATOM     58  C   LIG d   1       7.299  -3.806  -6.983  0.00  0.00    -0.059 C 
ATOM     59  H   LIG d   1       7.115  -4.438  -7.853  0.00  0.00     0.024 H 
ATOM     60  H   LIG d   1       6.602  -2.967  -6.990  0.00  0.00     0.024 H 
ATOM     61  H   LIG d   1       8.321  -3.429  -7.018  0.00  0.00     0.024 H 
ENDBRANCH   7  58
BRANCH  18  62
ATOM     62  C   LIG d   1       4.386  -0.478  -5.145  0.00  0.00    -0.059 C 
ATOM     63  H   LIG d   1       3.347  -0.804  -5.204  0.00  0.00     0.024 H 
ATOM     64  H   LIG d   1       4.421   0.583  -4.900  0.00  0.00     0.024 H 
ATOM     65  H   LIG d   1       4.875  -0.646  -6.105  0.00  0.00     0.024 H 
ENDBRANCH  18  62
TORSDOF 7
ENDMDL
MODEL 2
REMARK VINA RESULT:      -6.0      2.984      4.177
REMARK  7 active torsions:
REMARK  status: ('A' for Active; 'I' for Inactive)
REMARK    1  A    between atoms: C_1  and  C_2 
REMARK    2  A    between atoms: C_2  and  C_4 
REMARK    3  A    between atoms: C_2  and  C_8 
REMARK    4  A    between atoms: C_4  and  C_5 
REMARK    5  A    between atoms: C_5  and  C_6 
REMARK    6  A    between atoms: C_14  and  C_31 
REMARK    7  A    between atoms: C_25  and  C_30 
ROOT
ATOM      1  C   LIG d   1       8.817  -3.746  -6.082  0.00  0.00    -0.033 C 
ATOM      2  H   LIG d   1       8.929  -4.824  -5.979  0.00  0.00     0.031 H 
ATOM      3  C   LIG d   1       8.416  -3.384  -7.537  0.00  0.00    -0.049 C 
ATOM      4  C   LIG d   1       7.270  -2.343  -7.433  0.00  0.00    -0.049 C 
ATOM      5  C   LIG d   1       7.279  -1.937  -5.950  0.00  0.00    -0.032 C 
ATOM      6  H   LIG d   1       8.119  -1.227  -5.802  0.00  0.00     0.031 H 
ATOM      7  C   LIG d   1       7.610  -3.269  -5.250  0.00  0.00    -0.026 C 
ATOM      8  C   LIG d   1       7.840  -3.089  -3.776  0.00  0.00    -0.047 C 
ATOM      9  C   LIG d   1       6.943  -1.979  -3.204  0.00  0.00    -0.049 C 
ATOM     10  C   LIG d   1       5.679  -1.807  -4.034  0.00  0.00    -0.032 C 
ATOM     11  H   LIG d   1       5.160  -2.763  -4.116  0.00  0.00     0.031 H 
ATOM     12  C   LIG d   1       6.031  -1.290  -5.428  0.00  0.00    -0.034 C 
ATOM     13  H   LIG d   1       6.258  -0.210  -5.319  0.00  0.00     0.031 H 
ATOM     14  C   LIG d   1       4.831  -1.393  -6.361  0.00  0.00    -0.049 C 
ATOM     15  C   LIG d   1       3.585  -0.854  -5.637  0.00  0.00    -0.049 C 
ATOM     16  C   LIG d   1       4.044   0.007  -4.469  0.00  0.00    -0.035 C 
ATOM     17  H   LIG d   1       4.815   0.698  -4.848  0.00  0.00     0.031 H 
ATOM     18  C   LIG d   1       4.685  -0.852  -3.379  0.00  0.00    -0.026 C 
ATOM     19  C   LIG d   1       5.335   0.064  -2.350  0.00  0.00    -0.047 C 
ATOM     20  C   LIG d   1       4.274   0.988  -1.742  0.00  0.00    -0.052 C 
ATOM     21  C   LIG d   1       3.550   1.790  -2.819  0.00  0.00    -0.053 C 
ATOM     22  C   LIG d   1       2.937   0.869  -3.879  0.00  0.00    -0.050 C 
ATOM     23  H   LIG d   1       8.071  -4.274  -8.061  0.00  0.00     0.027 H 
ATOM     24  H   LIG d   1       9.270  -2.951  -8.058  0.00  0.00     0.027 H 
ATOM     25  H   LIG d   1       6.317  -2.781  -7.721  0.00  0.00     0.027 H 
ATOM     26  H   LIG d   1       7.488  -1.477  -8.062  0.00  0.00     0.027 H 
ATOM     27  H   LIG d   1       8.880  -2.848  -3.544  0.00  0.00     0.027 H 
ATOM     28  H   LIG d   1       7.606  -4.031  -3.255  0.00  0.00     0.027 H 
ATOM     29  H   LIG d   1       7.502  -1.038  -3.191  0.00  0.00     0.027 H 
ATOM     30  H   LIG d   1       6.674  -2.234  -2.175  0.00  0.00     0.027 H 
ATOM     31  H   LIG d   1       4.659  -2.429  -6.640  0.00  0.00     0.027 H 
ATOM     32  H   LIG d   1       5.010  -0.795  -7.254  0.00  0.00     0.027 H 
ATOM     33  H   LIG d   1       3.009  -0.241  -6.335  0.00  0.00     0.027 H 
ATOM     34  H   LIG d   1       2.972  -1.682  -5.296  0.00  0.00     0.027 H 
ATOM     35  H   LIG d   1       6.110   0.665  -2.832  0.00  0.00     0.027 H 
ATOM     36  H   LIG d   1       5.792  -0.535  -1.558  0.00  0.00     0.027 H 
ATOM     37  H   LIG d   1       4.772   1.690  -1.061  0.00  0.00     0.026 H 
ATOM     38  H   LIG d   1       3.555   0.417  -1.158  0.00  0.00     0.026 H 
ATOM     39  H   LIG d   1       4.259   2.467  -3.299  0.00  0.00     0.026 H 
ATOM     40  H   LIG d   1       2.758   2.379  -2.356  0.00  0.00     0.026 H 
ATOM     41  H   LIG d   1       2.508   1.489  -4.677  0.00  0.00     0.027 H 
ATOM     42  H   LIG d   1       2.144   0.268  -3.450  0.00  0.00     0.027 H 
ENDROOT
BRANCH   1  43
ATOM     43  C   LIG d   1      10.102  -3.024  -5.700  0.00  0.00    -0.040 C 
ATOM     44  H   LIG d   1       9.886  -2.270  -4.944  0.00  0.00     0.030 H 
BRANCH  43  45
ATOM     45  C   LIG d   1      10.694  -2.348  -6.939  0.00  0.00    -0.062 C 
ATOM     46  H   LIG d   1      10.189  -2.718  -7.831  0.00  0.00     0.023 H 
ATOM     47  H   LIG d   1      10.559  -1.270  -6.865  0.00  0.00     0.023 H 
ATOM     48  H   LIG d   1      11.758  -2.576  -7.003  0.00  0.00     0.023 H 
ENDBRANCH  43  45
BRANCH  43  49
ATOM     49  C   LIG d   1      11.107  -4.033  -5.141  0.00  0.00    -0.045 C 
ATOM     50  H   LIG d   1      10.776  -5.044  -5.375  0.00  0.00     0.027 H 
ATOM     51  H   LIG d   1      12.086  -3.859  -5.589  0.00  0.00     0.027 H 
BRANCH  49  52
ATOM     52  C   LIG d   1      11.205  -3.866  -3.623  0.00  0.00    -0.013 C 
ATOM     53  H   LIG d   1      12.231  -3.625  -3.349  0.00  0.00     0.033 H 
ATOM     54  H   LIG d   1      10.544  -3.060  -3.302  0.00  0.00     0.033 H 
BRANCH  52  55
ATOM     55  C   LIG d   1      10.794  -5.150  -2.949  0.00  0.00     0.042 C 
ATOM     56  O   LIG d   1      11.251  -6.204  -3.325  0.00  0.00    -0.550 OA
ATOM     57  O   LIG d   1       9.918  -5.123  -1.931  0.00  0.00    -0.550 OA
ENDBRANCH  52  55
ENDBRANCH  49  52
ENDBRANCH  43  49
ENDBRANCH   1  43
BRANCH   7  58
ATOM     58  C   LIG d   1       6.506  -4.316  -5.483  0.00  0.00    -0.059 C 
ATOM     59  H   LIG d   1       6.790  -4.964  -6.314  0.00  0.00     0.024 H 
ATOM     60  H   LIG d   1       6.377  -4.916  -4.583  0.00  0.00     0.024 H 
ATOM     61  H   LIG d   1       5.570  -3.810  -5.722  0.00  0.00     0.024 H 
ENDBRANCH   7  58
BRANCH  18  62
ATOM     62  C   LIG d   1       3.622  -1.710  -2.687  0.00  0.00    -0.059 C 
ATOM     63  H   LIG d   1       2.692  -1.662  -3.255  0.00  0.00     0.024 H 
ATOM     64  H   LIG d   1       3.965  -2.743  -2.637  0.00  0.00     0.024 H 
ATOM     65  H   LIG d   1       3.452  -1.333  -1.678  0.00  0.00     0.024 H 
ENDBRANCH  18  62
TORSDOF 7
ENDMDL
MODEL 3
REMARK VINA RESULT:      -5.8      1.601      1.892
REMARK  7 active torsions:
REMARK  status: ('A' for Active; 'I' for Inactive)
REMARK    1  A    between atoms: C_1  and  C_2 
REMARK    2  A    between atoms: C_2  and  C_4 
REMARK    3  A    between atoms: C_2  and  C_8 
REMARK    4  A    between atoms: C_4  and  C_5 
REMARK    5  A    between atoms: C_5  and  C_6 
REMARK    6  A    between atoms: C_14  and  C_31 
REMARK    7  A    between atoms: C_25  and  C_30 
ROOT
ATOM      1  C   LIG d   1       8.292  -5.533  -5.503  0.00  0.00    -0.033 C 
ATOM      2  H   LIG d   1       8.344  -5.922  -6.518  0.00  0.00     0.031 H 
ATOM      3  C   LIG d   1       9.650  -4.896  -5.102  0.00  0.00    -0.049 C 
ATOM      4  C   LIG d   1       9.319  -3.544  -4.417  0.00  0.00    -0.049 C 
ATOM      5  C   LIG d   1       7.800  -3.613  -4.187  0.00  0.00    -0.032 C 
ATOM      6  H   LIG d   1       7.624  -4.259  -3.302  0.00  0.00     0.031 H 
ATOM      7  C   LIG d   1       7.313  -4.344  -5.453  0.00  0.00    -0.026 C 
ATOM      8  C   LIG d   1       5.851  -4.681  -5.381  0.00  0.00    -0.047 C 
ATOM      9  C   LIG d   1       5.067  -3.602  -4.616  0.00  0.00    -0.049 C 
ATOM     10  C   LIG d   1       5.766  -2.253  -4.693  0.00  0.00    -0.032 C 
ATOM     11  H   LIG d   1       5.934  -1.985  -5.736  0.00  0.00     0.031 H 
ATOM     12  C   LIG d   1       7.101  -2.308  -3.952  0.00  0.00    -0.034 C 
ATOM     13  H   LIG d   1       6.866  -2.267  -2.869  0.00  0.00     0.031 H 
ATOM     14  C   LIG d   1       7.943  -1.077  -4.264  0.00  0.00    -0.049 C 
ATOM     15  C   LIG d   1       7.059   0.176  -4.154  0.00  0.00    -0.049 C 
ATOM     16  C   LIG d   1       5.825  -0.176  -3.336  0.00  0.00    -0.035 C 
ATOM     17  H   LIG d   1       6.167  -0.703  -2.429  0.00  0.00     0.031 H 
ATOM     18  C   LIG d   1       4.913  -1.129  -4.109  0.00  0.00    -0.026 C 
ATOM     19  C   LIG d   1       3.825  -1.636  -3.173  0.00  0.00    -0.047 C 
ATOM     20  C   LIG d   1       3.018  -0.450  -2.633  0.00  0.00    -0.052 C 
ATOM     21  C   LIG d   1       3.918   0.565  -1.937  0.00  0.00    -0.053 C 
ATOM     22  C   LIG d   1       5.041   1.040  -2.865  0.00  0.00    -0.050 C 
ATOM     23  H   LIG d   1      10.260  -4.731  -5.989  0.00  0.00     0.027 H 
ATOM     24  H   LIG d   1      10.174  -5.552  -4.405  0.00  0.00     0.027 H 
ATOM     25  H   LIG d   1       9.588  -2.707  -5.056  0.00  0.00     0.027 H 
ATOM     26  H   LIG d   1       9.842  -3.467  -3.460  0.00  0.00     0.027 H 
ATOM     27  H   LIG d   1       5.669  -5.646  -4.902  0.00  0.00     0.027 H 
ATOM     28  H   LIG d   1       5.443  -4.750  -6.403  0.00  0.00     0.027 H 
ATOM     29  H   LIG d   1       4.972  -3.905  -3.568  0.00  0.00     0.027 H 
ATOM     30  H   LIG d   1       4.063  -3.521  -5.043  0.00  0.00     0.027 H 
ATOM     31  H   LIG d   1       8.345  -1.142  -5.273  0.00  0.00     0.027 H 
ATOM     32  H   LIG d   1       8.759  -1.001  -3.547  0.00  0.00     0.027 H 
ATOM     33  H   LIG d   1       7.622   0.961  -3.641  0.00  0.00     0.027 H 
ATOM     34  H   LIG d   1       6.785   0.520  -5.147  0.00  0.00     0.027 H 
ATOM     35  H   LIG d   1       4.280  -2.178  -2.340  0.00  0.00     0.027 H 
ATOM     36  H   LIG d   1       3.158  -2.313  -3.713  0.00  0.00     0.027 H 
ATOM     37  H   LIG d   1       2.289  -0.827  -1.903  0.00  0.00     0.026 H 
ATOM     38  H   LIG d   1       2.461   0.033  -3.433  0.00  0.00     0.026 H 
ATOM     39  H   LIG d   1       4.357   0.106  -1.049  0.00  0.00     0.026 H 
ATOM     40  H   LIG d   1       3.320   1.425  -1.631  0.00  0.00     0.026 H 
ATOM     41  H   LIG d   1       5.713   1.695  -2.297  0.00  0.00     0.027 H 
ATOM     42  H   LIG d   1       4.636   1.604  -3.697  0.00  0.00     0.027 H 
ENDROOT
BRANCH   1  43
ATOM     43  C   LIG d   1       7.919  -6.629  -4.514  0.00  0.00    -0.040 C 
ATOM     44  H   LIG d   1       7.181  -6.248  -3.809  0.00  0.00     0.030 H 
BRANCH  43  45
ATOM     45  C   LIG d   1       9.168  -7.077  -3.753  0.00  0.00    -0.062 C 
ATOM     46  H   LIG d   1       9.789  -7.693  -4.403  0.00  0.00     0.023 H 
ATOM     47  H   LIG d   1       9.733  -6.201  -3.434  0.00  0.00     0.023 H 
ATOM     48  H   LIG d   1       8.872  -7.656  -2.878  0.00  0.00     0.023 H 
ENDBRANCH  43  45
BRANCH  43  49
ATOM     49  C   LIG d   1       7.330  -7.820  -5.273  0.00  0.00    -0.045 C 
ATOM     50  H   LIG d   1       7.631  -8.747  -4.786  0.00  0.00     0.027 H 
ATOM     51  H   LIG d   1       6.242  -7.748  -5.276  0.00  0.00     0.027 H 
BRANCH  49  52
ATOM     52  C   LIG d   1       7.844  -7.811  -6.714  0.00  0.00    -0.013 C 
ATOM     53  H   LIG d   1       7.000  -7.826  -7.402  0.00  0.00     0.033 H 
ATOM     54  H   LIG d   1       8.435  -6.910  -6.883  0.00  0.00     0.033 H 
BRANCH  52  55
ATOM     55  C   LIG d   1       8.705  -9.026  -6.949  0.00  0.00     0.042 C 
ATOM     56  O   LIG d   1       8.714  -9.925  -6.141  0.00  0.00    -0.550 OA
ATOM     57  O   LIG d   1       9.462  -9.108  -8.055  0.00  0.00    -0.550 OA
ENDBRANCH  52  55
ENDBRANCH  49  52
ENDBRANCH  43  49
ENDBRANCH   1  43
BRANCH   7  58
ATOM     58  C   LIG d   1       7.598  -3.520  -6.722  0.00  0.00    -0.059 C 
ATOM     59  H   LIG d   1       6.988  -3.897  -7.544  0.00  0.00     0.024 H 
ATOM     60  H   LIG d   1       7.353  -2.473  -6.539  0.00  0.00     0.024 H 
ATOM     61  H   LIG d   1       8.653  -3.607  -6.982  0.00  0.00     0.024 H 
ENDBRANCH   7  58
BRANCH  18  62
ATOM     62  C   LIG d   1       4.262  -0.397  -5.287  0.00  0.00    -0.059 C 
ATOM     63  H   LIG d   1       4.806   0.527  -5.485  0.00  0.00     0.024 H 
ATOM     64  H   LIG d   1       4.292  -1.034  -6.171  0.00  0.00     0.024 H 
ATOM     65  H   LIG d   1       3.226  -0.165  -5.041  0.00  0.00     0.024 H 
ENDBRANCH  18  62
TORSDOF 7
ENDMDL
MODEL 4
REMARK VINA RESULT:      -5.7      5.522      8.646
REMARK  7 active torsions:
REMARK  status: ('A' for Active; 'I' for Inactive)
REMARK    1  A    between atoms: C_1  and  C_2 
REMARK    2  A    between atoms: C_2  and  C_4 
REMARK    3  A    between atoms: C_2  and  C_8 
REMARK    4  A    between atoms: C_4  and  C_5 
REMARK    5  A    between atoms: C_5  and  C_6 
REMARK    6  A    between atoms: C_14  and  C_31 
REMARK    7  A    between atoms: C_25  and  C_30 
ROOT
ATOM      1  C   LIG d   1      10.125   2.805  -6.243  0.00  0.00    -0.033 C 
ATOM      2  H   LIG d   1      11.184   2.735  -6.002  0.00  0.00     0.031 H 
ATOM      3  C   LIG d   1       9.881   2.377  -7.715  0.00  0.00    -0.049 C 
ATOM      4  C   LIG d   1       8.645   1.439  -7.702  0.00  0.00    -0.049 C 
ATOM      5  C   LIG d   1       8.066   1.616  -6.289  0.00  0.00    -0.032 C 
ATOM      6  H   LIG d   1       7.507   2.574  -6.274  0.00  0.00     0.031 H 
ATOM      7  C   LIG d   1       9.338   1.758  -5.432  0.00  0.00    -0.026 C 
ATOM      8  C   LIG d   1       9.021   2.113  -4.007  0.00  0.00    -0.047 C 
ATOM      9  C   LIG d   1       7.705   1.461  -3.550  0.00  0.00    -0.049 C 
ATOM     10  C   LIG d   1       7.413   0.194  -4.340  0.00  0.00    -0.032 C 
ATOM     11  H   LIG d   1       8.261  -0.487  -4.271  0.00  0.00     0.031 H 
ATOM     12  C   LIG d   1       7.145   0.537  -5.805  0.00  0.00    -0.034 C 
ATOM     13  H   LIG d   1       6.118   0.954  -5.852  0.00  0.00     0.031 H 
ATOM     14  C   LIG d   1       7.144  -0.722  -6.663  0.00  0.00    -0.049 C 
ATOM     15  C   LIG d   1       6.304  -1.805  -5.965  0.00  0.00    -0.049 C 
ATOM     16  C   LIG d   1       5.401  -1.127  -4.944  0.00  0.00    -0.035 C 
ATOM     17  H   LIG d   1       4.913  -0.275  -5.445  0.00  0.00     0.031 H 
ATOM     18  C   LIG d   1       6.219  -0.573  -3.777  0.00  0.00    -0.026 C 
ATOM     19  C   LIG d   1       5.315   0.292  -2.910  0.00  0.00    -0.047 C 
ATOM     20  C   LIG d   1       4.147  -0.550  -2.385  0.00  0.00    -0.052 C 
ATOM     21  C   LIG d   1       3.368  -1.194  -3.528  0.00  0.00    -0.053 C 
ATOM     22  C   LIG d   1       4.287  -2.026  -4.427  0.00  0.00    -0.050 C 
ATOM     23  H   LIG d   1      10.752   1.849  -8.099  0.00  0.00     0.027 H 
ATOM     24  H   LIG d   1       9.677   3.258  -8.326  0.00  0.00     0.027 H 
ATOM     25  H   LIG d   1       8.937   0.408  -7.887  0.00  0.00     0.027 H 
ATOM     26  H   LIG d   1       7.917   1.761  -8.451  0.00  0.00     0.027 H 
ATOM     27  H   LIG d   1       8.944   3.192  -3.854  0.00  0.00     0.027 H 
ATOM     28  H   LIG d   1       9.833   1.754  -3.354  0.00  0.00     0.027 H 
ATOM     29  H   LIG d   1       6.887   2.175  -3.688  0.00  0.00     0.027 H 
ATOM     30  H   LIG d   1       7.777   1.222  -2.486  0.00  0.00     0.027 H 
ATOM     31  H   LIG d   1       8.159  -1.090  -6.793  0.00  0.00     0.027 H 
ATOM     32  H   LIG d   1       6.705  -0.502  -7.635  0.00  0.00     0.027 H 
ATOM     33  H   LIG d   1       5.688  -2.311  -6.713  0.00  0.00     0.027 H 
ATOM     34  H   LIG d   1       6.959  -2.528  -5.489  0.00  0.00     0.027 H 
ATOM     35  H   LIG d   1       4.928   1.126  -3.501  0.00  0.00     0.027 H 
ATOM     36  H   LIG d   1       5.883   0.690  -2.065  0.00  0.00     0.027 H 
ATOM     37  H   LIG d   1       3.466   0.106  -1.827  0.00  0.00     0.026 H 
ATOM     38  H   LIG d   1       4.501  -1.316  -1.699  0.00  0.00     0.026 H 
ATOM     39  H   LIG d   1       2.895  -0.412  -4.125  0.00  0.00     0.026 H 
ATOM     40  H   LIG d   1       2.592  -1.840  -3.115  0.00  0.00     0.026 H 
ATOM     41  H   LIG d   1       3.705  -2.393  -5.282  0.00  0.00     0.027 H 
ATOM     42  H   LIG d   1       4.677  -2.881  -3.887  0.00  0.00     0.027 H 
ENDROOT
BRANCH   1  43
ATOM     43  C   LIG d   1       9.605   4.219  -6.018  0.00  0.00    -0.040 C 
ATOM     44  H   LIG d   1       8.560   4.178  -5.712  0.00  0.00     0.030 H 
BRANCH  43  45
ATOM     45  C   LIG d   1       9.726   5.019  -7.316  0.00  0.00    -0.062 C 
ATOM     46  H   LIG d   1      10.255   5.951  -7.121  0.00  0.00     0.023 H 
ATOM     47  H   LIG d   1      10.277   4.436  -8.054  0.00  0.00     0.023 H 
ATOM     48  H   LIG d   1       8.730   5.241  -7.700  0.00  0.00     0.023 H 
ENDBRANCH  43  45
BRANCH  43  49
ATOM     49  C   LIG d   1      10.431   4.897  -4.923  0.00  0.00    -0.045 C 
ATOM     50  H   LIG d   1      10.779   4.148  -4.213  0.00  0.00     0.027 H 
ATOM     51  H   LIG d   1      11.288   5.399  -5.371  0.00  0.00     0.027 H 
BRANCH  49  52
ATOM     52  C   LIG d   1       9.563   5.926  -4.194  0.00  0.00    -0.013 C 
ATOM     53  H   LIG d   1       9.832   6.928  -4.524  0.00  0.00     0.033 H 
ATOM     54  H   LIG d   1       8.512   5.739  -4.418  0.00  0.00     0.033 H 
BRANCH  52  55
ATOM     55  C   LIG d   1       9.787   5.810  -2.708  0.00  0.00     0.042 C 
ATOM     56  O   LIG d   1      10.313   4.822  -2.252  0.00  0.00    -0.550 OA
ATOM     57  O   LIG d   1       9.401   6.803  -1.892  0.00  0.00    -0.550 OA
ENDBRANCH  52  55
ENDBRANCH  49  52
ENDBRANCH  43  49
ENDBRANCH   1  43
BRANCH   7  58
ATOM     58  C   LIG d   1      10.190   0.476  -5.474  0.00  0.00    -0.059 C 
ATOM     59  H   LIG d   1      11.014   0.611  -6.176  0.00  0.00     0.024 H 
ATOM     60  H   LIG d   1      10.589   0.270  -4.481  0.00  0.00     0.024 H 
ATOM     61  H   LIG d   1       9.571  -0.361  -5.798  0.00  0.00     0.024 H 
ENDBRANCH   7  58
BRANCH  18  62
ATOM     62  C   LIG d   1       6.778  -1.721  -2.931  0.00  0.00    -0.059 C 
ATOM     63  H   LIG d   1       7.384  -1.314  -2.122  0.00  0.00     0.024 H 
ATOM     64  H   LIG d   1       5.954  -2.299  -2.513  0.00  0.00     0.024 H 
ATOM     65  H   LIG d   1       7.394  -2.367  -3.557  0.00  0.00     0.024 H 
ENDBRANCH  18  62
TORSDOF 7
ENDMDL
MODEL 5
REMARK VINA RESULT:      -5.6      5.629      8.548
REMARK  7 active torsions:
REMARK  status: ('A' for Active; 'I' for Inactive)
REMARK    1  A    between atoms: C_1  and  C_2 
REMARK    2  A    between atoms: C_2  and  C_4 
REMARK    3  A    between atoms: C_2  and  C_8 
REMARK    4  A    between atoms: C_4  and  C_5 
REMARK    5  A    between atoms: C_5  and  C_6 
REMARK    6  A    between atoms: C_14  and  C_31 
REMARK    7  A    between atoms: C_25  and  C_30 
ROOT
ATOM      1  C   LIG d   1       3.987   0.002  -7.407  0.00  0.00    -0.033 C 
ATOM      2  H   LIG d   1       5.041   0.254  -7.305  0.00  0.00     0.031 H 
ATOM      3  C   LIG d   1       3.193   1.222  -7.947  0.00  0.00    -0.049 C 
ATOM      4  C   LIG d   1       2.254   0.680  -9.057  0.00  0.00    -0.049 C 
ATOM      5  C   LIG d   1       2.333  -0.846  -8.892  0.00  0.00    -0.032 C 
ATOM      6  H   LIG d   1       1.693  -1.123  -8.029  0.00  0.00     0.031 H 
ATOM      7  C   LIG d   1       3.812  -1.056  -8.515  0.00  0.00    -0.026 C 
ATOM      8  C   LIG d   1       4.100  -2.480  -8.134  0.00  0.00    -0.047 C 
ATOM      9  C   LIG d   1       3.239  -3.459  -8.949  0.00  0.00    -0.049 C 
ATOM     10  C   LIG d   1       2.835  -2.858 -10.287  0.00  0.00    -0.032 C 
ATOM     11  H   LIG d   1       3.724  -2.534 -10.828  0.00  0.00     0.031 H 
ATOM     12  C   LIG d   1       1.901  -1.668 -10.069  0.00  0.00    -0.034 C 
ATOM     13  H   LIG d   1       0.907  -2.087  -9.813  0.00  0.00     0.031 H 
ATOM     14  C   LIG d   1       1.724  -0.877 -11.359  0.00  0.00    -0.049 C 
ATOM     15  C   LIG d   1       1.458  -1.855 -12.515  0.00  0.00    -0.049 C 
ATOM     16  C   LIG d   1       1.000  -3.182 -11.926  0.00  0.00    -0.035 C 
ATOM     17  H   LIG d   1       0.214  -2.962 -11.185  0.00  0.00     0.031 H 
ATOM     18  C   LIG d   1       2.148  -3.877 -11.193  0.00  0.00    -0.026 C 
ATOM     19  C   LIG d   1       1.591  -5.069 -10.427  0.00  0.00    -0.047 C 
ATOM     20  C   LIG d   1       0.921  -6.041 -11.404  0.00  0.00    -0.052 C 
ATOM     21  C   LIG d   1      -0.167  -5.349 -12.218  0.00  0.00    -0.053 C 
ATOM     22  C   LIG d   1       0.383  -4.121 -12.952  0.00  0.00    -0.050 C 
ATOM     23  H   LIG d   1       3.878   1.960  -8.359  0.00  0.00     0.027 H 
ATOM     24  H   LIG d   1       2.605   1.664  -7.141  0.00  0.00     0.027 H 
ATOM     25  H   LIG d   1       2.594   0.993 -10.042  0.00  0.00     0.027 H 
ATOM     26  H   LIG d   1       1.231   1.025  -8.889  0.00  0.00     0.027 H 
ATOM     27  H   LIG d   1       3.929  -2.670  -7.072  0.00  0.00     0.027 H 
ATOM     28  H   LIG d   1       5.162  -2.701  -8.331  0.00  0.00     0.027 H 
ATOM     29  H   LIG d   1       2.342  -3.709  -8.375  0.00  0.00     0.027 H 
ATOM     30  H   LIG d   1       3.808  -4.379  -9.117  0.00  0.00     0.027 H 
ATOM     31  H   LIG d   1       2.623  -0.305 -11.576  0.00  0.00     0.027 H 
ATOM     32  H   LIG d   1       0.874  -0.203 -11.260  0.00  0.00     0.027 H 
ATOM     33  H   LIG d   1       0.665  -1.447 -13.147  0.00  0.00     0.027 H 
ATOM     34  H   LIG d   1       2.361  -1.980 -13.105  0.00  0.00     0.027 H 
ATOM     35  H   LIG d   1       0.858  -4.724  -9.693  0.00  0.00     0.027 H 
ATOM     36  H   LIG d   1       2.401  -5.583  -9.902  0.00  0.00     0.027 H 
ATOM     37  H   LIG d   1       0.460  -6.853 -10.828  0.00  0.00     0.026 H 
ATOM     38  H   LIG d   1       1.656  -6.486 -12.070  0.00  0.00     0.026 H 
ATOM     39  H   LIG d   1      -0.971  -5.035 -11.550  0.00  0.00     0.026 H 
ATOM     40  H   LIG d   1      -0.570  -6.051 -12.949  0.00  0.00     0.026 H 
ATOM     41  H   LIG d   1      -0.449  -3.606 -13.447  0.00  0.00     0.027 H 
ATOM     42  H   LIG d   1       1.101  -4.418 -13.708  0.00  0.00     0.027 H 
ENDROOT
BRANCH   1  43
ATOM     43  C   LIG d   1       3.402  -0.454  -6.077  0.00  0.00    -0.040 C 
ATOM     44  H   LIG d   1       2.822  -1.365  -6.228  0.00  0.00     0.030 H 
BRANCH  43  45
ATOM     45  C   LIG d   1       2.494   0.642  -5.517  0.00  0.00    -0.062 C 
ATOM     46  H   LIG d   1       1.632   0.187  -5.029  0.00  0.00     0.023 H 
ATOM     47  H   LIG d   1       3.048   1.239  -4.793  0.00  0.00     0.023 H 
ATOM     48  H   LIG d   1       2.154   1.283  -6.330  0.00  0.00     0.023 H 
ENDBRANCH  43  45
BRANCH  43  49
ATOM     49  C   LIG d   1       4.537  -0.731  -5.089  0.00  0.00    -0.045 C 
ATOM     50  H   LIG d   1       4.810  -1.784  -5.134  0.00  0.00     0.027 H 
ATOM     51  H   LIG d   1       5.402  -0.119  -5.348  0.00  0.00     0.027 H 
BRANCH  49  52
ATOM     52  C   LIG d   1       4.075  -0.384  -3.672  0.00  0.00    -0.013 C 
ATOM     53  H   LIG d   1       4.707   0.405  -3.266  0.00  0.00     0.033 H 
ATOM     54  H   LIG d   1       3.040  -0.041  -3.701  0.00  0.00     0.033 H 
BRANCH  52  55
ATOM     55  C   LIG d   1       4.174  -1.607  -2.798  0.00  0.00     0.042 C 
ATOM     56  O   LIG d   1       4.410  -1.490  -1.618  0.00  0.00    -0.550 OA
ATOM     57  O   LIG d   1       4.002  -2.828  -3.330  0.00  0.00    -0.550 OA
ENDBRANCH  52  55
ENDBRANCH  49  52
ENDBRANCH  43  49
ENDBRANCH   1  43
BRANCH   7  58
ATOM     58  C   LIG d   1       4.750  -0.619  -9.655  0.00  0.00    -0.059 C 
ATOM     59  H   LIG d   1       5.601  -0.078  -9.239  0.00  0.00     0.024 H 
ATOM     60  H   LIG d   1       5.106  -1.499 -10.191  0.00  0.00     0.024 H 
ATOM     61  H   LIG d   1       4.208   0.031 -10.342  0.00  0.00     0.024 H 
ENDBRANCH   7  58
BRANCH  18  62
ATOM     62  C   LIG d   1       3.195  -4.369 -12.196  0.00  0.00    -0.059 C 
ATOM     63  H   LIG d   1       3.308  -3.632 -12.992  0.00  0.00     0.024 H 
ATOM     64  H   LIG d   1       4.149  -4.504 -11.688  0.00  0.00     0.024 H 
ATOM     65  H   LIG d   1       2.872  -5.319 -12.622  0.00  0.00     0.024 H 
ENDBRANCH  18  62
TORSDOF 7
ENDMDL
MODEL 6
REMARK VINA RESULT:      -5.6      4.207      7.029
REMARK  7 active torsions:
REMARK  status: ('A' for Active; 'I' for Inactive)
REMARK    1  A    between atoms: C_1  and  C_2 
REMARK    2  A    between atoms: C_2  and  C_4 
REMARK    3  A    between atoms: C_2  and  C_8 
REMARK    4  A    between atoms: C_4  and  C_5 
REMARK    5  A    between atoms: C_5  and  C_6 
REMARK    6  A    between atoms: C_14  and  C_31 
REMARK    7  A    between atoms: C_25  and  C_30 
ROOT
ATOM      1  C   LIG d   1       6.126  -1.058  -4.369  0.00  0.00    -0.033 C 
ATOM      2  H   LIG d   1       5.629  -1.386  -3.457  0.00  0.00     0.031 H 
ATOM      3  C   LIG d   1       7.392  -1.918  -4.629  0.00  0.00    -0.049 C 
ATOM      4  C   LIG d   1       7.369  -2.290  -6.136  0.00  0.00    -0.049 C 
ATOM      5  C   LIG d   1       6.273  -1.385  -6.720  0.00  0.00    -0.032 C 
ATOM      6  H   LIG d   1       6.704  -0.369  -6.839  0.00  0.00     0.031 H 
ATOM      7  C   LIG d   1       5.231  -1.363  -5.585  0.00  0.00    -0.026 C 
ATOM      8  C   LIG d   1       4.118  -0.392  -5.860  0.00  0.00    -0.047 C 
ATOM      9  C   LIG d   1       3.803  -0.317  -7.364  0.00  0.00    -0.049 C 
ATOM     10  C   LIG d   1       4.183  -1.609  -8.073  0.00  0.00    -0.032 C 
ATOM     11  H   LIG d   1       3.695  -2.453  -7.586  0.00  0.00     0.031 H 
ATOM     12  C   LIG d   1       5.699  -1.800  -8.041  0.00  0.00    -0.034 C 
ATOM     13  H   LIG d   1       6.122  -1.110  -8.800  0.00  0.00     0.031 H 
ATOM     14  C   LIG d   1       6.074  -3.211  -8.476  0.00  0.00    -0.049 C 
ATOM     15  C   LIG d   1       5.284  -3.572  -9.745  0.00  0.00    -0.049 C 
ATOM     16  C   LIG d   1       4.786  -2.283 -10.383  0.00  0.00    -0.035 C 
ATOM     17  H   LIG d   1       5.638  -1.586 -10.433  0.00  0.00     0.031 H 
ATOM     18  C   LIG d   1       3.703  -1.633  -9.522  0.00  0.00    -0.026 C 
ATOM     19  C   LIG d   1       3.407  -0.244 -10.071  0.00  0.00    -0.047 C 
ATOM     20  C   LIG d   1       2.932  -0.356 -11.523  0.00  0.00    -0.052 C 
ATOM     21  C   LIG d   1       3.954  -1.086 -12.388  0.00  0.00    -0.053 C 
ATOM     22  C   LIG d   1       4.287  -2.466 -11.809  0.00  0.00    -0.050 C 
ATOM     23  H   LIG d   1       7.364  -2.818  -4.018  0.00  0.00     0.027 H 
ATOM     24  H   LIG d   1       8.286  -1.337  -4.400  0.00  0.00     0.027 H 
ATOM     25  H   LIG d   1       7.134  -3.342  -6.274  0.00  0.00     0.027 H 
ATOM     26  H   LIG d   1       8.333  -2.059  -6.597  0.00  0.00     0.027 H 
ATOM     27  H   LIG d   1       4.347   0.615  -5.505  0.00  0.00     0.027 H 
ATOM     28  H   LIG d   1       3.209  -0.720  -5.329  0.00  0.00     0.027 H 
ATOM     29  H   LIG d   1       4.356   0.518  -7.804  0.00  0.00     0.027 H 
ATOM     30  H   LIG d   1       2.733  -0.128  -7.494  0.00  0.00     0.027 H 
ATOM     31  H   LIG d   1       5.831  -3.924  -7.691  0.00  0.00     0.027 H 
ATOM     32  H   LIG d   1       7.140  -3.254  -8.696  0.00  0.00     0.027 H 
ATOM     33  H   LIG d   1       5.951  -4.087 -10.442  0.00  0.00     0.027 H 
ATOM     34  H   LIG d   1       4.457  -4.227  -9.488  0.00  0.00     0.027 H 
ATOM     35  H   LIG d   1       4.311   0.369 -10.027  0.00  0.00     0.027 H 
ATOM     36  H   LIG d   1       2.628   0.233  -9.470  0.00  0.00     0.027 H 
ATOM     37  H   LIG d   1       2.797   0.657 -11.926  0.00  0.00     0.026 H 
ATOM     38  H   LIG d   1       1.971  -0.861 -11.577  0.00  0.00     0.026 H 
ATOM     39  H   LIG d   1       4.868  -0.492 -12.444  0.00  0.00     0.026 H 
ATOM     40  H   LIG d   1       3.551  -1.209 -13.395  0.00  0.00     0.026 H 
ATOM     41  H   LIG d   1       5.089  -2.914 -12.409  0.00  0.00     0.027 H 
ATOM     42  H   LIG d   1       3.421  -3.117 -11.853  0.00  0.00     0.027 H 
ENDROOT
BRANCH   1  43
ATOM     43  C   LIG d   1       6.504   0.415  -4.286  0.00  0.00    -0.040 C 
ATOM     44  H   LIG d   1       6.161   0.930  -5.183  0.00  0.00     0.030 H 
BRANCH  43  45
ATOM     45  C   LIG d   1       8.024   0.546  -4.172  0.00  0.00    -0.062 C 
ATOM     46  H   LIG d   1       8.270   1.431  -3.587  0.00  0.00     0.023 H 
ATOM     47  H   LIG d   1       8.429  -0.338  -3.680  0.00  0.00     0.023 H 
ATOM     48  H   LIG d   1       8.456   0.636  -5.168  0.00  0.00     0.023 H 
ENDBRANCH  43  45
BRANCH  43  49
ATOM     49  C   LIG d   1       5.845   1.041  -3.055  0.00  0.00    -0.045 C 
ATOM     50  H   LIG d   1       6.613   1.437  -2.393  0.00  0.00     0.027 H 
ATOM     51  H   LIG d   1       5.183   1.850  -3.369  0.00  0.00     0.027 H 
BRANCH  49  52
ATOM     52  C   LIG d   1       5.031  -0.023  -2.315  0.00  0.00    -0.013 C 
ATOM     53  H   LIG d   1       5.162  -0.987  -2.805  0.00  0.00     0.033 H 
ATOM     54  H   LIG d   1       5.375  -0.091  -1.283  0.00  0.00     0.033 H 
BRANCH  52  55
ATOM     55  C   LIG d   1       3.573   0.356  -2.334  0.00  0.00     0.042 C 
ATOM     56  O   LIG d   1       3.233   1.467  -2.003  0.00  0.00    -0.550 OA
ATOM     57  O   LIG d   1       2.651  -0.542  -2.717  0.00  0.00    -0.550 OA
ENDBRANCH  52  55
ENDBRANCH  49  52
ENDBRANCH  43  49
ENDBRANCH   1  43
BRANCH   7  58
ATOM     58  C   LIG d   1       4.649  -2.766  -5.330  0.00  0.00    -0.059 C 
ATOM     59  H   LIG d   1       5.415  -3.518  -5.528  0.00  0.00     0.024 H 
ATOM     60  H   LIG d   1       4.324  -2.842  -4.293  0.00  0.00     0.024 H 
ATOM     61  H   LIG d   1       3.798  -2.932  -5.992  0.00  0.00     0.024 H 
ENDBRANCH   7  58
BRANCH  18  62
ATOM     62  C   LIG d   1       2.422  -2.472  -9.560  0.00  0.00    -0.059 C 
ATOM     63  H   LIG d   1       1.558  -1.811  -9.637  0.00  0.00     0.024 H 
ATOM     64  H   LIG d   1       2.449  -3.137 -10.423  0.00  0.00     0.024 H 
ATOM     65  H   LIG d   1       2.349  -3.063  -8.647  0.00  0.00     0.024 H 
ENDBRANCH  18  62
TORSDOF 7
ENDMDL
MODEL 7
REMARK VINA RESULT:      -5.6      4.199      6.630
REMARK  7 active torsions:
REMARK  status: ('A' for Active; 'I' for Inactive)
REMARK    1  A    between atoms: C_1  and  C_2 
REMARK    2  A    between atoms: C_2  and  C_4 
REMARK    3  A    between atoms: C_2  and  C_8 
REMARK    4  A    between atoms: C_4  and  C_5 
REMARK    5  A    between atoms: C_5  and  C_6 
REMARK    6  A    between atoms: C_14  and  C_31 
REMARK    7  A    between atoms: C_25  and  C_30 
ROOT
ATOM      1  C   LIG d   1       7.240  -0.590  -5.257  0.00  0.00    -0.033 C 
ATOM      2  H   LIG d   1       7.959  -1.305  -4.861  0.00  0.00     0.031 H 
ATOM      3  C   LIG d   1       7.977   0.644  -5.841  0.00  0.00    -0.049 C 
ATOM      4  C   LIG d   1       7.310   0.950  -7.209  0.00  0.00    -0.049 C 
ATOM      5  C   LIG d   1       6.043   0.079  -7.200  0.00  0.00    -0.032 C 
ATOM      6  H   LIG d   1       5.289   0.589  -6.566  0.00  0.00     0.031 H 
ATOM      7  C   LIG d   1       6.529  -1.195  -6.483  0.00  0.00    -0.026 C 
ATOM      8  C   LIG d   1       5.403  -2.149  -6.204  0.00  0.00    -0.047 C 
ATOM      9  C   LIG d   1       4.343  -2.101  -7.316  0.00  0.00    -0.049 C 
ATOM     10  C   LIG d   1       4.948  -1.648  -8.637  0.00  0.00    -0.032 C 
ATOM     11  H   LIG d   1       5.792  -2.289  -8.893  0.00  0.00     0.031 H 
ATOM     12  C   LIG d   1       5.414  -0.197  -8.533  0.00  0.00    -0.034 C 
ATOM     13  H   LIG d   1       4.504   0.434  -8.588  0.00  0.00     0.031 H 
ATOM     14  C   LIG d   1       6.281   0.179  -9.728  0.00  0.00    -0.049 C 
ATOM     15  C   LIG d   1       5.601  -0.315 -11.016  0.00  0.00    -0.049 C 
ATOM     16  C   LIG d   1       4.130  -0.569 -10.716  0.00  0.00    -0.035 C 
ATOM     17  H   LIG d   1       3.744   0.314 -10.181  0.00  0.00     0.031 H 
ATOM     18  C   LIG d   1       3.963  -1.779  -9.796  0.00  0.00    -0.026 C 
ATOM     19  C   LIG d   1       2.513  -1.850  -9.337  0.00  0.00    -0.047 C 
ATOM     20  C   LIG d   1       1.594  -1.980 -10.556  0.00  0.00    -0.052 C 
ATOM     21  C   LIG d   1       1.807  -0.833 -11.538  0.00  0.00    -0.053 C 
ATOM     22  C   LIG d   1       3.276  -0.732 -11.964  0.00  0.00    -0.050 C 
ATOM     23  H   LIG d   1       9.033   0.417  -5.979  0.00  0.00     0.027 H 
ATOM     24  H   LIG d   1       7.861   1.495  -5.169  0.00  0.00     0.027 H 
ATOM     25  H   LIG d   1       7.969   0.686  -8.032  0.00  0.00     0.027 H 
ATOM     26  H   LIG d   1       7.040   2.007  -7.270  0.00  0.00     0.027 H 
ATOM     27  H   LIG d   1       4.912  -1.946  -5.249  0.00  0.00     0.027 H 
ATOM     28  H   LIG d   1       5.802  -3.175  -6.146  0.00  0.00     0.027 H 
ATOM     29  H   LIG d   1       3.548  -1.408  -7.022  0.00  0.00     0.027 H 
ATOM     30  H   LIG d   1       3.905  -3.096  -7.435  0.00  0.00     0.027 H 
ATOM     31  H   LIG d   1       7.261  -0.285  -9.644  0.00  0.00     0.027 H 
ATOM     32  H   LIG d   1       6.388   1.262  -9.776  0.00  0.00     0.027 H 
ATOM     33  H   LIG d   1       5.686   0.461 -11.781  0.00  0.00     0.027 H 
ATOM     34  H   LIG d   1       6.090  -1.219 -11.366  0.00  0.00     0.027 H 
ATOM     35  H   LIG d   1       2.259  -0.943  -8.781  0.00  0.00     0.027 H 
ATOM     36  H   LIG d   1       2.375  -2.716  -8.684  0.00  0.00     0.027 H 
ATOM     37  H   LIG d   1       0.552  -1.953 -10.211  0.00  0.00     0.026 H 
ATOM     38  H   LIG d   1       1.749  -2.932 -11.057  0.00  0.00     0.026 H 
ATOM     39  H   LIG d   1       1.506   0.104 -11.067  0.00  0.00     0.026 H 
ATOM     40  H   LIG d   1       1.189  -0.997 -12.422  0.00  0.00     0.026 H 
ATOM     41  H   LIG d   1       3.398   0.157 -12.595  0.00  0.00     0.027 H 
ATOM     42  H   LIG d   1       3.566  -1.603 -12.540  0.00  0.00     0.027 H 
ENDROOT
BRANCH   1  43
ATOM     43  C   LIG d   1       6.257  -0.149  -4.180  0.00  0.00    -0.040 C 
ATOM     44  H   LIG d   1       5.269  -0.016  -4.622  0.00  0.00     0.030 H 
BRANCH  43  45
ATOM     45  C   LIG d   1       6.727   1.173  -3.572  0.00  0.00    -0.062 C 
ATOM     46  H   LIG d   1       6.137   1.992  -3.983  0.00  0.00     0.023 H 
ATOM     47  H   LIG d   1       6.600   1.142  -2.490  0.00  0.00     0.023 H 
ATOM     48  H   LIG d   1       7.779   1.329  -3.809  0.00  0.00     0.023 H 
ENDBRANCH  43  45
BRANCH  43  49
ATOM     49  C   LIG d   1       6.186  -1.217  -3.087  0.00  0.00    -0.045 C 
ATOM     50  H   LIG d   1       6.132  -2.204  -3.545  0.00  0.00     0.027 H 
ATOM     51  H   LIG d   1       7.076  -1.156  -2.460  0.00  0.00     0.027 H 
BRANCH  49  52
ATOM     52  C   LIG d   1       4.941  -0.984  -2.228  0.00  0.00    -0.013 C 
ATOM     53  H   LIG d   1       5.127  -1.337  -1.214  0.00  0.00     0.033 H 
ATOM     54  H   LIG d   1       4.709   0.081  -2.205  0.00  0.00     0.033 H 
BRANCH  52  55
ATOM     55  C   LIG d   1       3.776  -1.738  -2.816  0.00  0.00     0.042 C 
ATOM     56  O   LIG d   1       2.714  -1.183  -2.975  0.00  0.00    -0.550 OA
ATOM     57  O   LIG d   1       3.918  -3.028  -3.163  0.00  0.00    -0.550 OA
ENDBRANCH  52  55
ENDBRANCH  49  52
ENDBRANCH  43  49
ENDBRANCH   1  43
BRANCH   7  58
ATOM     58  C   LIG d   1       7.630  -1.908  -7.290  0.00  0.00    -0.059 C 
ATOM     59  H   LIG d   1       8.596  -1.450  -7.069  0.00  0.00     0.024 H 
ATOM     60  H   LIG d   1       7.657  -2.963  -7.016  0.00  0.00     0.024 H 
ATOM     61  H   LIG d   1       7.419  -1.814  -8.355  0.00  0.00     0.024 H 
ENDBRANCH   7  58
BRANCH  18  62
ATOM     62  C   LIG d   1       4.316  -3.066 -10.547  0.00  0.00    -0.059 C 
ATOM     63  H   LIG d   1       5.145  -3.564 -10.043  0.00  0.00     0.024 H 
ATOM     64  H   LIG d   1       3.450  -3.727 -10.562  0.00  0.00     0.024 H 
ATOM     65  H   LIG d   1       4.606  -2.822 -11.569  0.00  0.00     0.024 H 
ENDBRANCH  18  62
TORSDOF 7
ENDMDL
MODEL 8
REMARK VINA RESULT:      -5.4      8.689     12.390
REMARK  7 active torsions:
REMARK  status: ('A' for Active; 'I' for Inactive)
REMARK    1  A    between atoms: C_1  and  C_2 
REMARK    2  A    between atoms: C_2  and  C_4 
REMARK    3  A    between atoms: C_2  and  C_8 
REMARK    4  A    between atoms: C_4  and  C_5 
REMARK    5  A    between atoms: C_5  and  C_6 
REMARK    6  A    between atoms: C_14  and  C_31 
REMARK    7  A    between atoms: C_25  and  C_30 
ROOT
ATOM      1  C   LIG d   1      10.964   7.319  -2.096  0.00  0.00    -0.033 C 
ATOM      2  H   LIG d   1      11.968   7.550  -1.745  0.00  0.00     0.031 H 
ATOM      3  C   LIG d   1      10.528   8.336  -3.184  0.00  0.00    -0.049 C 
ATOM      4  C   LIG d   1       9.882   7.509  -4.328  0.00  0.00    -0.049 C 
ATOM      5  C   LIG d   1       9.706   6.111  -3.713  0.00  0.00    -0.032 C 
ATOM      6  H   LIG d   1       8.815   6.144  -3.053  0.00  0.00     0.031 H 
ATOM      7  C   LIG d   1      10.974   5.974  -2.848  0.00  0.00    -0.026 C 
ATOM      8  C   LIG d   1      10.948   4.732  -2.003  0.00  0.00    -0.047 C 
ATOM      9  C   LIG d   1      10.234   3.579  -2.728  0.00  0.00    -0.049 C 
ATOM     10  C   LIG d   1      10.313   3.744  -4.239  0.00  0.00    -0.032 C 
ATOM     11  H   LIG d   1      11.355   3.846  -4.543  0.00  0.00     0.031 H 
ATOM     12  C   LIG d   1       9.524   4.977  -4.677  0.00  0.00    -0.034 C 
ATOM     13  H   LIG d   1       8.451   4.698  -4.636  0.00  0.00     0.031 H 
ATOM     14  C   LIG d   1       9.831   5.327  -6.127  0.00  0.00    -0.049 C 
ATOM     15  C   LIG d   1       9.778   4.045  -6.975  0.00  0.00    -0.049 C 
ATOM     16  C   LIG d   1       8.998   2.990  -6.203  0.00  0.00    -0.035 C 
ATOM     17  H   LIG d   1       8.069   3.462  -5.843  0.00  0.00     0.031 H 
ATOM     18  C   LIG d   1       9.784   2.518  -4.980  0.00  0.00    -0.026 C 
ATOM     19  C   LIG d   1       8.877   1.651  -4.118  0.00  0.00    -0.047 C 
ATOM     20  C   LIG d   1       8.392   0.447  -4.933  0.00  0.00    -0.052 C 
ATOM     21  C   LIG d   1       7.685   0.888  -6.210  0.00  0.00    -0.053 C 
ATOM     22  C   LIG d   1       8.581   1.800  -7.055  0.00  0.00    -0.050 C 
ATOM     23  H   LIG d   1      11.395   8.880  -3.555  0.00  0.00     0.027 H 
ATOM     24  H   LIG d   1       9.799   9.032  -2.767  0.00  0.00     0.027 H 
ATOM     25  H   LIG d   1      10.529   7.482  -5.202  0.00  0.00     0.027 H 
ATOM     26  H   LIG d   1       8.910   7.928  -4.596  0.00  0.00     0.027 H 
ATOM     27  H   LIG d   1      10.456   4.893  -1.041  0.00  0.00     0.027 H 
ATOM     28  H   LIG d   1      11.982   4.419  -1.785  0.00  0.00     0.027 H 
ATOM     29  H   LIG d   1       9.184   3.558  -2.418  0.00  0.00     0.027 H 
ATOM     30  H   LIG d   1      10.698   2.633  -2.437  0.00  0.00     0.027 H 
ATOM     31  H   LIG d   1      10.822   5.765  -6.207  0.00  0.00     0.027 H 
ATOM     32  H   LIG d   1       9.086   6.030  -6.499  0.00  0.00     0.027 H 
ATOM     33  H   LIG d   1       9.262   4.263  -7.914  0.00  0.00     0.027 H 
ATOM     34  H   LIG d   1      10.787   3.706  -7.190  0.00  0.00     0.027 H 
ATOM     35  H   LIG d   1       8.018   2.237  -3.783  0.00  0.00     0.027 H 
ATOM     36  H   LIG d   1       9.427   1.298  -3.242  0.00  0.00     0.027 H 
ATOM     37  H   LIG d   1       7.681  -0.124  -4.321  0.00  0.00     0.026 H 
ATOM     38  H   LIG d   1       9.221  -0.214  -5.176  0.00  0.00     0.026 H 
ATOM     39  H   LIG d   1       6.773   1.427  -5.948  0.00  0.00     0.026 H 
ATOM     40  H   LIG d   1       7.418   0.007  -6.796  0.00  0.00     0.026 H 
ATOM     41  H   LIG d   1       8.002   2.164  -7.913  0.00  0.00     0.027 H 
ATOM     42  H   LIG d   1       9.439   1.252  -7.428  0.00  0.00     0.027 H 
ENDROOT
BRANCH   1  43
ATOM     43  C   LIG d   1       9.967   7.328  -0.944  0.00  0.00    -0.040 C 
ATOM     44  H   LIG d   1       9.275   6.493  -1.055  0.00  0.00     0.030 H 
BRANCH  43  45
ATOM     45  C   LIG d   1       9.185   8.643  -0.957  0.00  0.00    -0.062 C 
ATOM     46  H   LIG d   1       9.610   9.325  -0.221  0.00  0.00     0.023 H 
ATOM     47  H   LIG d   1       9.246   9.093  -1.947  0.00  0.00     0.023 H 
ATOM     48  H   LIG d   1       8.142   8.448  -0.711  0.00  0.00     0.023 H 
ENDBRANCH  43  45
BRANCH  43  49
ATOM     49  C   LIG d   1      10.718   7.194   0.382  0.00  0.00    -0.045 C 
ATOM     50  H   LIG d   1      10.030   7.364   1.209  0.00  0.00     0.027 H 
ATOM     51  H   LIG d   1      11.141   6.192   0.461  0.00  0.00     0.027 H 
BRANCH  49  52
ATOM     52  C   LIG d   1      11.846   8.227   0.435  0.00  0.00    -0.013 C 
ATOM     53  H   LIG d   1      12.808   7.718   0.387  0.00  0.00     0.033 H 
ATOM     54  H   LIG d   1      11.753   8.910  -0.410  0.00  0.00     0.033 H 
BRANCH  52  55
ATOM     55  C   LIG d   1      11.754   9.006   1.721  0.00  0.00     0.042 C 
ATOM     56  O   LIG d   1      11.758   8.425   2.781  0.00  0.00    -0.550 OA
ATOM     57  O   LIG d   1      11.665  10.345   1.690  0.00  0.00    -0.550 OA
ENDBRANCH  52  55
ENDBRANCH  49  52
ENDBRANCH  43  49
ENDBRANCH   1  43
BRANCH   7  58
ATOM     58  C   LIG d   1      12.248   5.992  -3.711  0.00  0.00    -0.059 C 
ATOM     59  H   LIG d   1      12.657   4.982  -3.777  0.00  0.00     0.024 H 
ATOM     60  H   LIG d   1      12.006   6.351  -4.711  0.00  0.00     0.024 H 
ATOM     61  H   LIG d   1      12.986   6.653  -3.256  0.00  0.00     0.024 H 
ENDBRANCH   7  58
BRANCH  18  62
ATOM     62  C   LIG d   1      11.000   1.695  -5.418  0.00  0.00    -0.059 C 
ATOM     63  H   LIG d   1      10.893   1.422  -6.468  0.00  0.00     0.024 H 
ATOM     64  H   LIG d   1      11.905   2.287  -5.286  0.00  0.00     0.024 H 
ATOM     65  H   LIG d   1      11.063   0.792  -4.811  0.00  0.00     0.024 H 
ENDBRANCH  18  62
TORSDOF 7
ENDMDL
MODEL 9
REMARK VINA RESULT:      -5.3     11.030     13.472
REMARK  7 active torsions:
REMARK  status: ('A' for Active; 'I' for Inactive)
REMARK    1  A    between atoms: C_1  and  C_2 
REMARK    2  A    between atoms: C_2  and  C_4 
REMARK    3  A    between atoms: C_2  and  C_8 
REMARK    4  A    between atoms: C_4  and  C_5 
REMARK    5  A    between atoms: C_5  and  C_6 
REMARK    6  A    between atoms: C_14  and  C_31 
REMARK    7  A    between atoms: C_25  and  C_30 
ROOT
ATOM      1  C   LIG d   1      10.772   8.388  -2.482  0.00  0.00    -0.033 C 
ATOM      2  H   LIG d   1      11.713   8.405  -1.936  0.00  0.00     0.031 H 
ATOM      3  C   LIG d   1      10.291   9.836  -2.768  0.00  0.00    -0.049 C 
ATOM      4  C   LIG d   1       9.834   9.865  -4.251  0.00  0.00    -0.049 C 
ATOM      5  C   LIG d   1       9.790   8.380  -4.649  0.00  0.00    -0.032 C 
ATOM      6  H   LIG d   1       8.858   7.949  -4.230  0.00  0.00     0.031 H 
ATOM      7  C   LIG d   1      11.001   7.804  -3.890  0.00  0.00    -0.026 C 
ATOM      8  C   LIG d   1      11.070   6.307  -3.993  0.00  0.00    -0.047 C 
ATOM      9  C   LIG d   1      10.556   5.818  -5.357  0.00  0.00    -0.049 C 
ATOM     10  C   LIG d   1      10.720   6.889  -6.426  0.00  0.00    -0.032 C 
ATOM     11  H   LIG d   1      11.760   7.214  -6.463  0.00  0.00     0.031 H 
ATOM     12  C   LIG d   1       9.817   8.083  -6.118  0.00  0.00    -0.034 C 
ATOM     13  H   LIG d   1       8.786   7.782  -6.397  0.00  0.00     0.031 H 
ATOM     14  C   LIG d   1      10.178   9.274  -6.996  0.00  0.00    -0.049 C 
ATOM     15  C   LIG d   1      10.344   8.795  -8.448  0.00  0.00    -0.049 C 
ATOM     16  C   LIG d   1       9.648   7.449  -8.592  0.00  0.00    -0.035 C 
ATOM     17  H   LIG d   1       8.645   7.544  -8.144  0.00  0.00     0.031 H 
ATOM     18  C   LIG d   1      10.400   6.363  -7.822  0.00  0.00    -0.026 C 
ATOM     19  C   LIG d   1       9.549   5.100  -7.799  0.00  0.00    -0.047 C 
ATOM     20  C   LIG d   1       9.274   4.638  -9.234  0.00  0.00    -0.052 C 
ATOM     21  C   LIG d   1       8.609   5.739 -10.054  0.00  0.00    -0.053 C 
ATOM     22  C   LIG d   1       9.442   7.025 -10.039  0.00  0.00    -0.050 C 
ATOM     23  H   LIG d   1      11.107  10.538  -2.611  0.00  0.00     0.027 H 
ATOM     24  H   LIG d   1       9.454  10.082  -2.113  0.00  0.00     0.027 H 
ATOM     25  H   LIG d   1      10.538  10.421  -4.865  0.00  0.00     0.027 H 
ATOM     26  H   LIG d   1       8.838  10.307  -4.331  0.00  0.00     0.027 H 
ATOM     27  H   LIG d   1      10.496   5.809  -3.208  0.00  0.00     0.027 H 
ATOM     28  H   LIG d   1      12.117   5.983  -3.877  0.00  0.00     0.027 H 
ATOM     29  H   LIG d   1       9.499   5.552  -5.266  0.00  0.00     0.027 H 
ATOM     30  H   LIG d   1      11.113   4.922  -5.647  0.00  0.00     0.027 H 
ATOM     31  H   LIG d   1      11.111   9.720  -6.660  0.00  0.00     0.027 H 
ATOM     32  H   LIG d   1       9.380  10.014  -6.954  0.00  0.00     0.027 H 
ATOM     33  H   LIG d   1       9.872   9.521  -9.115  0.00  0.00     0.027 H 
ATOM     34  H   LIG d   1      11.400   8.718  -8.690  0.00  0.00     0.027 H 
ATOM     35  H   LIG d   1       8.602   5.304  -7.292  0.00  0.00     0.027 H 
ATOM     36  H   LIG d   1      10.076   4.309  -7.258  0.00  0.00     0.027 H 
ATOM     37  H   LIG d   1       8.599   3.774  -9.199  0.00  0.00     0.026 H 
ATOM     38  H   LIG d   1      10.193   4.318  -9.719  0.00  0.00     0.026 H 
ATOM     39  H   LIG d   1       7.621   5.948  -9.640  0.00  0.00     0.026 H 
ATOM     40  H   LIG d   1       8.494   5.400 -11.085  0.00  0.00     0.026 H 
ATOM     41  H   LIG d   1       8.884   7.811 -10.562  0.00  0.00     0.027 H 
ATOM     42  H   LIG d   1      10.385   6.874 -10.553  0.00  0.00     0.027 H 
ENDROOT
BRANCH   1  43
ATOM     43  C   LIG d   1       9.704   7.626  -1.709  0.00  0.00    -0.040 C 
ATOM     44  H   LIG d   1       9.078   7.069  -2.405  0.00  0.00     0.030 H 
BRANCH  43  45
ATOM     45  C   LIG d   1       8.838   8.616  -0.926  0.00  0.00    -0.062 C 
ATOM     46  H   LIG d   1       8.741   8.277   0.105  0.00  0.00     0.023 H 
ATOM     47  H   LIG d   1       9.305   9.600  -0.942  0.00  0.00     0.023 H 
ATOM     48  H   LIG d   1       7.851   8.676  -1.383  0.00  0.00     0.023 H 
ENDBRANCH  43  45
BRANCH  43  49
ATOM     49  C   LIG d   1      10.375   6.655  -0.736  0.00  0.00    -0.045 C 
ATOM     50  H   LIG d   1       9.618   6.025  -0.271  0.00  0.00     0.027 H 
ATOM     51  H   LIG d   1      11.085   6.029  -1.278  0.00  0.00     0.027 H 
BRANCH  49  52
ATOM     52  C   LIG d   1      11.115   7.446   0.345  0.00  0.00    -0.013 C 
ATOM     53  H   LIG d   1      12.151   7.591   0.044  0.00  0.00     0.033 H 
ATOM     54  H   LIG d   1      10.635   8.416   0.478  0.00  0.00     0.033 H 
BRANCH  52  55
ATOM     55  C   LIG d   1      11.072   6.683   1.644  0.00  0.00     0.042 C 
ATOM     56  O   LIG d   1      10.715   5.528   1.655  0.00  0.00    -0.550 OA
ATOM     57  O   LIG d   1      11.428   7.287   2.789  0.00  0.00    -0.550 OA
ENDBRANCH  52  55
ENDBRANCH  49  52
ENDBRANCH  43  49
ENDBRANCH   1  43
BRANCH   7  58
ATOM     58  C   LIG d   1      12.320   8.424  -4.386  0.00  0.00    -0.059 C 
ATOM     59  H   LIG d   1      13.124   8.168  -3.693  0.00  0.00     0.024 H 
ATOM     60  H   LIG d   1      12.556   8.034  -5.376  0.00  0.00     0.024 H 
ATOM     61  H   LIG d   1      12.216   9.508  -4.436  0.00  0.00     0.024 H 
ENDBRANCH   7  58
BRANCH  18  62
ATOM     62  C   LIG d   1      11.735   6.057  -8.507  0.00  0.00    -0.059 C 
ATOM     63  H   LIG d   1      12.332   5.409  -7.865  0.00  0.00     0.024 H 
ATOM     64  H   LIG d   1      11.549   5.555  -9.457  0.00  0.00     0.024 H 
ATOM     65  H   LIG d   1      12.273   6.988  -8.686  0.00  0.00     0.024 H 
ENDBRANCH  18  62
TORSDOF 7
ENDMDL
