MODEL 1
REMARK VINA RESULT:      -6.4      0.000      0.000
REMARK  6 active torsions:
REMARK  status: ('A' for Active; 'I' for Inactive)
REMARK    1  A    between atoms: C_1  and  C_2 
REMARK    2  A    between atoms: C_17  and  C_29 
REMARK    3  A    between atoms: C_22  and  C_23 
REMARK    4  A    between atoms: C_22  and  O_28 
REMARK    5  A    between atoms: C_23  and  C_24 
REMARK    6  A    between atoms: C_24  and  C_25 
ROOT
ATOM      1  C   LIG d   1       4.923  -1.652  -4.092  0.00  0.00    -0.003 C 
ATOM      2  C   LIG d   1       3.812  -1.848  -3.058  0.00  0.00    -0.036 C 
ATOM      3  C   LIG d   1       3.160  -0.490  -2.773  0.00  0.00     0.011 C 
ATOM      4  C   LIG d   1       4.220   0.478  -2.313  0.00  0.00     0.156 C 
ATOM      5  O   LIG d   1       3.918   1.393  -1.574  0.00  0.00    -0.293 OA
ATOM      6  C   LIG d   1       5.552   0.332  -2.731  0.00  0.00    -0.015 C 
ATOM      7  C   LIG d   1       5.933  -0.664  -3.566  0.00  0.00    -0.038 C 
ATOM      8  C   LIG d   1       7.335  -0.786  -3.959  0.00  0.00    -0.062 C 
ATOM      9  C   LIG d   1       7.739  -1.754  -4.780  0.00  0.00    -0.080 C 
ATOM     10  C   LIG d   1       6.772  -2.759  -5.342  0.00  0.00    -0.016 C 
ATOM     11  H   LIG d   1       6.354  -2.353  -6.262  0.00  0.00     0.035 H 
ATOM     12  C   LIG d   1       5.627  -2.986  -4.356  0.00  0.00    -0.025 C 
ATOM     13  H   LIG d   1       6.019  -3.387  -3.421  0.00  0.00     0.032 H 
ATOM     14  C   LIG d   1       4.635  -3.969  -4.988  0.00  0.00    -0.048 C 
ATOM     15  C   LIG d   1       5.341  -5.308  -5.188  0.00  0.00    -0.044 C 
ATOM     16  C   LIG d   1       6.521  -5.162  -6.153  0.00  0.00     0.000 C 
ATOM     17  C   LIG d   1       7.471  -4.054  -5.671  0.00  0.00    -0.026 C 
ATOM     18  H   LIG d   1       8.217  -3.873  -6.446  0.00  0.00     0.031 H 
ATOM     19  C   LIG d   1       8.178  -4.675  -4.451  0.00  0.00    -0.046 C 
ATOM     20  C   LIG d   1       8.409  -6.144  -4.876  0.00  0.00    -0.023 C 
ATOM     21  C   LIG d   1       7.381  -6.446  -6.001  0.00  0.00     0.072 C 
ATOM     22  H   LIG d   1       3.065  -2.537  -3.450  0.00  0.00     0.028 H 
ATOM     23  H   LIG d   1       4.236  -2.249  -2.138  0.00  0.00     0.028 H 
ATOM     24  H   LIG d   1       2.691  -0.113  -3.682  0.00  0.00     0.035 H 
ATOM     25  H   LIG d   1       2.407  -0.604  -1.993  0.00  0.00     0.035 H 
ATOM     26  H   LIG d   1       6.293   1.035  -2.378  0.00  0.00     0.066 H 
ATOM     27  H   LIG d   1       8.057  -0.078  -3.579  0.00  0.00     0.062 H 
ATOM     28  H   LIG d   1       8.783  -1.817  -5.049  0.00  0.00     0.058 H 
ATOM     29  H   LIG d   1       3.779  -4.103  -4.326  0.00  0.00     0.027 H 
ATOM     30  H   LIG d   1       4.300  -3.584  -5.951  0.00  0.00     0.027 H 
ATOM     31  H   LIG d   1       5.707  -5.669  -4.228  0.00  0.00     0.027 H 
ATOM     32  H   LIG d   1       4.632  -6.029  -5.596  0.00  0.00     0.027 H 
ATOM     33  H   LIG d   1       9.128  -4.176  -4.262  0.00  0.00     0.027 H 
ATOM     34  H   LIG d   1       7.536  -4.628  -3.571  0.00  0.00     0.027 H 
ATOM     35  H   LIG d   1       9.417  -6.262  -5.274  0.00  0.00     0.029 H 
ATOM     36  H   LIG d   1       8.263  -6.807  -4.024  0.00  0.00     0.029 H 
ENDROOT
BRANCH  21  37
ATOM     37  C   LIG d   1       6.500  -7.620  -5.569  0.00  0.00    -0.018 C 
ATOM     38  H   LIG d   1       7.039  -8.230  -4.843  0.00  0.00     0.030 H 
ATOM     39  H   LIG d   1       5.584  -7.241  -5.117  0.00  0.00     0.030 H 
BRANCH  37  40
ATOM     40  C   LIG d   1       6.152  -8.472  -6.791  0.00  0.00    -0.011 C 
ATOM     41  H   LIG d   1       6.434  -7.939  -7.699  0.00  0.00     0.033 H 
ATOM     42  H   LIG d   1       6.693  -9.417  -6.743  0.00  0.00     0.033 H 
BRANCH  40  43
ATOM     43  C   LIG d   1       4.669  -8.742  -6.809  0.00  0.00     0.042 C 
ATOM     44  O   LIG d   1       3.918  -7.985  -7.400  0.00  0.00    -0.550 OA
ATOM     45  O   LIG d   1       4.221  -9.718  -6.231  0.00  0.00    -0.550 OA
ENDBRANCH  40  43
ENDBRANCH  37  40
ENDBRANCH  21  37
BRANCH  21  46
ATOM     46  O   LIG d   1       8.033  -6.749  -7.236  0.00  0.00    -0.388 OA
ATOM     47  H   LIG d   1       8.296  -7.675  -7.325  0.00  0.00     0.210 HD
ENDBRANCH  21  46
BRANCH  16  48
ATOM     48  C   LIG d   1       6.049  -4.962  -7.595  0.00  0.00    -0.057 C 
ATOM     49  H   LIG d   1       5.353  -5.757  -7.863  0.00  0.00     0.024 H 
ATOM     50  H   LIG d   1       5.551  -3.997  -7.683  0.00  0.00     0.024 H 
ATOM     51  H   LIG d   1       6.908  -4.990  -8.266  0.00  0.00     0.024 H 
ENDBRANCH  16  48
BRANCH   1  52
ATOM     52  C   LIG d   1       4.321  -1.124  -5.396  0.00  0.00    -0.055 C 
ATOM     53  H   LIG d   1       4.275  -1.932  -6.128  0.00  0.00     0.024 H 
ATOM     54  H   LIG d   1       3.317  -0.747  -5.206  0.00  0.00     0.024 H 
ATOM     55  H   LIG d   1       4.945  -0.319  -5.783  0.00  0.00     0.024 H 
ENDBRANCH   1  52
TORSDOF 6
ENDMDL
MODEL 2
REMARK VINA RESULT:      -6.0     10.260     13.061
REMARK  6 active torsions:
REMARK  status: ('A' for Active; 'I' for Inactive)
REMARK    1  A    between atoms: C_1  and  C_2 
REMARK    2  A    between atoms: C_17  and  C_29 
REMARK    3  A    between atoms: C_22  and  C_23 
REMARK    4  A    between atoms: C_22  and  O_28 
REMARK    5  A    between atoms: C_23  and  C_24 
REMARK    6  A    between atoms: C_24  and  C_25 
ROOT
ATOM      1  C   LIG d   1      10.256   6.921  -6.907  0.00  0.00    -0.003 C 
ATOM      2  C   LIG d   1       9.331   8.121  -7.127  0.00  0.00    -0.036 C 
ATOM      3  C   LIG d   1       9.030   8.242  -8.625  0.00  0.00     0.011 C 
ATOM      4  C   LIG d   1      10.329   8.362  -9.380  0.00  0.00     0.156 C 
ATOM      5  O   LIG d   1      10.356   8.957 -10.439  0.00  0.00    -0.293 OA
ATOM      6  C   LIG d   1      11.508   7.794  -8.872  0.00  0.00    -0.015 C 
ATOM      7  C   LIG d   1      11.523   7.110  -7.702  0.00  0.00    -0.038 C 
ATOM      8  C   LIG d   1      12.779   6.551  -7.205  0.00  0.00    -0.062 C 
ATOM      9  C   LIG d   1      12.824   5.872  -6.060  0.00  0.00    -0.080 C 
ATOM     10  C   LIG d   1      11.589   5.647  -5.232  0.00  0.00    -0.016 C 
ATOM     11  H   LIG d   1      11.105   4.736  -5.584  0.00  0.00     0.035 H 
ATOM     12  C   LIG d   1      10.615   6.809  -5.423  0.00  0.00    -0.025 C 
ATOM     13  H   LIG d   1      11.078   7.736  -5.085  0.00  0.00     0.032 H 
ATOM     14  C   LIG d   1       9.348   6.514  -4.613  0.00  0.00    -0.048 C 
ATOM     15  C   LIG d   1       9.720   6.464  -3.133  0.00  0.00    -0.044 C 
ATOM     16  C   LIG d   1      10.714   5.332  -2.859  0.00  0.00     0.000 C 
ATOM     17  C   LIG d   1      11.940   5.464  -3.777  0.00  0.00    -0.026 C 
ATOM     18  H   LIG d   1      12.556   4.572  -3.665  0.00  0.00     0.031 H 
ATOM     19  C   LIG d   1      12.711   6.665  -3.197  0.00  0.00    -0.046 C 
ATOM     20  C   LIG d   1      12.559   6.487  -1.668  0.00  0.00    -0.023 C 
ATOM     21  C   LIG d   1      11.308   5.594  -1.449  0.00  0.00     0.072 C 
ATOM     22  H   LIG d   1       8.401   7.970  -6.579  0.00  0.00     0.028 H 
ATOM     23  H   LIG d   1       9.822   9.029  -6.779  0.00  0.00     0.028 H 
ATOM     24  H   LIG d   1       8.493   7.354  -8.962  0.00  0.00     0.035 H 
ATOM     25  H   LIG d   1       8.421   9.128  -8.804  0.00  0.00     0.035 H 
ATOM     26  H   LIG d   1      12.427   7.904  -9.429  0.00  0.00     0.066 H 
ATOM     27  H   LIG d   1      13.684   6.690  -7.775  0.00  0.00     0.062 H 
ATOM     28  H   LIG d   1      13.768   5.475  -5.718  0.00  0.00     0.058 H 
ATOM     29  H   LIG d   1       8.615   7.304  -4.779  0.00  0.00     0.027 H 
ATOM     30  H   LIG d   1       8.933   5.555  -4.919  0.00  0.00     0.027 H 
ATOM     31  H   LIG d   1      10.170   7.413  -2.843  0.00  0.00     0.027 H 
ATOM     32  H   LIG d   1       8.818   6.300  -2.543  0.00  0.00     0.027 H 
ATOM     33  H   LIG d   1      13.761   6.624  -3.486  0.00  0.00     0.027 H 
ATOM     34  H   LIG d   1      12.259   7.603  -3.520  0.00  0.00     0.027 H 
ATOM     35  H   LIG d   1      13.435   5.980  -1.264  0.00  0.00     0.029 H 
ATOM     36  H   LIG d   1      12.436   7.458  -1.190  0.00  0.00     0.029 H 
ENDROOT
BRANCH  21  37
ATOM     37  C   LIG d   1      10.298   6.353  -0.586  0.00  0.00    -0.018 C 
ATOM     38  H   LIG d   1       9.659   6.962  -1.225  0.00  0.00     0.030 H 
ATOM     39  H   LIG d   1       9.686   5.641  -0.032  0.00  0.00     0.030 H 
BRANCH  37  40
ATOM     40  C   LIG d   1      11.045   7.256   0.397  0.00  0.00    -0.011 C 
ATOM     41  H   LIG d   1      12.070   7.400   0.053  0.00  0.00     0.033 H 
ATOM     42  H   LIG d   1      10.543   8.222   0.458  0.00  0.00     0.033 H 
BRANCH  40  43
ATOM     43  C   LIG d   1      11.060   6.612   1.760  0.00  0.00     0.042 C 
ATOM     44  O   LIG d   1      11.427   7.250   2.732  0.00  0.00    -0.550 OA
ATOM     45  O   LIG d   1      10.705   5.452   1.890  0.00  0.00    -0.550 OA
ENDBRANCH  40  43
ENDBRANCH  37  40
ENDBRANCH  21  37
BRANCH  21  46
ATOM     46  O   LIG d   1      11.654   4.355  -0.825  0.00  0.00    -0.388 OA
ATOM     47  H   LIG d   1      12.011   4.451   0.068  0.00  0.00     0.210 HD
ENDBRANCH  21  46
BRANCH  16  48
ATOM     48  C   LIG d   1      10.044   3.960  -2.948  0.00  0.00    -0.057 C 
ATOM     49  H   LIG d   1      10.154   3.566  -3.958  0.00  0.00     0.024 H 
ATOM     50  H   LIG d   1      10.514   3.279  -2.239  0.00  0.00     0.024 H 
ATOM     51  H   LIG d   1       8.984   4.057  -2.709  0.00  0.00     0.024 H 
ENDBRANCH  16  48
BRANCH   1  52
ATOM     52  C   LIG d   1       9.552   5.641  -7.361  0.00  0.00    -0.055 C 
ATOM     53  H   LIG d   1       8.518   5.869  -7.621  0.00  0.00     0.024 H 
ATOM     54  H   LIG d   1      10.065   5.234  -8.232  0.00  0.00     0.024 H 
ATOM     55  H   LIG d   1       9.571   4.910  -6.553  0.00  0.00     0.024 H 
ENDBRANCH   1  52
TORSDOF 6
ENDMDL
MODEL 3
REMARK VINA RESULT:      -5.9      3.630      7.394
REMARK  6 active torsions:
REMARK  status: ('A' for Active; 'I' for Inactive)
REMARK    1  A    between atoms: C_1  and  C_2 
REMARK    2  A    between atoms: C_17  and  C_29 
REMARK    3  A    between atoms: C_22  and  C_23 
REMARK    4  A    between atoms: C_22  and  O_28 
REMARK    5  A    between atoms: C_23  and  C_24 
REMARK    6  A    between atoms: C_24  and  C_25 
ROOT
ATOM      1  C   LIG d   1       6.798  -0.648  -9.144  0.00  0.00    -0.003 C 
ATOM      2  C   LIG d   1       8.234  -0.121  -9.090  0.00  0.00    -0.036 C 
ATOM      3  C   LIG d   1       8.650   0.319 -10.497  0.00  0.00     0.011 C 
ATOM      4  C   LIG d   1       8.492  -0.843 -11.443  0.00  0.00     0.156 C 
ATOM      5  O   LIG d   1       9.198  -0.916 -12.429  0.00  0.00    -0.293 OA
ATOM      6  C   LIG d   1       7.538  -1.843 -11.196  0.00  0.00    -0.015 C 
ATOM      7  C   LIG d   1       6.720  -1.796 -10.118  0.00  0.00    -0.038 C 
ATOM      8  C   LIG d   1       5.753  -2.870  -9.893  0.00  0.00    -0.062 C 
ATOM      9  C   LIG d   1       4.934  -2.850  -8.843  0.00  0.00    -0.080 C 
ATOM     10  C   LIG d   1       4.963  -1.724  -7.847  0.00  0.00    -0.016 C 
ATOM     11  H   LIG d   1       4.293  -0.940  -8.199  0.00  0.00     0.035 H 
ATOM     12  C   LIG d   1       6.375  -1.144  -7.759  0.00  0.00    -0.025 C 
ATOM     13  H   LIG d   1       7.067  -1.912  -7.415  0.00  0.00     0.032 H 
ATOM     14  C   LIG d   1       6.350   0.036  -6.781  0.00  0.00    -0.048 C 
ATOM     15  C   LIG d   1       5.982  -0.491  -5.396  0.00  0.00    -0.044 C 
ATOM     16  C   LIG d   1       4.582  -1.111  -5.403  0.00  0.00     0.000 C 
ATOM     17  C   LIG d   1       4.480  -2.187  -6.495  0.00  0.00    -0.026 C 
ATOM     18  H   LIG d   1       3.440  -2.504  -6.575  0.00  0.00     0.031 H 
ATOM     19  C   LIG d   1       5.307  -3.362  -5.939  0.00  0.00    -0.046 C 
ATOM     20  C   LIG d   1       4.964  -3.362  -4.431  0.00  0.00    -0.023 C 
ATOM     21  C   LIG d   1       4.454  -1.934  -4.093  0.00  0.00     0.072 C 
ATOM     22  H   LIG d   1       8.285   0.730  -8.411  0.00  0.00     0.028 H 
ATOM     23  H   LIG d   1       8.899  -0.911  -8.742  0.00  0.00     0.028 H 
ATOM     24  H   LIG d   1       8.016   1.144 -10.824  0.00  0.00     0.035 H 
ATOM     25  H   LIG d   1       9.692   0.640 -10.485  0.00  0.00     0.035 H 
ATOM     26  H   LIG d   1       7.453  -2.670 -11.886  0.00  0.00     0.066 H 
ATOM     27  H   LIG d   1       5.701  -3.692 -10.591  0.00  0.00     0.062 H 
ATOM     28  H   LIG d   1       4.233  -3.660  -8.705  0.00  0.00     0.058 H 
ATOM     29  H   LIG d   1       7.334   0.502  -6.745  0.00  0.00     0.027 H 
ATOM     30  H   LIG d   1       5.608   0.764  -7.104  0.00  0.00     0.027 H 
ATOM     31  H   LIG d   1       6.707  -1.247  -5.095  0.00  0.00     0.027 H 
ATOM     32  H   LIG d   1       6.006   0.332  -4.682  0.00  0.00     0.027 H 
ATOM     33  H   LIG d   1       5.002  -4.300  -6.402  0.00  0.00     0.027 H 
ATOM     34  H   LIG d   1       6.372  -3.186  -6.090  0.00  0.00     0.027 H 
ATOM     35  H   LIG d   1       4.171  -4.081  -4.230  0.00  0.00     0.029 H 
ATOM     36  H   LIG d   1       5.850  -3.609  -3.847  0.00  0.00     0.029 H 
ENDROOT
BRANCH  21  37
ATOM     37  C   LIG d   1       5.343  -1.331  -3.004  0.00  0.00    -0.018 C 
ATOM     38  H   LIG d   1       5.972  -2.112  -2.575  0.00  0.00     0.030 H 
ATOM     39  H   LIG d   1       5.973  -0.555  -3.437  0.00  0.00     0.030 H 
BRANCH  37  40
ATOM     40  C   LIG d   1       4.466  -0.724  -1.908  0.00  0.00    -0.011 C 
ATOM     41  H   LIG d   1       3.448  -1.102  -2.004  0.00  0.00     0.033 H 
ATOM     42  H   LIG d   1       4.863  -0.999  -0.929  0.00  0.00     0.033 H 
BRANCH  40  43
ATOM     43  C   LIG d   1       4.459   0.777  -2.043  0.00  0.00     0.042 C 
ATOM     44  O   LIG d   1       5.506   1.378  -2.210  0.00  0.00    -0.550 OA
ATOM     45  O   LIG d   1       3.406   1.389  -1.985  0.00  0.00    -0.550 OA
ENDBRANCH  40  43
ENDBRANCH  37  40
ENDBRANCH  21  37
BRANCH  21  46
ATOM     46  O   LIG d   1       3.092  -1.956  -3.659  0.00  0.00    -0.388 OA
ATOM     47  H   LIG d   1       2.962  -1.636  -2.756  0.00  0.00     0.210 HD
ENDBRANCH  21  46
BRANCH  16  48
ATOM     48  C   LIG d   1       3.493  -0.041  -5.511  0.00  0.00    -0.057 C 
ATOM     49  H   LIG d   1       3.700   0.603  -6.365  0.00  0.00     0.024 H 
ATOM     50  H   LIG d   1       2.524  -0.522  -5.643  0.00  0.00     0.024 H 
ATOM     51  H   LIG d   1       3.480   0.557  -4.599  0.00  0.00     0.024 H 
ENDBRANCH  16  48
BRANCH   1  52
ATOM     52  C   LIG d   1       5.858   0.472  -9.596  0.00  0.00    -0.055 C 
ATOM     53  H   LIG d   1       6.332   1.437  -9.417  0.00  0.00     0.024 H 
ATOM     54  H   LIG d   1       5.647   0.362 -10.660  0.00  0.00     0.024 H 
ATOM     55  H   LIG d   1       4.927   0.414  -9.033  0.00  0.00     0.024 H 
ENDBRANCH   1  52
TORSDOF 6
ENDMDL
MODEL 4
REMARK VINA RESULT:      -5.8      2.196      7.489
REMARK  6 active torsions:
REMARK  status: ('A' for Active; 'I' for Inactive)
REMARK    1  A    between atoms: C_1  and  C_2 
REMARK    2  A    between atoms: C_17  and  C_29 
REMARK    3  A    between atoms: C_22  and  C_23 
REMARK    4  A    between atoms: C_22  and  O_28 
REMARK    5  A    between atoms: C_23  and  C_24 
REMARK    6  A    between atoms: C_24  and  C_25 
ROOT
ATOM      1  C   LIG d   1       8.372  -5.908  -4.953  0.00  0.00    -0.003 C 
ATOM      2  C   LIG d   1       9.204  -6.360  -3.751  0.00  0.00    -0.036 C 
ATOM      3  C   LIG d   1      10.008  -7.603  -4.147  0.00  0.00     0.011 C 
ATOM      4  C   LIG d   1       9.060  -8.669  -4.632  0.00  0.00     0.156 C 
ATOM      5  O   LIG d   1       9.359  -9.840  -4.512  0.00  0.00    -0.293 OA
ATOM      6  C   LIG d   1       7.832  -8.322  -5.219  0.00  0.00    -0.015 C 
ATOM      7  C   LIG d   1       7.462  -7.030  -5.385  0.00  0.00    -0.038 C 
ATOM      8  C   LIG d   1       6.166  -6.718  -5.986  0.00  0.00    -0.062 C 
ATOM      9  C   LIG d   1       5.775  -5.457  -6.164  0.00  0.00    -0.080 C 
ATOM     10  C   LIG d   1       6.648  -4.301  -5.761  0.00  0.00    -0.016 C 
ATOM     11  H   LIG d   1       7.305  -4.062  -6.597  0.00  0.00     0.035 H 
ATOM     12  C   LIG d   1       7.518  -4.698  -4.568  0.00  0.00    -0.025 C 
ATOM     13  H   LIG d   1       6.885  -4.950  -3.717  0.00  0.00     0.032 H 
ATOM     14  C   LIG d   1       8.433  -3.517  -4.225  0.00  0.00    -0.048 C 
ATOM     15  C   LIG d   1       7.563  -2.341  -3.789  0.00  0.00    -0.044 C 
ATOM     16  C   LIG d   1       6.642  -1.892  -4.927  0.00  0.00     0.000 C 
ATOM     17  C   LIG d   1       5.818  -3.082  -5.447  0.00  0.00    -0.026 C 
ATOM     18  H   LIG d   1       5.285  -2.769  -6.345  0.00  0.00     0.031 H 
ATOM     19  C   LIG d   1       4.787  -3.335  -4.331  0.00  0.00    -0.046 C 
ATOM     20  C   LIG d   1       4.398  -1.912  -3.868  0.00  0.00    -0.023 C 
ATOM     21  C   LIG d   1       5.563  -0.976  -4.291  0.00  0.00     0.072 C 
ATOM     22  H   LIG d   1       9.886  -5.562  -3.458  0.00  0.00     0.028 H 
ATOM     23  H   LIG d   1       8.542  -6.603  -2.919  0.00  0.00     0.028 H 
ATOM     24  H   LIG d   1      10.707  -7.347  -4.944  0.00  0.00     0.035 H 
ATOM     25  H   LIG d   1      10.559  -7.972  -3.282  0.00  0.00     0.035 H 
ATOM     26  H   LIG d   1       7.167  -9.107  -5.548  0.00  0.00     0.066 H 
ATOM     27  H   LIG d   1       5.515  -7.523  -6.292  0.00  0.00     0.062 H 
ATOM     28  H   LIG d   1       4.811  -5.261  -6.608  0.00  0.00     0.058 H 
ATOM     29  H   LIG d   1       9.104  -3.797  -3.413  0.00  0.00     0.027 H 
ATOM     30  H   LIG d   1       9.014  -3.237  -5.104  0.00  0.00     0.027 H 
ATOM     31  H   LIG d   1       6.957  -2.639  -2.935  0.00  0.00     0.027 H 
ATOM     32  H   LIG d   1       8.205  -1.509  -3.499  0.00  0.00     0.027 H 
ATOM     33  H   LIG d   1       3.918  -3.863  -4.724  0.00  0.00     0.027 H 
ATOM     34  H   LIG d   1       5.239  -3.895  -3.512  0.00  0.00     0.027 H 
ATOM     35  H   LIG d   1       3.485  -1.594  -4.371  0.00  0.00     0.029 H 
ATOM     36  H   LIG d   1       4.256  -1.896  -2.788  0.00  0.00     0.029 H 
ENDROOT
BRANCH  21  37
ATOM     37  C   LIG d   1       6.126  -0.287  -3.046  0.00  0.00    -0.018 C 
ATOM     38  H   LIG d   1       5.653  -0.703  -2.156  0.00  0.00     0.030 H 
ATOM     39  H   LIG d   1       7.202  -0.449  -2.996  0.00  0.00     0.030 H 
BRANCH  37  40
ATOM     40  C   LIG d   1       5.839   1.214  -3.121  0.00  0.00    -0.011 C 
ATOM     41  H   LIG d   1       6.550   1.752  -2.493  0.00  0.00     0.033 H 
ATOM     42  H   LIG d   1       5.938   1.553  -4.153  0.00  0.00     0.033 H 
BRANCH  40  43
ATOM     43  C   LIG d   1       4.438   1.483  -2.636  0.00  0.00     0.042 C 
ATOM     44  O   LIG d   1       3.642   2.056  -3.361  0.00  0.00    -0.550 OA
ATOM     45  O   LIG d   1       4.101   1.128  -1.520  0.00  0.00    -0.550 OA
ENDBRANCH  40  43
ENDBRANCH  37  40
ENDBRANCH  21  37
BRANCH  21  46
ATOM     46  O   LIG d   1       5.129   0.002  -5.240  0.00  0.00    -0.388 OA
ATOM     47  H   LIG d   1       4.995   0.882  -4.863  0.00  0.00     0.210 HD
ENDBRANCH  21  46
BRANCH  16  48
ATOM     48  C   LIG d   1       7.420  -1.173  -6.032  0.00  0.00    -0.057 C 
ATOM     49  H   LIG d   1       6.846  -1.203  -6.958  0.00  0.00     0.024 H 
ATOM     50  H   LIG d   1       7.588  -0.137  -5.741  0.00  0.00     0.024 H 
ATOM     51  H   LIG d   1       8.379  -1.669  -6.182  0.00  0.00     0.024 H 
ENDBRANCH  16  48
BRANCH   1  52
ATOM     52  C   LIG d   1       9.303  -5.532  -6.107  0.00  0.00    -0.055 C 
ATOM     53  H   LIG d   1      10.327  -5.808  -5.853  0.00  0.00     0.024 H 
ATOM     54  H   LIG d   1       8.997  -6.060  -7.009  0.00  0.00     0.024 H 
ATOM     55  H   LIG d   1       9.250  -4.457  -6.280  0.00  0.00     0.024 H 
ENDBRANCH   1  52
TORSDOF 6
ENDMDL
MODEL 5
REMARK VINA RESULT:      -5.8      4.426      7.719
REMARK  6 active torsions:
REMARK  status: ('A' for Active; 'I' for Inactive)
REMARK    1  A    between atoms: C_1  and  C_2 
REMARK    2  A    between atoms: C_17  and  C_29 
REMARK    3  A    between atoms: C_22  and  C_23 
REMARK    4  A    between atoms: C_22  and  O_28 
REMARK    5  A    between atoms: C_23  and  C_24 
REMARK    6  A    between atoms: C_24  and  C_25 
ROOT
ATOM      1  C   LIG d   1       2.657  -2.369 -10.498  0.00  0.00    -0.003 C 
ATOM      2  C   LIG d   1       2.048  -3.773 -10.522  0.00  0.00    -0.036 C 
ATOM      3  C   LIG d   1       1.628  -4.103 -11.959  0.00  0.00     0.011 C 
ATOM      4  C   LIG d   1       0.672  -3.046 -12.448  0.00  0.00     0.156 C 
ATOM      5  O   LIG d   1      -0.157  -3.328 -13.289  0.00  0.00    -0.293 OA
ATOM      6  C   LIG d   1       0.731  -1.738 -11.940  0.00  0.00    -0.015 C 
ATOM      7  C   LIG d   1       1.647  -1.374 -11.012  0.00  0.00    -0.038 C 
ATOM      8  C   LIG d   1       1.658  -0.005 -10.500  0.00  0.00    -0.062 C 
ATOM      9  C   LIG d   1       2.548   0.383  -9.588  0.00  0.00    -0.080 C 
ATOM     10  C   LIG d   1       3.583  -0.566  -9.050  0.00  0.00    -0.016 C 
ATOM     11  H   LIG d   1       4.453  -0.528  -9.704  0.00  0.00     0.035 H 
ATOM     12  C   LIG d   1       3.036  -1.994  -9.063  0.00  0.00    -0.025 C 
ATOM     13  H   LIG d   1       2.158  -2.058  -8.421  0.00  0.00     0.032 H 
ATOM     14  C   LIG d   1       4.138  -2.936  -8.565  0.00  0.00    -0.048 C 
ATOM     15  C   LIG d   1       4.459  -2.580  -7.115  0.00  0.00    -0.044 C 
ATOM     16  C   LIG d   1       4.997  -1.150  -7.011  0.00  0.00     0.000 C 
ATOM     17  C   LIG d   1       4.015  -0.162  -7.663  0.00  0.00    -0.026 C 
ATOM     18  H   LIG d   1       4.487   0.820  -7.705  0.00  0.00     0.031 H 
ATOM     19  C   LIG d   1       2.840  -0.097  -6.669  0.00  0.00    -0.046 C 
ATOM     20  C   LIG d   1       3.533  -0.129  -5.287  0.00  0.00    -0.023 C 
ATOM     21  C   LIG d   1       4.935  -0.760  -5.510  0.00  0.00     0.072 C 
ATOM     22  H   LIG d   1       2.788  -4.498 -10.182  0.00  0.00     0.028 H 
ATOM     23  H   LIG d   1       1.175  -3.804  -9.871  0.00  0.00     0.028 H 
ATOM     24  H   LIG d   1       2.510  -4.123 -12.601  0.00  0.00     0.035 H 
ATOM     25  H   LIG d   1       1.138  -5.077 -11.981  0.00  0.00     0.035 H 
ATOM     26  H   LIG d   1       0.026  -1.003 -12.301  0.00  0.00     0.066 H 
ATOM     27  H   LIG d   1       0.932   0.705 -10.868  0.00  0.00     0.062 H 
ATOM     28  H   LIG d   1       2.527   1.401  -9.229  0.00  0.00     0.058 H 
ATOM     29  H   LIG d   1       3.790  -3.967  -8.620  0.00  0.00     0.027 H 
ATOM     30  H   LIG d   1       5.030  -2.813  -9.178  0.00  0.00     0.027 H 
ATOM     31  H   LIG d   1       3.555  -2.667  -6.515  0.00  0.00     0.027 H 
ATOM     32  H   LIG d   1       5.210  -3.273  -6.735  0.00  0.00     0.027 H 
ATOM     33  H   LIG d   1       2.280   0.830  -6.797  0.00  0.00     0.027 H 
ATOM     34  H   LIG d   1       2.187  -0.961  -6.791  0.00  0.00     0.027 H 
ATOM     35  H   LIG d   1       3.654   0.886  -4.908  0.00  0.00     0.029 H 
ATOM     36  H   LIG d   1       2.944  -0.721  -4.588  0.00  0.00     0.029 H 
ENDROOT
BRANCH  21  37
ATOM     37  C   LIG d   1       5.064  -2.009  -4.636  0.00  0.00    -0.018 C 
ATOM     38  H   LIG d   1       4.086  -2.479  -4.529  0.00  0.00     0.030 H 
ATOM     39  H   LIG d   1       5.755  -2.710  -5.104  0.00  0.00     0.030 H 
BRANCH  37  40
ATOM     40  C   LIG d   1       5.594  -1.614  -3.257  0.00  0.00    -0.011 C 
ATOM     41  H   LIG d   1       6.352  -2.331  -2.939  0.00  0.00     0.033 H 
ATOM     42  H   LIG d   1       6.037  -0.618  -3.309  0.00  0.00     0.033 H 
BRANCH  40  43
ATOM     43  C   LIG d   1       4.460  -1.608  -2.265  0.00  0.00     0.042 C 
ATOM     44  O   LIG d   1       4.375  -0.712  -1.442  0.00  0.00    -0.550 OA
ATOM     45  O   LIG d   1       3.629  -2.500  -2.285  0.00  0.00    -0.550 OA
ENDBRANCH  40  43
ENDBRANCH  37  40
ENDBRANCH  21  37
BRANCH  21  46
ATOM     46  O   LIG d   1       5.979   0.166  -5.201  0.00  0.00    -0.388 OA
ATOM     47  H   LIG d   1       6.822  -0.036  -5.626  0.00  0.00     0.210 HD
ENDBRANCH  21  46
BRANCH  16  48
ATOM     48  C   LIG d   1       6.417  -1.039  -7.569  0.00  0.00    -0.057 C 
ATOM     49  H   LIG d   1       6.947  -1.977  -7.402  0.00  0.00     0.024 H 
ATOM     50  H   LIG d   1       6.373  -0.832  -8.638  0.00  0.00     0.024 H 
ATOM     51  H   LIG d   1       6.944  -0.229  -7.064  0.00  0.00     0.024 H 
ENDBRANCH  16  48
BRANCH   1  52
ATOM     52  C   LIG d   1       3.904  -2.337 -11.383  0.00  0.00    -0.055 C 
ATOM     53  H   LIG d   1       3.992  -1.356 -11.851  0.00  0.00     0.024 H 
ATOM     54  H   LIG d   1       4.787  -2.530 -10.775  0.00  0.00     0.024 H 
ATOM     55  H   LIG d   1       3.821  -3.101 -12.156  0.00  0.00     0.024 H 
ENDBRANCH   1  52
TORSDOF 6
ENDMDL
MODEL 6
REMARK VINA RESULT:      -5.8      2.091      7.549
REMARK  6 active torsions:
REMARK  status: ('A' for Active; 'I' for Inactive)
REMARK    1  A    between atoms: C_1  and  C_2 
REMARK    2  A    between atoms: C_17  and  C_29 
REMARK    3  A    between atoms: C_22  and  C_23 
REMARK    4  A    between atoms: C_22  and  O_28 
REMARK    5  A    between atoms: C_23  and  C_24 
REMARK    6  A    between atoms: C_24  and  C_25 
ROOT
ATOM      1  C   LIG d   1       7.225  -5.795  -5.664  0.00  0.00    -0.003 C 
ATOM      2  C   LIG d   1       8.466  -6.307  -4.929  0.00  0.00    -0.036 C 
ATOM      3  C   LIG d   1       8.942  -7.597  -5.605  0.00  0.00     0.011 C 
ATOM      4  C   LIG d   1       7.814  -8.597  -5.608  0.00  0.00     0.156 C 
ATOM      5  O   LIG d   1       8.064  -9.785  -5.603  0.00  0.00    -0.293 OA
ATOM      6  C   LIG d   1       6.477  -8.167  -5.615  0.00  0.00    -0.015 C 
ATOM      7  C   LIG d   1       6.151  -6.853  -5.634  0.00  0.00    -0.038 C 
ATOM      8  C   LIG d   1       4.744  -6.454  -5.624  0.00  0.00    -0.062 C 
ATOM      9  C   LIG d   1       4.393  -5.169  -5.645  0.00  0.00    -0.080 C 
ATOM     10  C   LIG d   1       5.423  -4.075  -5.685  0.00  0.00    -0.016 C 
ATOM     11  H   LIG d   1       5.667  -3.874  -6.728  0.00  0.00     0.035 H 
ATOM     12  C   LIG d   1       6.697  -4.534  -4.975  0.00  0.00    -0.025 C 
ATOM     13  H   LIG d   1       6.480  -4.749  -3.930  0.00  0.00     0.032 H 
ATOM     14  C   LIG d   1       7.741  -3.417  -5.089  0.00  0.00    -0.048 C 
ATOM     15  C   LIG d   1       7.218  -2.189  -4.347  0.00  0.00    -0.044 C 
ATOM     16  C   LIG d   1       5.925  -1.676  -4.986  0.00  0.00     0.000 C 
ATOM     17  C   LIG d   1       4.886  -2.806  -5.071  0.00  0.00    -0.026 C 
ATOM     18  H   LIG d   1       4.037  -2.455  -5.658  0.00  0.00     0.031 H 
ATOM     19  C   LIG d   1       4.426  -2.998  -3.614  0.00  0.00    -0.046 C 
ATOM     20  C   LIG d   1       4.363  -1.556  -3.061  0.00  0.00    -0.023 C 
ATOM     21  C   LIG d   1       5.285  -0.695  -3.967  0.00  0.00     0.072 C 
ATOM     22  H   LIG d   1       9.255  -5.556  -4.978  0.00  0.00     0.028 H 
ATOM     23  H   LIG d   1       8.215  -6.511  -3.888  0.00  0.00     0.028 H 
ATOM     24  H   LIG d   1       9.241  -7.382  -6.631  0.00  0.00     0.035 H 
ATOM     25  H   LIG d   1       9.790  -8.006  -5.054  0.00  0.00     0.035 H 
ATOM     26  H   LIG d   1       5.688  -8.905  -5.606  0.00  0.00     0.066 H 
ATOM     27  H   LIG d   1       3.977  -7.213  -5.600  0.00  0.00     0.062 H 
ATOM     28  H   LIG d   1       3.345  -4.909  -5.633  0.00  0.00     0.058 H 
ATOM     29  H   LIG d   1       8.678  -3.744  -4.640  0.00  0.00     0.027 H 
ATOM     30  H   LIG d   1       7.900  -3.170  -6.138  0.00  0.00     0.027 H 
ATOM     31  H   LIG d   1       7.024  -2.453  -3.308  0.00  0.00     0.027 H 
ATOM     32  H   LIG d   1       7.972  -1.402  -4.382  0.00  0.00     0.027 H 
ATOM     33  H   LIG d   1       3.442  -3.466  -3.581  0.00  0.00     0.027 H 
ATOM     34  H   LIG d   1       5.153  -3.591  -3.058  0.00  0.00     0.027 H 
ATOM     35  H   LIG d   1       3.343  -1.176  -3.127  0.00  0.00     0.029 H 
ATOM     36  H   LIG d   1       4.703  -1.537  -2.027  0.00  0.00     0.029 H 
ENDROOT
BRANCH  21  37
ATOM     37  C   LIG d   1       6.372  -0.051  -3.104  0.00  0.00    -0.018 C 
ATOM     38  H   LIG d   1       6.172  -0.261  -2.053  0.00  0.00     0.030 H 
ATOM     39  H   LIG d   1       7.344  -0.459  -3.378  0.00  0.00     0.030 H 
BRANCH  37  40
ATOM     40  C   LIG d   1       6.372   1.462  -3.330  0.00  0.00    -0.011 C 
ATOM     41  H   LIG d   1       5.525   1.737  -3.958  0.00  0.00     0.033 H 
ATOM     42  H   LIG d   1       6.292   1.974  -2.370  0.00  0.00     0.033 H 
BRANCH  40  43
ATOM     43  C   LIG d   1       7.655   1.869  -4.010  0.00  0.00     0.042 C 
ATOM     44  O   LIG d   1       8.649   2.104  -3.344  0.00  0.00    -0.550 OA
ATOM     45  O   LIG d   1       7.697   1.962  -5.225  0.00  0.00    -0.550 OA
ENDBRANCH  40  43
ENDBRANCH  37  40
ENDBRANCH  21  37
BRANCH  21  46
ATOM     46  O   LIG d   1       4.544   0.314  -4.658  0.00  0.00    -0.388 OA
ATOM     47  H   LIG d   1       4.640   1.199  -4.281  0.00  0.00     0.210 HD
ENDBRANCH  21  46
BRANCH  16  48
ATOM     48  C   LIG d   1       6.191  -1.002  -6.334  0.00  0.00    -0.057 C 
ATOM     49  H   LIG d   1       5.683  -0.038  -6.365  0.00  0.00     0.024 H 
ATOM     50  H   LIG d   1       7.263  -0.854  -6.461  0.00  0.00     0.024 H 
ATOM     51  H   LIG d   1       5.815  -1.637  -7.137  0.00  0.00     0.024 H 
ENDBRANCH  16  48
BRANCH   1  52
ATOM     52  C   LIG d   1       7.586  -5.473  -7.116  0.00  0.00    -0.055 C 
ATOM     53  H   LIG d   1       8.600  -5.817  -7.322  0.00  0.00     0.024 H 
ATOM     54  H   LIG d   1       6.888  -5.976  -7.784  0.00  0.00     0.024 H 
ATOM     55  H   LIG d   1       7.530  -4.396  -7.273  0.00  0.00     0.024 H 
ENDBRANCH   1  52
TORSDOF 6
ENDMDL
MODEL 7
REMARK VINA RESULT:      -5.7      5.129      7.295
REMARK  6 active torsions:
REMARK  status: ('A' for Active; 'I' for Inactive)
REMARK    1  A    between atoms: C_1  and  C_2 
REMARK    2  A    between atoms: C_17  and  C_29 
REMARK    3  A    between atoms: C_22  and  C_23 
REMARK    4  A    between atoms: C_22  and  O_28 
REMARK    5  A    between atoms: C_23  and  C_24 
REMARK    6  A    between atoms: C_24  and  C_25 
ROOT
ATOM      1  C   LIG d   1       9.415   3.211  -7.512  0.00  0.00    -0.003 C 
ATOM      2  C   LIG d   1       8.602   3.552  -8.763  0.00  0.00    -0.036 C 
ATOM      3  C   LIG d   1       9.423   4.502  -9.640  0.00  0.00     0.011 C 
ATOM      4  C   LIG d   1       9.791   5.722  -8.835  0.00  0.00     0.156 C 
ATOM      5  O   LIG d   1       9.969   6.783  -9.398  0.00  0.00    -0.293 OA
ATOM      6  C   LIG d   1       9.929   5.644  -7.440  0.00  0.00    -0.015 C 
ATOM      7  C   LIG d   1       9.753   4.479  -6.771  0.00  0.00    -0.038 C 
ATOM      8  C   LIG d   1       9.891   4.451  -5.315  0.00  0.00    -0.062 C 
ATOM      9  C   LIG d   1       9.726   3.321  -4.630  0.00  0.00    -0.080 C 
ATOM     10  C   LIG d   1       9.398   2.026  -5.321  0.00  0.00    -0.016 C 
ATOM     11  H   LIG d   1      10.334   1.545  -5.606  0.00  0.00     0.035 H 
ATOM     12  C   LIG d   1       8.595   2.303  -6.592  0.00  0.00    -0.025 C 
ATOM     13  H   LIG d   1       7.656   2.791  -6.335  0.00  0.00     0.032 H 
ATOM     14  C   LIG d   1       8.333   0.967  -7.296  0.00  0.00    -0.048 C 
ATOM     15  C   LIG d   1       7.466   0.102  -6.385  0.00  0.00    -0.044 C 
ATOM     16  C   LIG d   1       8.194  -0.207  -5.073  0.00  0.00     0.000 C 
ATOM     17  C   LIG d   1       8.651   1.096  -4.397  0.00  0.00    -0.026 C 
ATOM     18  H   LIG d   1       9.289   0.843  -3.549  0.00  0.00     0.031 H 
ATOM     19  C   LIG d   1       7.347   1.714  -3.860  0.00  0.00    -0.046 C 
ATOM     20  C   LIG d   1       6.551   0.491  -3.348  0.00  0.00    -0.023 C 
ATOM     21  C   LIG d   1       7.124  -0.749  -4.088  0.00  0.00     0.072 C 
ATOM     22  H   LIG d   1       8.385   2.638  -9.317  0.00  0.00     0.028 H 
ATOM     23  H   LIG d   1       7.671   4.036  -8.472  0.00  0.00     0.028 H 
ATOM     24  H   LIG d   1      10.331   3.998  -9.974  0.00  0.00     0.035 H 
ATOM     25  H   LIG d   1       8.832   4.802 -10.506  0.00  0.00     0.035 H 
ATOM     26  H   LIG d   1      10.182   6.536  -6.886  0.00  0.00     0.066 H 
ATOM     27  H   LIG d   1      10.130   5.361  -4.787  0.00  0.00     0.062 H 
ATOM     28  H   LIG d   1       9.831   3.335  -3.555  0.00  0.00     0.058 H 
ATOM     29  H   LIG d   1       7.810   1.145  -8.236  0.00  0.00     0.027 H 
ATOM     30  H   LIG d   1       9.279   0.463  -7.489  0.00  0.00     0.027 H 
ATOM     31  H   LIG d   1       6.538   0.628  -6.164  0.00  0.00     0.027 H 
ATOM     32  H   LIG d   1       7.235  -0.834  -6.894  0.00  0.00     0.027 H 
ATOM     33  H   LIG d   1       7.557   2.405  -3.043  0.00  0.00     0.027 H 
ATOM     34  H   LIG d   1       6.803   2.217  -4.659  0.00  0.00     0.027 H 
ATOM     35  H   LIG d   1       6.705   0.368  -2.276  0.00  0.00     0.029 H 
ATOM     36  H   LIG d   1       5.491   0.618  -3.561  0.00  0.00     0.029 H 
ENDROOT
BRANCH  21  37
ATOM     37  C   LIG d   1       5.995  -1.433  -4.862  0.00  0.00    -0.018 C 
ATOM     38  H   LIG d   1       5.932  -1.007  -5.864  0.00  0.00     0.030 H 
ATOM     39  H   LIG d   1       6.198  -2.501  -4.933  0.00  0.00     0.030 H 
BRANCH  37  40
ATOM     40  C   LIG d   1       4.669  -1.213  -4.131  0.00  0.00    -0.011 C 
ATOM     41  H   LIG d   1       4.802  -0.459  -3.355  0.00  0.00     0.033 H 
ATOM     42  H   LIG d   1       3.914  -0.874  -4.841  0.00  0.00     0.033 H 
BRANCH  40  43
ATOM     43  C   LIG d   1       4.222  -2.507  -3.502  0.00  0.00     0.042 C 
ATOM     44  O   LIG d   1       4.408  -3.564  -4.082  0.00  0.00    -0.550 OA
ATOM     45  O   LIG d   1       3.674  -2.497  -2.413  0.00  0.00    -0.550 OA
ENDBRANCH  40  43
ENDBRANCH  37  40
ENDBRANCH  21  37
BRANCH  21  46
ATOM     46  O   LIG d   1       7.721  -1.672  -3.174  0.00  0.00    -0.388 OA
ATOM     47  H   LIG d   1       8.237  -1.252  -2.473  0.00  0.00     0.210 HD
ENDBRANCH  21  46
BRANCH  16  48
ATOM     48  C   LIG d   1       9.333  -1.206  -5.282  0.00  0.00    -0.057 C 
ATOM     49  H   LIG d   1       9.116  -2.124  -4.735  0.00  0.00     0.024 H 
ATOM     50  H   LIG d   1       9.431  -1.429  -6.344  0.00  0.00     0.024 H 
ATOM     51  H   LIG d   1      10.266  -0.776  -4.914  0.00  0.00     0.024 H 
ENDBRANCH  16  48
BRANCH   1  52
ATOM     52  C   LIG d   1      10.706   2.496  -7.919  0.00  0.00    -0.055 C 
ATOM     53  H   LIG d   1      11.256   2.204  -7.024  0.00  0.00     0.024 H 
ATOM     54  H   LIG d   1      10.461   1.609  -8.503  0.00  0.00     0.024 H 
ATOM     55  H   LIG d   1      11.319   3.169  -8.519  0.00  0.00     0.024 H 
ENDBRANCH   1  52
TORSDOF 6
ENDMDL
MODEL 8
REMARK VINA RESULT:      -5.7      4.959      8.486
REMARK  6 active torsions:
REMARK  status: ('A' for Active; 'I' for Inactive)
REMARK    1  A    between atoms: C_1  and  C_2 
REMARK    2  A    between atoms: C_17  and  C_29 
REMARK    3  A    between atoms: C_22  and  C_23 
REMARK    4  A    between atoms: C_22  and  O_28 
REMARK    5  A    between atoms: C_23  and  C_24 
REMARK    6  A    between atoms: C_24  and  C_25 
ROOT
ATOM      1  C   LIG d   1       6.102   0.166  -3.891  0.00  0.00    -0.003 C 
ATOM      2  C   LIG d   1       5.332   1.008  -2.871  0.00  0.00    -0.036 C 
ATOM      3  C   LIG d   1       4.327   0.107  -2.147  0.00  0.00     0.011 C 
ATOM      4  C   LIG d   1       3.425  -0.542  -3.164  0.00  0.00     0.156 C 
ATOM      5  O   LIG d   1       2.295  -0.860  -2.851  0.00  0.00    -0.293 OA
ATOM      6  C   LIG d   1       3.877  -0.782  -4.472  0.00  0.00    -0.015 C 
ATOM      7  C   LIG d   1       5.133  -0.458  -4.863  0.00  0.00    -0.038 C 
ATOM      8  C   LIG d   1       5.553  -0.712  -6.240  0.00  0.00    -0.062 C 
ATOM      9  C   LIG d   1       6.781  -0.405  -6.653  0.00  0.00    -0.080 C 
ATOM     10  C   LIG d   1       7.790   0.209  -5.722  0.00  0.00    -0.016 C 
ATOM     11  H   LIG d   1       8.320  -0.596  -5.214  0.00  0.00     0.035 H 
ATOM     12  C   LIG d   1       7.078   1.055  -4.667  0.00  0.00    -0.025 C 
ATOM     13  H   LIG d   1       6.533   1.865  -5.150  0.00  0.00     0.032 H 
ATOM     14  C   LIG d   1       8.133   1.613  -3.705  0.00  0.00    -0.048 C 
ATOM     15  C   LIG d   1       9.059   2.541  -4.488  0.00  0.00    -0.044 C 
ATOM     16  C   LIG d   1       9.800   1.771  -5.586  0.00  0.00     0.000 C 
ATOM     17  C   LIG d   1       8.799   1.030  -6.487  0.00  0.00    -0.026 C 
ATOM     18  H   LIG d   1       9.355   0.378  -7.162  0.00  0.00     0.031 H 
ATOM     19  C   LIG d   1       8.146   2.151  -7.318  0.00  0.00    -0.046 C 
ATOM     20  C   LIG d   1       9.322   3.107  -7.622  0.00  0.00    -0.023 C 
ATOM     21  C   LIG d   1      10.405   2.833  -6.542  0.00  0.00     0.072 C 
ATOM     22  H   LIG d   1       6.029   1.433  -2.148  0.00  0.00     0.028 H 
ATOM     23  H   LIG d   1       4.801   1.809  -3.385  0.00  0.00     0.028 H 
ATOM     24  H   LIG d   1       4.862  -0.663  -1.590  0.00  0.00     0.035 H 
ATOM     25  H   LIG d   1       3.729   0.706  -1.459  0.00  0.00     0.035 H 
ATOM     26  H   LIG d   1       3.206  -1.239  -5.184  0.00  0.00     0.066 H 
ATOM     27  H   LIG d   1       4.856  -1.156  -6.934  0.00  0.00     0.062 H 
ATOM     28  H   LIG d   1       7.058  -0.603  -7.677  0.00  0.00     0.058 H 
ATOM     29  H   LIG d   1       7.642   2.173  -2.909  0.00  0.00     0.027 H 
ATOM     30  H   LIG d   1       8.710   0.794  -3.279  0.00  0.00     0.027 H 
ATOM     31  H   LIG d   1       8.470   3.336  -4.944  0.00  0.00     0.027 H 
ATOM     32  H   LIG d   1       9.786   2.980  -3.805  0.00  0.00     0.027 H 
ATOM     33  H   LIG d   1       7.728   1.750  -8.241  0.00  0.00     0.027 H 
ATOM     34  H   LIG d   1       7.378   2.661  -6.736  0.00  0.00     0.027 H 
ATOM     35  H   LIG d   1       9.737   2.887  -8.606  0.00  0.00     0.029 H 
ATOM     36  H   LIG d   1       8.983   4.141  -7.582  0.00  0.00     0.029 H 
ENDROOT
BRANCH  21  37
ATOM     37  C   LIG d   1      10.686   4.129  -5.778  0.00  0.00    -0.018 C 
ATOM     38  H   LIG d   1      10.186   4.096  -4.810  0.00  0.00     0.030 H 
ATOM     39  H   LIG d   1      11.760   4.237  -5.629  0.00  0.00     0.030 H 
BRANCH  37  40
ATOM     40  C   LIG d   1      10.162   5.319  -6.583  0.00  0.00    -0.011 C 
ATOM     41  H   LIG d   1      10.974   5.748  -7.172  0.00  0.00     0.033 H 
ATOM     42  H   LIG d   1       9.367   4.985  -7.251  0.00  0.00     0.033 H 
BRANCH  40  43
ATOM     43  C   LIG d   1       9.620   6.364  -5.641  0.00  0.00     0.042 C 
ATOM     44  O   LIG d   1       9.661   7.543  -5.950  0.00  0.00    -0.550 OA
ATOM     45  O   LIG d   1       9.142   6.029  -4.570  0.00  0.00    -0.550 OA
ENDBRANCH  40  43
ENDBRANCH  37  40
ENDBRANCH  21  37
BRANCH  21  46
ATOM     46  O   LIG d   1      11.611   2.336  -7.127  0.00  0.00    -0.388 OA
ATOM     47  H   LIG d   1      12.408   2.803  -6.840  0.00  0.00     0.210 HD
ENDBRANCH  21  46
BRANCH  16  48
ATOM     48  C   LIG d   1      10.876   0.853  -5.002  0.00  0.00    -0.057 C 
ATOM     49  H   LIG d   1      11.324   0.264  -5.802  0.00  0.00     0.024 H 
ATOM     50  H   LIG d   1      11.644   1.455  -4.518  0.00  0.00     0.024 H 
ATOM     51  H   LIG d   1      10.424   0.184  -4.268  0.00  0.00     0.024 H 
ENDBRANCH  16  48
BRANCH   1  52
ATOM     52  C   LIG d   1       6.878  -0.935  -3.165  0.00  0.00    -0.055 C 
ATOM     53  H   LIG d   1       7.699  -0.489  -2.602  0.00  0.00     0.024 H 
ATOM     54  H   LIG d   1       6.211  -1.460  -2.481  0.00  0.00     0.024 H 
ATOM     55  H   LIG d   1       7.279  -1.638  -3.895  0.00  0.00     0.024 H 
ENDBRANCH   1  52
TORSDOF 6
ENDMDL
MODEL 9
REMARK VINA RESULT:      -5.6      3.853      6.701
REMARK  6 active torsions:
REMARK  status: ('A' for Active; 'I' for Inactive)
REMARK    1  A    between atoms: C_1  and  C_2 
REMARK    2  A    between atoms: C_17  and  C_29 
REMARK    3  A    between atoms: C_22  and  C_23 
REMARK    4  A    between atoms: C_22  and  O_28 
REMARK    5  A    between atoms: C_23  and  C_24 
REMARK    6  A    between atoms: C_24  and  C_25 
ROOT
ATOM      1  C   LIG d   1       9.664   2.190  -4.687  0.00  0.00    -0.003 C 
ATOM      2  C   LIG d   1       9.969   3.042  -3.453  0.00  0.00    -0.036 C 
ATOM      3  C   LIG d   1      10.905   4.184  -3.863  0.00  0.00     0.011 C 
ATOM      4  C   LIG d   1      12.146   3.602  -4.489  0.00  0.00     0.156 C 
ATOM      5  O   LIG d   1      13.196   4.210  -4.421  0.00  0.00    -0.293 OA
ATOM      6  C   LIG d   1      12.102   2.363  -5.149  0.00  0.00    -0.015 C 
ATOM      7  C   LIG d   1      10.952   1.656  -5.261  0.00  0.00    -0.038 C 
ATOM      8  C   LIG d   1      10.958   0.363  -5.943  0.00  0.00    -0.062 C 
ATOM      9  C   LIG d   1       9.843  -0.354  -6.070  0.00  0.00    -0.080 C 
ATOM     10  C   LIG d   1       8.530   0.136  -5.525  0.00  0.00    -0.016 C 
ATOM     11  H   LIG d   1       8.051   0.747  -6.289  0.00  0.00     0.035 H 
ATOM     12  C   LIG d   1       8.771   1.010  -4.294  0.00  0.00    -0.025 C 
ATOM     13  H   LIG d   1       9.257   0.423  -3.516  0.00  0.00     0.032 H 
ATOM     14  C   LIG d   1       7.417   1.536  -3.806  0.00  0.00    -0.048 C 
ATOM     15  C   LIG d   1       6.566   0.348  -3.366  0.00  0.00    -0.044 C 
ATOM     16  C   LIG d   1       6.294  -0.593  -4.543  0.00  0.00     0.000 C 
ATOM     17  C   LIG d   1       7.616  -1.020  -5.201  0.00  0.00    -0.026 C 
ATOM     18  H   LIG d   1       7.388  -1.565  -6.118  0.00  0.00     0.031 H 
ATOM     19  C   LIG d   1       8.235  -2.002  -4.190  0.00  0.00    -0.046 C 
ATOM     20  C   LIG d   1       7.018  -2.801  -3.670  0.00  0.00    -0.023 C 
ATOM     21  C   LIG d   1       5.765  -1.921  -3.938  0.00  0.00     0.072 C 
ATOM     22  H   LIG d   1       9.041   3.455  -3.057  0.00  0.00     0.028 H 
ATOM     23  H   LIG d   1      10.452   2.427  -2.695  0.00  0.00     0.028 H 
ATOM     24  H   LIG d   1      10.401   4.829  -4.584  0.00  0.00     0.035 H 
ATOM     25  H   LIG d   1      11.180   4.764  -2.982  0.00  0.00     0.035 H 
ATOM     26  H   LIG d   1      13.009   1.965  -5.580  0.00  0.00     0.066 H 
ATOM     27  H   LIG d   1      11.883  -0.018  -6.350  0.00  0.00     0.062 H 
ATOM     28  H   LIG d   1       9.883  -1.307  -6.576  0.00  0.00     0.058 H 
ATOM     29  H   LIG d   1       7.569   2.209  -2.962  0.00  0.00     0.027 H 
ATOM     30  H   LIG d   1       6.916   2.066  -4.615  0.00  0.00     0.027 H 
ATOM     31  H   LIG d   1       7.090  -0.200  -2.583  0.00  0.00     0.027 H 
ATOM     32  H   LIG d   1       5.616   0.713  -2.973  0.00  0.00     0.027 H 
ATOM     33  H   LIG d   1       8.946  -2.664  -4.684  0.00  0.00     0.027 H 
ATOM     34  H   LIG d   1       8.715  -1.461  -3.375  0.00  0.00     0.027 H 
ATOM     35  H   LIG d   1       6.922  -3.735  -4.222  0.00  0.00     0.029 H 
ATOM     36  H   LIG d   1       7.132  -3.005  -2.606  0.00  0.00     0.029 H 
ENDROOT
BRANCH  21  37
ATOM     37  C   LIG d   1       5.055  -1.648  -2.610  0.00  0.00    -0.018 C 
ATOM     38  H   LIG d   1       5.406  -2.356  -1.859  0.00  0.00     0.030 H 
ATOM     39  H   LIG d   1       5.273  -0.632  -2.284  0.00  0.00     0.030 H 
BRANCH  37  40
ATOM     40  C   LIG d   1       3.545  -1.811  -2.797  0.00  0.00    -0.011 C 
ATOM     41  H   LIG d   1       3.351  -2.435  -3.670  0.00  0.00     0.033 H 
ATOM     42  H   LIG d   1       3.117  -2.283  -1.912  0.00  0.00     0.033 H 
BRANCH  40  43
ATOM     43  C   LIG d   1       2.915  -0.456  -2.999  0.00  0.00     0.042 C 
ATOM     44  O   LIG d   1       2.158  -0.270  -3.936  0.00  0.00    -0.550 OA
ATOM     45  O   LIG d   1       3.164   0.452  -2.225  0.00  0.00    -0.550 OA
ENDBRANCH  40  43
ENDBRANCH  37  40
ENDBRANCH  21  37
BRANCH  21  46
ATOM     46  O   LIG d   1       4.869  -2.555  -4.853  0.00  0.00    -0.388 OA
ATOM     47  H   LIG d   1       4.774  -2.090  -5.695  0.00  0.00     0.210 HD
ENDBRANCH  21  46
BRANCH  16  48
ATOM     48  C   LIG d   1       5.299   0.016  -5.534  0.00  0.00    -0.057 C 
ATOM     49  H   LIG d   1       4.560  -0.735  -5.813  0.00  0.00     0.024 H 
ATOM     50  H   LIG d   1       4.799   0.865  -5.070  0.00  0.00     0.024 H 
ATOM     51  H   LIG d   1       5.832   0.350  -6.424  0.00  0.00     0.024 H 
ENDBRANCH  16  48
BRANCH   1  52
ATOM     52  C   LIG d   1       8.951   3.044  -5.737  0.00  0.00    -0.055 C 
ATOM     53  H   LIG d   1       8.724   4.024  -5.315  0.00  0.00     0.024 H 
ATOM     54  H   LIG d   1       9.595   3.164  -6.608  0.00  0.00     0.024 H 
ATOM     55  H   LIG d   1       8.024   2.555  -6.035  0.00  0.00     0.024 H 
ENDBRANCH   1  52
TORSDOF 6
ENDMDL
MODEL 10
REMARK VINA RESULT:      -5.5      1.730      2.674
REMARK  6 active torsions:
REMARK  status: ('A' for Active; 'I' for Inactive)
REMARK    1  A    between atoms: C_1  and  C_2 
REMARK    2  A    between atoms: C_17  and  C_29 
REMARK    3  A    between atoms: C_22  and  C_23 
REMARK    4  A    between atoms: C_22  and  O_28 
REMARK    5  A    between atoms: C_23  and  C_24 
REMARK    6  A    between atoms: C_24  and  C_25 
ROOT
ATOM      1  C   LIG d   1       5.791  -3.320  -4.853  0.00  0.00    -0.003 C 
ATOM      2  C   LIG d   1       4.564  -2.924  -4.028  0.00  0.00    -0.036 C 
ATOM      3  C   LIG d   1       4.533  -1.398  -3.893  0.00  0.00     0.011 C 
ATOM      4  C   LIG d   1       5.826  -0.932  -3.274  0.00  0.00     0.156 C 
ATOM      5  O   LIG d   1       5.844   0.091  -2.619  0.00  0.00    -0.293 OA
ATOM      6  C   LIG d   1       7.008  -1.670  -3.444  0.00  0.00    -0.015 C 
ATOM      7  C   LIG d   1       7.038  -2.809  -4.177  0.00  0.00    -0.038 C 
ATOM      8  C   LIG d   1       8.290  -3.552  -4.312  0.00  0.00    -0.062 C 
ATOM      9  C   LIG d   1       8.351  -4.674  -5.028  0.00  0.00    -0.080 C 
ATOM     10  C   LIG d   1       7.139  -5.222  -5.730  0.00  0.00    -0.016 C 
ATOM     11  H   LIG d   1       7.084  -4.767  -6.719  0.00  0.00     0.035 H 
ATOM     12  C   LIG d   1       5.875  -4.845  -4.959  0.00  0.00    -0.025 C 
ATOM     13  H   LIG d   1       5.908  -5.282  -3.961  0.00  0.00     0.032 H 
ATOM     14  C   LIG d   1       4.662  -5.369  -5.736  0.00  0.00    -0.048 C 
ATOM     15  C   LIG d   1       4.737  -6.893  -5.779  0.00  0.00    -0.044 C 
ATOM     16  C   LIG d   1       5.993  -7.356  -6.522  0.00  0.00     0.000 C 
ATOM     17  C   LIG d   1       7.246  -6.717  -5.902  0.00  0.00    -0.026 C 
ATOM     18  H   LIG d   1       8.103  -6.945  -6.537  0.00  0.00     0.031 H 
ATOM     19  C   LIG d   1       7.419  -7.458  -4.564  0.00  0.00    -0.046 C 
ATOM     20  C   LIG d   1       7.049  -8.919  -4.909  0.00  0.00    -0.023 C 
ATOM     21  C   LIG d   1       6.175  -8.862  -6.192  0.00  0.00     0.072 C 
ATOM     22  H   LIG d   1       3.660  -3.264  -4.533  0.00  0.00     0.028 H 
ATOM     23  H   LIG d   1       4.627  -3.377  -3.040  0.00  0.00     0.028 H 
ATOM     24  H   LIG d   1       4.418  -0.946  -4.879  0.00  0.00     0.035 H 
ATOM     25  H   LIG d   1       3.698  -1.105  -3.257  0.00  0.00     0.035 H 
ATOM     26  H   LIG d   1       7.918  -1.318  -2.980  0.00  0.00     0.066 H 
ATOM     27  H   LIG d   1       9.180  -3.185  -3.825  0.00  0.00     0.062 H 
ATOM     28  H   LIG d   1       9.290  -5.200  -5.105  0.00  0.00     0.058 H 
ATOM     29  H   LIG d   1       3.745  -5.062  -5.234  0.00  0.00     0.027 H 
ATOM     30  H   LIG d   1       4.678  -4.973  -6.751  0.00  0.00     0.027 H 
ATOM     31  H   LIG d   1       4.760  -7.281  -4.762  0.00  0.00     0.027 H 
ATOM     32  H   LIG d   1       3.855  -7.280  -6.291  0.00  0.00     0.027 H 
ATOM     33  H   LIG d   1       8.451  -7.394  -4.219  0.00  0.00     0.027 H 
ATOM     34  H   LIG d   1       6.737  -7.058  -3.813  0.00  0.00     0.027 H 
ATOM     35  H   LIG d   1       7.952  -9.492  -5.119  0.00  0.00     0.029 H 
ATOM     36  H   LIG d   1       6.502  -9.372  -4.083  0.00  0.00     0.029 H 
ENDROOT
BRANCH  21  37
ATOM     37  C   LIG d   1       4.817  -9.504  -5.899  0.00  0.00    -0.018 C 
ATOM     38  H   LIG d   1       4.102  -8.729  -5.621  0.00  0.00     0.030 H 
ATOM     39  H   LIG d   1       4.462 -10.025  -6.788  0.00  0.00     0.030 H 
BRANCH  37  40
ATOM     40  C   LIG d   1       4.962 -10.500  -4.748  0.00  0.00    -0.011 C 
ATOM     41  H   LIG d   1       5.204 -11.486  -5.147  0.00  0.00     0.033 H 
ATOM     42  H   LIG d   1       5.761 -10.173  -4.081  0.00  0.00     0.033 H 
BRANCH  40  43
ATOM     43  C   LIG d   1       3.666 -10.573  -3.980  0.00  0.00     0.042 C 
ATOM     44  O   LIG d   1       3.501  -9.873  -2.996  0.00  0.00    -0.550 OA
ATOM     45  O   LIG d   1       2.785 -11.334  -4.344  0.00  0.00    -0.550 OA
ENDBRANCH  40  43
ENDBRANCH  37  40
ENDBRANCH  21  37
BRANCH  21  46
ATOM     46  O   LIG d   1       6.808  -9.531  -7.285  0.00  0.00    -0.388 OA
ATOM     47  H   LIG d   1       7.556  -9.048  -7.661  0.00  0.00     0.210 HD
ENDBRANCH  21  46
BRANCH  16  48
ATOM     48  C   LIG d   1       5.879  -7.114  -8.029  0.00  0.00    -0.057 C 
ATOM     49  H   LIG d   1       5.831  -8.071  -8.548  0.00  0.00     0.024 H 
ATOM     50  H   LIG d   1       4.976  -6.541  -8.237  0.00  0.00     0.024 H 
ATOM     51  H   LIG d   1       6.750  -6.557  -8.374  0.00  0.00     0.024 H 
ENDBRANCH  16  48
BRANCH   1  52
ATOM     52  C   LIG d   1       5.684  -2.714  -6.254  0.00  0.00    -0.055 C 
ATOM     53  H   LIG d   1       5.554  -3.512  -6.986  0.00  0.00     0.024 H 
ATOM     54  H   LIG d   1       4.828  -2.041  -6.294  0.00  0.00     0.024 H 
ATOM     55  H   LIG d   1       6.594  -2.160  -6.480  0.00  0.00     0.024 H 
ENDBRANCH   1  52
TORSDOF 6
ENDMDL
