MODEL 1
REMARK VINA RESULT:      -5.1      0.000      0.000
REMARK  15 active torsions:
REMARK  status: ('A' for Active; 'I' for Inactive)
REMARK    1  A    between atoms: C_1  and  C_2 
REMARK    2  A    between atoms: C_2  and  C_3 
REMARK    3  A    between atoms: C_2  and  C_4 
REMARK    4  A    between atoms: C_4  and  C_6 
REMARK    5  A    between atoms: C_4  and  C_19 
REMARK    6  A    between atoms: C_6  and  C_7 
REMARK    7  A    between atoms: C_7  and  N_62 
REMARK    8  A    between atoms: C_8  and  C_9 
REMARK    9  A    between atoms: C_8  and  N_62 
REMARK   10  A    between atoms: C_12  and  O_17 
REMARK   11  A    between atoms: C_13  and  O_15 
REMARK   12  A    between atoms: O_15  and  C_16 
REMARK   13  A    between atoms: O_17  and  C_18 
REMARK   14  A    between atoms: C_24  and  C_26 
REMARK   15  A    between atoms: C_24  and  C_27 
ROOT
ATOM      1  C   LIG d   1       3.671  -2.718  -8.685  0.00  0.00    -0.031 C 
ATOM      2  H   LIG d   1       2.834  -2.652  -7.989  0.00  0.00     0.031 H 
ENDROOT
BRANCH   1   3
ATOM      3  C   LIG d   1       3.197  -3.362  -9.990  0.00  0.00    -0.043 C 
ATOM      4  H   LIG d   1       3.403  -4.432  -9.963  0.00  0.00     0.030 H 
BRANCH   3   5
ATOM      5  C   LIG d   1       3.937  -2.727 -11.169  0.00  0.00    -0.062 C 
ATOM      6  H   LIG d   1       3.901  -1.641 -11.080  0.00  0.00     0.023 H 
ATOM      7  H   LIG d   1       4.976  -3.059 -11.167  0.00  0.00     0.023 H 
ATOM      8  H   LIG d   1       3.461  -3.031 -12.102  0.00  0.00     0.023 H 
ENDBRANCH   3   5
BRANCH   3   9
ATOM      9  C   LIG d   1       1.691  -3.137 -10.152  0.00  0.00    -0.062 C 
ATOM     10  H   LIG d   1       1.474  -2.869 -11.186  0.00  0.00     0.023 H 
ATOM     11  H   LIG d   1       1.158  -4.052  -9.894  0.00  0.00     0.023 H 
ATOM     12  H   LIG d   1       1.372  -2.331  -9.492  0.00  0.00     0.023 H 
ENDBRANCH   3   9
ENDBRANCH   1   3
BRANCH   1  13
ATOM     13  C   LIG d   1       4.780  -3.573  -8.068  0.00  0.00    -0.009 C 
ATOM     14  H   LIG d   1       5.349  -4.057  -8.862  0.00  0.00     0.032 H 
ATOM     15  H   LIG d   1       5.444  -2.938  -7.481  0.00  0.00     0.032 H 
BRANCH  13  16
ATOM     16  C   LIG d   1       4.159  -4.638  -7.162  0.00  0.00    -0.033 C 
ATOM     17  H   LIG d   1       3.270  -5.048  -7.639  0.00  0.00     0.081 H 
ATOM     18  H   LIG d   1       4.882  -5.437  -6.993  0.00  0.00     0.081 H 
BRANCH  16  19
ATOM     19  N   LIG d   1       3.791  -4.022  -5.874  0.00  0.00     0.230 N 
ATOM     20  H   LIG d   1       3.011  -4.545  -5.458  0.00  0.00     0.202 HD
ATOM     21  H   LIG d   1       3.505  -3.049  -6.032  0.00  0.00     0.202 HD
BRANCH  19  22
ATOM     22  C   LIG d   1       4.940  -4.045  -4.948  0.00  0.00    -0.008 C 
ATOM     23  H   LIG d   1       4.677  -4.607  -4.052  0.00  0.00     0.087 H 
ATOM     24  H   LIG d   1       5.793  -4.515  -5.435  0.00  0.00     0.087 H 
BRANCH  22  25
ATOM     25  C   LIG d   1       5.295  -2.631  -4.566  0.00  0.00     0.001 A 
ATOM     26  C   LIG d   1       4.419  -1.598  -4.850  0.00  0.00    -0.008 A 
ATOM     27  C   LIG d   1       4.746  -0.298  -4.499  0.00  0.00     0.162 A 
ATOM     28  H   LIG d   1       3.483  -1.806  -5.344  0.00  0.00     0.066 H 
ATOM     29  C   LIG d   1       5.954  -0.035  -3.862  0.00  0.00     0.162 A 
ATOM     30  C   LIG d   1       6.827  -1.073  -3.580  0.00  0.00    -0.016 A 
ATOM     31  C   LIG d   1       6.494  -2.369  -3.928  0.00  0.00    -0.050 A 
ATOM     32  H   LIG d   1       7.765  -0.872  -3.086  0.00  0.00     0.066 H 
ATOM     33  H   LIG d   1       7.173  -3.179  -3.704  0.00  0.00     0.062 H 
BRANCH  27  34
ATOM     34  O   LIG d   1       3.886   0.718  -4.777  0.00  0.00    -0.491 OA
BRANCH  34  35
ATOM     35  C   LIG d   1       2.503   0.382  -4.901  0.00  0.00     0.079 C 
ATOM     36  H   LIG d   1       1.920   1.292  -5.047  0.00  0.00     0.066 H 
ATOM     37  H   LIG d   1       2.363  -0.280  -5.755  0.00  0.00     0.066 H 
ATOM     38  H   LIG d   1       2.169  -0.120  -3.992  0.00  0.00     0.066 H 
ENDBRANCH  34  35
ENDBRANCH  27  34
BRANCH  29  39
ATOM     39  O   LIG d   1       6.278   1.240  -3.516  0.00  0.00    -0.491 OA
BRANCH  39  40
ATOM     40  C   LIG d   1       7.591   1.690  -3.854  0.00  0.00     0.079 C 
ATOM     41  H   LIG d   1       7.525   2.639  -4.386  0.00  0.00     0.066 H 
ATOM     42  H   LIG d   1       8.175   1.825  -2.943  0.00  0.00     0.066 H 
ATOM     43  H   LIG d   1       8.077   0.950  -4.490  0.00  0.00     0.066 H 
ENDBRANCH  39  40
ENDBRANCH  29  39
ENDBRANCH  22  25
ENDBRANCH  19  22
ENDBRANCH  16  19
ENDBRANCH  13  16
ENDBRANCH   1  13
BRANCH   1  44
ATOM     44  C   LIG d   1       4.207  -1.316  -8.973  0.00  0.00    -0.033 C 
ATOM     45  H   LIG d   1       4.401  -1.212 -10.041  0.00  0.00     0.030 H 
ATOM     46  C   LIG d   1       3.177  -0.271  -8.533  0.00  0.00    -0.021 C 
ATOM     47  C   LIG d   1       3.755   1.129  -8.752  0.00  0.00     0.064 C 
ATOM     48  H   LIG d   1       2.267  -0.386  -9.122  0.00  0.00     0.029 H 
ATOM     49  H   LIG d   1       2.947  -0.409  -7.477  0.00  0.00     0.029 H 
ATOM     50  O   LIG d   1       4.978   1.258  -8.026  0.00  0.00    -0.374 OA
ATOM     51  C   LIG d   1       5.995   0.338  -8.427  0.00  0.00     0.049 C 
ATOM     52  C   LIG d   1       5.507  -1.094  -8.194  0.00  0.00    -0.026 C 
ATOM     53  H   LIG d   1       6.897   0.516  -7.841  0.00  0.00     0.056 H 
ATOM     54  H   LIG d   1       6.215   0.479  -9.485  0.00  0.00     0.056 H 
ATOM     55  H   LIG d   1       5.325  -1.248  -7.130  0.00  0.00     0.029 H 
ATOM     56  H   LIG d   1       6.264  -1.797  -8.541  0.00  0.00     0.029 H 
BRANCH  47  57
ATOM     57  C   LIG d   1       2.754   2.177  -8.259  0.00  0.00    -0.036 C 
ATOM     58  H   LIG d   1       1.866   1.676  -7.874  0.00  0.00     0.026 H 
ATOM     59  H   LIG d   1       3.210   2.769  -7.465  0.00  0.00     0.026 H 
ATOM     60  H   LIG d   1       2.474   2.829  -9.086  0.00  0.00     0.026 H 
ENDBRANCH  47  57
BRANCH  47  61
ATOM     61  C   LIG d   1       4.023   1.343 -10.244  0.00  0.00    -0.036 C 
ATOM     62  H   LIG d   1       5.082   1.551 -10.396  0.00  0.00     0.026 H 
ATOM     63  H   LIG d   1       3.748   0.443 -10.795  0.00  0.00     0.026 H 
ATOM     64  H   LIG d   1       3.431   2.185 -10.603  0.00  0.00     0.026 H 
ENDBRANCH  47  61
ENDBRANCH   1  44
TORSDOF 15
ENDMDL
MODEL 2
REMARK VINA RESULT:      -5.1      2.298      4.037
REMARK  15 active torsions:
REMARK  status: ('A' for Active; 'I' for Inactive)
REMARK    1  A    between atoms: C_1  and  C_2 
REMARK    2  A    between atoms: C_2  and  C_3 
REMARK    3  A    between atoms: C_2  and  C_4 
REMARK    4  A    between atoms: C_4  and  C_6 
REMARK    5  A    between atoms: C_4  and  C_19 
REMARK    6  A    between atoms: C_6  and  C_7 
REMARK    7  A    between atoms: C_7  and  N_62 
REMARK    8  A    between atoms: C_8  and  C_9 
REMARK    9  A    between atoms: C_8  and  N_62 
REMARK   10  A    between atoms: C_12  and  O_17 
REMARK   11  A    between atoms: C_13  and  O_15 
REMARK   12  A    between atoms: O_15  and  C_16 
REMARK   13  A    between atoms: O_17  and  C_18 
REMARK   14  A    between atoms: C_24  and  C_26 
REMARK   15  A    between atoms: C_24  and  C_27 
ROOT
ATOM      1  C   LIG d   1       3.353  -0.273  -7.086  0.00  0.00    -0.031 C 
ATOM      2  H   LIG d   1       2.633  -1.060  -7.307  0.00  0.00     0.031 H 
ENDROOT
BRANCH   1   3
ATOM      3  C   LIG d   1       4.502  -0.853  -6.258  0.00  0.00    -0.043 C 
ATOM      4  H   LIG d   1       4.373  -0.575  -5.212  0.00  0.00     0.030 H 
BRANCH   3   5
ATOM      5  C   LIG d   1       5.832  -0.300  -6.774  0.00  0.00    -0.062 C 
ATOM      6  H   LIG d   1       6.262  -0.997  -7.494  0.00  0.00     0.023 H 
ATOM      7  H   LIG d   1       5.663   0.663  -7.256  0.00  0.00     0.023 H 
ATOM      8  H   LIG d   1       6.521  -0.171  -5.938  0.00  0.00     0.023 H 
ENDBRANCH   3   5
BRANCH   3   9
ATOM      9  C   LIG d   1       4.502  -2.379  -6.385  0.00  0.00    -0.062 C 
ATOM     10  H   LIG d   1       5.340  -2.692  -7.007  0.00  0.00     0.023 H 
ATOM     11  H   LIG d   1       4.598  -2.825  -5.394  0.00  0.00     0.023 H 
ATOM     12  H   LIG d   1       3.568  -2.705  -6.841  0.00  0.00     0.023 H 
ENDBRANCH   3   9
ENDBRANCH   1   3
BRANCH   1  13
ATOM     13  C   LIG d   1       2.666   0.841  -6.294  0.00  0.00    -0.009 C 
ATOM     14  H   LIG d   1       3.223   1.770  -6.415  0.00  0.00     0.032 H 
ATOM     15  H   LIG d   1       1.649   0.976  -6.665  0.00  0.00     0.032 H 
BRANCH  13  16
ATOM     16  C   LIG d   1       2.623   0.462  -4.813  0.00  0.00    -0.033 C 
ATOM     17  H   LIG d   1       1.614   0.145  -4.547  0.00  0.00     0.081 H 
ATOM     18  H   LIG d   1       3.320  -0.355  -4.626  0.00  0.00     0.081 H 
BRANCH  16  19
ATOM     19  N   LIG d   1       3.003   1.634  -4.003  0.00  0.00     0.230 N 
ATOM     20  H   LIG d   1       2.187   2.247  -3.888  0.00  0.00     0.202 HD
ATOM     21  H   LIG d   1       3.752   2.148  -4.481  0.00  0.00     0.202 HD
BRANCH  19  22
ATOM     22  C   LIG d   1       3.481   1.206  -2.675  0.00  0.00    -0.008 C 
ATOM     23  H   LIG d   1       3.820   2.074  -2.109  0.00  0.00     0.087 H 
ATOM     24  H   LIG d   1       2.671   0.714  -2.135  0.00  0.00     0.087 H 
BRANCH  22  25
ATOM     25  C   LIG d   1       4.627   0.242  -2.849  0.00  0.00     0.001 A 
ATOM     26  C   LIG d   1       5.856   0.702  -3.283  0.00  0.00    -0.008 A 
ATOM     27  C   LIG d   1       6.910  -0.184  -3.443  0.00  0.00     0.162 A 
ATOM     28  H   LIG d   1       5.994   1.751  -3.497  0.00  0.00     0.066 H 
ATOM     29  C   LIG d   1       6.727  -1.535  -3.167  0.00  0.00     0.162 A 
ATOM     30  C   LIG d   1       5.493  -1.990  -2.732  0.00  0.00    -0.016 A 
ATOM     31  C   LIG d   1       4.447  -1.101  -2.569  0.00  0.00    -0.050 A 
ATOM     32  H   LIG d   1       5.348  -3.038  -2.516  0.00  0.00     0.066 H 
ATOM     33  H   LIG d   1       3.487  -1.456  -2.226  0.00  0.00     0.062 H 
BRANCH  27  34
ATOM     34  O   LIG d   1       8.120   0.268  -3.870  0.00  0.00    -0.491 OA
BRANCH  34  35
ATOM     35  C   LIG d   1       8.314   1.683  -3.889  0.00  0.00     0.079 C 
ATOM     36  H   LIG d   1       8.127   2.088  -2.894  0.00  0.00     0.066 H 
ATOM     37  H   LIG d   1       9.339   1.907  -4.185  0.00  0.00     0.066 H 
ATOM     38  H   LIG d   1       7.622   2.135  -4.600  0.00  0.00     0.066 H 
ENDBRANCH  34  35
ENDBRANCH  27  34
BRANCH  29  39
ATOM     39  O   LIG d   1       7.759  -2.407  -3.323  0.00  0.00    -0.491 OA
BRANCH  39  40
ATOM     40  C   LIG d   1       7.682  -3.313  -4.425  0.00  0.00     0.079 C 
ATOM     41  H   LIG d   1       7.921  -4.320  -4.085  0.00  0.00     0.066 H 
ATOM     42  H   LIG d   1       6.674  -3.298  -4.838  0.00  0.00     0.066 H 
ATOM     43  H   LIG d   1       8.394  -3.010  -5.194  0.00  0.00     0.066 H 
ENDBRANCH  39  40
ENDBRANCH  29  39
ENDBRANCH  22  25
ENDBRANCH  19  22
ENDBRANCH  16  19
ENDBRANCH  13  16
ENDBRANCH   1  13
BRANCH   1  44
ATOM     44  C   LIG d   1       3.904   0.296  -8.394  0.00  0.00    -0.033 C 
ATOM     45  H   LIG d   1       4.994   0.303  -8.359  0.00  0.00     0.030 H 
ATOM     46  C   LIG d   1       3.433  -0.567  -9.568  0.00  0.00    -0.021 C 
ATOM     47  C   LIG d   1       3.923   0.055 -10.879  0.00  0.00     0.064 C 
ATOM     48  H   LIG d   1       3.840  -1.573  -9.468  0.00  0.00     0.029 H 
ATOM     49  H   LIG d   1       2.344  -0.614  -9.572  0.00  0.00     0.029 H 
ATOM     50  O   LIG d   1       3.435   1.393 -10.981  0.00  0.00    -0.374 OA
ATOM     51  C   LIG d   1       3.882   2.259  -9.936  0.00  0.00     0.049 C 
ATOM     52  C   LIG d   1       3.390   1.726  -8.588  0.00  0.00    -0.026 C 
ATOM     53  H   LIG d   1       3.484   3.261 -10.099  0.00  0.00     0.056 H 
ATOM     54  H   LIG d   1       4.972   2.296  -9.936  0.00  0.00     0.056 H 
ATOM     55  H   LIG d   1       2.300   1.727  -8.572  0.00  0.00     0.029 H 
ATOM     56  H   LIG d   1       3.768   2.361  -7.786  0.00  0.00     0.029 H 
BRANCH  47  57
ATOM     57  C   LIG d   1       3.404  -0.770 -12.059  0.00  0.00    -0.036 C 
ATOM     58  H   LIG d   1       2.472  -1.261 -11.777  0.00  0.00     0.026 H 
ATOM     59  H   LIG d   1       3.226  -0.113 -12.911  0.00  0.00     0.026 H 
ATOM     60  H   LIG d   1       4.145  -1.523 -12.329  0.00  0.00     0.026 H 
ENDBRANCH  47  57
BRANCH  47  61
ATOM     61  C   LIG d   1       5.453   0.066 -10.897  0.00  0.00    -0.036 C 
ATOM     62  H   LIG d   1       5.802   0.275 -11.908  0.00  0.00     0.026 H 
ATOM     63  H   LIG d   1       5.819   0.839 -10.220  0.00  0.00     0.026 H 
ATOM     64  H   LIG d   1       5.828  -0.906 -10.577  0.00  0.00     0.026 H 
ENDBRANCH  47  61
ENDBRANCH   1  44
TORSDOF 15
ENDMDL
MODEL 3
REMARK VINA RESULT:      -5.1      1.687      5.253
REMARK  15 active torsions:
REMARK  status: ('A' for Active; 'I' for Inactive)
REMARK    1  A    between atoms: C_1  and  C_2 
REMARK    2  A    between atoms: C_2  and  C_3 
REMARK    3  A    between atoms: C_2  and  C_4 
REMARK    4  A    between atoms: C_4  and  C_6 
REMARK    5  A    between atoms: C_4  and  C_19 
REMARK    6  A    between atoms: C_6  and  C_7 
REMARK    7  A    between atoms: C_7  and  N_62 
REMARK    8  A    between atoms: C_8  and  C_9 
REMARK    9  A    between atoms: C_8  and  N_62 
REMARK   10  A    between atoms: C_12  and  O_17 
REMARK   11  A    between atoms: C_13  and  O_15 
REMARK   12  A    between atoms: O_15  and  C_16 
REMARK   13  A    between atoms: O_17  and  C_18 
REMARK   14  A    between atoms: C_24  and  C_26 
REMARK   15  A    between atoms: C_24  and  C_27 
ROOT
ATOM      1  C   LIG d   1       5.706  -3.053  -5.144  0.00  0.00    -0.031 C 
ATOM      2  H   LIG d   1       5.716  -2.646  -6.155  0.00  0.00     0.031 H 
ENDROOT
BRANCH   1   3
ATOM      3  C   LIG d   1       7.142  -3.327  -4.693  0.00  0.00    -0.043 C 
ATOM      4  H   LIG d   1       7.176  -4.264  -4.136  0.00  0.00     0.030 H 
BRANCH   3   5
ATOM      5  C   LIG d   1       7.623  -2.183  -3.798  0.00  0.00    -0.062 C 
ATOM      6  H   LIG d   1       8.674  -1.977  -4.003  0.00  0.00     0.023 H 
ATOM      7  H   LIG d   1       7.031  -1.290  -4.000  0.00  0.00     0.023 H 
ATOM      8  H   LIG d   1       7.506  -2.466  -2.751  0.00  0.00     0.023 H 
ENDBRANCH   3   5
BRANCH   3   9
ATOM      9  C   LIG d   1       8.052  -3.430  -5.920  0.00  0.00    -0.062 C 
ATOM     10  H   LIG d   1       7.683  -4.215  -6.580  0.00  0.00     0.023 H 
ATOM     11  H   LIG d   1       8.052  -2.479  -6.452  0.00  0.00     0.023 H 
ATOM     12  H   LIG d   1       9.066  -3.669  -5.602  0.00  0.00     0.023 H 
ENDBRANCH   3   9
ENDBRANCH   1   3
BRANCH   1  13
ATOM     13  C   LIG d   1       4.908  -4.358  -5.126  0.00  0.00    -0.009 C 
ATOM     14  H   LIG d   1       5.436  -5.098  -4.523  0.00  0.00     0.032 H 
ATOM     15  H   LIG d   1       3.923  -4.175  -4.696  0.00  0.00     0.032 H 
BRANCH  13  16
ATOM     16  C   LIG d   1       4.752  -4.881  -6.555  0.00  0.00    -0.033 C 
ATOM     17  H   LIG d   1       5.644  -4.636  -7.131  0.00  0.00     0.081 H 
ATOM     18  H   LIG d   1       4.619  -5.962  -6.534  0.00  0.00     0.081 H 
BRANCH  16  19
ATOM     19  N   LIG d   1       3.573  -4.248  -7.175  0.00  0.00     0.230 N 
ATOM     20  H   LIG d   1       3.267  -3.458  -6.594  0.00  0.00     0.202 HD
ATOM     21  H   LIG d   1       2.815  -4.937  -7.243  0.00  0.00     0.202 HD
BRANCH  19  22
ATOM     22  C   LIG d   1       3.906  -3.758  -8.526  0.00  0.00    -0.008 C 
ATOM     23  H   LIG d   1       4.854  -4.188  -8.849  0.00  0.00     0.087 H 
ATOM     24  H   LIG d   1       3.120  -4.045  -9.224  0.00  0.00     0.087 H 
BRANCH  22  25
ATOM     25  C   LIG d   1       4.023  -2.255  -8.492  0.00  0.00     0.001 A 
ATOM     26  C   LIG d   1       5.267  -1.662  -8.381  0.00  0.00    -0.008 A 
ATOM     27  C   LIG d   1       5.375  -0.281  -8.350  0.00  0.00     0.162 A 
ATOM     28  H   LIG d   1       6.153  -2.275  -8.321  0.00  0.00     0.066 H 
ATOM     29  C   LIG d   1       4.230   0.506  -8.428  0.00  0.00     0.162 A 
ATOM     30  C   LIG d   1       2.986  -0.095  -8.538  0.00  0.00    -0.016 A 
ATOM     31  C   LIG d   1       2.885  -1.473  -8.575  0.00  0.00    -0.050 A 
ATOM     32  H   LIG d   1       2.096   0.513  -8.599  0.00  0.00     0.066 H 
ATOM     33  H   LIG d   1       1.916  -1.940  -8.665  0.00  0.00     0.062 H 
BRANCH  27  34
ATOM     34  O   LIG d   1       6.598   0.304  -8.242  0.00  0.00    -0.491 OA
BRANCH  34  35
ATOM     35  C   LIG d   1       7.225   0.264  -6.959  0.00  0.00     0.079 C 
ATOM     36  H   LIG d   1       7.529   1.271  -6.672  0.00  0.00     0.066 H 
ATOM     37  H   LIG d   1       6.524  -0.127  -6.222  0.00  0.00     0.066 H 
ATOM     38  H   LIG d   1       8.103  -0.380  -7.004  0.00  0.00     0.066 H 
ENDBRANCH  34  35
ENDBRANCH  27  34
BRANCH  29  39
ATOM     39  O   LIG d   1       4.332   1.862  -8.398  0.00  0.00    -0.491 OA
BRANCH  39  40
ATOM     40  C   LIG d   1       3.889   2.571  -9.557  0.00  0.00     0.079 C 
ATOM     41  H   LIG d   1       3.017   3.173  -9.303  0.00  0.00     0.066 H 
ATOM     42  H   LIG d   1       4.688   3.221  -9.913  0.00  0.00     0.066 H 
ATOM     43  H   LIG d   1       3.624   1.859 -10.339  0.00  0.00     0.066 H 
ENDBRANCH  39  40
ENDBRANCH  29  39
ENDBRANCH  22  25
ENDBRANCH  19  22
ENDBRANCH  16  19
ENDBRANCH  13  16
ENDBRANCH   1  13
BRANCH   1  44
ATOM     44  C   LIG d   1       5.058  -2.044  -4.195  0.00  0.00    -0.033 C 
ATOM     45  H   LIG d   1       5.833  -1.473  -3.685  0.00  0.00     0.030 H 
ATOM     46  C   LIG d   1       4.158  -1.095  -4.991  0.00  0.00    -0.021 C 
ATOM     47  C   LIG d   1       3.452  -0.140  -4.024  0.00  0.00     0.064 C 
ATOM     48  H   LIG d   1       4.764  -0.521  -5.692  0.00  0.00     0.029 H 
ATOM     49  H   LIG d   1       3.414  -1.672  -5.541  0.00  0.00     0.029 H 
ATOM     50  O   LIG d   1       2.705  -0.896  -3.071  0.00  0.00    -0.374 OA
ATOM     51  C   LIG d   1       3.500  -1.768  -2.264  0.00  0.00     0.049 C 
ATOM     52  C   LIG d   1       4.207  -2.788  -3.160  0.00  0.00    -0.026 C 
ATOM     53  H   LIG d   1       2.859  -2.290  -1.553  0.00  0.00     0.056 H 
ATOM     54  H   LIG d   1       4.244  -1.183  -1.722  0.00  0.00     0.056 H 
ATOM     55  H   LIG d   1       3.464  -3.400  -3.672  0.00  0.00     0.029 H 
ATOM     56  H   LIG d   1       4.848  -3.425  -2.551  0.00  0.00     0.029 H 
BRANCH  47  57
ATOM     57  C   LIG d   1       2.506   0.772  -4.808  0.00  0.00    -0.036 C 
ATOM     58  H   LIG d   1       2.730   0.698  -5.873  0.00  0.00     0.026 H 
ATOM     59  H   LIG d   1       1.475   0.464  -4.631  0.00  0.00     0.026 H 
ATOM     60  H   LIG d   1       2.640   1.803  -4.480  0.00  0.00     0.026 H 
ENDBRANCH  47  57
BRANCH  47  61
ATOM     61  C   LIG d   1       4.495   0.711  -3.296  0.00  0.00    -0.036 C 
ATOM     62  H   LIG d   1       5.493   0.430  -3.633  0.00  0.00     0.026 H 
ATOM     63  H   LIG d   1       4.322   1.765  -3.516  0.00  0.00     0.026 H 
ATOM     64  H   LIG d   1       4.414   0.545  -2.222  0.00  0.00     0.026 H 
ENDBRANCH  47  61
ENDBRANCH   1  44
TORSDOF 15
ENDMDL
MODEL 4
REMARK VINA RESULT:      -5.0      2.142      4.004
REMARK  15 active torsions:
REMARK  status: ('A' for Active; 'I' for Inactive)
REMARK    1  A    between atoms: C_1  and  C_2 
REMARK    2  A    between atoms: C_2  and  C_3 
REMARK    3  A    between atoms: C_2  and  C_4 
REMARK    4  A    between atoms: C_4  and  C_6 
REMARK    5  A    between atoms: C_4  and  C_19 
REMARK    6  A    between atoms: C_6  and  C_7 
REMARK    7  A    between atoms: C_7  and  N_62 
REMARK    8  A    between atoms: C_8  and  C_9 
REMARK    9  A    between atoms: C_8  and  N_62 
REMARK   10  A    between atoms: C_12  and  O_17 
REMARK   11  A    between atoms: C_13  and  O_15 
REMARK   12  A    between atoms: O_15  and  C_16 
REMARK   13  A    between atoms: O_17  and  C_18 
REMARK   14  A    between atoms: C_24  and  C_26 
REMARK   15  A    between atoms: C_24  and  C_27 
ROOT
ATOM      1  C   LIG d   1       3.591   0.736  -7.349  0.00  0.00    -0.031 C 
ATOM      2  H   LIG d   1       4.075   1.471  -6.706  0.00  0.00     0.031 H 
ENDROOT
BRANCH   1   3
ATOM      3  C   LIG d   1       2.912   1.453  -8.518  0.00  0.00    -0.043 C 
ATOM      4  H   LIG d   1       2.028   1.979  -8.158  0.00  0.00     0.030 H 
BRANCH   3   5
ATOM      5  C   LIG d   1       2.501   0.427  -9.577  0.00  0.00    -0.062 C 
ATOM      6  H   LIG d   1       3.373   0.142 -10.166  0.00  0.00     0.023 H 
ATOM      7  H   LIG d   1       2.089  -0.455  -9.086  0.00  0.00     0.023 H 
ATOM      8  H   LIG d   1       1.747   0.864 -10.232  0.00  0.00     0.023 H 
ENDBRANCH   3   5
BRANCH   3   9
ATOM      9  C   LIG d   1       3.888   2.459  -9.135  0.00  0.00    -0.062 C 
ATOM     10  H   LIG d   1       4.102   2.172 -10.165  0.00  0.00     0.023 H 
ATOM     11  H   LIG d   1       3.441   3.453  -9.121  0.00  0.00     0.023 H 
ATOM     12  H   LIG d   1       4.812   2.467  -8.560  0.00  0.00     0.023 H 
ENDBRANCH   3   9
ENDBRANCH   1   3
BRANCH   1  13
ATOM     13  C   LIG d   1       2.543  -0.035  -6.545  0.00  0.00    -0.009 C 
ATOM     14  H   LIG d   1       1.582   0.013  -7.060  0.00  0.00     0.032 H 
ATOM     15  H   LIG d   1       2.852  -1.076  -6.450  0.00  0.00     0.032 H 
BRANCH  13  16
ATOM     16  C   LIG d   1       2.408   0.587  -5.154  0.00  0.00    -0.033 C 
ATOM     17  H   LIG d   1       3.351   1.054  -4.871  0.00  0.00     0.081 H 
ATOM     18  H   LIG d   1       1.619   1.340  -5.167  0.00  0.00     0.081 H 
BRANCH  16  19
ATOM     19  N   LIG d   1       2.067  -0.470  -4.184  0.00  0.00     0.230 N 
ATOM     20  H   LIG d   1       2.182  -1.389  -4.628  0.00  0.00     0.202 HD
ATOM     21  H   LIG d   1       1.092  -0.355  -3.885  0.00  0.00     0.202 HD
BRANCH  19  22
ATOM     22  C   LIG d   1       2.949  -0.386  -3.004  0.00  0.00    -0.008 C 
ATOM     23  H   LIG d   1       3.052   0.655  -2.696  0.00  0.00     0.087 H 
ATOM     24  H   LIG d   1       2.524  -0.967  -2.186  0.00  0.00     0.087 H 
BRANCH  22  25
ATOM     25  C   LIG d   1       4.306  -0.939  -3.362  0.00  0.00     0.001 A 
ATOM     26  C   LIG d   1       5.412  -0.109  -3.357  0.00  0.00    -0.008 A 
ATOM     27  C   LIG d   1       6.659  -0.616  -3.686  0.00  0.00     0.162 A 
ATOM     28  H   LIG d   1       5.304   0.933  -3.098  0.00  0.00     0.066 H 
ATOM     29  C   LIG d   1       6.794  -1.960  -4.020  0.00  0.00     0.162 A 
ATOM     30  C   LIG d   1       5.682  -2.786  -4.022  0.00  0.00    -0.016 A 
ATOM     31  C   LIG d   1       4.441  -2.276  -3.689  0.00  0.00    -0.050 A 
ATOM     32  H   LIG d   1       5.784  -3.830  -4.281  0.00  0.00     0.066 H 
ATOM     33  H   LIG d   1       3.576  -2.921  -3.686  0.00  0.00     0.062 H 
BRANCH  27  34
ATOM     34  O   LIG d   1       7.748   0.199  -3.682  0.00  0.00    -0.491 OA
BRANCH  34  35
ATOM     35  C   LIG d   1       7.514   1.595  -3.876  0.00  0.00     0.079 C 
ATOM     36  H   LIG d   1       8.451   2.086  -4.139  0.00  0.00     0.066 H 
ATOM     37  H   LIG d   1       6.792   1.735  -4.680  0.00  0.00     0.066 H 
ATOM     38  H   LIG d   1       7.124   2.029  -2.955  0.00  0.00     0.066 H 
ENDBRANCH  34  35
ENDBRANCH  27  34
BRANCH  29  39
ATOM     39  O   LIG d   1       8.017  -2.462  -4.342  0.00  0.00    -0.491 OA
BRANCH  39  40
ATOM     40  C   LIG d   1       8.100  -3.871  -4.565  0.00  0.00     0.079 C 
ATOM     41  H   LIG d   1       9.146  -4.163  -4.657  0.00  0.00     0.066 H 
ATOM     42  H   LIG d   1       7.648  -4.399  -3.726  0.00  0.00     0.066 H 
ATOM     43  H   LIG d   1       7.571  -4.126  -5.484  0.00  0.00     0.066 H 
ENDBRANCH  39  40
ENDBRANCH  29  39
ENDBRANCH  22  25
ENDBRANCH  19  22
ENDBRANCH  16  19
ENDBRANCH  13  16
ENDBRANCH   1  13
BRANCH   1  44
ATOM     44  C   LIG d   1       4.640  -0.238  -7.889  0.00  0.00    -0.033 C 
ATOM     45  H   LIG d   1       4.653  -0.194  -8.978  0.00  0.00     0.030 H 
ATOM     46  C   LIG d   1       6.019   0.138  -7.342  0.00  0.00    -0.021 C 
ATOM     47  C   LIG d   1       7.048  -0.889  -7.823  0.00  0.00     0.064 C 
ATOM     48  H   LIG d   1       6.297   1.128  -7.702  0.00  0.00     0.029 H 
ATOM     49  H   LIG d   1       5.991   0.142  -6.252  0.00  0.00     0.029 H 
ATOM     50  O   LIG d   1       6.652  -2.194  -7.398  0.00  0.00    -0.374 OA
ATOM     51  C   LIG d   1       5.390  -2.619  -7.917  0.00  0.00     0.049 C 
ATOM     52  C   LIG d   1       4.295  -1.662  -7.439  0.00  0.00    -0.026 C 
ATOM     53  H   LIG d   1       5.173  -3.627  -7.564  0.00  0.00     0.056 H 
ATOM     54  H   LIG d   1       5.426  -2.615  -9.007  0.00  0.00     0.056 H 
ATOM     55  H   LIG d   1       4.231  -1.695  -6.352  0.00  0.00     0.029 H 
ATOM     56  H   LIG d   1       3.339  -1.959  -7.871  0.00  0.00     0.029 H 
BRANCH  47  57
ATOM     57  C   LIG d   1       8.419  -0.553  -7.230  0.00  0.00    -0.036 C 
ATOM     58  H   LIG d   1       9.077  -1.418  -7.326  0.00  0.00     0.026 H 
ATOM     59  H   LIG d   1       8.850   0.292  -7.768  0.00  0.00     0.026 H 
ATOM     60  H   LIG d   1       8.307  -0.296  -6.177  0.00  0.00     0.026 H 
ENDBRANCH  47  57
BRANCH  47  61
ATOM     61  C   LIG d   1       7.130  -0.852  -9.351  0.00  0.00    -0.036 C 
ATOM     62  H   LIG d   1       6.280  -0.296  -9.746  0.00  0.00     0.026 H 
ATOM     63  H   LIG d   1       8.056  -0.363  -9.654  0.00  0.00     0.026 H 
ATOM     64  H   LIG d   1       7.111  -1.870  -9.740  0.00  0.00     0.026 H 
ENDBRANCH  47  61
ENDBRANCH   1  44
TORSDOF 15
ENDMDL
MODEL 5
REMARK VINA RESULT:      -4.9      4.138      7.464
REMARK  15 active torsions:
REMARK  status: ('A' for Active; 'I' for Inactive)
REMARK    1  A    between atoms: C_1  and  C_2 
REMARK    2  A    between atoms: C_2  and  C_3 
REMARK    3  A    between atoms: C_2  and  C_4 
REMARK    4  A    between atoms: C_4  and  C_6 
REMARK    5  A    between atoms: C_4  and  C_19 
REMARK    6  A    between atoms: C_6  and  C_7 
REMARK    7  A    between atoms: C_7  and  N_62 
REMARK    8  A    between atoms: C_8  and  C_9 
REMARK    9  A    between atoms: C_8  and  N_62 
REMARK   10  A    between atoms: C_12  and  O_17 
REMARK   11  A    between atoms: C_13  and  O_15 
REMARK   12  A    between atoms: O_15  and  C_16 
REMARK   13  A    between atoms: O_17  and  C_18 
REMARK   14  A    between atoms: C_24  and  C_26 
REMARK   15  A    between atoms: C_24  and  C_27 
ROOT
ATOM      1  C   LIG d   1       7.092  -0.962  -3.716  0.00  0.00    -0.031 C 
ATOM      2  H   LIG d   1       7.804  -0.959  -2.891  0.00  0.00     0.031 H 
ENDROOT
BRANCH   1   3
ATOM      3  C   LIG d   1       7.159  -2.308  -4.441  0.00  0.00    -0.043 C 
ATOM      4  H   LIG d   1       6.214  -2.837  -4.314  0.00  0.00     0.030 H 
BRANCH   3   5
ATOM      5  C   LIG d   1       8.297  -3.147  -3.855  0.00  0.00    -0.062 C 
ATOM      6  H   LIG d   1       9.210  -2.969  -4.423  0.00  0.00     0.023 H 
ATOM      7  H   LIG d   1       8.456  -2.866  -2.814  0.00  0.00     0.023 H 
ATOM      8  H   LIG d   1       8.035  -4.204  -3.910  0.00  0.00     0.023 H 
ENDBRANCH   3   5
BRANCH   3   9
ATOM      9  C   LIG d   1       7.415  -2.073  -5.932  0.00  0.00    -0.062 C 
ATOM     10  H   LIG d   1       6.632  -2.556  -6.516  0.00  0.00     0.023 H 
ATOM     11  H   LIG d   1       7.411  -1.002  -6.136  0.00  0.00     0.023 H 
ATOM     12  H   LIG d   1       8.383  -2.491  -6.204  0.00  0.00     0.023 H 
ENDBRANCH   3   9
ENDBRANCH   1   3
BRANCH   1  13
ATOM     13  C   LIG d   1       7.441   0.162  -4.694  0.00  0.00    -0.009 C 
ATOM     14  H   LIG d   1       8.161  -0.205  -5.427  0.00  0.00     0.032 H 
ATOM     15  H   LIG d   1       6.537   0.490  -5.207  0.00  0.00     0.032 H 
BRANCH  13  16
ATOM     16  C   LIG d   1       8.048   1.337  -3.926  0.00  0.00    -0.033 C 
ATOM     17  H   LIG d   1       7.448   1.540  -3.039  0.00  0.00     0.081 H 
ATOM     18  H   LIG d   1       9.066   1.088  -3.626  0.00  0.00     0.081 H 
BRANCH  16  19
ATOM     19  N   LIG d   1       8.064   2.527  -4.797  0.00  0.00     0.230 N 
ATOM     20  H   LIG d   1       7.477   3.260  -4.381  0.00  0.00     0.202 HD
ATOM     21  H   LIG d   1       7.695   2.276  -5.721  0.00  0.00     0.202 HD
BRANCH  19  22
ATOM     22  C   LIG d   1       9.442   3.033  -4.946  0.00  0.00    -0.008 C 
ATOM     23  H   LIG d   1      10.145   2.313  -4.525  0.00  0.00     0.087 H 
ATOM     24  H   LIG d   1       9.665   3.184  -6.002  0.00  0.00     0.087 H 
BRANCH  22  25
ATOM     25  C   LIG d   1       9.569   4.344  -4.213  0.00  0.00     0.001 A 
ATOM     26  C   LIG d   1       9.963   4.358  -2.887  0.00  0.00    -0.008 A 
ATOM     27  C   LIG d   1      10.080   5.563  -2.213  0.00  0.00     0.162 A 
ATOM     28  H   LIG d   1      10.180   3.431  -2.379  0.00  0.00     0.066 H 
ATOM     29  C   LIG d   1       9.799   6.756  -2.872  0.00  0.00     0.162 A 
ATOM     30  C   LIG d   1       9.405   6.735  -4.200  0.00  0.00    -0.016 A 
ATOM     31  C   LIG d   1       9.295   5.530  -4.869  0.00  0.00    -0.050 A 
ATOM     32  H   LIG d   1       9.186   7.659  -4.714  0.00  0.00     0.066 H 
ATOM     33  H   LIG d   1       8.992   5.515  -5.905  0.00  0.00     0.062 H 
BRANCH  27  34
ATOM     34  O   LIG d   1      10.468   5.579  -0.909  0.00  0.00    -0.491 OA
BRANCH  34  35
ATOM     35  C   LIG d   1      11.851   5.341  -0.642  0.00  0.00     0.079 C 
ATOM     36  H   LIG d   1      12.125   4.349  -1.000  0.00  0.00     0.066 H 
ATOM     37  H   LIG d   1      12.456   6.091  -1.151  0.00  0.00     0.066 H 
ATOM     38  H   LIG d   1      12.028   5.400   0.433  0.00  0.00     0.066 H 
ENDBRANCH  34  35
ENDBRANCH  27  34
BRANCH  29  39
ATOM     39  O   LIG d   1       9.913   7.941  -2.213  0.00  0.00    -0.491 OA
BRANCH  39  40
ATOM     40  C   LIG d   1      11.070   8.730  -2.496  0.00  0.00     0.079 C 
ATOM     41  H   LIG d   1      11.321   9.333  -1.624  0.00  0.00     0.066 H 
ATOM     42  H   LIG d   1      11.907   8.076  -2.738  0.00  0.00     0.066 H 
ATOM     43  H   LIG d   1      10.864   9.386  -3.344  0.00  0.00     0.066 H 
ENDBRANCH  39  40
ENDBRANCH  29  39
ENDBRANCH  22  25
ENDBRANCH  19  22
ENDBRANCH  16  19
ENDBRANCH  13  16
ENDBRANCH   1  13
BRANCH   1  44
ATOM     44  C   LIG d   1       5.679  -0.746  -3.173  0.00  0.00    -0.033 C 
ATOM     45  H   LIG d   1       5.722  -0.110  -2.288  0.00  0.00     0.030 H 
ATOM     46  C   LIG d   1       4.812  -0.080  -4.245  0.00  0.00    -0.021 C 
ATOM     47  C   LIG d   1       3.381   0.059  -3.720  0.00  0.00     0.064 C 
ATOM     48  H   LIG d   1       5.213   0.907  -4.476  0.00  0.00     0.029 H 
ATOM     49  H   LIG d   1       4.812  -0.693  -5.146  0.00  0.00     0.029 H 
ATOM     50  O   LIG d   1       2.878  -1.229  -3.364  0.00  0.00    -0.374 OA
ATOM     51  C   LIG d   1       3.621  -1.880  -2.331  0.00  0.00     0.049 C 
ATOM     52  C   LIG d   1       5.061  -2.098  -2.801  0.00  0.00    -0.026 C 
ATOM     53  H   LIG d   1       3.162  -2.843  -2.106  0.00  0.00     0.056 H 
ATOM     54  H   LIG d   1       3.620  -1.258  -1.436  0.00  0.00     0.056 H 
ATOM     55  H   LIG d   1       5.066  -2.753  -3.672  0.00  0.00     0.029 H 
ATOM     56  H   LIG d   1       5.641  -2.554  -1.998  0.00  0.00     0.029 H 
BRANCH  47  57
ATOM     57  C   LIG d   1       2.496   0.670  -4.809  0.00  0.00    -0.036 C 
ATOM     58  H   LIG d   1       1.541   0.144  -4.838  0.00  0.00     0.026 H 
ATOM     59  H   LIG d   1       2.323   1.724  -4.588  0.00  0.00     0.026 H 
ATOM     60  H   LIG d   1       2.991   0.577  -5.775  0.00  0.00     0.026 H 
ENDBRANCH  47  57
BRANCH  47  61
ATOM     61  C   LIG d   1       3.375   0.968  -2.489  0.00  0.00    -0.036 C 
ATOM     62  H   LIG d   1       4.155   1.723  -2.591  0.00  0.00     0.026 H 
ATOM     63  H   LIG d   1       2.405   1.459  -2.403  0.00  0.00     0.026 H 
ATOM     64  H   LIG d   1       3.561   0.372  -1.596  0.00  0.00     0.026 H 
ENDBRANCH  47  61
ENDBRANCH   1  44
TORSDOF 15
ENDMDL
MODEL 6
REMARK VINA RESULT:      -4.9      2.171      6.221
REMARK  15 active torsions:
REMARK  status: ('A' for Active; 'I' for Inactive)
REMARK    1  A    between atoms: C_1  and  C_2 
REMARK    2  A    between atoms: C_2  and  C_3 
REMARK    3  A    between atoms: C_2  and  C_4 
REMARK    4  A    between atoms: C_4  and  C_6 
REMARK    5  A    between atoms: C_4  and  C_19 
REMARK    6  A    between atoms: C_6  and  C_7 
REMARK    7  A    between atoms: C_7  and  N_62 
REMARK    8  A    between atoms: C_8  and  C_9 
REMARK    9  A    between atoms: C_8  and  N_62 
REMARK   10  A    between atoms: C_12  and  O_17 
REMARK   11  A    between atoms: C_13  and  O_15 
REMARK   12  A    between atoms: O_15  and  C_16 
REMARK   13  A    between atoms: O_17  and  C_18 
REMARK   14  A    between atoms: C_24  and  C_26 
REMARK   15  A    between atoms: C_24  and  C_27 
ROOT
ATOM      1  C   LIG d   1       4.808  -0.925  -4.300  0.00  0.00    -0.031 C 
ATOM      2  H   LIG d   1       4.397  -1.168  -5.280  0.00  0.00     0.031 H 
ENDROOT
BRANCH   1   3
ATOM      3  C   LIG d   1       4.949  -2.207  -3.476  0.00  0.00    -0.043 C 
ATOM      4  H   LIG d   1       5.933  -2.230  -3.007  0.00  0.00     0.030 H 
BRANCH   3   5
ATOM      5  C   LIG d   1       4.791  -3.422  -4.391  0.00  0.00    -0.062 C 
ATOM      6  H   LIG d   1       4.053  -3.203  -5.163  0.00  0.00     0.023 H 
ATOM      7  H   LIG d   1       5.749  -3.652  -4.859  0.00  0.00     0.023 H 
ATOM      8  H   LIG d   1       4.459  -4.279  -3.804  0.00  0.00     0.023 H 
ENDBRANCH   3   5
BRANCH   3   9
ATOM      9  C   LIG d   1       3.867  -2.239  -2.394  0.00  0.00    -0.062 C 
ATOM     10  H   LIG d   1       3.685  -3.270  -2.093  0.00  0.00     0.023 H 
ATOM     11  H   LIG d   1       4.200  -1.662  -1.531  0.00  0.00     0.023 H 
ATOM     12  H   LIG d   1       2.948  -1.807  -2.787  0.00  0.00     0.023 H 
ENDBRANCH   3   9
ENDBRANCH   1   3
BRANCH   1  13
ATOM     13  C   LIG d   1       3.870   0.045  -3.579  0.00  0.00    -0.009 C 
ATOM     14  H   LIG d   1       3.627  -0.351  -2.592  0.00  0.00     0.032 H 
ATOM     15  H   LIG d   1       4.360   1.012  -3.472  0.00  0.00     0.032 H 
BRANCH  13  16
ATOM     16  C   LIG d   1       2.585   0.211  -4.393  0.00  0.00    -0.033 C 
ATOM     17  H   LIG d   1       1.822  -0.467  -4.010  0.00  0.00     0.081 H 
ATOM     18  H   LIG d   1       2.232   1.239  -4.309  0.00  0.00     0.081 H 
BRANCH  16  19
ATOM     19  N   LIG d   1       2.864  -0.104  -5.806  0.00  0.00     0.230 N 
ATOM     20  H   LIG d   1       2.170  -0.782  -6.146  0.00  0.00     0.202 HD
ATOM     21  H   LIG d   1       3.804  -0.509  -5.885  0.00  0.00     0.202 HD
BRANCH  19  22
ATOM     22  C   LIG d   1       2.792   1.119  -6.627  0.00  0.00    -0.008 C 
ATOM     23  H   LIG d   1       1.833   1.612  -6.468  0.00  0.00     0.087 H 
ATOM     24  H   LIG d   1       3.599   1.796  -6.348  0.00  0.00     0.087 H 
BRANCH  22  25
ATOM     25  C   LIG d   1       2.928   0.747  -8.082  0.00  0.00     0.001 A 
ATOM     26  C   LIG d   1       2.481  -0.485  -8.524  0.00  0.00    -0.008 A 
ATOM     27  C   LIG d   1       2.606  -0.828  -9.861  0.00  0.00     0.162 A 
ATOM     28  H   LIG d   1       2.034  -1.178  -7.828  0.00  0.00     0.066 H 
ATOM     29  C   LIG d   1       3.183   0.068 -10.755  0.00  0.00     0.162 A 
ATOM     30  C   LIG d   1       3.630   1.301 -10.306  0.00  0.00    -0.016 A 
ATOM     31  C   LIG d   1       3.497   1.639  -8.972  0.00  0.00    -0.050 A 
ATOM     32  H   LIG d   1       4.078   1.998 -10.997  0.00  0.00     0.066 H 
ATOM     33  H   LIG d   1       3.842   2.602  -8.623  0.00  0.00     0.062 H 
BRANCH  27  34
ATOM     34  O   LIG d   1       2.166  -2.038 -10.297  0.00  0.00    -0.491 OA
BRANCH  34  35
ATOM     35  C   LIG d   1       2.701  -3.195  -9.650  0.00  0.00     0.079 C 
ATOM     36  H   LIG d   1       3.728  -2.997  -9.345  0.00  0.00     0.066 H 
ATOM     37  H   LIG d   1       2.100  -3.432  -8.772  0.00  0.00     0.066 H 
ATOM     38  H   LIG d   1       2.683  -4.038 -10.342  0.00  0.00     0.066 H 
ENDBRANCH  34  35
ENDBRANCH  27  34
BRANCH  29  39
ATOM     39  O   LIG d   1       3.308  -0.264 -12.068  0.00  0.00    -0.491 OA
BRANCH  39  40
ATOM     40  C   LIG d   1       4.629  -0.515 -12.551  0.00  0.00     0.079 C 
ATOM     41  H   LIG d   1       4.613  -1.372 -13.224  0.00  0.00     0.066 H 
ATOM     42  H   LIG d   1       4.992   0.361 -13.087  0.00  0.00     0.066 H 
ATOM     43  H   LIG d   1       5.290  -0.725 -11.709  0.00  0.00     0.066 H 
ENDBRANCH  39  40
ENDBRANCH  29  39
ENDBRANCH  22  25
ENDBRANCH  19  22
ENDBRANCH  16  19
ENDBRANCH  13  16
ENDBRANCH   1  13
BRANCH   1  44
ATOM     44  C   LIG d   1       6.182  -0.275  -4.471  0.00  0.00    -0.033 C 
ATOM     45  H   LIG d   1       6.960  -0.990  -4.204  0.00  0.00     0.030 H 
ATOM     46  C   LIG d   1       6.365   0.165  -5.926  0.00  0.00    -0.021 C 
ATOM     47  C   LIG d   1       7.708   0.885  -6.069  0.00  0.00     0.064 C 
ATOM     48  H   LIG d   1       6.349  -0.710  -6.576  0.00  0.00     0.029 H 
ATOM     49  H   LIG d   1       5.557   0.841  -6.207  0.00  0.00     0.029 H 
ATOM     50  O   LIG d   1       7.749   1.998  -5.175  0.00  0.00    -0.374 OA
ATOM     51  C   LIG d   1       7.630   1.643  -3.795  0.00  0.00     0.049 C 
ATOM     52  C   LIG d   1       6.283   0.954  -3.561  0.00  0.00    -0.026 C 
ATOM     53  H   LIG d   1       7.691   2.542  -3.183  0.00  0.00     0.056 H 
ATOM     54  H   LIG d   1       8.438   0.963  -3.525  0.00  0.00     0.056 H 
ATOM     55  H   LIG d   1       5.475   1.646  -3.793  0.00  0.00     0.029 H 
ATOM     56  H   LIG d   1       6.211   0.642  -2.519  0.00  0.00     0.029 H 
BRANCH  47  57
ATOM     57  C   LIG d   1       7.870   1.380  -7.509  0.00  0.00    -0.036 C 
ATOM     58  H   LIG d   1       8.867   1.804  -7.636  0.00  0.00     0.026 H 
ATOM     59  H   LIG d   1       7.740   0.545  -8.197  0.00  0.00     0.026 H 
ATOM     60  H   LIG d   1       7.121   2.144  -7.717  0.00  0.00     0.026 H 
ENDBRANCH  47  57
BRANCH  47  61
ATOM     61  C   LIG d   1       8.844  -0.083  -5.732  0.00  0.00    -0.036 C 
ATOM     62  H   LIG d   1       8.662  -0.530  -4.755  0.00  0.00     0.026 H 
ATOM     63  H   LIG d   1       8.889  -0.868  -6.486  0.00  0.00     0.026 H 
ATOM     64  H   LIG d   1       9.790   0.459  -5.714  0.00  0.00     0.026 H 
ENDBRANCH  47  61
ENDBRANCH   1  44
TORSDOF 15
ENDMDL
MODEL 7
REMARK VINA RESULT:      -4.9      4.700      8.061
REMARK  15 active torsions:
REMARK  status: ('A' for Active; 'I' for Inactive)
REMARK    1  A    between atoms: C_1  and  C_2 
REMARK    2  A    between atoms: C_2  and  C_3 
REMARK    3  A    between atoms: C_2  and  C_4 
REMARK    4  A    between atoms: C_4  and  C_6 
REMARK    5  A    between atoms: C_4  and  C_19 
REMARK    6  A    between atoms: C_6  and  C_7 
REMARK    7  A    between atoms: C_7  and  N_62 
REMARK    8  A    between atoms: C_8  and  C_9 
REMARK    9  A    between atoms: C_8  and  N_62 
REMARK   10  A    between atoms: C_12  and  O_17 
REMARK   11  A    between atoms: C_13  and  O_15 
REMARK   12  A    between atoms: O_15  and  C_16 
REMARK   13  A    between atoms: O_17  and  C_18 
REMARK   14  A    between atoms: C_24  and  C_26 
REMARK   15  A    between atoms: C_24  and  C_27 
ROOT
ATOM      1  C   LIG d   1       7.591   0.267  -4.139  0.00  0.00    -0.031 C 
ATOM      2  H   LIG d   1       8.075  -0.465  -3.492  0.00  0.00     0.031 H 
ENDROOT
BRANCH   1   3
ATOM      3  C   LIG d   1       7.856  -0.095  -5.602  0.00  0.00    -0.043 C 
ATOM      4  H   LIG d   1       8.598   0.586  -6.017  0.00  0.00     0.030 H 
BRANCH   3   5
ATOM      5  C   LIG d   1       6.555   0.019  -6.400  0.00  0.00    -0.062 C 
ATOM      6  H   LIG d   1       6.019   0.918  -6.096  0.00  0.00     0.023 H 
ATOM      7  H   LIG d   1       6.786   0.075  -7.464  0.00  0.00     0.023 H 
ATOM      8  H   LIG d   1       5.934  -0.857  -6.209  0.00  0.00     0.023 H 
ENDBRANCH   3   5
BRANCH   3   9
ATOM      9  C   LIG d   1       8.380  -1.532  -5.685  0.00  0.00    -0.062 C 
ATOM     10  H   LIG d   1       7.615  -2.218  -5.323  0.00  0.00     0.023 H 
ATOM     11  H   LIG d   1       8.621  -1.771  -6.721  0.00  0.00     0.023 H 
ATOM     12  H   LIG d   1       9.275  -1.627  -5.072  0.00  0.00     0.023 H 
ENDBRANCH   3   9
ENDBRANCH   1   3
BRANCH   1  13
ATOM     13  C   LIG d   1       8.155   1.659  -3.848  0.00  0.00    -0.009 C 
ATOM     14  H   LIG d   1       7.596   2.404  -4.415  0.00  0.00     0.032 H 
ATOM     15  H   LIG d   1       8.066   1.871  -2.782  0.00  0.00     0.032 H 
BRANCH  13  16
ATOM     16  C   LIG d   1       9.628   1.708  -4.257  0.00  0.00    -0.033 C 
ATOM     17  H   LIG d   1       9.973   0.702  -4.498  0.00  0.00     0.081 H 
ATOM     18  H   LIG d   1       9.742   2.349  -5.132  0.00  0.00     0.081 H 
BRANCH  16  19
ATOM     19  N   LIG d   1      10.423   2.249  -3.139  0.00  0.00     0.230 N 
ATOM     20  H   LIG d   1      11.086   1.534  -2.817  0.00  0.00     0.202 HD
ATOM     21  H   LIG d   1       9.794   2.505  -2.369  0.00  0.00     0.202 HD
BRANCH  19  22
ATOM     22  C   LIG d   1      11.170   3.445  -3.574  0.00  0.00    -0.008 C 
ATOM     23  H   LIG d   1      12.219   3.342  -3.296  0.00  0.00     0.087 H 
ATOM     24  H   LIG d   1      11.089   3.555  -4.655  0.00  0.00     0.087 H 
BRANCH  22  25
ATOM     25  C   LIG d   1      10.590   4.662  -2.899  0.00  0.00     0.001 A 
ATOM     26  C   LIG d   1      10.769   4.849  -1.541  0.00  0.00    -0.008 A 
ATOM     27  C   LIG d   1      10.236   5.968  -0.920  0.00  0.00     0.162 A 
ATOM     28  H   LIG d   1      11.323   4.124  -0.965  0.00  0.00     0.066 H 
ATOM     29  C   LIG d   1       9.521   6.900  -1.666  0.00  0.00     0.162 A 
ATOM     30  C   LIG d   1       9.346   6.707  -3.027  0.00  0.00    -0.016 A 
ATOM     31  C   LIG d   1       9.884   5.591  -3.642  0.00  0.00    -0.050 A 
ATOM     32  H   LIG d   1       8.792   7.428  -3.609  0.00  0.00     0.066 H 
ATOM     33  H   LIG d   1       9.751   5.444  -4.703  0.00  0.00     0.062 H 
BRANCH  27  34
ATOM     34  O   LIG d   1      10.411   6.154   0.416  0.00  0.00    -0.491 OA
BRANCH  34  35
ATOM     35  C   LIG d   1      11.577   6.872   0.823  0.00  0.00     0.079 C 
ATOM     36  H   LIG d   1      12.217   7.046  -0.041  0.00  0.00     0.066 H 
ATOM     37  H   LIG d   1      11.283   7.828   1.256  0.00  0.00     0.066 H 
ATOM     38  H   LIG d   1      12.121   6.289   1.566  0.00  0.00     0.066 H 
ENDBRANCH  34  35
ENDBRANCH  27  34
BRANCH  29  39
ATOM     39  O   LIG d   1       8.997   7.999  -1.061  0.00  0.00    -0.491 OA
BRANCH  39  40
ATOM     40  C   LIG d   1       9.601   9.258  -1.368  0.00  0.00     0.079 C 
ATOM     41  H   LIG d   1       9.961   9.722  -0.450  0.00  0.00     0.066 H 
ATOM     42  H   LIG d   1      10.437   9.103  -2.049  0.00  0.00     0.066 H 
ATOM     43  H   LIG d   1       8.864   9.909  -1.840  0.00  0.00     0.066 H 
ENDBRANCH  39  40
ENDBRANCH  29  39
ENDBRANCH  22  25
ENDBRANCH  19  22
ENDBRANCH  16  19
ENDBRANCH  13  16
ENDBRANCH   1  13
BRANCH   1  44
ATOM     44  C   LIG d   1       6.084   0.262  -3.878  0.00  0.00    -0.033 C 
ATOM     45  H   LIG d   1       5.550   0.396  -4.819  0.00  0.00     0.030 H 
ATOM     46  C   LIG d   1       5.678  -1.070  -3.241  0.00  0.00    -0.021 C 
ATOM     47  C   LIG d   1       4.184  -1.035  -2.910  0.00  0.00     0.064 C 
ATOM     48  H   LIG d   1       5.878  -1.884  -3.937  0.00  0.00     0.029 H 
ATOM     49  H   LIG d   1       6.249  -1.226  -2.326  0.00  0.00     0.029 H 
ATOM     50  O   LIG d   1       3.914   0.067  -2.042  0.00  0.00    -0.374 OA
ATOM     51  C   LIG d   1       4.230   1.343  -2.604  0.00  0.00     0.049 C 
ATOM     52  C   LIG d   1       5.726   1.404  -2.920  0.00  0.00    -0.026 C 
ATOM     53  H   LIG d   1       3.978   2.127  -1.889  0.00  0.00     0.056 H 
ATOM     54  H   LIG d   1       3.658   1.488  -3.520  0.00  0.00     0.056 H 
ATOM     55  H   LIG d   1       6.299   1.299  -1.999  0.00  0.00     0.029 H 
ATOM     56  H   LIG d   1       5.961   2.359  -3.390  0.00  0.00     0.029 H 
BRANCH  47  57
ATOM     57  C   LIG d   1       3.783  -2.340  -2.218  0.00  0.00    -0.036 C 
ATOM     58  H   LIG d   1       3.439  -2.123  -1.207  0.00  0.00     0.026 H 
ATOM     59  H   LIG d   1       2.981  -2.818  -2.781  0.00  0.00     0.026 H 
ATOM     60  H   LIG d   1       4.645  -3.006  -2.173  0.00  0.00     0.026 H 
ENDBRANCH  47  57
BRANCH  47  61
ATOM     61  C   LIG d   1       3.379  -0.875  -4.202  0.00  0.00    -0.036 C 
ATOM     62  H   LIG d   1       3.697  -1.627  -4.923  0.00  0.00     0.026 H 
ATOM     63  H   LIG d   1       2.318  -1.004  -3.988  0.00  0.00     0.026 H 
ATOM     64  H   LIG d   1       3.548   0.119  -4.615  0.00  0.00     0.026 H 
ENDBRANCH  47  61
ENDBRANCH   1  44
TORSDOF 15
ENDMDL
MODEL 8
REMARK VINA RESULT:      -4.8      5.031      8.908
REMARK  15 active torsions:
REMARK  status: ('A' for Active; 'I' for Inactive)
REMARK    1  A    between atoms: C_1  and  C_2 
REMARK    2  A    between atoms: C_2  and  C_3 
REMARK    3  A    between atoms: C_2  and  C_4 
REMARK    4  A    between atoms: C_4  and  C_6 
REMARK    5  A    between atoms: C_4  and  C_19 
REMARK    6  A    between atoms: C_6  and  C_7 
REMARK    7  A    between atoms: C_7  and  N_62 
REMARK    8  A    between atoms: C_8  and  C_9 
REMARK    9  A    between atoms: C_8  and  N_62 
REMARK   10  A    between atoms: C_12  and  O_17 
REMARK   11  A    between atoms: C_13  and  O_15 
REMARK   12  A    between atoms: O_15  and  C_16 
REMARK   13  A    between atoms: O_17  and  C_18 
REMARK   14  A    between atoms: C_24  and  C_26 
REMARK   15  A    between atoms: C_24  and  C_27 
ROOT
ATOM      1  C   LIG d   1       9.913   4.682  -3.679  0.00  0.00    -0.031 C 
ATOM      2  H   LIG d   1       8.854   4.881  -3.848  0.00  0.00     0.031 H 
ENDROOT
BRANCH   1   3
ATOM      3  C   LIG d   1      10.679   4.865  -4.991  0.00  0.00    -0.043 C 
ATOM      4  H   LIG d   1      10.995   3.891  -5.366  0.00  0.00     0.030 H 
BRANCH   3   5
ATOM      5  C   LIG d   1      11.910   5.741  -4.745  0.00  0.00    -0.062 C 
ATOM      6  H   LIG d   1      12.030   6.440  -5.573  0.00  0.00     0.023 H 
ATOM      7  H   LIG d   1      11.780   6.296  -3.815  0.00  0.00     0.023 H 
ATOM      8  H   LIG d   1      12.796   5.110  -4.671  0.00  0.00     0.023 H 
ENDBRANCH   3   5
BRANCH   3   9
ATOM      9  C   LIG d   1       9.771   5.540  -6.022  0.00  0.00    -0.062 C 
ATOM     10  H   LIG d   1       8.801   5.044  -6.032  0.00  0.00     0.023 H 
ATOM     11  H   LIG d   1       9.640   6.589  -5.758  0.00  0.00     0.023 H 
ATOM     12  H   LIG d   1      10.227   5.467  -7.009  0.00  0.00     0.023 H 
ENDBRANCH   3   9
ENDBRANCH   1   3
BRANCH   1  13
ATOM     13  C   LIG d   1      10.090   3.247  -3.179  0.00  0.00    -0.009 C 
ATOM     14  H   LIG d   1      10.793   3.238  -2.345  0.00  0.00     0.032 H 
ATOM     15  H   LIG d   1       9.128   2.856  -2.848  0.00  0.00     0.032 H 
BRANCH  13  16
ATOM     16  C   LIG d   1      10.633   2.376  -4.313  0.00  0.00    -0.033 C 
ATOM     17  H   LIG d   1      10.433   2.858  -5.270  0.00  0.00     0.081 H 
ATOM     18  H   LIG d   1      11.709   2.247  -4.190  0.00  0.00     0.081 H 
BRANCH  16  19
ATOM     19  N   LIG d   1       9.968   1.060  -4.272  0.00  0.00     0.230 N 
ATOM     20  H   LIG d   1       9.790   0.801  -3.294  0.00  0.00     0.202 HD
ATOM     21  H   LIG d   1      10.578   0.358  -4.707  0.00  0.00     0.202 HD
BRANCH  19  22
ATOM     22  C   LIG d   1       8.688   1.110  -5.003  0.00  0.00    -0.008 C 
ATOM     23  H   LIG d   1       8.400   2.149  -5.168  0.00  0.00     0.087 H 
ATOM     24  H   LIG d   1       8.794   0.606  -5.963  0.00  0.00     0.087 H 
BRANCH  22  25
ATOM     25  C   LIG d   1       7.625   0.419  -4.187  0.00  0.00     0.001 A 
ATOM     26  C   LIG d   1       6.712   1.168  -3.468  0.00  0.00    -0.008 A 
ATOM     27  C   LIG d   1       5.735   0.532  -2.717  0.00  0.00     0.162 A 
ATOM     28  H   LIG d   1       6.759   2.245  -3.492  0.00  0.00     0.066 H 
ATOM     29  C   LIG d   1       5.677  -0.857  -2.689  0.00  0.00     0.162 A 
ATOM     30  C   LIG d   1       6.596  -1.602  -3.411  0.00  0.00    -0.016 A 
ATOM     31  C   LIG d   1       7.565  -0.962  -4.163  0.00  0.00    -0.050 A 
ATOM     32  H   LIG d   1       6.553  -2.680  -3.391  0.00  0.00     0.066 H 
ATOM     33  H   LIG d   1       8.277  -1.543  -4.729  0.00  0.00     0.062 H 
BRANCH  27  34
ATOM     34  O   LIG d   1       4.835   1.267  -2.010  0.00  0.00    -0.491 OA
BRANCH  34  35
ATOM     35  C   LIG d   1       3.659   1.693  -2.700  0.00  0.00     0.079 C 
ATOM     36  H   LIG d   1       3.886   2.581  -3.290  0.00  0.00     0.066 H 
ATOM     37  H   LIG d   1       3.315   0.897  -3.360  0.00  0.00     0.066 H 
ATOM     38  H   LIG d   1       2.879   1.929  -1.977  0.00  0.00     0.066 H 
ENDBRANCH  34  35
ENDBRANCH  27  34
BRANCH  29  39
ATOM     39  O   LIG d   1       4.720  -1.484  -1.954  0.00  0.00    -0.491 OA
BRANCH  39  40
ATOM     40  C   LIG d   1       3.593  -2.002  -2.664  0.00  0.00     0.079 C 
ATOM     41  H   LIG d   1       3.585  -3.090  -2.589  0.00  0.00     0.066 H 
ATOM     42  H   LIG d   1       2.676  -1.602  -2.233  0.00  0.00     0.066 H 
ATOM     43  H   LIG d   1       3.659  -1.711  -3.713  0.00  0.00     0.066 H 
ENDBRANCH  39  40
ENDBRANCH  29  39
ENDBRANCH  22  25
ENDBRANCH  19  22
ENDBRANCH  16  19
ENDBRANCH  13  16
ENDBRANCH   1  13
BRANCH   1  44
ATOM     44  C   LIG d   1      10.453   5.658  -2.633  0.00  0.00    -0.033 C 
ATOM     45  H   LIG d   1      11.359   6.133  -3.010  0.00  0.00     0.030 H 
ATOM     46  C   LIG d   1       9.399   6.727  -2.334  0.00  0.00    -0.021 C 
ATOM     47  C   LIG d   1       9.918   7.651  -1.229  0.00  0.00     0.064 C 
ATOM     48  H   LIG d   1       9.204   7.309  -3.234  0.00  0.00     0.029 H 
ATOM     49  H   LIG d   1       8.477   6.248  -2.004  0.00  0.00     0.029 H 
ATOM     50  O   LIG d   1      10.226   6.878  -0.068  0.00  0.00    -0.374 OA
ATOM     51  C   LIG d   1      11.241   5.893  -0.276  0.00  0.00     0.049 C 
ATOM     52  C   LIG d   1      10.775   4.899  -1.341  0.00  0.00    -0.026 C 
ATOM     53  H   LIG d   1      11.430   5.364   0.659  0.00  0.00     0.056 H 
ATOM     54  H   LIG d   1      12.157   6.381  -0.610  0.00  0.00     0.056 H 
ATOM     55  H   LIG d   1       9.881   4.382  -0.991  0.00  0.00     0.029 H 
ATOM     56  H   LIG d   1      11.565   4.173  -1.533  0.00  0.00     0.029 H 
BRANCH  47  57
ATOM     57  C   LIG d   1       8.844   8.686  -0.883  0.00  0.00    -0.036 C 
ATOM     58  H   LIG d   1       8.065   8.213  -0.284  0.00  0.00     0.026 H 
ATOM     59  H   LIG d   1       9.294   9.501  -0.316  0.00  0.00     0.026 H 
ATOM     60  H   LIG d   1       8.408   9.078  -1.802  0.00  0.00     0.026 H 
ENDBRANCH  47  57
BRANCH  47  61
ATOM     61  C   LIG d   1      11.179   8.369  -1.715  0.00  0.00    -0.036 C 
ATOM     62  H   LIG d   1      10.898   9.276  -2.249  0.00  0.00     0.026 H 
ATOM     63  H   LIG d   1      11.801   8.630  -0.858  0.00  0.00     0.026 H 
ATOM     64  H   LIG d   1      11.737   7.712  -2.382  0.00  0.00     0.026 H 
ENDBRANCH  47  61
ENDBRANCH   1  44
TORSDOF 15
ENDMDL
MODEL 9
REMARK VINA RESULT:      -4.8      2.564      6.349
REMARK  15 active torsions:
REMARK  status: ('A' for Active; 'I' for Inactive)
REMARK    1  A    between atoms: C_1  and  C_2 
REMARK    2  A    between atoms: C_2  and  C_3 
REMARK    3  A    between atoms: C_2  and  C_4 
REMARK    4  A    between atoms: C_4  and  C_6 
REMARK    5  A    between atoms: C_4  and  C_19 
REMARK    6  A    between atoms: C_6  and  C_7 
REMARK    7  A    between atoms: C_7  and  N_62 
REMARK    8  A    between atoms: C_8  and  C_9 
REMARK    9  A    between atoms: C_8  and  N_62 
REMARK   10  A    between atoms: C_12  and  O_17 
REMARK   11  A    between atoms: C_13  and  O_15 
REMARK   12  A    between atoms: O_15  and  C_16 
REMARK   13  A    between atoms: O_17  and  C_18 
REMARK   14  A    between atoms: C_24  and  C_26 
REMARK   15  A    between atoms: C_24  and  C_27 
ROOT
ATOM      1  C   LIG d   1       5.206  -1.871  -3.931  0.00  0.00    -0.031 C 
ATOM      2  H   LIG d   1       4.906  -1.210  -4.745  0.00  0.00     0.031 H 
ENDROOT
BRANCH   1   3
ATOM      3  C   LIG d   1       4.100  -1.912  -2.875  0.00  0.00    -0.043 C 
ATOM      4  H   LIG d   1       3.814  -2.948  -2.689  0.00  0.00     0.030 H 
BRANCH   3   5
ATOM      5  C   LIG d   1       2.885  -1.129  -3.377  0.00  0.00    -0.062 C 
ATOM      6  H   LIG d   1       2.764  -1.292  -4.448  0.00  0.00     0.023 H 
ATOM      7  H   LIG d   1       1.991  -1.471  -2.853  0.00  0.00     0.023 H 
ATOM      8  H   LIG d   1       3.033  -0.066  -3.186  0.00  0.00     0.023 H 
ENDBRANCH   3   5
BRANCH   3   9
ATOM      9  C   LIG d   1       4.611  -1.282  -1.577  0.00  0.00    -0.062 C 
ATOM     10  H   LIG d   1       5.700  -1.296  -1.571  0.00  0.00     0.023 H 
ATOM     11  H   LIG d   1       4.260  -0.252  -1.511  0.00  0.00     0.023 H 
ATOM     12  H   LIG d   1       4.235  -1.849  -0.726  0.00  0.00     0.023 H 
ENDBRANCH   3   9
ENDBRANCH   1   3
BRANCH   1  13
ATOM     13  C   LIG d   1       6.497  -1.347  -3.299  0.00  0.00    -0.009 C 
ATOM     14  H   LIG d   1       6.298  -1.035  -2.273  0.00  0.00     0.032 H 
ATOM     15  H   LIG d   1       7.248  -2.137  -3.298  0.00  0.00     0.032 H 
BRANCH  13  16
ATOM     16  C   LIG d   1       7.012  -0.153  -4.104  0.00  0.00    -0.033 C 
ATOM     17  H   LIG d   1       7.247   0.668  -3.428  0.00  0.00     0.081 H 
ATOM     18  H   LIG d   1       7.911  -0.443  -4.649  0.00  0.00     0.081 H 
BRANCH  16  19
ATOM     19  N   LIG d   1       5.970   0.272  -5.058  0.00  0.00     0.230 N 
ATOM     20  H   LIG d   1       5.786   1.275  -4.933  0.00  0.00     0.202 HD
ATOM     21  H   LIG d   1       5.110  -0.259  -4.879  0.00  0.00     0.202 HD
BRANCH  19  22
ATOM     22  C   LIG d   1       6.413   0.027  -6.443  0.00  0.00    -0.008 C 
ATOM     23  H   LIG d   1       7.125   0.797  -6.742  0.00  0.00     0.087 H 
ATOM     24  H   LIG d   1       6.888  -0.951  -6.509  0.00  0.00     0.087 H 
BRANCH  22  25
ATOM     25  C   LIG d   1       5.217   0.068  -7.359  0.00  0.00     0.001 A 
ATOM     26  C   LIG d   1       5.381   0.386  -8.695  0.00  0.00    -0.008 A 
ATOM     27  C   LIG d   1       4.281   0.424  -9.537  0.00  0.00     0.162 A 
ATOM     28  H   LIG d   1       6.365   0.604  -9.081  0.00  0.00     0.066 H 
ATOM     29  C   LIG d   1       3.014   0.143  -9.036  0.00  0.00     0.162 A 
ATOM     30  C   LIG d   1       2.856  -0.174  -7.697  0.00  0.00    -0.016 A 
ATOM     31  C   LIG d   1       3.958  -0.216  -6.862  0.00  0.00    -0.050 A 
ATOM     32  H   LIG d   1       1.875  -0.393  -7.305  0.00  0.00     0.066 H 
ATOM     33  H   LIG d   1       3.835  -0.468  -5.819  0.00  0.00     0.062 H 
BRANCH  27  34
ATOM     34  O   LIG d   1       4.441   0.736 -10.852  0.00  0.00    -0.491 OA
BRANCH  34  35
ATOM     35  C   LIG d   1       4.945  -0.292 -11.706  0.00  0.00     0.079 C 
ATOM     36  H   LIG d   1       5.118   0.115 -12.702  0.00  0.00     0.066 H 
ATOM     37  H   LIG d   1       5.882  -0.675 -11.302  0.00  0.00     0.066 H 
ATOM     38  H   LIG d   1       4.217  -1.102 -11.767  0.00  0.00     0.066 H 
ENDBRANCH  34  35
ENDBRANCH  27  34
BRANCH  29  39
ATOM     39  O   LIG d   1       1.932   0.179  -9.860  0.00  0.00    -0.491 OA
BRANCH  39  40
ATOM     40  C   LIG d   1       1.412  -1.076 -10.300  0.00  0.00     0.079 C 
ATOM     41  H   LIG d   1       0.797  -1.511  -9.512  0.00  0.00     0.066 H 
ATOM     42  H   LIG d   1       0.804  -0.926 -11.193  0.00  0.00     0.066 H 
ATOM     43  H   LIG d   1       2.236  -1.751 -10.532  0.00  0.00     0.066 H 
ENDBRANCH  39  40
ENDBRANCH  29  39
ENDBRANCH  22  25
ENDBRANCH  19  22
ENDBRANCH  16  19
ENDBRANCH  13  16
ENDBRANCH   1  13
BRANCH   1  44
ATOM     44  C   LIG d   1       5.440  -3.279  -4.480  0.00  0.00    -0.033 C 
ATOM     45  H   LIG d   1       5.079  -4.015  -3.761  0.00  0.00     0.030 H 
ATOM     46  C   LIG d   1       4.694  -3.445  -5.806  0.00  0.00    -0.021 C 
ATOM     47  C   LIG d   1       4.998  -4.829  -6.386  0.00  0.00     0.064 C 
ATOM     48  H   LIG d   1       3.621  -3.350  -5.635  0.00  0.00     0.029 H 
ATOM     49  H   LIG d   1       5.020  -2.677  -6.507  0.00  0.00     0.029 H 
ATOM     50  O   LIG d   1       6.409  -4.973  -6.555  0.00  0.00    -0.374 OA
ATOM     51  C   LIG d   1       7.156  -4.875  -5.340  0.00  0.00     0.049 C 
ATOM     52  C   LIG d   1       6.939  -3.493  -4.720  0.00  0.00    -0.026 C 
ATOM     53  H   LIG d   1       8.216  -5.015  -5.554  0.00  0.00     0.056 H 
ATOM     54  H   LIG d   1       6.820  -5.643  -4.644  0.00  0.00     0.056 H 
ATOM     55  H   LIG d   1       7.311  -2.725  -5.398  0.00  0.00     0.029 H 
ATOM     56  H   LIG d   1       7.472  -3.432  -3.771  0.00  0.00     0.029 H 
BRANCH  47  57
ATOM     57  C   LIG d   1       4.303  -4.978  -7.741  0.00  0.00    -0.036 C 
ATOM     58  H   LIG d   1       3.225  -4.883  -7.607  0.00  0.00     0.026 H 
ATOM     59  H   LIG d   1       4.655  -4.200  -8.418  0.00  0.00     0.026 H 
ATOM     60  H   LIG d   1       4.531  -5.958  -8.160  0.00  0.00     0.026 H 
ENDBRANCH  47  57
BRANCH  47  61
ATOM     61  C   LIG d   1       4.486  -5.907  -5.428  0.00  0.00    -0.036 C 
ATOM     62  H   LIG d   1       5.330  -6.358  -4.905  0.00  0.00     0.026 H 
ATOM     63  H   LIG d   1       3.809  -5.457  -4.701  0.00  0.00     0.026 H 
ATOM     64  H   LIG d   1       3.957  -6.673  -5.993  0.00  0.00     0.026 H 
ENDBRANCH  47  61
ENDBRANCH   1  44
TORSDOF 15
ENDMDL
