MODEL 1
REMARK VINA RESULT:      -7.0      0.000      0.000
REMARK  6 active torsions:
REMARK  status: ('A' for Active; 'I' for Inactive)
REMARK    1  A    between atoms: C_3  and  C_21 
REMARK    2  A    between atoms: C_6  and  C_7 
REMARK    3  A    between atoms: C_8  and  O_20 
REMARK    4  A    between atoms: C_12  and  N_17 
REMARK    5  A    between atoms: C_22  and  O_34 
REMARK    6  A    between atoms: C_26  and  N_31 
ROOT
ATOM      1  C   LIG d   1      11.964   7.570  -1.332  0.00  0.00    -0.052 A 
ATOM      2  C   LIG d   1      11.734   7.471  -2.662  0.00  0.00    -0.052 A 
ATOM      3  C   LIG d   1      10.413   7.288  -3.140  0.00  0.00     0.002 A 
ATOM      4  C   LIG d   1       9.334   7.208  -2.226  0.00  0.00    -0.052 A 
ATOM      5  C   LIG d   1       9.564   7.307  -0.896  0.00  0.00    -0.052 A 
ATOM      6  C   LIG d   1      10.885   7.491  -0.418  0.00  0.00     0.002 A 
ATOM      7  H   LIG d   1      12.971   7.705  -0.966  0.00  0.00     0.062 H 
ATOM      8  H   LIG d   1      12.557   7.532  -3.358  0.00  0.00     0.062 H 
ATOM      9  H   LIG d   1       8.327   7.070  -2.591  0.00  0.00     0.062 H 
ATOM     10  H   LIG d   1       8.741   7.247  -0.200  0.00  0.00     0.062 H 
ENDROOT
BRANCH   3  11
ATOM     11  C   LIG d   1      10.173   7.186  -4.522  0.00  0.00     0.089 A 
ATOM     12  N   LIG d   1      10.442   6.091  -5.307  0.00  0.00    -0.351 N 
ATOM     13  C   LIG d   1      10.068   6.363  -6.612  0.00  0.00     0.057 A 
ATOM     14  H   LIG d   1      10.831   5.258  -4.996  0.00  0.00     0.166 HD
ATOM     15  C   LIG d   1       9.554   7.676  -6.656  0.00  0.00     0.042 A 
ATOM     16  C   LIG d   1      10.120   5.613  -7.778  0.00  0.00     0.040 A 
ATOM     17  C   LIG d   1       9.618   8.198  -5.345  0.00  0.00     0.150 A 
ATOM     18  C   LIG d   1       9.104   8.207  -7.878  0.00  0.00    -0.043 A 
ATOM     19  C   LIG d   1       9.167   7.447  -9.012  0.00  0.00     0.016 A 
ATOM     20  H   LIG d   1       8.709   9.211  -7.919  0.00  0.00     0.063 H 
ATOM     21  C   LIG d   1       9.672   6.155  -8.967  0.00  0.00     0.275 A 
ATOM     22  H   LIG d   1       8.819   7.856  -9.949  0.00  0.00     0.069 H 
ATOM     23  H   LIG d   1      10.512   4.606  -7.756  0.00  0.00     0.071 H 
BRANCH  17  24
ATOM     24  O   LIG d   1       9.226   9.426  -4.950  0.00  0.00    -0.504 OA
ATOM     25  H   LIG d   1       9.651  10.149  -5.431  0.00  0.00     0.292 HD
ENDBRANCH  17  24
BRANCH  21  26
ATOM     26  N   LIG d   1       9.730   5.350 -10.207  0.00  0.00     0.080 N 
ATOM     27  O   LIG d   1       8.779   5.462 -11.112  0.00  0.00     0.041 OA
ATOM     28  O   LIG d   1      10.733   4.521 -10.408  0.00  0.00    -0.576 OA
ENDBRANCH  21  26
ENDBRANCH   3  11
BRANCH   6  29
ATOM     29  C   LIG d   1      11.124   7.594   0.964  0.00  0.00     0.089 A 
ATOM     30  N   LIG d   1      11.561   8.718   1.624  0.00  0.00    -0.351 N 
ATOM     31  C   LIG d   1      11.676   8.436   2.974  0.00  0.00     0.057 A 
ATOM     32  H   LIG d   1      11.755   9.573   1.210  0.00  0.00     0.166 HD
ATOM     33  C   LIG d   1      11.310   7.088   3.175  0.00  0.00     0.042 A 
ATOM     34  C   LIG d   1      12.066   9.204   4.063  0.00  0.00     0.040 A 
ATOM     35  C   LIG d   1      10.962   6.554   1.913  0.00  0.00     0.150 A 
ATOM     36  C   LIG d   1      11.345   6.543   4.470  0.00  0.00    -0.043 A 
ATOM     37  C   LIG d   1      11.732   7.320   5.523  0.00  0.00     0.016 A 
ATOM     38  H   LIG d   1      11.066   5.511   4.631  0.00  0.00     0.063 H 
ATOM     39  C   LIG d   1      12.093   8.645   5.327  0.00  0.00     0.275 A 
ATOM     40  H   LIG d   1      11.758   6.899   6.518  0.00  0.00     0.069 H 
ATOM     41  H   LIG d   1      12.348  10.237   3.921  0.00  0.00     0.071 H 
BRANCH  35  42
ATOM     42  O   LIG d   1      10.552   5.294   1.662  0.00  0.00    -0.504 OA
ATOM     43  H   LIG d   1      10.540   5.065   0.722  0.00  0.00     0.292 HD
ENDBRANCH  35  42
BRANCH  39  44
ATOM     44  N   LIG d   1      12.509   9.471   6.483  0.00  0.00     0.080 N 
ATOM     45  O   LIG d   1      13.746   9.403   6.929  0.00  0.00     0.041 OA
ATOM     46  O   LIG d   1      11.642  10.274   7.065  0.00  0.00    -0.576 OA
ENDBRANCH  39  44
ENDBRANCH   6  29
TORSDOF 6
ENDMDL
MODEL 2
REMARK VINA RESULT:      -6.9      1.412      1.791
REMARK  6 active torsions:
REMARK  status: ('A' for Active; 'I' for Inactive)
REMARK    1  A    between atoms: C_3  and  C_21 
REMARK    2  A    between atoms: C_6  and  C_7 
REMARK    3  A    between atoms: C_8  and  O_20 
REMARK    4  A    between atoms: C_12  and  N_17 
REMARK    5  A    between atoms: C_22  and  O_34 
REMARK    6  A    between atoms: C_26  and  N_31 
ROOT
ATOM      1  C   LIG d   1      11.998   6.523  -1.276  0.00  0.00    -0.052 A 
ATOM      2  C   LIG d   1      11.787   6.257  -2.586  0.00  0.00    -0.052 A 
ATOM      3  C   LIG d   1      10.498   6.439  -3.146  0.00  0.00     0.002 A 
ATOM      4  C   LIG d   1       9.433   6.901  -2.336  0.00  0.00    -0.052 A 
ATOM      5  C   LIG d   1       9.644   7.168  -1.025  0.00  0.00    -0.052 A 
ATOM      6  C   LIG d   1      10.933   6.986  -0.466  0.00  0.00     0.002 A 
ATOM      7  H   LIG d   1      12.980   6.379  -0.847  0.00  0.00     0.062 H 
ATOM      8  H   LIG d   1      12.600   5.904  -3.204  0.00  0.00     0.062 H 
ATOM      9  H   LIG d   1       8.452   7.042  -2.763  0.00  0.00     0.062 H 
ATOM     10  H   LIG d   1       8.832   7.520  -0.409  0.00  0.00     0.062 H 
ENDROOT
BRANCH   3  11
ATOM     11  C   LIG d   1      10.279   6.163  -4.507  0.00  0.00     0.089 A 
ATOM     12  N   LIG d   1      10.113   7.098  -5.502  0.00  0.00    -0.351 N 
ATOM     13  C   LIG d   1       9.925   6.448  -6.709  0.00  0.00     0.057 A 
ATOM     14  H   LIG d   1      10.128   8.060  -5.377  0.00  0.00     0.166 HD
ATOM     15  C   LIG d   1       9.963   5.058  -6.471  0.00  0.00     0.042 A 
ATOM     16  C   LIG d   1       9.717   6.911  -8.001  0.00  0.00     0.040 A 
ATOM     17  C   LIG d   1      10.185   4.873  -5.088  0.00  0.00     0.150 A 
ATOM     18  C   LIG d   1       9.791   4.163  -7.542  0.00  0.00    -0.043 A 
ATOM     19  C   LIG d   1       9.588   4.645  -8.804  0.00  0.00     0.016 A 
ATOM     20  H   LIG d   1       9.819   3.098  -7.366  0.00  0.00     0.063 H 
ATOM     21  C   LIG d   1       9.550   6.013  -9.038  0.00  0.00     0.275 A 
ATOM     22  H   LIG d   1       9.457   3.956  -9.625  0.00  0.00     0.069 H 
ATOM     23  H   LIG d   1       9.686   7.974  -8.196  0.00  0.00     0.071 H 
BRANCH  17  24
ATOM     24  O   LIG d   1      10.289   3.695  -4.443  0.00  0.00    -0.504 OA
ATOM     25  H   LIG d   1       9.511   3.464  -3.917  0.00  0.00     0.292 HD
ENDBRANCH  17  24
BRANCH  21  26
ATOM     26  N   LIG d   1       9.330   6.514 -10.412  0.00  0.00     0.080 N 
ATOM     27  O   LIG d   1       9.955   7.596 -10.829  0.00  0.00     0.041 OA
ATOM     28  O   LIG d   1       8.509   5.877 -11.222  0.00  0.00    -0.576 OA
ENDBRANCH  21  26
ENDBRANCH   3  11
BRANCH   6  29
ATOM     29  C   LIG d   1      11.153   7.263   0.895  0.00  0.00     0.089 A 
ATOM     30  N   LIG d   1      11.603   8.455   1.412  0.00  0.00    -0.351 N 
ATOM     31  C   LIG d   1      11.692   8.349   2.789  0.00  0.00     0.057 A 
ATOM     32  H   LIG d   1      11.821   9.245   0.893  0.00  0.00     0.166 HD
ATOM     33  C   LIG d   1      11.295   7.045   3.157  0.00  0.00     0.042 A 
ATOM     34  C   LIG d   1      12.081   9.244   3.775  0.00  0.00     0.040 A 
ATOM     35  C   LIG d   1      10.955   6.358   1.969  0.00  0.00     0.150 A 
ATOM     36  C   LIG d   1      11.299   6.673   4.512  0.00  0.00    -0.043 A 
ATOM     37  C   LIG d   1      11.686   7.573   5.462  0.00  0.00     0.016 A 
ATOM     38  H   LIG d   1      10.996   5.677   4.800  0.00  0.00     0.063 H 
ATOM     39  C   LIG d   1      12.077   8.855   5.101  0.00  0.00     0.275 A 
ATOM     40  H   LIG d   1      11.688   7.285   6.503  0.00  0.00     0.069 H 
ATOM     41  H   LIG d   1      12.387  10.245   3.506  0.00  0.00     0.071 H 
BRANCH  35  42
ATOM     42  O   LIG d   1      10.524   5.085   1.876  0.00  0.00    -0.504 OA
ATOM     43  H   LIG d   1      10.495   4.744   0.970  0.00  0.00     0.292 HD
ENDBRANCH  35  42
BRANCH  39  44
ATOM     44  N   LIG d   1      12.492   9.816   6.148  0.00  0.00     0.080 N 
ATOM     45  O   LIG d   1      13.753  10.186   6.239  0.00  0.00     0.041 OA
ATOM     46  O   LIG d   1      11.601  10.301   6.987  0.00  0.00    -0.576 OA
ENDBRANCH  39  44
ENDBRANCH   6  29
TORSDOF 6
ENDMDL
MODEL 3
REMARK VINA RESULT:      -6.5      3.112     12.714
REMARK  6 active torsions:
REMARK  status: ('A' for Active; 'I' for Inactive)
REMARK    1  A    between atoms: C_3  and  C_21 
REMARK    2  A    between atoms: C_6  and  C_7 
REMARK    3  A    between atoms: C_8  and  O_20 
REMARK    4  A    between atoms: C_12  and  N_17 
REMARK    5  A    between atoms: C_22  and  O_34 
REMARK    6  A    between atoms: C_26  and  N_31 
ROOT
ATOM      1  C   LIG d   1      10.907   6.867  -8.031  0.00  0.00    -0.052 A 
ATOM      2  C   LIG d   1      11.035   6.974  -6.688  0.00  0.00    -0.052 A 
ATOM      3  C   LIG d   1      10.136   7.786  -5.954  0.00  0.00     0.002 A 
ATOM      4  C   LIG d   1       9.103   8.485  -6.625  0.00  0.00    -0.052 A 
ATOM      5  C   LIG d   1       8.975   8.377  -7.968  0.00  0.00    -0.052 A 
ATOM      6  C   LIG d   1       9.873   7.565  -8.702  0.00  0.00     0.002 A 
ATOM      7  H   LIG d   1      11.595   6.251  -8.593  0.00  0.00     0.062 H 
ATOM      8  H   LIG d   1      11.824   6.441  -6.177  0.00  0.00     0.062 H 
ATOM      9  H   LIG d   1       8.417   9.102  -6.065  0.00  0.00     0.062 H 
ATOM     10  H   LIG d   1       8.187   8.910  -8.479  0.00  0.00     0.062 H 
ENDROOT
BRANCH   3  11
ATOM     11  C   LIG d   1      10.269   7.897  -4.558  0.00  0.00     0.089 A 
ATOM     12  N   LIG d   1      10.458   6.855  -3.682  0.00  0.00    -0.351 N 
ATOM     13  C   LIG d   1      10.548   7.354  -2.394  0.00  0.00     0.057 A 
ATOM     14  H   LIG d   1      10.521   5.918  -3.928  0.00  0.00     0.166 HD
ATOM     15  C   LIG d   1      10.403   8.756  -2.455  0.00  0.00     0.042 A 
ATOM     16  C   LIG d   1      10.737   6.743  -1.163  0.00  0.00     0.040 A 
ATOM     17  C   LIG d   1      10.227   9.102  -3.813  0.00  0.00     0.150 A 
ATOM     18  C   LIG d   1      10.451   9.513  -1.272  0.00  0.00    -0.043 A 
ATOM     19  C   LIG d   1      10.638   8.886  -0.072  0.00  0.00     0.016 A 
ATOM     20  H   LIG d   1      10.340  10.586  -1.311  0.00  0.00     0.063 H 
ATOM     21  C   LIG d   1      10.781   7.507  -0.012  0.00  0.00     0.275 A 
ATOM     22  H   LIG d   1      10.675   9.469   0.836  0.00  0.00     0.069 H 
ATOM     23  H   LIG d   1      10.850   5.669  -1.104  0.00  0.00     0.071 H 
BRANCH  17  24
ATOM     24  O   LIG d   1      10.052  10.344  -4.308  0.00  0.00    -0.504 OA
ATOM     25  H   LIG d   1       9.412  10.393  -5.031  0.00  0.00     0.292 HD
ENDBRANCH  17  24
BRANCH  21  26
ATOM     26  N   LIG d   1      10.983   6.849   1.297  0.00  0.00     0.080 N 
ATOM     27  O   LIG d   1      10.667   5.579   1.454  0.00  0.00     0.041 OA
ATOM     28  O   LIG d   1      11.480   7.531   2.308  0.00  0.00    -0.576 OA
ENDBRANCH  21  26
ENDBRANCH   3  11
BRANCH   6  29
ATOM     29  C   LIG d   1       9.739   7.453 -10.098  0.00  0.00     0.089 A 
ATOM     30  N   LIG d   1       9.998   8.446 -11.013  0.00  0.00    -0.351 N 
ATOM     31  C   LIG d   1       9.755   7.963 -12.287  0.00  0.00     0.057 A 
ATOM     32  H   LIG d   1      10.305   9.341 -10.800  0.00  0.00     0.166 HD
ATOM     33  C   LIG d   1       9.319   6.625 -12.176  0.00  0.00     0.042 A 
ATOM     34  C   LIG d   1       9.860   8.541 -13.545  0.00  0.00     0.040 A 
ATOM     35  C   LIG d   1       9.307   6.300 -10.800  0.00  0.00     0.150 A 
ATOM     36  C   LIG d   1       8.998   5.899 -13.335  0.00  0.00    -0.043 A 
ATOM     37  C   LIG d   1       9.110   6.491 -14.560  0.00  0.00     0.016 A 
ATOM     38  H   LIG d   1       8.664   4.875 -13.257  0.00  0.00     0.063 H 
ATOM     39  C   LIG d   1       9.539   7.806 -14.671  0.00  0.00     0.275 A 
ATOM     40  H   LIG d   1       8.863   5.931 -15.450  0.00  0.00     0.069 H 
ATOM     41  H   LIG d   1      10.193   9.564 -13.643  0.00  0.00     0.071 H 
BRANCH  35  42
ATOM     42  O   LIG d   1       8.953   5.117 -10.260  0.00  0.00    -0.504 OA
ATOM     43  H   LIG d   1       9.059   5.076  -9.299  0.00  0.00     0.292 HD
ENDBRANCH  35  42
BRANCH  39  44
ATOM     44  N   LIG d   1       9.653   8.429 -16.009  0.00  0.00     0.080 N 
ATOM     45  O   LIG d   1      10.310   9.561 -16.154  0.00  0.00     0.041 OA
ATOM     46  O   LIG d   1       9.099   7.851 -17.054  0.00  0.00    -0.576 OA
ENDBRANCH  39  44
ENDBRANCH   6  29
TORSDOF 6
ENDMDL
MODEL 4
REMARK VINA RESULT:      -6.5      3.091      6.081
REMARK  6 active torsions:
REMARK  status: ('A' for Active; 'I' for Inactive)
REMARK    1  A    between atoms: C_3  and  C_21 
REMARK    2  A    between atoms: C_6  and  C_7 
REMARK    3  A    between atoms: C_8  and  O_20 
REMARK    4  A    between atoms: C_12  and  N_17 
REMARK    5  A    between atoms: C_22  and  O_34 
REMARK    6  A    between atoms: C_26  and  N_31 
ROOT
ATOM      1  C   LIG d   1      11.016   6.927  -6.666  0.00  0.00    -0.052 A 
ATOM      2  C   LIG d   1      10.879   6.816  -8.009  0.00  0.00    -0.052 A 
ATOM      3  C   LIG d   1       9.856   7.533  -8.677  0.00  0.00     0.002 A 
ATOM      4  C   LIG d   1       8.978   8.366  -7.941  0.00  0.00    -0.052 A 
ATOM      5  C   LIG d   1       9.115   8.477  -6.599  0.00  0.00    -0.052 A 
ATOM      6  C   LIG d   1      10.139   7.760  -5.931  0.00  0.00     0.002 A 
ATOM      7  H   LIG d   1      11.793   6.377  -6.156  0.00  0.00     0.062 H 
ATOM      8  H   LIG d   1      11.548   6.181  -8.569  0.00  0.00     0.062 H 
ATOM      9  H   LIG d   1       8.199   8.913  -8.451  0.00  0.00     0.062 H 
ATOM     10  H   LIG d   1       8.446   9.112  -6.039  0.00  0.00     0.062 H 
ENDROOT
BRANCH   3  11
ATOM     11  C   LIG d   1       9.714   7.419 -10.071  0.00  0.00     0.089 A 
ATOM     12  N   LIG d   1       9.993   8.400 -10.992  0.00  0.00    -0.351 N 
ATOM     13  C   LIG d   1       9.734   7.917 -12.264  0.00  0.00     0.057 A 
ATOM     14  H   LIG d   1      10.321   9.290 -10.784  0.00  0.00     0.166 HD
ATOM     15  C   LIG d   1       9.268   6.591 -12.144  0.00  0.00     0.042 A 
ATOM     16  C   LIG d   1       9.848   8.487 -13.524  0.00  0.00     0.040 A 
ATOM     17  C   LIG d   1       9.253   6.273 -10.768  0.00  0.00     0.150 A 
ATOM     18  C   LIG d   1       8.926   5.866 -13.299  0.00  0.00    -0.043 A 
ATOM     19  C   LIG d   1       9.047   6.451 -14.527  0.00  0.00     0.016 A 
ATOM     20  H   LIG d   1       8.568   4.851 -13.214  0.00  0.00     0.063 H 
ATOM     21  C   LIG d   1       9.505   7.756 -14.645  0.00  0.00     0.275 A 
ATOM     22  H   LIG d   1       8.784   5.892 -15.414  0.00  0.00     0.069 H 
ATOM     23  H   LIG d   1      10.204   9.502 -13.628  0.00  0.00     0.071 H 
BRANCH  17  24
ATOM     24  O   LIG d   1       8.874   5.101 -10.219  0.00  0.00    -0.504 OA
ATOM     25  H   LIG d   1       8.893   4.354 -10.833  0.00  0.00     0.292 HD
ENDBRANCH  17  24
BRANCH  21  26
ATOM     26  N   LIG d   1       9.629   8.369 -15.986  0.00  0.00     0.080 N 
ATOM     27  O   LIG d   1      10.285   9.502 -16.135  0.00  0.00     0.041 OA
ATOM     28  O   LIG d   1       9.084   7.783 -17.031  0.00  0.00    -0.576 OA
ENDBRANCH  21  26
ENDBRANCH   3  11
BRANCH   6  29
ATOM     29  C   LIG d   1      10.282   7.876  -4.537  0.00  0.00     0.089 A 
ATOM     30  N   LIG d   1      10.441   6.833  -3.655  0.00  0.00    -0.351 N 
ATOM     31  C   LIG d   1      10.551   7.337  -2.370  0.00  0.00     0.057 A 
ATOM     32  H   LIG d   1      10.474   5.894  -3.895  0.00  0.00     0.166 HD
ATOM     33  C   LIG d   1      10.448   8.743  -2.439  0.00  0.00     0.042 A 
ATOM     34  C   LIG d   1      10.727   6.728  -1.136  0.00  0.00     0.040 A 
ATOM     35  C   LIG d   1      10.278   9.086  -3.800  0.00  0.00     0.150 A 
ATOM     36  C   LIG d   1      10.524   9.505  -1.260  0.00  0.00    -0.043 A 
ATOM     37  C   LIG d   1      10.697   8.880  -0.059  0.00  0.00     0.016 A 
ATOM     38  H   LIG d   1      10.446  10.581  -1.306  0.00  0.00     0.063 H 
ATOM     39  C   LIG d   1      10.798   7.498   0.010  0.00  0.00     0.275 A 
ATOM     40  H   LIG d   1      10.755   9.468   0.847  0.00  0.00     0.069 H 
ATOM     41  H   LIG d   1      10.807   5.653  -1.071  0.00  0.00     0.071 H 
BRANCH  35  42
ATOM     42  O   LIG d   1      10.141  10.330  -4.300  0.00  0.00    -0.504 OA
ATOM     43  H   LIG d   1       9.222  10.625  -4.374  0.00  0.00     0.292 HD
ENDBRANCH  35  42
BRANCH  39  44
ATOM     44  N   LIG d   1      10.986   6.841   1.323  0.00  0.00     0.080 N 
ATOM     45  O   LIG d   1      10.693   5.566   1.469  0.00  0.00     0.041 OA
ATOM     46  O   LIG d   1      11.446   7.533   2.345  0.00  0.00    -0.576 OA
ENDBRANCH  39  44
ENDBRANCH   6  29
TORSDOF 6
ENDMDL
MODEL 5
REMARK VINA RESULT:      -6.5      2.154      2.873
REMARK  6 active torsions:
REMARK  status: ('A' for Active; 'I' for Inactive)
REMARK    1  A    between atoms: C_3  and  C_21 
REMARK    2  A    between atoms: C_6  and  C_7 
REMARK    3  A    between atoms: C_8  and  O_20 
REMARK    4  A    between atoms: C_12  and  N_17 
REMARK    5  A    between atoms: C_22  and  O_34 
REMARK    6  A    between atoms: C_26  and  N_31 
ROOT
ATOM      1  C   LIG d   1       9.436   6.788  -1.928  0.00  0.00    -0.052 A 
ATOM      2  C   LIG d   1       9.246   6.578  -3.251  0.00  0.00    -0.052 A 
ATOM      3  C   LIG d   1      10.326   6.148  -4.062  0.00  0.00     0.002 A 
ATOM      4  C   LIG d   1      11.603   5.938  -3.487  0.00  0.00    -0.052 A 
ATOM      5  C   LIG d   1      11.793   6.149  -2.163  0.00  0.00    -0.052 A 
ATOM      6  C   LIG d   1      10.713   6.578  -1.353  0.00  0.00     0.002 A 
ATOM      7  H   LIG d   1       8.615   7.121  -1.310  0.00  0.00     0.062 H 
ATOM      8  H   LIG d   1       8.272   6.739  -3.689  0.00  0.00     0.062 H 
ATOM      9  H   LIG d   1      12.425   5.609  -4.104  0.00  0.00     0.062 H 
ATOM     10  H   LIG d   1      12.766   5.988  -1.726  0.00  0.00     0.062 H 
ENDROOT
BRANCH   3  11
ATOM     11  C   LIG d   1      10.128   5.929  -5.437  0.00  0.00     0.089 A 
ATOM     12  N   LIG d   1      10.091   6.899  -6.409  0.00  0.00    -0.351 N 
ATOM     13  C   LIG d   1       9.882   6.301  -7.640  0.00  0.00     0.057 A 
ATOM     14  H   LIG d   1      10.196   7.852  -6.257  0.00  0.00     0.166 HD
ATOM     15  C   LIG d   1       9.775   4.909  -7.440  0.00  0.00     0.042 A 
ATOM     16  C   LIG d   1       9.767   6.814  -8.924  0.00  0.00     0.040 A 
ATOM     17  C   LIG d   1       9.929   4.669  -6.056  0.00  0.00     0.150 A 
ATOM     18  C   LIG d   1       9.553   4.062  -8.540  0.00  0.00    -0.043 A 
ATOM     19  C   LIG d   1       9.444   4.593  -9.794  0.00  0.00     0.016 A 
ATOM     20  H   LIG d   1       9.470   2.995  -8.394  0.00  0.00     0.063 H 
ATOM     21  C   LIG d   1       9.549   5.963  -9.991  0.00  0.00     0.275 A 
ATOM     22  H   LIG d   1       9.274   3.941 -10.638  0.00  0.00     0.069 H 
ATOM     23  H   LIG d   1       9.848   7.880  -9.090  0.00  0.00     0.071 H 
BRANCH  17  24
ATOM     24  O   LIG d   1       9.893   3.471  -5.441  0.00  0.00    -0.504 OA
ATOM     25  H   LIG d   1      10.734   3.208  -5.041  0.00  0.00     0.292 HD
ENDBRANCH  17  24
BRANCH  21  26
ATOM     26  N   LIG d   1       9.428   6.517 -11.357  0.00  0.00     0.080 N 
ATOM     27  O   LIG d   1       8.552   6.009 -12.200  0.00  0.00     0.041 OA
ATOM     28  O   LIG d   1      10.196   7.519 -11.733  0.00  0.00    -0.576 OA
ENDBRANCH  21  26
ENDBRANCH   3  11
BRANCH   6  29
ATOM     29  C   LIG d   1      10.911   6.796   0.022  0.00  0.00     0.089 A 
ATOM     30  N   LIG d   1      10.687   5.880   1.023  0.00  0.00    -0.351 N 
ATOM     31  C   LIG d   1      10.996   6.456   2.243  0.00  0.00     0.057 A 
ATOM     32  H   LIG d   1      10.367   4.973   0.894  0.00  0.00     0.166 HD
ATOM     33  C   LIG d   1      11.420   7.782   2.010  0.00  0.00     0.042 A 
ATOM     34  C   LIG d   1      10.953   5.975   3.545  0.00  0.00     0.040 A 
ATOM     35  C   LIG d   1      11.367   8.000   0.614  0.00  0.00     0.150 A 
ATOM     36  C   LIG d   1      11.790   8.595   3.094  0.00  0.00    -0.043 A 
ATOM     37  C   LIG d   1      11.739   8.097   4.364  0.00  0.00     0.016 A 
ATOM     38  H   LIG d   1      12.116   9.611   2.922  0.00  0.00     0.063 H 
ATOM     39  C   LIG d   1      11.323   6.794   4.595  0.00  0.00     0.275 A 
ATOM     40  H   LIG d   1      12.025   8.725   5.197  0.00  0.00     0.069 H 
ATOM     41  H   LIG d   1      10.631   4.962   3.736  0.00  0.00     0.071 H 
BRANCH  35  42
ATOM     42  O   LIG d   1      11.691   9.139  -0.031  0.00  0.00    -0.504 OA
ATOM     43  H   LIG d   1      11.549   9.103  -0.987  0.00  0.00     0.292 HD
ENDBRANCH  35  42
BRANCH  39  44
ATOM     44  N   LIG d   1      11.275   6.274   5.980  0.00  0.00     0.080 N 
ATOM     45  O   LIG d   1      10.468   6.826   6.863  0.00  0.00     0.041 OA
ATOM     46  O   LIG d   1      12.038   5.260   6.329  0.00  0.00    -0.576 OA
ENDBRANCH  39  44
ENDBRANCH   6  29
TORSDOF 6
ENDMDL
MODEL 6
REMARK VINA RESULT:      -6.3      3.352      6.053
REMARK  6 active torsions:
REMARK  status: ('A' for Active; 'I' for Inactive)
REMARK    1  A    between atoms: C_3  and  C_21 
REMARK    2  A    between atoms: C_6  and  C_7 
REMARK    3  A    between atoms: C_8  and  O_20 
REMARK    4  A    between atoms: C_12  and  N_17 
REMARK    5  A    between atoms: C_22  and  O_34 
REMARK    6  A    between atoms: C_26  and  N_31 
ROOT
ATOM      1  C   LIG d   1       9.134   8.323  -6.953  0.00  0.00    -0.052 A 
ATOM      2  C   LIG d   1       9.027   8.283  -8.302  0.00  0.00    -0.052 A 
ATOM      3  C   LIG d   1       9.826   7.384  -9.050  0.00  0.00     0.002 A 
ATOM      4  C   LIG d   1      10.737   6.526  -8.386  0.00  0.00    -0.052 A 
ATOM      5  C   LIG d   1      10.845   6.566  -7.037  0.00  0.00    -0.052 A 
ATOM      6  C   LIG d   1      10.045   7.465  -6.290  0.00  0.00     0.002 A 
ATOM      7  H   LIG d   1       8.528   9.012  -6.383  0.00  0.00     0.062 H 
ATOM      8  H   LIG d   1       8.332   8.938  -8.808  0.00  0.00     0.062 H 
ATOM      9  H   LIG d   1      11.345   5.840  -8.956  0.00  0.00     0.062 H 
ATOM     10  H   LIG d   1      11.539   5.913  -6.532  0.00  0.00     0.062 H 
ENDROOT
BRANCH   3  11
ATOM     11  C   LIG d   1       9.713   7.342 -10.451  0.00  0.00     0.089 A 
ATOM     12  N   LIG d   1       9.089   6.357 -11.179  0.00  0.00    -0.351 N 
ATOM     13  C   LIG d   1       9.178   6.663 -12.526  0.00  0.00     0.057 A 
ATOM     14  H   LIG d   1       8.653   5.574 -10.808  0.00  0.00     0.166 HD
ATOM     15  C   LIG d   1       9.890   7.874 -12.656  0.00  0.00     0.042 A 
ATOM     16  C   LIG d   1       8.722   6.016 -13.666  0.00  0.00     0.040 A 
ATOM     17  C   LIG d   1      10.228   8.305 -11.355  0.00  0.00     0.150 A 
ATOM     18  C   LIG d   1      10.126   8.409 -13.935  0.00  0.00    -0.043 A 
ATOM     19  C   LIG d   1       9.666   7.752 -15.041  0.00  0.00     0.016 A 
ATOM     20  H   LIG d   1      10.670   9.335 -14.041  0.00  0.00     0.063 H 
ATOM     21  C   LIG d   1       8.966   6.560 -14.913  0.00  0.00     0.275 A 
ATOM     22  H   LIG d   1       9.848   8.165 -16.022  0.00  0.00     0.069 H 
ATOM     23  H   LIG d   1       8.175   5.088 -13.579  0.00  0.00     0.071 H 
BRANCH  17  24
ATOM     24  O   LIG d   1      10.912   9.421 -11.031  0.00  0.00    -0.504 OA
ATOM     25  H   LIG d   1      11.594   9.285 -10.360  0.00  0.00     0.292 HD
ENDBRANCH  17  24
BRANCH  21  26
ATOM     26  N   LIG d   1       8.476   5.866 -16.124  0.00  0.00     0.080 N 
ATOM     27  O   LIG d   1       7.385   5.130 -16.067  0.00  0.00     0.041 OA
ATOM     28  O   LIG d   1       9.130   5.984 -17.261  0.00  0.00    -0.576 OA
ENDBRANCH  21  26
ENDBRANCH   3  11
BRANCH   6  29
ATOM     29  C   LIG d   1      10.157   7.507  -4.889  0.00  0.00     0.089 A 
ATOM     30  N   LIG d   1      10.612   8.572  -4.149  0.00  0.00    -0.351 N 
ATOM     31  C   LIG d   1      10.575   8.241  -2.805  0.00  0.00     0.057 A 
ATOM     32  H   LIG d   1      10.908   9.422  -4.510  0.00  0.00     0.166 HD
ATOM     33  C   LIG d   1      10.091   6.920  -2.690  0.00  0.00     0.042 A 
ATOM     34  C   LIG d   1      10.915   8.942  -1.657  0.00  0.00     0.040 A 
ATOM     35  C   LIG d   1       9.827   6.454  -3.999  0.00  0.00     0.150 A 
ATOM     36  C   LIG d   1       9.960   6.335  -1.420  0.00  0.00    -0.043 A 
ATOM     37  C   LIG d   1      10.302   7.047  -0.306  0.00  0.00     0.016 A 
ATOM     38  H   LIG d   1       9.590   5.324  -1.325  0.00  0.00     0.063 H 
ATOM     39  C   LIG d   1      10.778   8.345  -0.418  0.00  0.00     0.275 A 
ATOM     40  H   LIG d   1      10.200   6.595   0.670  0.00  0.00     0.069 H 
ATOM     41  H   LIG d   1      11.287   9.954  -1.732  0.00  0.00     0.071 H 
BRANCH  35  42
ATOM     42  O   LIG d   1       9.350   5.239  -4.335  0.00  0.00    -0.504 OA
ATOM     43  H   LIG d   1       9.027   4.722  -3.583  0.00  0.00     0.292 HD
ENDBRANCH  35  42
BRANCH  39  44
ATOM     44  N   LIG d   1      11.142   9.100   0.803  0.00  0.00     0.080 N 
ATOM     45  O   LIG d   1      11.774   8.495   1.787  0.00  0.00     0.041 OA
ATOM     46  O   LIG d   1      10.834  10.376   0.904  0.00  0.00    -0.576 OA
ENDBRANCH  39  44
ENDBRANCH   6  29
TORSDOF 6
ENDMDL
MODEL 7
REMARK VINA RESULT:      -6.2      8.137     10.361
REMARK  6 active torsions:
REMARK  status: ('A' for Active; 'I' for Inactive)
REMARK    1  A    between atoms: C_3  and  C_21 
REMARK    2  A    between atoms: C_6  and  C_7 
REMARK    3  A    between atoms: C_8  and  O_20 
REMARK    4  A    between atoms: C_12  and  N_17 
REMARK    5  A    between atoms: C_22  and  O_34 
REMARK    6  A    between atoms: C_26  and  N_31 
ROOT
ATOM      1  C   LIG d   1       9.647   0.972  -5.065  0.00  0.00    -0.052 A 
ATOM      2  C   LIG d   1       9.255  -0.305  -5.283  0.00  0.00    -0.052 A 
ATOM      3  C   LIG d   1       8.061  -0.789  -4.693  0.00  0.00     0.002 A 
ATOM      4  C   LIG d   1       7.279   0.062  -3.876  0.00  0.00    -0.052 A 
ATOM      5  C   LIG d   1       7.671   1.340  -3.658  0.00  0.00    -0.052 A 
ATOM      6  C   LIG d   1       8.864   1.824  -4.249  0.00  0.00     0.002 A 
ATOM      7  H   LIG d   1      10.559   1.341  -5.511  0.00  0.00     0.062 H 
ATOM      8  H   LIG d   1       9.852  -0.954  -5.906  0.00  0.00     0.062 H 
ATOM      9  H   LIG d   1       6.369  -0.307  -3.428  0.00  0.00     0.062 H 
ATOM     10  H   LIG d   1       7.074   1.988  -3.036  0.00  0.00     0.062 H 
ENDROOT
BRANCH   3  11
ATOM     11  C   LIG d   1       7.654  -2.116  -4.920  0.00  0.00     0.089 A 
ATOM     12  N   LIG d   1       6.427  -2.510  -5.398  0.00  0.00    -0.351 N 
ATOM     13  C   LIG d   1       6.399  -3.891  -5.493  0.00  0.00     0.057 A 
ATOM     14  H   LIG d   1       5.697  -1.915  -5.634  0.00  0.00     0.166 HD
ATOM     15  C   LIG d   1       7.643  -4.388  -5.052  0.00  0.00     0.042 A 
ATOM     16  C   LIG d   1       5.421  -4.782  -5.911  0.00  0.00     0.040 A 
ATOM     17  C   LIG d   1       8.436  -3.276  -4.691  0.00  0.00     0.150 A 
ATOM     18  C   LIG d   1       7.876  -5.774  -5.042  0.00  0.00    -0.043 A 
ATOM     19  C   LIG d   1       6.896  -6.630  -5.459  0.00  0.00     0.016 A 
ATOM     20  H   LIG d   1       8.827  -6.161  -4.706  0.00  0.00     0.063 H 
ATOM     21  C   LIG d   1       5.671  -6.141  -5.893  0.00  0.00     0.275 A 
ATOM     22  H   LIG d   1       7.077  -7.695  -5.452  0.00  0.00     0.069 H 
ATOM     23  H   LIG d   1       4.463  -4.414  -6.251  0.00  0.00     0.071 H 
BRANCH  17  24
ATOM     24  O   LIG d   1       9.698  -3.310  -4.218  0.00  0.00    -0.504 OA
ATOM     25  H   LIG d   1      10.196  -2.494  -4.365  0.00  0.00     0.292 HD
ENDBRANCH  17  24
BRANCH  21  26
ATOM     26  N   LIG d   1       4.624  -7.086  -6.341  0.00  0.00     0.080 N 
ATOM     27  O   LIG d   1       3.939  -6.838  -7.438  0.00  0.00     0.041 OA
ATOM     28  O   LIG d   1       4.377  -8.175  -5.644  0.00  0.00    -0.576 OA
ENDBRANCH  21  26
ENDBRANCH   3  11
BRANCH   6  29
ATOM     29  C   LIG d   1       9.271   3.151  -4.023  0.00  0.00     0.089 A 
ATOM     30  N   LIG d   1       8.892   4.247  -4.762  0.00  0.00    -0.351 N 
ATOM     31  C   LIG d   1       9.491   5.378  -4.237  0.00  0.00     0.057 A 
ATOM     32  H   LIG d   1       8.297   4.229  -5.528  0.00  0.00     0.166 HD
ATOM     33  C   LIG d   1      10.283   4.987  -3.136  0.00  0.00     0.042 A 
ATOM     34  C   LIG d   1       9.442   6.718  -4.597  0.00  0.00     0.040 A 
ATOM     35  C   LIG d   1      10.148   3.587  -2.998  0.00  0.00     0.150 A 
ATOM     36  C   LIG d   1      11.008   5.955  -2.422  0.00  0.00    -0.043 A 
ATOM     37  C   LIG d   1      10.943   7.266  -2.796  0.00  0.00     0.016 A 
ATOM     38  H   LIG d   1      11.616   5.663  -1.578  0.00  0.00     0.063 H 
ATOM     39  C   LIG d   1      10.165   7.652  -3.879  0.00  0.00     0.275 A 
ATOM     40  H   LIG d   1      11.502   8.009  -2.245  0.00  0.00     0.069 H 
ATOM     41  H   LIG d   1       8.840   7.030  -5.438  0.00  0.00     0.071 H 
BRANCH  35  42
ATOM     42  O   LIG d   1      10.740   2.813  -2.066  0.00  0.00    -0.504 OA
ATOM     43  H   LIG d   1      11.690   2.693  -2.201  0.00  0.00     0.292 HD
ENDBRANCH  35  42
BRANCH  39  44
ATOM     44  N   LIG d   1      10.107   9.079  -4.268  0.00  0.00     0.080 N 
ATOM     45  O   LIG d   1       9.994  10.010  -3.344  0.00  0.00     0.041 OA
ATOM     46  O   LIG d   1      10.170   9.418  -5.539  0.00  0.00    -0.576 OA
ENDBRANCH  39  44
ENDBRANCH   6  29
TORSDOF 6
ENDMDL
MODEL 8
REMARK VINA RESULT:      -6.2      1.906      2.177
REMARK  6 active torsions:
REMARK  status: ('A' for Active; 'I' for Inactive)
REMARK    1  A    between atoms: C_3  and  C_21 
REMARK    2  A    between atoms: C_6  and  C_7 
REMARK    3  A    between atoms: C_8  and  O_20 
REMARK    4  A    between atoms: C_12  and  N_17 
REMARK    5  A    between atoms: C_22  and  O_34 
REMARK    6  A    between atoms: C_26  and  N_31 
ROOT
ATOM      1  C   LIG d   1      10.121   8.815  -0.871  0.00  0.00    -0.052 A 
ATOM      2  C   LIG d   1       9.980   8.885  -2.216  0.00  0.00    -0.052 A 
ATOM      3  C   LIG d   1      10.857   8.158  -3.058  0.00  0.00     0.002 A 
ATOM      4  C   LIG d   1      11.879   7.357  -2.494  0.00  0.00    -0.052 A 
ATOM      5  C   LIG d   1      12.020   7.286  -1.149  0.00  0.00    -0.052 A 
ATOM      6  C   LIG d   1      11.143   8.013  -0.307  0.00  0.00     0.002 A 
ATOM      7  H   LIG d   1       9.456   9.373  -0.228  0.00  0.00     0.062 H 
ATOM      8  H   LIG d   1       9.201   9.497  -2.645  0.00  0.00     0.062 H 
ATOM      9  H   LIG d   1      12.546   6.801  -3.136  0.00  0.00     0.062 H 
ATOM     10  H   LIG d   1      12.799   6.675  -0.720  0.00  0.00     0.062 H 
ENDROOT
BRANCH   3  11
ATOM     11  C   LIG d   1      10.710   8.231  -4.455  0.00  0.00     0.089 A 
ATOM     12  N   LIG d   1      11.543   8.902  -5.317  0.00  0.00    -0.351 N 
ATOM     13  C   LIG d   1      11.080   8.742  -6.612  0.00  0.00     0.057 A 
ATOM     14  H   LIG d   1      12.331   9.406  -5.060  0.00  0.00     0.166 HD
ATOM     15  C   LIG d   1       9.912   7.953  -6.568  0.00  0.00     0.042 A 
ATOM     16  C   LIG d   1      11.544   9.203  -7.837  0.00  0.00     0.040 A 
ATOM     17  C   LIG d   1       9.675   7.629  -5.213  0.00  0.00     0.150 A 
ATOM     18  C   LIG d   1       9.235   7.643  -7.760  0.00  0.00    -0.043 A 
ATOM     19  C   LIG d   1       9.712   8.109  -8.952  0.00  0.00     0.016 A 
ATOM     20  H   LIG d   1       8.340   7.039  -7.733  0.00  0.00     0.063 H 
ATOM     21  C   LIG d   1      10.861   8.887  -8.996  0.00  0.00     0.275 A 
ATOM     22  H   LIG d   1       9.191   7.870  -9.867  0.00  0.00     0.069 H 
ATOM     23  H   LIG d   1      12.438   9.809  -7.884  0.00  0.00     0.071 H 
BRANCH  17  24
ATOM     24  O   LIG d   1       8.657   6.887  -4.732  0.00  0.00    -0.504 OA
ATOM     25  H   LIG d   1       8.939   6.105  -4.238  0.00  0.00     0.292 HD
ENDBRANCH  17  24
BRANCH  21  26
ATOM     26  N   LIG d   1      11.361   9.380 -10.298  0.00  0.00     0.080 N 
ATOM     27  O   LIG d   1      11.558   8.537 -11.291  0.00  0.00     0.041 OA
ATOM     28  O   LIG d   1      11.609  10.662 -10.466  0.00  0.00    -0.576 OA
ENDBRANCH  21  26
ENDBRANCH   3  11
BRANCH   6  29
ATOM     29  C   LIG d   1      11.289   7.939   1.090  0.00  0.00     0.089 A 
ATOM     30  N   LIG d   1      11.719   8.956   1.909  0.00  0.00    -0.351 N 
ATOM     31  C   LIG d   1      11.730   8.510   3.219  0.00  0.00     0.057 A 
ATOM     32  H   LIG d   1      11.970   9.846   1.616  0.00  0.00     0.166 HD
ATOM     33  C   LIG d   1      11.304   7.165   3.230  0.00  0.00     0.042 A 
ATOM     34  C   LIG d   1      12.070   9.125   4.417  0.00  0.00     0.040 A 
ATOM     35  C   LIG d   1      11.026   6.801   1.893  0.00  0.00     0.150 A 
ATOM     36  C   LIG d   1      11.230   6.468   4.448  0.00  0.00    -0.043 A 
ATOM     37  C   LIG d   1      11.570   7.096   5.612  0.00  0.00     0.016 A 
ATOM     38  H   LIG d   1      10.905   5.438   4.464  0.00  0.00     0.063 H 
ATOM     39  C   LIG d   1      11.990   8.419   5.602  0.00  0.00     0.275 A 
ATOM     40  H   LIG d   1      11.513   6.558   6.547  0.00  0.00     0.069 H 
ATOM     41  H   LIG d   1      12.398  10.154   4.421  0.00  0.00     0.071 H 
BRANCH  35  42
ATOM     42  O   LIG d   1      10.591   5.599   1.464  0.00  0.00    -0.504 OA
ATOM     43  H   LIG d   1       9.632   5.549   1.342  0.00  0.00     0.292 HD
ENDBRANCH  35  42
BRANCH  39  44
ATOM     44  N   LIG d   1      12.353   9.081   6.875  0.00  0.00     0.080 N 
ATOM     45  O   LIG d   1      13.166   8.482   7.720  0.00  0.00     0.041 OA
ATOM     46  O   LIG d   1      11.865  10.271   7.161  0.00  0.00    -0.576 OA
ENDBRANCH  39  44
ENDBRANCH   6  29
TORSDOF 6
ENDMDL
MODEL 9
REMARK VINA RESULT:      -6.2      8.057     12.203
REMARK  6 active torsions:
REMARK  status: ('A' for Active; 'I' for Inactive)
REMARK    1  A    between atoms: C_3  and  C_21 
REMARK    2  A    between atoms: C_6  and  C_7 
REMARK    3  A    between atoms: C_8  and  O_20 
REMARK    4  A    between atoms: C_12  and  N_17 
REMARK    5  A    between atoms: C_22  and  O_34 
REMARK    6  A    between atoms: C_26  and  N_31 
ROOT
ATOM      1  C   LIG d   1       9.335  -0.229  -5.224  0.00  0.00    -0.052 A 
ATOM      2  C   LIG d   1       9.741   1.043  -4.996  0.00  0.00    -0.052 A 
ATOM      3  C   LIG d   1       8.943   1.910  -4.211  0.00  0.00     0.002 A 
ATOM      4  C   LIG d   1       7.721   1.448  -3.665  0.00  0.00    -0.052 A 
ATOM      5  C   LIG d   1       7.315   0.177  -3.892  0.00  0.00    -0.052 A 
ATOM      6  C   LIG d   1       8.114  -0.691  -4.677  0.00  0.00     0.002 A 
ATOM      7  H   LIG d   1       9.941  -0.890  -5.827  0.00  0.00     0.062 H 
ATOM      8  H   LIG d   1      10.673   1.395  -5.414  0.00  0.00     0.062 H 
ATOM      9  H   LIG d   1       7.113   2.109  -3.065  0.00  0.00     0.062 H 
ATOM     10  H   LIG d   1       6.384  -0.175  -3.475  0.00  0.00     0.062 H 
ENDROOT
BRANCH   3  11
ATOM     11  C   LIG d   1       9.365   3.231  -3.974  0.00  0.00     0.089 A 
ATOM     12  N   LIG d   1       9.011   4.334  -4.714  0.00  0.00    -0.351 N 
ATOM     13  C   LIG d   1       9.618   5.456  -4.175  0.00  0.00     0.057 A 
ATOM     14  H   LIG d   1       8.428   4.327  -5.489  0.00  0.00     0.166 HD
ATOM     15  C   LIG d   1      10.387   5.049  -3.065  0.00  0.00     0.042 A 
ATOM     16  C   LIG d   1       9.592   6.797  -4.531  0.00  0.00     0.040 A 
ATOM     17  C   LIG d   1      10.232   3.651  -2.934  0.00  0.00     0.150 A 
ATOM     18  C   LIG d   1      11.115   6.005  -2.335  0.00  0.00    -0.043 A 
ATOM     19  C   LIG d   1      11.074   7.319  -2.706  0.00  0.00     0.016 A 
ATOM     20  H   LIG d   1      11.706   5.700  -1.484  0.00  0.00     0.063 H 
ATOM     21  C   LIG d   1      10.317   7.718  -3.799  0.00  0.00     0.275 A 
ATOM     22  H   LIG d   1      11.633   8.052  -2.144  0.00  0.00     0.069 H 
ATOM     23  H   LIG d   1       9.007   7.120  -5.380  0.00  0.00     0.071 H 
BRANCH  17  24
ATOM     24  O   LIG d   1      10.799   2.865  -1.997  0.00  0.00    -0.504 OA
ATOM     25  H   LIG d   1      11.016   1.976  -2.309  0.00  0.00     0.292 HD
ENDBRANCH  17  24
BRANCH  21  26
ATOM     26  N   LIG d   1      10.285   9.147  -4.183  0.00  0.00     0.080 N 
ATOM     27  O   LIG d   1      10.846   9.541  -5.308  0.00  0.00     0.041 OA
ATOM     28  O   LIG d   1       9.694  10.027  -3.401  0.00  0.00    -0.576 OA
ENDBRANCH  21  26
ENDBRANCH   3  11
BRANCH   6  29
ATOM     29  C   LIG d   1       7.692  -2.012  -4.913  0.00  0.00     0.089 A 
ATOM     30  N   LIG d   1       6.454  -2.391  -5.375  0.00  0.00    -0.351 N 
ATOM     31  C   LIG d   1       6.413  -3.770  -5.485  0.00  0.00     0.057 A 
ATOM     32  H   LIG d   1       5.727  -1.788  -5.593  0.00  0.00     0.166 HD
ATOM     33  C   LIG d   1       7.660  -4.282  -5.069  0.00  0.00     0.042 A 
ATOM     34  C   LIG d   1       5.421  -4.649  -5.898  0.00  0.00     0.040 A 
ATOM     35  C   LIG d   1       8.468  -3.180  -4.708  0.00  0.00     0.150 A 
ATOM     36  C   LIG d   1       7.882  -5.670  -5.079  0.00  0.00    -0.043 A 
ATOM     37  C   LIG d   1       6.889  -6.513  -5.490  0.00  0.00     0.016 A 
ATOM     38  H   LIG d   1       8.834  -6.069  -4.762  0.00  0.00     0.063 H 
ATOM     39  C   LIG d   1       5.662  -6.010  -5.899  0.00  0.00     0.275 A 
ATOM     40  H   LIG d   1       7.061  -7.579  -5.497  0.00  0.00     0.069 H 
ATOM     41  H   LIG d   1       4.462  -4.269  -6.218  0.00  0.00     0.071 H 
BRANCH  35  42
ATOM     42  O   LIG d   1       9.737  -3.231  -4.256  0.00  0.00    -0.504 OA
ATOM     43  H   LIG d   1      10.400  -3.332  -4.954  0.00  0.00     0.292 HD
ENDBRANCH  35  42
BRANCH  39  44
ATOM     44  N   LIG d   1       4.600  -6.941  -6.342  0.00  0.00     0.080 N 
ATOM     45  O   LIG d   1       3.922  -6.691  -7.443  0.00  0.00     0.041 OA
ATOM     46  O   LIG d   1       4.333  -8.020  -5.634  0.00  0.00    -0.576 OA
ENDBRANCH  39  44
ENDBRANCH   6  29
TORSDOF 6
ENDMDL
MODEL 10
REMARK VINA RESULT:      -6.1      4.835      6.618
REMARK  6 active torsions:
REMARK  status: ('A' for Active; 'I' for Inactive)
REMARK    1  A    between atoms: C_3  and  C_21 
REMARK    2  A    between atoms: C_6  and  C_7 
REMARK    3  A    between atoms: C_8  and  O_20 
REMARK    4  A    between atoms: C_12  and  N_17 
REMARK    5  A    between atoms: C_22  and  O_34 
REMARK    6  A    between atoms: C_26  and  N_31 
ROOT
ATOM      1  C   LIG d   1       9.844   4.335  -5.581  0.00  0.00    -0.052 A 
ATOM      2  C   LIG d   1       9.441   3.590  -6.636  0.00  0.00    -0.052 A 
ATOM      3  C   LIG d   1       8.615   2.458  -6.429  0.00  0.00     0.002 A 
ATOM      4  C   LIG d   1       8.210   2.107  -5.118  0.00  0.00    -0.052 A 
ATOM      5  C   LIG d   1       8.613   2.853  -4.062  0.00  0.00    -0.052 A 
ATOM      6  C   LIG d   1       9.439   3.985  -4.270  0.00  0.00     0.002 A 
ATOM      7  H   LIG d   1      10.478   5.196  -5.738  0.00  0.00     0.062 H 
ATOM      8  H   LIG d   1       9.750   3.857  -7.636  0.00  0.00     0.062 H 
ATOM      9  H   LIG d   1       7.580   1.245  -4.960  0.00  0.00     0.062 H 
ATOM     10  H   LIG d   1       8.304   2.585  -3.063  0.00  0.00     0.062 H 
ENDROOT
BRANCH   3  11
ATOM     11  C   LIG d   1       8.196   1.683  -7.525  0.00  0.00     0.089 A 
ATOM     12  N   LIG d   1       6.962   1.744  -8.128  0.00  0.00    -0.351 N 
ATOM     13  C   LIG d   1       6.923   0.837  -9.174  0.00  0.00     0.057 A 
ATOM     14  H   LIG d   1       6.235   2.329  -7.865  0.00  0.00     0.166 HD
ATOM     15  C   LIG d   1       8.168   0.176  -9.230  0.00  0.00     0.042 A 
ATOM     16  C   LIG d   1       5.935   0.505 -10.091  0.00  0.00     0.040 A 
ATOM     17  C   LIG d   1       8.972   0.704  -8.195  0.00  0.00     0.150 A 
ATOM     18  C   LIG d   1       8.391  -0.808 -10.209  0.00  0.00    -0.043 A 
ATOM     19  C   LIG d   1       7.401  -1.116 -11.099  0.00  0.00     0.016 A 
ATOM     20  H   LIG d   1       9.341  -1.318 -10.256  0.00  0.00     0.063 H 
ATOM     21  C   LIG d   1       6.176  -0.465 -11.044  0.00  0.00     0.275 A 
ATOM     22  H   LIG d   1       7.574  -1.872 -11.851  0.00  0.00     0.069 H 
ATOM     23  H   LIG d   1       4.978   1.005 -10.058  0.00  0.00     0.071 H 
BRANCH  17  24
ATOM     24  O   LIG d   1      10.237   0.345  -7.900  0.00  0.00    -0.504 OA
ATOM     25  H   LIG d   1      10.549  -0.433  -8.381  0.00  0.00     0.292 HD
ENDBRANCH  17  24
BRANCH  21  26
ATOM     26  N   LIG d   1       5.119  -0.814 -12.018  0.00  0.00     0.080 N 
ATOM     27  O   LIG d   1       4.157   0.046 -12.283  0.00  0.00     0.041 OA
ATOM     28  O   LIG d   1       5.139  -1.984 -12.622  0.00  0.00    -0.576 OA
ENDBRANCH  21  26
ENDBRANCH   3  11
BRANCH   6  29
ATOM     29  C   LIG d   1       9.857   4.760  -3.173  0.00  0.00     0.089 A 
ATOM     30  N   LIG d   1       9.570   6.089  -2.971  0.00  0.00    -0.351 N 
ATOM     31  C   LIG d   1      10.149   6.503  -1.784  0.00  0.00     0.057 A 
ATOM     32  H   LIG d   1       9.043   6.647  -3.564  0.00  0.00     0.166 HD
ATOM     33  C   LIG d   1      10.833   5.405  -1.221  0.00  0.00     0.042 A 
ATOM     34  C   LIG d   1      10.164   7.724  -1.123  0.00  0.00     0.040 A 
ATOM     35  C   LIG d   1      10.653   4.306  -2.092  0.00  0.00     0.150 A 
ATOM     36  C   LIG d   1      11.518   5.560  -0.004  0.00  0.00    -0.043 A 
ATOM     37  C   LIG d   1      11.517   6.772   0.625  0.00  0.00     0.016 A 
ATOM     38  H   LIG d   1      12.044   4.724   0.433  0.00  0.00     0.063 H 
ATOM     39  C   LIG d   1      10.845   7.853   0.073  0.00  0.00     0.275 A 
ATOM     40  H   LIG d   1      12.044   6.890   1.561  0.00  0.00     0.069 H 
ATOM     41  H   LIG d   1       9.644   8.572  -1.544  0.00  0.00     0.071 H 
BRANCH  35  42
ATOM     42  O   LIG d   1      11.143   3.061  -1.924  0.00  0.00    -0.504 OA
ATOM     43  H   LIG d   1      11.726   2.769  -2.638  0.00  0.00     0.292 HD
ENDBRANCH  35  42
BRANCH  39  44
ATOM     44  N   LIG d   1      10.856   9.158   0.772  0.00  0.00     0.080 N 
ATOM     45  O   LIG d   1      10.088  10.139   0.346  0.00  0.00     0.041 OA
ATOM     46  O   LIG d   1      11.633   9.337   1.819  0.00  0.00    -0.576 OA
ENDBRANCH  39  44
ENDBRANCH   6  29
TORSDOF 6
ENDMDL
