MODEL 1
REMARK VINA RESULT:      -5.9      0.000      0.000
REMARK  11 active torsions:
REMARK  status: ('A' for Active; 'I' for Inactive)
REMARK    1  A    between atoms: C_1  and  C_2 
REMARK    2  A    between atoms: C_2  and  C_28 
REMARK    3  A    between atoms: C_3  and  C_10 
REMARK    4  A    between atoms: C_6  and  C_8 
REMARK    5  A    between atoms: C_6  and  C_9 
REMARK    6  A    between atoms: C_10  and  O_11 
REMARK    7  A    between atoms: O_11  and  C_12 
REMARK    8  A    between atoms: C_17  and  O_18 
REMARK    9  A    between atoms: O_18  and  C_19 
REMARK   10  A    between atoms: C_22  and  O_23 
REMARK   11  A    between atoms: O_23  and  C_24 
ROOT
ATOM      1  C   LIG d   1       6.523  -4.989  -5.377  0.00  0.00     0.169 A 
ATOM      2  C   LIG d   1       7.673  -4.269  -5.039  0.00  0.00    -0.015 A 
ATOM      3  C   LIG d   1       7.580  -3.053  -4.435  0.00  0.00    -0.041 A 
ATOM      4  C   LIG d   1       6.317  -2.508  -4.145  0.00  0.00     0.093 A 
ATOM      5  C   LIG d   1       5.143  -3.227  -4.483  0.00  0.00     0.265 A 
ATOM      6  C   LIG d   1       5.269  -4.484  -5.108  0.00  0.00     0.235 A 
ATOM      7  C   LIG d   1       3.786  -1.546  -3.629  0.00  0.00     0.386 A 
ATOM      8  C   LIG d   1       4.912  -0.777  -3.265  0.00  0.00     0.132 A 
ATOM      9  C   LIG d   1       6.196  -1.248  -3.525  0.00  0.00     0.151 A 
ATOM     10  C   LIG d   1       4.375   0.445  -2.652  0.00  0.00    -0.006 A 
ATOM     11  C   LIG d   1       3.042   0.325  -2.690  0.00  0.00     0.100 A 
ATOM     12  O   LIG d   1       2.695  -0.842  -3.263  0.00  0.00    -0.412 OA
ATOM     13  H   LIG d   1       8.645  -4.682  -5.260  0.00  0.00     0.066 H 
ATOM     14  H   LIG d   1       8.475  -2.508  -4.179  0.00  0.00     0.063 H 
ATOM     15  H   LIG d   1       4.940   1.273  -2.250  0.00  0.00     0.066 H 
ATOM     16  H   LIG d   1       2.346   1.060  -2.316  0.00  0.00     0.103 H 
ATOM     17  N   LIG d   1       3.870  -2.763  -4.233  0.00  0.00    -0.169 N 
ATOM     18  H   LIG d   1       3.033  -3.302  -4.488  0.00  0.00     0.457 HD
ENDROOT
BRANCH   1  19
ATOM     19  O   LIG d   1       6.644  -6.202  -5.980  0.00  0.00    -0.485 OA
BRANCH  19  20
ATOM     20  C   LIG d   1       7.313  -7.228  -5.246  0.00  0.00     0.119 C 
ATOM     21  H   LIG d   1       8.331  -7.341  -5.624  0.00  0.00     0.072 H 
ATOM     22  H   LIG d   1       7.347  -6.957  -4.191  0.00  0.00     0.072 H 
BRANCH  20  23
ATOM     23  C   LIG d   1       6.559  -8.549  -5.410  0.00  0.00     0.124 C 
ATOM     24  C   LIG d   1       7.216  -9.662  -4.566  0.00  0.00     0.097 C 
ATOM     25  O   LIG d   1       6.119 -10.412  -4.016  0.00  0.00    -0.341 OA
ATOM     26  C   LIG d   1       4.908  -9.824  -4.523  0.00  0.00     0.166 C 
ATOM     27  O   LIG d   1       5.230  -8.453  -4.842  0.00  0.00    -0.340 OA
ATOM     28  H   LIG d   1       6.510  -8.834  -6.461  0.00  0.00     0.066 H 
BRANCH  24  29
ATOM     29  C   LIG d   1       8.082 -10.560  -5.453  0.00  0.00    -0.033 C 
ATOM     30  H   LIG d   1       7.480 -10.947  -6.275  0.00  0.00     0.026 H 
ATOM     31  H   LIG d   1       8.914  -9.981  -5.852  0.00  0.00     0.026 H 
ATOM     32  H   LIG d   1       8.467 -11.392  -4.862  0.00  0.00     0.026 H 
ENDBRANCH  24  29
BRANCH  24  33
ATOM     33  C   LIG d   1       8.058  -9.052  -3.443  0.00  0.00    -0.033 C 
ATOM     34  H   LIG d   1       7.731  -9.454  -2.485  0.00  0.00     0.026 H 
ATOM     35  H   LIG d   1       9.108  -9.297  -3.601  0.00  0.00     0.026 H 
ATOM     36  H   LIG d   1       7.933  -7.969  -3.444  0.00  0.00     0.026 H 
ENDBRANCH  24  33
BRANCH  26  37
ATOM     37  C   LIG d   1       3.813  -9.873  -3.457  0.00  0.00    -0.011 C 
ATOM     38  H   LIG d   1       4.270  -9.922  -2.468  0.00  0.00     0.028 H 
ATOM     39  H   LIG d   1       3.196  -8.977  -3.527  0.00  0.00     0.028 H 
ATOM     40  H   LIG d   1       3.191 -10.755  -3.613  0.00  0.00     0.028 H 
ENDBRANCH  26  37
BRANCH  26  41
ATOM     41  C   LIG d   1       4.451 -10.563  -5.782  0.00  0.00    -0.011 C 
ATOM     42  H   LIG d   1       3.587 -11.185  -5.545  0.00  0.00     0.028 H 
ATOM     43  H   LIG d   1       4.178  -9.840  -6.551  0.00  0.00     0.028 H 
ATOM     44  H   LIG d   1       5.262 -11.193  -6.148  0.00  0.00     0.028 H 
ENDBRANCH  26  41
ENDBRANCH  20  23
ENDBRANCH  19  20
ENDBRANCH   1  19
BRANCH   6  45
ATOM     45  O   LIG d   1       4.158  -5.195  -5.444  0.00  0.00    -0.487 OA
BRANCH  45  46
ATOM     46  C   LIG d   1       3.741  -5.139  -6.809  0.00  0.00     0.079 C 
ATOM     47  H   LIG d   1       4.584  -4.850  -7.435  0.00  0.00     0.066 H 
ATOM     48  H   LIG d   1       3.378  -6.120  -7.118  0.00  0.00     0.066 H 
ATOM     49  H   LIG d   1       2.940  -4.407  -6.915  0.00  0.00     0.066 H 
ENDBRANCH  45  46
ENDBRANCH   6  45
BRANCH   9  50
ATOM     50  O   LIG d   1       7.290  -0.523  -3.188  0.00  0.00    -0.493 OA
BRANCH  50  51
ATOM     51  C   LIG d   1       7.635   0.568  -4.045  0.00  0.00     0.079 C 
ATOM     52  H   LIG d   1       8.572   1.012  -3.707  0.00  0.00     0.066 H 
ATOM     53  H   LIG d   1       7.753   0.205  -5.065  0.00  0.00     0.066 H 
ATOM     54  H   LIG d   1       6.845   1.318  -4.014  0.00  0.00     0.066 H 
ENDBRANCH  50  51
ENDBRANCH   9  50
TORSDOF 11
ENDMDL
MODEL 2
REMARK VINA RESULT:      -5.8      5.635      9.005
REMARK  11 active torsions:
REMARK  status: ('A' for Active; 'I' for Inactive)
REMARK    1  A    between atoms: C_1  and  C_2 
REMARK    2  A    between atoms: C_2  and  C_28 
REMARK    3  A    between atoms: C_3  and  C_10 
REMARK    4  A    between atoms: C_6  and  C_8 
REMARK    5  A    between atoms: C_6  and  C_9 
REMARK    6  A    between atoms: C_10  and  O_11 
REMARK    7  A    between atoms: O_11  and  C_12 
REMARK    8  A    between atoms: C_17  and  O_18 
REMARK    9  A    between atoms: O_18  and  C_19 
REMARK   10  A    between atoms: C_22  and  O_23 
REMARK   11  A    between atoms: O_23  and  C_24 
ROOT
ATOM      1  C   LIG d   1       3.890   0.092  -8.283  0.00  0.00     0.169 A 
ATOM      2  C   LIG d   1       2.576  -0.380  -8.362  0.00  0.00    -0.015 A 
ATOM      3  C   LIG d   1       2.056  -0.797  -9.548  0.00  0.00    -0.041 A 
ATOM      4  C   LIG d   1       2.843  -0.757 -10.712  0.00  0.00     0.093 A 
ATOM      5  C   LIG d   1       4.177  -0.281 -10.648  0.00  0.00     0.265 A 
ATOM      6  C   LIG d   1       4.689   0.146  -9.406  0.00  0.00     0.235 A 
ATOM      7  C   LIG d   1       4.483  -0.628 -12.923  0.00  0.00     0.386 A 
ATOM      8  C   LIG d   1       3.165  -1.114 -13.061  0.00  0.00     0.132 A 
ATOM      9  C   LIG d   1       2.324  -1.179 -11.953  0.00  0.00     0.151 A 
ATOM     10  C   LIG d   1       3.013  -1.450 -14.482  0.00  0.00    -0.006 A 
ATOM     11  C   LIG d   1       4.184  -1.159 -15.060  0.00  0.00     0.100 A 
ATOM     12  O   LIG d   1       5.048  -0.676 -14.148  0.00  0.00    -0.412 OA
ATOM     13  H   LIG d   1       1.967  -0.412  -7.471  0.00  0.00     0.066 H 
ATOM     14  H   LIG d   1       1.040  -1.160  -9.594  0.00  0.00     0.063 H 
ATOM     15  H   LIG d   1       2.134  -1.853 -14.964  0.00  0.00     0.066 H 
ATOM     16  H   LIG d   1       4.405  -1.292 -16.109  0.00  0.00     0.103 H 
ATOM     17  N   LIG d   1       5.012  -0.209 -11.741  0.00  0.00    -0.169 N 
ATOM     18  H   LIG d   1       5.975   0.141 -11.670  0.00  0.00     0.457 HD
ENDROOT
BRANCH   1  19
ATOM     19  O   LIG d   1       4.385   0.504  -7.086  0.00  0.00    -0.485 OA
BRANCH  19  20
ATOM     20  C   LIG d   1       5.159  -0.441  -6.344  0.00  0.00     0.119 C 
ATOM     21  H   LIG d   1       5.306  -1.341  -6.943  0.00  0.00     0.072 H 
ATOM     22  H   LIG d   1       6.128  -0.005  -6.101  0.00  0.00     0.072 H 
BRANCH  20  23
ATOM     23  C   LIG d   1       4.423  -0.803  -5.053  0.00  0.00     0.124 C 
ATOM     24  C   LIG d   1       5.295  -1.718  -4.166  0.00  0.00     0.097 C 
ATOM     25  O   LIG d   1       5.077  -1.254  -2.822  0.00  0.00    -0.341 OA
ATOM     26  C   LIG d   1       4.122  -0.181  -2.894  0.00  0.00     0.166 C 
ATOM     27  O   LIG d   1       4.237   0.370  -4.224  0.00  0.00    -0.340 OA
ATOM     28  H   LIG d   1       3.466  -1.274  -5.276  0.00  0.00     0.066 H 
BRANCH  24  29
ATOM     29  C   LIG d   1       4.847  -3.175  -4.304  0.00  0.00    -0.033 C 
ATOM     30  H   LIG d   1       5.666  -3.770  -4.708  0.00  0.00     0.026 H 
ATOM     31  H   LIG d   1       4.565  -3.562  -3.325  0.00  0.00     0.026 H 
ATOM     32  H   LIG d   1       3.991  -3.230  -4.977  0.00  0.00     0.026 H 
ENDBRANCH  24  29
BRANCH  24  33
ATOM     33  C   LIG d   1       6.771  -1.576  -4.543  0.00  0.00    -0.033 C 
ATOM     34  H   LIG d   1       7.000  -0.527  -4.727  0.00  0.00     0.026 H 
ATOM     35  H   LIG d   1       7.392  -1.946  -3.727  0.00  0.00     0.026 H 
ATOM     36  H   LIG d   1       6.972  -2.155  -5.445  0.00  0.00     0.026 H 
ENDBRANCH  24  33
BRANCH  26  37
ATOM     37  C   LIG d   1       4.453   0.888  -1.851  0.00  0.00    -0.011 C 
ATOM     38  H   LIG d   1       3.533   1.370  -1.519  0.00  0.00     0.028 H 
ATOM     39  H   LIG d   1       4.948   0.424  -0.998  0.00  0.00     0.028 H 
ATOM     40  H   LIG d   1       5.114   1.635  -2.292  0.00  0.00     0.028 H 
ENDBRANCH  26  37
BRANCH  26  41
ATOM     41  C   LIG d   1       2.708  -0.718  -2.667  0.00  0.00    -0.011 C 
ATOM     42  H   LIG d   1       2.716  -1.806  -2.744  0.00  0.00     0.028 H 
ATOM     43  H   LIG d   1       2.362  -0.427  -1.675  0.00  0.00     0.028 H 
ATOM     44  H   LIG d   1       2.037  -0.307  -3.421  0.00  0.00     0.028 H 
ENDBRANCH  26  41
ENDBRANCH  20  23
ENDBRANCH  19  20
ENDBRANCH   1  19
BRANCH   6  45
ATOM     45  O   LIG d   1       5.966   0.609  -9.315  0.00  0.00    -0.487 OA
BRANCH  45  46
ATOM     46  C   LIG d   1       6.134   2.012  -9.110  0.00  0.00     0.079 C 
ATOM     47  H   LIG d   1       7.175   2.282  -9.284  0.00  0.00     0.066 H 
ATOM     48  H   LIG d   1       5.495   2.560  -9.803  0.00  0.00     0.066 H 
ATOM     49  H   LIG d   1       5.858   2.266  -8.086  0.00  0.00     0.066 H 
ENDBRANCH  45  46
ENDBRANCH   6  45
BRANCH   9  50
ATOM     50  O   LIG d   1       1.054  -1.637 -12.063  0.00  0.00    -0.493 OA
BRANCH  50  51
ATOM     51  C   LIG d   1       0.872  -3.055 -12.067  0.00  0.00     0.079 C 
ATOM     52  H   LIG d   1       1.806  -3.541 -11.784  0.00  0.00     0.066 H 
ATOM     53  H   LIG d   1       0.093  -3.323 -11.353  0.00  0.00     0.066 H 
ATOM     54  H   LIG d   1       0.579  -3.381 -13.065  0.00  0.00     0.066 H 
ENDBRANCH  50  51
ENDBRANCH   9  50
TORSDOF 11
ENDMDL
MODEL 3
REMARK VINA RESULT:      -5.7      4.867      8.084
REMARK  11 active torsions:
REMARK  status: ('A' for Active; 'I' for Inactive)
REMARK    1  A    between atoms: C_1  and  C_2 
REMARK    2  A    between atoms: C_2  and  C_28 
REMARK    3  A    between atoms: C_3  and  C_10 
REMARK    4  A    between atoms: C_6  and  C_8 
REMARK    5  A    between atoms: C_6  and  C_9 
REMARK    6  A    between atoms: C_10  and  O_11 
REMARK    7  A    between atoms: O_11  and  C_12 
REMARK    8  A    between atoms: C_17  and  O_18 
REMARK    9  A    between atoms: O_18  and  C_19 
REMARK   10  A    between atoms: C_22  and  O_23 
REMARK   11  A    between atoms: O_23  and  C_24 
ROOT
ATOM      1  C   LIG d   1       5.359  -0.479  -7.734  0.00  0.00     0.169 A 
ATOM      2  C   LIG d   1       5.736  -1.819  -7.863  0.00  0.00    -0.015 A 
ATOM      3  C   LIG d   1       5.068  -2.652  -8.707  0.00  0.00    -0.041 A 
ATOM      4  C   LIG d   1       3.987  -2.167  -9.461  0.00  0.00     0.093 A 
ATOM      5  C   LIG d   1       3.593  -0.810  -9.341  0.00  0.00     0.265 A 
ATOM      6  C   LIG d   1       4.302   0.030  -8.459  0.00  0.00     0.235 A 
ATOM      7  C   LIG d   1       1.883  -1.098 -10.886  0.00  0.00     0.386 A 
ATOM      8  C   LIG d   1       2.219  -2.458 -11.055  0.00  0.00     0.132 A 
ATOM      9  C   LIG d   1       3.276  -3.012 -10.338  0.00  0.00     0.151 A 
ATOM     10  C   LIG d   1       1.264  -2.983 -12.039  0.00  0.00    -0.006 A 
ATOM     11  C   LIG d   1       0.470  -1.957 -12.369  0.00  0.00     0.100 A 
ATOM     12  O   LIG d   1       0.830  -0.851 -11.694  0.00  0.00    -0.412 OA
ATOM     13  H   LIG d   1       6.566  -2.197  -7.284  0.00  0.00     0.066 H 
ATOM     14  H   LIG d   1       5.369  -3.684  -8.796  0.00  0.00     0.063 H 
ATOM     15  H   LIG d   1       1.213  -3.992 -12.421  0.00  0.00     0.066 H 
ATOM     16  H   LIG d   1      -0.344  -2.011 -13.077  0.00  0.00     0.103 H 
ATOM     17  N   LIG d   1       2.545  -0.257 -10.045  0.00  0.00    -0.169 N 
ATOM     18  H   LIG d   1       2.278   0.729  -9.940  0.00  0.00     0.457 HD
ENDROOT
BRANCH   1  19
ATOM     19  O   LIG d   1       6.043   0.332  -6.884  0.00  0.00    -0.485 OA
BRANCH  19  20
ATOM     20  C   LIG d   1       6.495  -0.246  -5.658  0.00  0.00     0.119 C 
ATOM     21  H   LIG d   1       6.999  -1.191  -5.865  0.00  0.00     0.072 H 
ATOM     22  H   LIG d   1       7.189   0.436  -5.169  0.00  0.00     0.072 H 
BRANCH  20  23
ATOM     23  C   LIG d   1       5.296  -0.499  -4.741  0.00  0.00     0.124 C 
ATOM     24  C   LIG d   1       5.600  -1.643  -3.749  0.00  0.00     0.097 C 
ATOM     25  O   LIG d   1       5.023  -1.219  -2.501  0.00  0.00    -0.341 OA
ATOM     26  C   LIG d   1       4.391   0.051  -2.737  0.00  0.00     0.166 C 
ATOM     27  O   LIG d   1       5.071   0.634  -3.868  0.00  0.00    -0.340 OA
ATOM     28  H   LIG d   1       4.404  -0.719  -5.327  0.00  0.00     0.066 H 
BRANCH  24  29
ATOM     29  C   LIG d   1       4.946  -2.943  -4.222  0.00  0.00    -0.033 C 
ATOM     30  H   LIG d   1       4.787  -2.899  -5.299  0.00  0.00     0.026 H 
ATOM     31  H   LIG d   1       5.598  -3.784  -3.985  0.00  0.00     0.026 H 
ATOM     32  H   LIG d   1       3.988  -3.073  -3.718  0.00  0.00     0.026 H 
ENDBRANCH  24  29
BRANCH  24  33
ATOM     33  C   LIG d   1       7.111  -1.831  -3.599  0.00  0.00    -0.033 C 
ATOM     34  H   LIG d   1       7.600  -0.857  -3.601  0.00  0.00     0.026 H 
ATOM     35  H   LIG d   1       7.322  -2.342  -2.659  0.00  0.00     0.026 H 
ATOM     36  H   LIG d   1       7.487  -2.427  -4.430  0.00  0.00     0.026 H 
ENDBRANCH  24  33
BRANCH  26  37
ATOM     37  C   LIG d   1       4.543   0.950  -1.509  0.00  0.00    -0.011 C 
ATOM     38  H   LIG d   1       5.316   0.545  -0.856  0.00  0.00     0.028 H 
ATOM     39  H   LIG d   1       4.825   1.954  -1.826  0.00  0.00     0.028 H 
ATOM     40  H   LIG d   1       3.597   0.992  -0.969  0.00  0.00     0.028 H 
ENDBRANCH  26  37
BRANCH  26  41
ATOM     41  C   LIG d   1       2.909  -0.152  -3.061  0.00  0.00    -0.011 C 
ATOM     42  H   LIG d   1       2.566   0.654  -3.711  0.00  0.00     0.028 H 
ATOM     43  H   LIG d   1       2.774  -1.108  -3.567  0.00  0.00     0.028 H 
ATOM     44  H   LIG d   1       2.331  -0.144  -2.138  0.00  0.00     0.028 H 
ENDBRANCH  26  41
ENDBRANCH  20  23
ENDBRANCH  19  20
ENDBRANCH   1  19
BRANCH   6  45
ATOM     45  O   LIG d   1       3.946   1.337  -8.324  0.00  0.00    -0.487 OA
BRANCH  45  46
ATOM     46  C   LIG d   1       4.585   2.276  -9.190  0.00  0.00     0.079 C 
ATOM     47  H   LIG d   1       5.593   1.932  -9.419  0.00  0.00     0.066 H 
ATOM     48  H   LIG d   1       4.012   2.366 -10.113  0.00  0.00     0.066 H 
ATOM     49  H   LIG d   1       4.635   3.248  -8.698  0.00  0.00     0.066 H 
ENDBRANCH  45  46
ENDBRANCH   6  45
BRANCH   9  50
ATOM     50  O   LIG d   1       3.613  -4.317 -10.481  0.00  0.00    -0.493 OA
BRANCH  50  51
ATOM     51  C   LIG d   1       2.850  -5.270  -9.739  0.00  0.00     0.079 C 
ATOM     52  H   LIG d   1       2.832  -6.219 -10.277  0.00  0.00     0.066 H 
ATOM     53  H   LIG d   1       3.306  -5.417  -8.760  0.00  0.00     0.066 H 
ATOM     54  H   LIG d   1       1.832  -4.902  -9.614  0.00  0.00     0.066 H 
ENDBRANCH  50  51
ENDBRANCH   9  50
TORSDOF 11
ENDMDL
MODEL 4
REMARK VINA RESULT:      -5.6      5.521      9.271
REMARK  11 active torsions:
REMARK  status: ('A' for Active; 'I' for Inactive)
REMARK    1  A    between atoms: C_1  and  C_2 
REMARK    2  A    between atoms: C_2  and  C_28 
REMARK    3  A    between atoms: C_3  and  C_10 
REMARK    4  A    between atoms: C_6  and  C_8 
REMARK    5  A    between atoms: C_6  and  C_9 
REMARK    6  A    between atoms: C_10  and  O_11 
REMARK    7  A    between atoms: O_11  and  C_12 
REMARK    8  A    between atoms: C_17  and  O_18 
REMARK    9  A    between atoms: O_18  and  C_19 
REMARK   10  A    between atoms: C_22  and  O_23 
REMARK   11  A    between atoms: O_23  and  C_24 
ROOT
ATOM      1  C   LIG d   1       3.286   0.316  -8.145  0.00  0.00     0.169 A 
ATOM      2  C   LIG d   1       2.072  -0.348  -8.339  0.00  0.00    -0.015 A 
ATOM      3  C   LIG d   1       1.751  -0.873  -9.552  0.00  0.00    -0.041 A 
ATOM      4  C   LIG d   1       2.646  -0.750 -10.628  0.00  0.00     0.093 A 
ATOM      5  C   LIG d   1       3.882  -0.079 -10.448  0.00  0.00     0.265 A 
ATOM      6  C   LIG d   1       4.188   0.456  -9.180  0.00  0.00     0.235 A 
ATOM      7  C   LIG d   1       4.482  -0.445 -12.661  0.00  0.00     0.386 A 
ATOM      8  C   LIG d   1       3.272  -1.125 -12.912  0.00  0.00     0.132 A 
ATOM      9  C   LIG d   1       2.333  -1.282 -11.896  0.00  0.00     0.151 A 
ATOM     10  C   LIG d   1       3.327  -1.522 -14.325  0.00  0.00    -0.006 A 
ATOM     11  C   LIG d   1       4.500  -1.077 -14.791  0.00  0.00     0.100 A 
ATOM     12  O   LIG d   1       5.179  -0.444 -13.817  0.00  0.00    -0.412 OA
ATOM     13  H   LIG d   1       1.380  -0.444  -7.515  0.00  0.00     0.066 H 
ATOM     14  H   LIG d   1       0.809  -1.384  -9.687  0.00  0.00     0.063 H 
ATOM     15  H   LIG d   1       2.573  -2.065 -14.877  0.00  0.00     0.066 H 
ATOM     16  H   LIG d   1       4.850  -1.206 -15.804  0.00  0.00     0.103 H 
ATOM     17  N   LIG d   1       4.812   0.083 -11.450  0.00  0.00    -0.169 N 
ATOM     18  H   LIG d   1       5.700   0.574 -11.295  0.00  0.00     0.457 HD
ENDROOT
BRANCH   1  19
ATOM     19  O   LIG d   1       3.582   0.832  -6.923  0.00  0.00    -0.485 OA
BRANCH  19  20
ATOM     20  C   LIG d   1       3.413  -0.030  -5.796  0.00  0.00     0.119 C 
ATOM     21  H   LIG d   1       2.447   0.167  -5.329  0.00  0.00     0.072 H 
ATOM     22  H   LIG d   1       3.452  -1.068  -6.124  0.00  0.00     0.072 H 
BRANCH  20  23
ATOM     23  C   LIG d   1       4.530   0.228  -4.783  0.00  0.00     0.124 C 
ATOM     24  C   LIG d   1       4.025  -0.005  -3.342  0.00  0.00     0.097 C 
ATOM     25  O   LIG d   1       5.112  -0.662  -2.667  0.00  0.00    -0.341 OA
ATOM     26  C   LIG d   1       6.191  -0.775  -3.611  0.00  0.00     0.166 C 
ATOM     27  O   LIG d   1       5.582  -0.757  -4.920  0.00  0.00    -0.340 OA
ATOM     28  H   LIG d   1       4.927   1.236  -4.898  0.00  0.00     0.066 H 
BRANCH  24  29
ATOM     29  C   LIG d   1       3.712   1.332  -2.667  0.00  0.00    -0.033 C 
ATOM     30  H   LIG d   1       2.759   1.260  -2.143  0.00  0.00     0.026 H 
ATOM     31  H   LIG d   1       4.501   1.573  -1.955  0.00  0.00     0.026 H 
ATOM     32  H   LIG d   1       3.652   2.116  -3.423  0.00  0.00     0.026 H 
ENDBRANCH  24  29
BRANCH  24  33
ATOM     33  C   LIG d   1       2.785  -0.900  -3.351  0.00  0.00    -0.033 C 
ATOM     34  H   LIG d   1       2.405  -1.005  -2.335  0.00  0.00     0.026 H 
ATOM     35  H   LIG d   1       2.017  -0.453  -3.982  0.00  0.00     0.026 H 
ATOM     36  H   LIG d   1       3.050  -1.883  -3.742  0.00  0.00     0.026 H 
ENDBRANCH  24  33
BRANCH  26  37
ATOM     37  C   LIG d   1       6.941  -2.091  -3.397  0.00  0.00    -0.011 C 
ATOM     38  H   LIG d   1       6.631  -2.537  -2.451  0.00  0.00     0.028 H 
ATOM     39  H   LIG d   1       6.713  -2.777  -4.213  0.00  0.00     0.028 H 
ATOM     40  H   LIG d   1       8.014  -1.898  -3.373  0.00  0.00     0.028 H 
ENDBRANCH  26  37
BRANCH  26  41
ATOM     41  C   LIG d   1       7.148   0.408  -3.459  0.00  0.00    -0.011 C 
ATOM     42  H   LIG d   1       8.051   0.222  -4.041  0.00  0.00     0.028 H 
ATOM     43  H   LIG d   1       6.665   1.316  -3.819  0.00  0.00     0.028 H 
ATOM     44  H   LIG d   1       7.412   0.529  -2.409  0.00  0.00     0.028 H 
ENDBRANCH  26  41
ENDBRANCH  20  23
ENDBRANCH  19  20
ENDBRANCH   1  19
BRANCH   6  45
ATOM     45  O   LIG d   1       5.366   1.105  -8.978  0.00  0.00    -0.487 OA
BRANCH  45  46
ATOM     46  C   LIG d   1       6.427   0.355  -8.384  0.00  0.00     0.079 C 
ATOM     47  H   LIG d   1       7.363   0.901  -8.494  0.00  0.00     0.066 H 
ATOM     48  H   LIG d   1       6.216   0.205  -7.325  0.00  0.00     0.066 H 
ATOM     49  H   LIG d   1       6.509  -0.613  -8.878  0.00  0.00     0.066 H 
ENDBRANCH  45  46
ENDBRANCH   6  45
BRANCH   9  50
ATOM     50  O   LIG d   1       1.162  -1.927 -12.117  0.00  0.00    -0.493 OA
BRANCH  50  51
ATOM     51  C   LIG d   1       1.187  -3.355 -12.065  0.00  0.00     0.079 C 
ATOM     52  H   LIG d   1       0.564  -3.759 -12.864  0.00  0.00     0.066 H 
ATOM     53  H   LIG d   1       2.211  -3.705 -12.191  0.00  0.00     0.066 H 
ATOM     54  H   LIG d   1       0.804  -3.689 -11.101  0.00  0.00     0.066 H 
ENDBRANCH  50  51
ENDBRANCH   9  50
TORSDOF 11
ENDMDL
MODEL 5
REMARK VINA RESULT:      -5.5      5.785      8.929
REMARK  11 active torsions:
REMARK  status: ('A' for Active; 'I' for Inactive)
REMARK    1  A    between atoms: C_1  and  C_2 
REMARK    2  A    between atoms: C_2  and  C_28 
REMARK    3  A    between atoms: C_3  and  C_10 
REMARK    4  A    between atoms: C_6  and  C_8 
REMARK    5  A    between atoms: C_6  and  C_9 
REMARK    6  A    between atoms: C_10  and  O_11 
REMARK    7  A    between atoms: O_11  and  C_12 
REMARK    8  A    between atoms: C_17  and  O_18 
REMARK    9  A    between atoms: O_18  and  C_19 
REMARK   10  A    between atoms: C_22  and  O_23 
REMARK   11  A    between atoms: O_23  and  C_24 
ROOT
ATOM      1  C   LIG d   1       8.430   1.935  -4.346  0.00  0.00     0.169 A 
ATOM      2  C   LIG d   1       8.952   2.922  -3.506  0.00  0.00    -0.015 A 
ATOM      3  C   LIG d   1       9.543   4.034  -4.021  0.00  0.00    -0.041 A 
ATOM      4  C   LIG d   1       9.635   4.198  -5.414  0.00  0.00     0.093 A 
ATOM      5  C   LIG d   1       9.110   3.205  -6.279  0.00  0.00     0.265 A 
ATOM      6  C   LIG d   1       8.503   2.063  -5.717  0.00  0.00     0.235 A 
ATOM      7  C   LIG d   1       9.754   4.405  -8.160  0.00  0.00     0.386 A 
ATOM      8  C   LIG d   1      10.296   5.433  -7.359  0.00  0.00     0.132 A 
ATOM      9  C   LIG d   1      10.248   5.339  -5.971  0.00  0.00     0.151 A 
ATOM     10  C   LIG d   1      10.828   6.428  -8.300  0.00  0.00    -0.006 A 
ATOM     11  C   LIG d   1      10.579   5.952  -9.525  0.00  0.00     0.100 A 
ATOM     12  O   LIG d   1       9.949   4.765  -9.446  0.00  0.00    -0.412 OA
ATOM     13  H   LIG d   1       8.885   2.801  -2.435  0.00  0.00     0.066 H 
ATOM     14  H   LIG d   1       9.942   4.789  -3.361  0.00  0.00     0.063 H 
ATOM     15  H   LIG d   1      11.320   7.358  -8.052  0.00  0.00     0.066 H 
ATOM     16  H   LIG d   1      10.846   6.449 -10.446  0.00  0.00     0.103 H 
ATOM     17  N   LIG d   1       9.159   3.291  -7.653  0.00  0.00    -0.169 N 
ATOM     18  H   LIG d   1       8.773   2.557  -8.259  0.00  0.00     0.457 HD
ENDROOT
BRANCH   1  19
ATOM     19  O   LIG d   1       7.844   0.834  -3.805  0.00  0.00    -0.485 OA
BRANCH  19  20
ATOM     20  C   LIG d   1       6.530   0.996  -3.268  0.00  0.00     0.119 C 
ATOM     21  H   LIG d   1       6.570   0.920  -2.180  0.00  0.00     0.072 H 
ATOM     22  H   LIG d   1       6.140   1.973  -3.549  0.00  0.00     0.072 H 
BRANCH  20  23
ATOM     23  C   LIG d   1       5.614  -0.098  -3.820  0.00  0.00     0.124 C 
ATOM     24  C   LIG d   1       4.324  -0.207  -2.978  0.00  0.00     0.097 C 
ATOM     25  O   LIG d   1       3.270  -0.422  -3.934  0.00  0.00    -0.341 OA
ATOM     26  C   LIG d   1       3.884  -0.480  -5.234  0.00  0.00     0.166 C 
ATOM     27  O   LIG d   1       5.115   0.265  -5.130  0.00  0.00    -0.340 OA
ATOM     28  H   LIG d   1       6.136  -1.054  -3.857  0.00  0.00     0.066 H 
BRANCH  24  29
ATOM     29  C   LIG d   1       4.417  -1.392  -2.015  0.00  0.00    -0.033 C 
ATOM     30  H   LIG d   1       5.331  -1.951  -2.213  0.00  0.00     0.026 H 
ATOM     31  H   LIG d   1       4.430  -1.025  -0.988  0.00  0.00     0.026 H 
ATOM     32  H   LIG d   1       3.554  -2.044  -2.156  0.00  0.00     0.026 H 
ENDBRANCH  24  29
BRANCH  24  33
ATOM     33  C   LIG d   1       4.082   1.091  -2.205  0.00  0.00    -0.033 C 
ATOM     34  H   LIG d   1       4.082   1.932  -2.897  0.00  0.00     0.026 H 
ATOM     35  H   LIG d   1       3.118   1.038  -1.698  0.00  0.00     0.026 H 
ATOM     36  H   LIG d   1       4.874   1.227  -1.468  0.00  0.00     0.026 H 
ENDBRANCH  24  33
BRANCH  26  37
ATOM     37  C   LIG d   1       2.966   0.160  -6.277  0.00  0.00    -0.011 C 
ATOM     38  H   LIG d   1       3.483   0.996  -6.751  0.00  0.00     0.028 H 
ATOM     39  H   LIG d   1       2.703  -0.579  -7.033  0.00  0.00     0.028 H 
ATOM     40  H   LIG d   1       2.060   0.522  -5.792  0.00  0.00     0.028 H 
ENDBRANCH  26  37
BRANCH  26  41
ATOM     41  C   LIG d   1       4.177  -1.933  -5.612  0.00  0.00    -0.011 C 
ATOM     42  H   LIG d   1       3.526  -2.596  -5.041  0.00  0.00     0.028 H 
ATOM     43  H   LIG d   1       3.998  -2.076  -6.677  0.00  0.00     0.028 H 
ATOM     44  H   LIG d   1       5.218  -2.164  -5.385  0.00  0.00     0.028 H 
ENDBRANCH  26  41
ENDBRANCH  20  23
ENDBRANCH  19  20
ENDBRANCH   1  19
BRANCH   6  45
ATOM     45  O   LIG d   1       7.991   1.094  -6.524  0.00  0.00    -0.487 OA
BRANCH  45  46
ATOM     46  C   LIG d   1       8.832  -0.027  -6.804  0.00  0.00     0.079 C 
ATOM     47  H   LIG d   1       8.299  -0.729  -7.445  0.00  0.00     0.066 H 
ATOM     48  H   LIG d   1       9.735   0.314  -7.310  0.00  0.00     0.066 H 
ATOM     49  H   LIG d   1       9.104  -0.520  -5.870  0.00  0.00     0.066 H 
ENDBRANCH  45  46
ENDBRANCH   6  45
BRANCH   9  50
ATOM     50  O   LIG d   1      10.768   6.311  -5.184  0.00  0.00    -0.493 OA
BRANCH  50  51
ATOM     51  C   LIG d   1       9.953   7.462  -4.950  0.00  0.00     0.079 C 
ATOM     52  H   LIG d   1      10.591   8.323  -4.747  0.00  0.00     0.066 H 
ATOM     53  H   LIG d   1       9.344   7.661  -5.831  0.00  0.00     0.066 H 
ATOM     54  H   LIG d   1       9.305   7.280  -4.093  0.00  0.00     0.066 H 
ENDBRANCH  50  51
ENDBRANCH   9  50
TORSDOF 11
ENDMDL
MODEL 6
REMARK VINA RESULT:      -5.5      3.922      8.030
REMARK  11 active torsions:
REMARK  status: ('A' for Active; 'I' for Inactive)
REMARK    1  A    between atoms: C_1  and  C_2 
REMARK    2  A    between atoms: C_2  and  C_28 
REMARK    3  A    between atoms: C_3  and  C_10 
REMARK    4  A    between atoms: C_6  and  C_8 
REMARK    5  A    between atoms: C_6  and  C_9 
REMARK    6  A    between atoms: C_10  and  O_11 
REMARK    7  A    between atoms: O_11  and  C_12 
REMARK    8  A    between atoms: C_17  and  O_18 
REMARK    9  A    between atoms: O_18  and  C_19 
REMARK   10  A    between atoms: C_22  and  O_23 
REMARK   11  A    between atoms: O_23  and  C_24 
ROOT
ATOM      1  C   LIG d   1       5.067  -1.677  -7.817  0.00  0.00     0.169 A 
ATOM      2  C   LIG d   1       4.402  -0.690  -8.549  0.00  0.00    -0.015 A 
ATOM      3  C   LIG d   1       3.339  -1.005  -9.338  0.00  0.00    -0.041 A 
ATOM      4  C   LIG d   1       2.900  -2.337  -9.424  0.00  0.00     0.093 A 
ATOM      5  C   LIG d   1       3.565  -3.350  -8.688  0.00  0.00     0.265 A 
ATOM      6  C   LIG d   1       4.663  -2.995  -7.879  0.00  0.00     0.235 A 
ATOM      7  C   LIG d   1       2.133  -4.983  -9.510  0.00  0.00     0.386 A 
ATOM      8  C   LIG d   1       1.425  -4.028 -10.269  0.00  0.00     0.132 A 
ATOM      9  C   LIG d   1       1.804  -2.688 -10.239  0.00  0.00     0.151 A 
ATOM     10  C   LIG d   1       0.371  -4.777 -10.965  0.00  0.00    -0.006 A 
ATOM     11  C   LIG d   1       0.516  -6.054 -10.593  0.00  0.00     0.100 A 
ATOM     12  O   LIG d   1       1.549  -6.178  -9.740  0.00  0.00    -0.412 OA
ATOM     13  H   LIG d   1       4.736   0.336  -8.487  0.00  0.00     0.066 H 
ATOM     14  H   LIG d   1       2.834  -0.232  -9.898  0.00  0.00     0.063 H 
ATOM     15  H   LIG d   1      -0.373  -4.378 -11.640  0.00  0.00     0.066 H 
ATOM     16  H   LIG d   1      -0.107  -6.870 -10.930  0.00  0.00     0.103 H 
ATOM     17  N   LIG d   1       3.197  -4.677  -8.718  0.00  0.00    -0.169 N 
ATOM     18  H   LIG d   1       3.695  -5.393  -8.176  0.00  0.00     0.457 HD
ENDROOT
BRANCH   1  19
ATOM     19  O   LIG d   1       6.126  -1.336  -7.036  0.00  0.00    -0.485 OA
BRANCH  19  20
ATOM     20  C   LIG d   1       5.963  -0.203  -6.181  0.00  0.00     0.119 C 
ATOM     21  H   LIG d   1       6.934   0.263  -6.005  0.00  0.00     0.072 H 
ATOM     22  H   LIG d   1       5.296   0.516  -6.654  0.00  0.00     0.072 H 
BRANCH  20  23
ATOM     23  C   LIG d   1       5.366  -0.653  -4.846  0.00  0.00     0.124 C 
ATOM     24  C   LIG d   1       6.415  -0.555  -3.717  0.00  0.00     0.097 C 
ATOM     25  O   LIG d   1       5.692  -0.057  -2.577  0.00  0.00    -0.341 OA
ATOM     26  C   LIG d   1       4.319   0.091  -2.978  0.00  0.00     0.166 C 
ATOM     27  O   LIG d   1       4.335   0.267  -4.411  0.00  0.00    -0.340 OA
ATOM     28  H   LIG d   1       4.971  -1.666  -4.924  0.00  0.00     0.066 H 
BRANCH  24  29
ATOM     29  C   LIG d   1       6.998  -1.937  -3.413  0.00  0.00    -0.033 C 
ATOM     30  H   LIG d   1       6.187  -2.648  -3.258  0.00  0.00     0.026 H 
ATOM     31  H   LIG d   1       7.613  -2.264  -4.252  0.00  0.00     0.026 H 
ATOM     32  H   LIG d   1       7.611  -1.883  -2.513  0.00  0.00     0.026 H 
ENDBRANCH  24  29
BRANCH  24  33
ATOM     33  C   LIG d   1       7.528   0.419  -4.108  0.00  0.00    -0.033 C 
ATOM     34  H   LIG d   1       7.815   0.246  -5.144  0.00  0.00     0.026 H 
ATOM     35  H   LIG d   1       7.171   1.443  -3.995  0.00  0.00     0.026 H 
ATOM     36  H   LIG d   1       8.391   0.261  -3.461  0.00  0.00     0.026 H 
ENDBRANCH  24  33
BRANCH  26  37
ATOM     37  C   LIG d   1       3.703   1.318  -2.304  0.00  0.00    -0.011 C 
ATOM     38  H   LIG d   1       3.223   1.018  -1.372  0.00  0.00     0.028 H 
ATOM     39  H   LIG d   1       4.485   2.047  -2.091  0.00  0.00     0.028 H 
ATOM     40  H   LIG d   1       2.962   1.764  -2.967  0.00  0.00     0.028 H 
ENDBRANCH  26  37
BRANCH  26  41
ATOM     41  C   LIG d   1       3.527  -1.165  -2.611  0.00  0.00    -0.011 C 
ATOM     42  H   LIG d   1       3.801  -1.487  -1.606  0.00  0.00     0.028 H 
ATOM     43  H   LIG d   1       2.460  -0.945  -2.643  0.00  0.00     0.028 H 
ATOM     44  H   LIG d   1       3.755  -1.960  -3.321  0.00  0.00     0.028 H 
ENDBRANCH  26  41
ENDBRANCH  20  23
ENDBRANCH  19  20
ENDBRANCH   1  19
BRANCH   6  45
ATOM     45  O   LIG d   1       5.321  -3.946  -7.162  0.00  0.00    -0.487 OA
BRANCH  45  46
ATOM     46  C   LIG d   1       4.855  -4.196  -5.835  0.00  0.00     0.079 C 
ATOM     47  H   LIG d   1       3.923  -4.759  -5.877  0.00  0.00     0.066 H 
ATOM     48  H   LIG d   1       5.603  -4.771  -5.289  0.00  0.00     0.066 H 
ATOM     49  H   LIG d   1       4.684  -3.247  -5.325  0.00  0.00     0.066 H 
ENDBRANCH  45  46
ENDBRANCH   6  45
BRANCH   9  50
ATOM     50  O   LIG d   1       1.141  -1.755 -10.964  0.00  0.00    -0.493 OA
BRANCH  50  51
ATOM     51  C   LIG d   1       1.493  -1.635 -12.344  0.00  0.00     0.079 C 
ATOM     52  H   LIG d   1       2.009  -0.687 -12.506  0.00  0.00     0.066 H 
ATOM     53  H   LIG d   1       2.150  -2.458 -12.625  0.00  0.00     0.066 H 
ATOM     54  H   LIG d   1       0.590  -1.666 -12.953  0.00  0.00     0.066 H 
ENDBRANCH  50  51
ENDBRANCH   9  50
TORSDOF 11
ENDMDL
MODEL 7
REMARK VINA RESULT:      -5.4      5.202      8.742
REMARK  11 active torsions:
REMARK  status: ('A' for Active; 'I' for Inactive)
REMARK    1  A    between atoms: C_1  and  C_2 
REMARK    2  A    between atoms: C_2  and  C_28 
REMARK    3  A    between atoms: C_3  and  C_10 
REMARK    4  A    between atoms: C_6  and  C_8 
REMARK    5  A    between atoms: C_6  and  C_9 
REMARK    6  A    between atoms: C_10  and  O_11 
REMARK    7  A    between atoms: O_11  and  C_12 
REMARK    8  A    between atoms: C_17  and  O_18 
REMARK    9  A    between atoms: O_18  and  C_19 
REMARK   10  A    between atoms: C_22  and  O_23 
REMARK   11  A    between atoms: O_23  and  C_24 
ROOT
ATOM      1  C   LIG d   1       8.027   1.715  -5.420  0.00  0.00     0.169 A 
ATOM      2  C   LIG d   1       8.228   1.731  -4.036  0.00  0.00    -0.015 A 
ATOM      3  C   LIG d   1       9.244   2.452  -3.489  0.00  0.00    -0.041 A 
ATOM      4  C   LIG d   1      10.106   3.190  -4.317  0.00  0.00     0.093 A 
ATOM      5  C   LIG d   1       9.915   3.183  -5.722  0.00  0.00     0.265 A 
ATOM      6  C   LIG d   1       8.855   2.427  -6.262  0.00  0.00     0.235 A 
ATOM      7  C   LIG d   1      11.730   4.596  -6.046  0.00  0.00     0.386 A 
ATOM      8  C   LIG d   1      11.978   4.649  -4.657  0.00  0.00     0.132 A 
ATOM      9  C   LIG d   1      11.170   3.940  -3.773  0.00  0.00     0.151 A 
ATOM     10  C   LIG d   1      13.147   5.524  -4.498  0.00  0.00    -0.006 A 
ATOM     11  C   LIG d   1      13.494   5.909  -5.731  0.00  0.00     0.100 A 
ATOM     12  O   LIG d   1      12.665   5.366  -6.641  0.00  0.00    -0.412 OA
ATOM     13  H   LIG d   1       7.569   1.165  -3.395  0.00  0.00     0.066 H 
ATOM     14  H   LIG d   1       9.388   2.456  -2.419  0.00  0.00     0.063 H 
ATOM     15  H   LIG d   1      13.630   5.801  -3.571  0.00  0.00     0.066 H 
ATOM     16  H   LIG d   1      14.322   6.562  -5.964  0.00  0.00     0.103 H 
ATOM     17  N   LIG d   1      10.715   3.879  -6.602  0.00  0.00    -0.169 N 
ATOM     18  H   LIG d   1      10.557   3.857  -7.616  0.00  0.00     0.457 HD
ENDROOT
BRANCH   1  19
ATOM     19  O   LIG d   1       7.004   0.987  -5.941  0.00  0.00    -0.485 OA
BRANCH  19  20
ATOM     20  C   LIG d   1       6.851  -0.351  -5.464  0.00  0.00     0.119 C 
ATOM     21  H   LIG d   1       7.027  -1.051  -6.283  0.00  0.00     0.072 H 
ATOM     22  H   LIG d   1       7.571  -0.538  -4.667  0.00  0.00     0.072 H 
BRANCH  20  23
ATOM     23  C   LIG d   1       5.432  -0.543  -4.927  0.00  0.00     0.124 C 
ATOM     24  C   LIG d   1       5.414  -1.589  -3.791  0.00  0.00     0.097 C 
ATOM     25  O   LIG d   1       4.496  -1.066  -2.815  0.00  0.00    -0.341 OA
ATOM     26  C   LIG d   1       3.975   0.167  -3.341  0.00  0.00     0.166 C 
ATOM     27  O   LIG d   1       4.968   0.660  -4.266  0.00  0.00    -0.340 OA
ATOM     28  H   LIG d   1       4.753  -0.828  -5.730  0.00  0.00     0.066 H 
BRANCH  24  29
ATOM     29  C   LIG d   1       4.918  -2.937  -4.319  0.00  0.00    -0.033 C 
ATOM     30  H   LIG d   1       4.815  -3.636  -3.490  0.00  0.00     0.026 H 
ATOM     31  H   LIG d   1       3.951  -2.803  -4.804  0.00  0.00     0.026 H 
ATOM     32  H   LIG d   1       5.635  -3.332  -5.040  0.00  0.00     0.026 H 
ENDBRANCH  24  29
BRANCH  24  33
ATOM     33  C   LIG d   1       6.809  -1.737  -3.182  0.00  0.00    -0.033 C 
ATOM     34  H   LIG d   1       7.508  -1.090  -3.711  0.00  0.00     0.026 H 
ATOM     35  H   LIG d   1       6.778  -1.454  -2.129  0.00  0.00     0.026 H 
ATOM     36  H   LIG d   1       7.136  -2.773  -3.270  0.00  0.00     0.026 H 
ENDBRANCH  24  33
BRANCH  26  37
ATOM     37  C   LIG d   1       3.764   1.174  -2.210  0.00  0.00    -0.011 C 
ATOM     38  H   LIG d   1       3.413   0.651  -1.319  0.00  0.00     0.028 H 
ATOM     39  H   LIG d   1       4.706   1.676  -1.988  0.00  0.00     0.028 H 
ATOM     40  H   LIG d   1       3.022   1.912  -2.513  0.00  0.00     0.028 H 
ENDBRANCH  26  37
BRANCH  26  41
ATOM     41  C   LIG d   1       2.656  -0.089  -4.072  0.00  0.00    -0.011 C 
ATOM     42  H   LIG d   1       1.864   0.501  -3.610  0.00  0.00     0.028 H 
ATOM     43  H   LIG d   1       2.758   0.197  -5.119  0.00  0.00     0.028 H 
ATOM     44  H   LIG d   1       2.404  -1.147  -4.009  0.00  0.00     0.028 H 
ENDBRANCH  26  41
ENDBRANCH  20  23
ENDBRANCH  19  20
ENDBRANCH   1  19
BRANCH   6  45
ATOM     45  O   LIG d   1       8.649   2.402  -7.607  0.00  0.00    -0.487 OA
BRANCH  45  46
ATOM     46  C   LIG d   1       9.241   1.324  -8.333  0.00  0.00     0.079 C 
ATOM     47  H   LIG d   1       8.883   0.376  -7.933  0.00  0.00     0.066 H 
ATOM     48  H   LIG d   1       8.967   1.401  -9.386  0.00  0.00     0.066 H 
ATOM     49  H   LIG d   1      10.327   1.373  -8.237  0.00  0.00     0.066 H 
ENDBRANCH  45  46
ENDBRANCH   6  45
BRANCH   9  50
ATOM     50  O   LIG d   1      11.394   3.973  -2.438  0.00  0.00    -0.493 OA
BRANCH  50  51
ATOM     51  C   LIG d   1      10.868   5.090  -1.718  0.00  0.00     0.079 C 
ATOM     52  H   LIG d   1       9.778   5.075  -1.770  0.00  0.00     0.066 H 
ATOM     53  H   LIG d   1      11.182   5.031  -0.676  0.00  0.00     0.066 H 
ATOM     54  H   LIG d   1      11.240   6.014  -2.159  0.00  0.00     0.066 H 
ENDBRANCH  50  51
ENDBRANCH   9  50
TORSDOF 11
ENDMDL
MODEL 8
REMARK VINA RESULT:      -5.4     11.266     14.660
REMARK  11 active torsions:
REMARK  status: ('A' for Active; 'I' for Inactive)
REMARK    1  A    between atoms: C_1  and  C_2 
REMARK    2  A    between atoms: C_2  and  C_28 
REMARK    3  A    between atoms: C_3  and  C_10 
REMARK    4  A    between atoms: C_6  and  C_8 
REMARK    5  A    between atoms: C_6  and  C_9 
REMARK    6  A    between atoms: C_10  and  O_11 
REMARK    7  A    between atoms: O_11  and  C_12 
REMARK    8  A    between atoms: C_17  and  O_18 
REMARK    9  A    between atoms: O_18  and  C_19 
REMARK   10  A    between atoms: C_22  and  O_23 
REMARK   11  A    between atoms: O_23  and  C_24 
ROOT
ATOM      1  C   LIG d   1       9.596   8.195  -5.850  0.00  0.00     0.169 A 
ATOM      2  C   LIG d   1       9.318   6.826  -5.905  0.00  0.00    -0.015 A 
ATOM      3  C   LIG d   1       9.461   6.042  -4.803  0.00  0.00    -0.041 A 
ATOM      4  C   LIG d   1       9.893   6.607  -3.591  0.00  0.00     0.093 A 
ATOM      5  C   LIG d   1      10.178   7.994  -3.520  0.00  0.00     0.265 A 
ATOM      6  C   LIG d   1      10.022   8.783  -4.678  0.00  0.00     0.235 A 
ATOM      7  C   LIG d   1      10.747   7.831  -1.274  0.00  0.00     0.386 A 
ATOM      8  C   LIG d   1      10.481   6.445  -1.272  0.00  0.00     0.132 A 
ATOM      9  C   LIG d   1      10.054   5.813  -2.437  0.00  0.00     0.151 A 
ATOM     10  C   LIG d   1      10.759   5.990   0.096  0.00  0.00    -0.006 A 
ATOM     11  C   LIG d   1      11.149   7.075   0.776  0.00  0.00     0.100 A 
ATOM     12  O   LIG d   1      11.143   8.156  -0.025  0.00  0.00    -0.412 OA
ATOM     13  H   LIG d   1       8.987   6.386  -6.835  0.00  0.00     0.066 H 
ATOM     14  H   LIG d   1       9.244   4.986  -4.860  0.00  0.00     0.063 H 
ATOM     15  H   LIG d   1      10.666   4.984   0.478  0.00  0.00     0.066 H 
ATOM     16  H   LIG d   1      11.428   7.082   1.819  0.00  0.00     0.103 H 
ATOM     17  N   LIG d   1      10.606   8.624  -2.371  0.00  0.00    -0.169 N 
ATOM     18  H   LIG d   1      10.807   9.631  -2.345  0.00  0.00     0.457 HD
ENDROOT
BRANCH   1  19
ATOM     19  O   LIG d   1       9.444   8.956  -6.967  0.00  0.00    -0.485 OA
BRANCH  19  20
ATOM     20  C   LIG d   1       8.956   8.301  -8.138  0.00  0.00     0.119 C 
ATOM     21  H   LIG d   1       8.544   7.328  -7.865  0.00  0.00     0.072 H 
ATOM     22  H   LIG d   1       8.176   8.909  -8.596  0.00  0.00     0.072 H 
BRANCH  20  23
ATOM     23  C   LIG d   1      10.103   8.107  -9.132  0.00  0.00     0.124 C 
ATOM     24  C   LIG d   1      10.051   6.697  -9.758  0.00  0.00     0.097 C 
ATOM     25  O   LIG d   1      10.391   6.890 -11.142  0.00  0.00    -0.341 OA
ATOM     26  C   LIG d   1      10.665   8.291 -11.320  0.00  0.00     0.166 C 
ATOM     27  O   LIG d   1       9.938   8.977 -10.278  0.00  0.00    -0.340 OA
ATOM     28  H   LIG d   1      11.064   8.284  -8.648  0.00  0.00     0.066 H 
BRANCH  24  29
ATOM     29  C   LIG d   1      11.073   5.779  -9.083  0.00  0.00    -0.033 C 
ATOM     30  H   LIG d   1      11.453   5.062  -9.810  0.00  0.00     0.026 H 
ATOM     31  H   LIG d   1      11.898   6.377  -8.696  0.00  0.00     0.026 H 
ATOM     32  H   LIG d   1      10.595   5.244  -8.262  0.00  0.00     0.026 H 
ENDBRANCH  24  29
BRANCH  24  33
ATOM     33  C   LIG d   1       8.644   6.111  -9.633  0.00  0.00    -0.033 C 
ATOM     34  H   LIG d   1       7.993   6.829  -9.136  0.00  0.00     0.026 H 
ATOM     35  H   LIG d   1       8.252   5.892 -10.627  0.00  0.00     0.026 H 
ATOM     36  H   LIG d   1       8.684   5.192  -9.048  0.00  0.00     0.026 H 
ENDBRANCH  24  33
BRANCH  26  37
ATOM     37  C   LIG d   1      10.176   8.752 -12.694  0.00  0.00    -0.011 C 
ATOM     38  H   LIG d   1      10.354   9.822 -12.803  0.00  0.00     0.028 H 
ATOM     39  H   LIG d   1      10.717   8.213 -13.472  0.00  0.00     0.028 H 
ATOM     40  H   LIG d   1       9.109   8.550 -12.788  0.00  0.00     0.028 H 
ENDBRANCH  26  37
BRANCH  26  41
ATOM     41  C   LIG d   1      12.165   8.555 -11.178  0.00  0.00    -0.011 C 
ATOM     42  H   LIG d   1      12.713   7.923 -11.878  0.00  0.00     0.028 H 
ATOM     43  H   LIG d   1      12.372   9.603 -11.396  0.00  0.00     0.028 H 
ATOM     44  H   LIG d   1      12.480   8.327 -10.160  0.00  0.00     0.028 H 
ENDBRANCH  26  41
ENDBRANCH  20  23
ENDBRANCH  19  20
ENDBRANCH   1  19
BRANCH   6  45
ATOM     45  O   LIG d   1      10.289  10.116  -4.638  0.00  0.00    -0.487 OA
BRANCH  45  46
ATOM     46  C   LIG d   1       9.189  10.991  -4.387  0.00  0.00     0.079 C 
ATOM     47  H   LIG d   1       8.878  10.896  -3.347  0.00  0.00     0.066 H 
ATOM     48  H   LIG d   1       9.490  12.020  -4.584  0.00  0.00     0.066 H 
ATOM     49  H   LIG d   1       8.357  10.726  -5.041  0.00  0.00     0.066 H 
ENDBRANCH  45  46
ENDBRANCH   6  45
BRANCH   9  50
ATOM     50  O   LIG d   1       9.798   4.483  -2.459  0.00  0.00    -0.493 OA
BRANCH  50  51
ATOM     51  C   LIG d   1      10.922   3.607  -2.570  0.00  0.00     0.079 C 
ATOM     52  H   LIG d   1      10.711   2.838  -3.314  0.00  0.00     0.066 H 
ATOM     53  H   LIG d   1      11.798   4.178  -2.876  0.00  0.00     0.066 H 
ATOM     54  H   LIG d   1      11.112   3.136  -1.605  0.00  0.00     0.066 H 
ENDBRANCH  50  51
ENDBRANCH   9  50
TORSDOF 11
ENDMDL
MODEL 9
REMARK VINA RESULT:      -5.3      0.996      2.007
REMARK  11 active torsions:
REMARK  status: ('A' for Active; 'I' for Inactive)
REMARK    1  A    between atoms: C_1  and  C_2 
REMARK    2  A    between atoms: C_2  and  C_28 
REMARK    3  A    between atoms: C_3  and  C_10 
REMARK    4  A    between atoms: C_6  and  C_8 
REMARK    5  A    between atoms: C_6  and  C_9 
REMARK    6  A    between atoms: C_10  and  O_11 
REMARK    7  A    between atoms: O_11  and  C_12 
REMARK    8  A    between atoms: C_17  and  O_18 
REMARK    9  A    between atoms: O_18  and  C_19 
REMARK   10  A    between atoms: C_22  and  O_23 
REMARK   11  A    between atoms: O_23  and  C_24 
ROOT
ATOM      1  C   LIG d   1       6.572  -4.909  -5.424  0.00  0.00     0.169 A 
ATOM      2  C   LIG d   1       7.709  -4.176  -5.073  0.00  0.00    -0.015 A 
ATOM      3  C   LIG d   1       7.598  -2.973  -4.447  0.00  0.00    -0.041 A 
ATOM      4  C   LIG d   1       6.327  -2.454  -4.147  0.00  0.00     0.093 A 
ATOM      5  C   LIG d   1       5.163  -3.186  -4.497  0.00  0.00     0.265 A 
ATOM      6  C   LIG d   1       5.309  -4.429  -5.145  0.00  0.00     0.235 A 
ATOM      7  C   LIG d   1       3.781  -1.542  -3.613  0.00  0.00     0.386 A 
ATOM      8  C   LIG d   1       4.894  -0.761  -3.236  0.00  0.00     0.132 A 
ATOM      9  C   LIG d   1       6.186  -1.207  -3.504  0.00  0.00     0.151 A 
ATOM     10  C   LIG d   1       4.338   0.440  -2.600  0.00  0.00    -0.006 A 
ATOM     11  C   LIG d   1       3.007   0.300  -2.641  0.00  0.00     0.100 A 
ATOM     12  O   LIG d   1       2.678  -0.862  -3.234  0.00  0.00    -0.412 OA
ATOM     13  H   LIG d   1       8.689  -4.570  -5.302  0.00  0.00     0.066 H 
ATOM     14  H   LIG d   1       8.484  -2.418  -4.182  0.00  0.00     0.063 H 
ATOM     15  H   LIG d   1       4.890   1.270  -2.184  0.00  0.00     0.066 H 
ATOM     16  H   LIG d   1       2.299   1.017  -2.252  0.00  0.00     0.103 H 
ATOM     17  N   LIG d   1       3.883  -2.747  -4.238  0.00  0.00    -0.169 N 
ATOM     18  H   LIG d   1       3.056  -3.295  -4.503  0.00  0.00     0.457 HD
ENDROOT
BRANCH   1  19
ATOM     19  O   LIG d   1       6.712  -6.108  -6.049  0.00  0.00    -0.485 OA
BRANCH  19  20
ATOM     20  C   LIG d   1       7.877  -6.872  -5.733  0.00  0.00     0.119 C 
ATOM     21  H   LIG d   1       8.193  -7.434  -6.613  0.00  0.00     0.072 H 
ATOM     22  H   LIG d   1       8.678  -6.202  -5.424  0.00  0.00     0.072 H 
BRANCH  20  23
ATOM     23  C   LIG d   1       7.557  -7.845  -4.596  0.00  0.00     0.124 C 
ATOM     24  C   LIG d   1       7.081  -9.203  -5.156  0.00  0.00     0.097 C 
ATOM     25  O   LIG d   1       7.694 -10.192  -4.310  0.00  0.00    -0.341 OA
ATOM     26  C   LIG d   1       8.439  -9.486  -3.304  0.00  0.00     0.166 C 
ATOM     27  O   LIG d   1       8.761  -8.198  -3.872  0.00  0.00    -0.340 OA
ATOM     28  H   LIG d   1       6.813  -7.419  -3.924  0.00  0.00     0.066 H 
BRANCH  24  29
ATOM     29  C   LIG d   1       5.557  -9.306  -5.075  0.00  0.00    -0.033 C 
ATOM     30  H   LIG d   1       5.218 -10.158  -5.663  0.00  0.00     0.026 H 
ATOM     31  H   LIG d   1       5.257  -9.439  -4.036  0.00  0.00     0.026 H 
ATOM     32  H   LIG d   1       5.109  -8.393  -5.469  0.00  0.00     0.026 H 
ENDBRANCH  24  29
BRANCH  24  33
ATOM     33  C   LIG d   1       7.551  -9.376  -6.602  0.00  0.00    -0.033 C 
ATOM     34  H   LIG d   1       8.438 -10.008  -6.623  0.00  0.00     0.026 H 
ATOM     35  H   LIG d   1       6.759  -9.842  -7.189  0.00  0.00     0.026 H 
ATOM     36  H   LIG d   1       7.790  -8.401  -7.025  0.00  0.00     0.026 H 
ENDBRANCH  24  33
BRANCH  26  37
ATOM     37  C   LIG d   1       9.721 -10.248  -2.966  0.00  0.00    -0.011 C 
ATOM     38  H   LIG d   1      10.076  -9.944  -1.981  0.00  0.00     0.028 H 
ATOM     39  H   LIG d   1       9.518 -11.319  -2.963  0.00  0.00     0.028 H 
ATOM     40  H   LIG d   1      10.484 -10.025  -3.712  0.00  0.00     0.028 H 
ENDBRANCH  26  37
BRANCH  26  41
ATOM     41  C   LIG d   1       7.585  -9.308  -2.047  0.00  0.00    -0.011 C 
ATOM     42  H   LIG d   1       6.915  -8.458  -2.180  0.00  0.00     0.028 H 
ATOM     43  H   LIG d   1       6.998 -10.210  -1.874  0.00  0.00     0.028 H 
ATOM     44  H   LIG d   1       8.234  -9.127  -1.189  0.00  0.00     0.028 H 
ENDBRANCH  26  41
ENDBRANCH  20  23
ENDBRANCH  19  20
ENDBRANCH   1  19
BRANCH   6  45
ATOM     45  O   LIG d   1       4.210  -5.152  -5.493  0.00  0.00    -0.487 OA
BRANCH  45  46
ATOM     46  C   LIG d   1       3.754  -5.030  -6.841  0.00  0.00     0.079 C 
ATOM     47  H   LIG d   1       4.510  -5.427  -7.518  0.00  0.00     0.066 H 
ATOM     48  H   LIG d   1       2.827  -5.590  -6.963  0.00  0.00     0.066 H 
ATOM     49  H   LIG d   1       3.576  -3.979  -7.072  0.00  0.00     0.066 H 
ENDBRANCH  45  46
ENDBRANCH   6  45
BRANCH   9  50
ATOM     50  O   LIG d   1       7.268  -0.471  -3.156  0.00  0.00    -0.493 OA
BRANCH  50  51
ATOM     51  C   LIG d   1       7.602   0.633  -3.999  0.00  0.00     0.079 C 
ATOM     52  H   LIG d   1       7.334   1.565  -3.499  0.00  0.00     0.066 H 
ATOM     53  H   LIG d   1       8.672   0.625  -4.201  0.00  0.00     0.066 H 
ATOM     54  H   LIG d   1       7.053   0.553  -4.937  0.00  0.00     0.066 H 
ENDBRANCH  50  51
ENDBRANCH   9  50
TORSDOF 11
ENDMDL
MODEL 10
REMARK VINA RESULT:      -5.2      5.127      8.958
REMARK  11 active torsions:
REMARK  status: ('A' for Active; 'I' for Inactive)
REMARK    1  A    between atoms: C_1  and  C_2 
REMARK    2  A    between atoms: C_2  and  C_28 
REMARK    3  A    between atoms: C_3  and  C_10 
REMARK    4  A    between atoms: C_6  and  C_8 
REMARK    5  A    between atoms: C_6  and  C_9 
REMARK    6  A    between atoms: C_10  and  O_11 
REMARK    7  A    between atoms: O_11  and  C_12 
REMARK    8  A    between atoms: C_17  and  O_18 
REMARK    9  A    between atoms: O_18  and  C_19 
REMARK   10  A    between atoms: C_22  and  O_23 
REMARK   11  A    between atoms: O_23  and  C_24 
ROOT
ATOM      1  C   LIG d   1       8.101   1.467  -5.939  0.00  0.00     0.169 A 
ATOM      2  C   LIG d   1       7.817   1.203  -7.283  0.00  0.00    -0.015 A 
ATOM      3  C   LIG d   1       8.245   2.044  -8.263  0.00  0.00    -0.041 A 
ATOM      4  C   LIG d   1       8.982   3.193  -7.929  0.00  0.00     0.093 A 
ATOM      5  C   LIG d   1       9.278   3.473  -6.571  0.00  0.00     0.265 A 
ATOM      6  C   LIG d   1       8.821   2.586  -5.576  0.00  0.00     0.235 A 
ATOM      7  C   LIG d   1      10.419   5.413  -7.149  0.00  0.00     0.386 A 
ATOM      8  C   LIG d   1      10.161   5.195  -8.520  0.00  0.00     0.132 A 
ATOM      9  C   LIG d   1       9.433   4.081  -8.928  0.00  0.00     0.151 A 
ATOM     10  C   LIG d   1      10.790   6.321  -9.224  0.00  0.00    -0.006 A 
ATOM     11  C   LIG d   1      11.346   7.086  -8.278  0.00  0.00     0.100 A 
ATOM     12  O   LIG d   1      11.130   6.556  -7.060  0.00  0.00    -0.412 OA
ATOM     13  H   LIG d   1       7.249   0.322  -7.544  0.00  0.00     0.066 H 
ATOM     14  H   LIG d   1       8.019   1.828  -9.296  0.00  0.00     0.063 H 
ATOM     15  H   LIG d   1      10.801   6.495 -10.290  0.00  0.00     0.066 H 
ATOM     16  H   LIG d   1      11.891   8.000  -8.465  0.00  0.00     0.103 H 
ATOM     17  N   LIG d   1       9.995   4.577  -6.162  0.00  0.00    -0.169 N 
ATOM     18  H   LIG d   1      10.196   4.759  -5.172  0.00  0.00     0.457 HD
ENDROOT
BRANCH   1  19
ATOM     19  O   LIG d   1       7.661   0.611  -4.979  0.00  0.00    -0.485 OA
BRANCH  19  20
ATOM     20  C   LIG d   1       6.969  -0.558  -5.420  0.00  0.00     0.119 C 
ATOM     21  H   LIG d   1       6.814  -0.504  -6.499  0.00  0.00     0.072 H 
ATOM     22  H   LIG d   1       7.560  -1.442  -5.183  0.00  0.00     0.072 H 
BRANCH  20  23
ATOM     23  C   LIG d   1       5.613  -0.647  -4.715  0.00  0.00     0.124 C 
ATOM     24  C   LIG d   1       5.609  -1.793  -3.681  0.00  0.00     0.097 C 
ATOM     25  O   LIG d   1       4.889  -1.274  -2.550  0.00  0.00    -0.341 OA
ATOM     26  C   LIG d   1       4.461   0.056  -2.894  0.00  0.00     0.166 C 
ATOM     27  O   LIG d   1       5.385   0.527  -3.898  0.00  0.00    -0.340 OA
ATOM     28  H   LIG d   1       4.811  -0.774  -5.441  0.00  0.00     0.066 H 
BRANCH  24  29
ATOM     29  C   LIG d   1       4.891  -3.019  -4.251  0.00  0.00    -0.033 C 
ATOM     30  H   LIG d   1       4.435  -3.583  -3.438  0.00  0.00     0.026 H 
ATOM     31  H   LIG d   1       4.118  -2.695  -4.947  0.00  0.00     0.026 H 
ATOM     32  H   LIG d   1       5.610  -3.651  -4.773  0.00  0.00     0.026 H 
ENDBRANCH  24  29
BRANCH  24  33
ATOM     33  C   LIG d   1       7.041  -2.153  -3.279  0.00  0.00    -0.033 C 
ATOM     34  H   LIG d   1       7.019  -2.901  -2.488  0.00  0.00     0.026 H 
ATOM     35  H   LIG d   1       7.572  -2.553  -4.144  0.00  0.00     0.026 H 
ATOM     36  H   LIG d   1       7.552  -1.260  -2.920  0.00  0.00     0.026 H 
ENDBRANCH  24  33
BRANCH  26  37
ATOM     37  C   LIG d   1       4.515   0.961  -1.662  0.00  0.00    -0.011 C 
ATOM     38  H   LIG d   1       4.430   0.354  -0.760  0.00  0.00     0.028 H 
ATOM     39  H   LIG d   1       5.462   1.500  -1.648  0.00  0.00     0.028 H 
ATOM     40  H   LIG d   1       3.692   1.674  -1.698  0.00  0.00     0.028 H 
ENDBRANCH  26  37
BRANCH  26  41
ATOM     41  C   LIG d   1       3.041   0.021  -3.460  0.00  0.00    -0.011 C 
ATOM     42  H   LIG d   1       2.362  -0.395  -2.714  0.00  0.00     0.028 H 
ATOM     43  H   LIG d   1       2.725   1.033  -3.714  0.00  0.00     0.028 H 
ATOM     44  H   LIG d   1       3.021  -0.601  -4.355  0.00  0.00     0.028 H 
ENDBRANCH  26  41
ENDBRANCH  20  23
ENDBRANCH  19  20
ENDBRANCH   1  19
BRANCH   6  45
ATOM     45  O   LIG d   1       9.090   2.831  -4.265  0.00  0.00    -0.487 OA
BRANCH  45  46
ATOM     46  C   LIG d   1      10.232   2.181  -3.705  0.00  0.00     0.079 C 
ATOM     47  H   LIG d   1      10.009   1.872  -2.684  0.00  0.00     0.066 H 
ATOM     48  H   LIG d   1      10.481   1.304  -4.303  0.00  0.00     0.066 H 
ATOM     49  H   LIG d   1      11.077   2.869  -3.701  0.00  0.00     0.066 H 
ENDBRANCH  45  46
ENDBRANCH   6  45
BRANCH   9  50
ATOM     50  O   LIG d   1       9.170   3.856 -10.237  0.00  0.00    -0.493 OA
BRANCH  50  51
ATOM     51  C   LIG d   1      10.206   3.250 -11.013  0.00  0.00     0.079 C 
ATOM     52  H   LIG d   1      10.999   3.978 -11.192  0.00  0.00     0.066 H 
ATOM     53  H   LIG d   1      10.612   2.396 -10.472  0.00  0.00     0.066 H 
ATOM     54  H   LIG d   1       9.797   2.916 -11.967  0.00  0.00     0.066 H 
ENDBRANCH  50  51
ENDBRANCH   9  50
TORSDOF 11
ENDMDL
