MODEL 1
REMARK VINA RESULT:      -5.9      0.000      0.000
REMARK  17 active torsions:
REMARK  status: ('A' for Active; 'I' for Inactive)
REMARK    1  A    between atoms: C_1  and  C_2 
REMARK    2  A    between atoms: C_2  and  C_3 
REMARK    3  A    between atoms: C_3  and  C_4 
REMARK    4  A    between atoms: C_4  and  O_5 
REMARK    5  A    between atoms: O_5  and  C_6 
REMARK    6  A    between atoms: C_9  and  C_12 
REMARK       I    between atoms: C_12  and  N_14 
REMARK    7  A    between atoms: N_14  and  C_15 
REMARK    8  A    between atoms: C_17  and  O_38 
REMARK    9  A    between atoms: C_18  and  O_36 
REMARK   10  A    between atoms: C_20  and  C_21 
REMARK   11  A    between atoms: C_21  and  C_22 
REMARK   12  A    between atoms: C_25  and  O_34 
REMARK   13  A    between atoms: C_26  and  O_32 
REMARK   14  A    between atoms: O_32  and  C_33 
REMARK   15  A    between atoms: O_34  and  C_35 
REMARK   16  A    between atoms: O_36  and  C_37 
REMARK   17  A    between atoms: O_38  and  C_39 
ROOT
ATOM      1  C   LIG d   1      11.530   1.273  -4.293  0.00  0.00     0.041 A 
ATOM      2  C   LIG d   1      12.542   0.707  -5.057  0.00  0.00     0.005 A 
ATOM      3  C   LIG d   1      13.774   1.333  -5.142  0.00  0.00     0.163 A 
ATOM      4  C   LIG d   1      13.999   2.521  -4.454  0.00  0.00     0.162 A 
ATOM      5  C   LIG d   1      12.989   3.079  -3.688  0.00  0.00    -0.011 A 
ATOM      6  C   LIG d   1      11.757   2.458  -3.607  0.00  0.00    -0.017 A 
ATOM      7  H   LIG d   1      12.367  -0.216  -5.588  0.00  0.00     0.067 H 
ATOM      8  H   LIG d   1      13.165   4.002  -3.153  0.00  0.00     0.066 H 
ENDROOT
BRANCH   1   9
ATOM      9  N   LIG d   1      10.281   0.645  -4.209  0.00  0.00    -0.281 N 
ATOM     10  C   LIG d   1       9.414   0.729  -5.239  0.00  0.00     0.248 C 
ATOM     11  O   LIG d   1       9.746   1.282  -6.270  0.00  0.00    -0.270 OA
ATOM     12  H   LIG d   1      10.040   0.149  -3.412  0.00  0.00     0.155 HD
BRANCH  10  13
ATOM     13  C   LIG d   1       8.063   0.149  -5.115  0.00  0.00     0.037 A 
ATOM     14  C   LIG d   1       7.734  -0.628  -4.001  0.00  0.00    -0.046 A 
ATOM     15  C   LIG d   1       6.471  -1.163  -3.886  0.00  0.00    -0.019 A 
ATOM     16  H   LIG d   1       8.470  -0.809  -3.232  0.00  0.00     0.063 H 
ATOM     17  C   LIG d   1       5.522  -0.931  -4.876  0.00  0.00     0.120 A 
ATOM     18  H   LIG d   1       6.215  -1.763  -3.026  0.00  0.00     0.065 H 
ATOM     19  C   LIG d   1       5.846  -0.159  -5.985  0.00  0.00    -0.019 A 
ATOM     20  C   LIG d   1       7.107   0.380  -6.108  0.00  0.00    -0.046 A 
ATOM     21  H   LIG d   1       5.107   0.019  -6.753  0.00  0.00     0.065 H 
ATOM     22  H   LIG d   1       7.358   0.980  -6.971  0.00  0.00     0.063 H 
BRANCH  17  23
ATOM     23  O   LIG d   1       4.279  -1.460  -4.759  0.00  0.00    -0.492 OA
BRANCH  23  24
ATOM     24  C   LIG d   1       3.202  -0.545  -4.543  0.00  0.00     0.090 C 
ATOM     25  H   LIG d   1       3.440   0.412  -5.007  0.00  0.00     0.070 H 
ATOM     26  H   LIG d   1       2.290  -0.947  -4.985  0.00  0.00     0.070 H 
BRANCH  24  27
ATOM     27  C   LIG d   1       2.996  -0.346  -3.040  0.00  0.00    -0.019 C 
ATOM     28  H   LIG d   1       1.936  -0.439  -2.803  0.00  0.00     0.030 H 
ATOM     29  H   LIG d   1       3.558  -1.103  -2.493  0.00  0.00     0.030 H 
BRANCH  27  30
ATOM     30  C   LIG d   1       3.489   1.045  -2.638  0.00  0.00    -0.053 C 
ATOM     31  H   LIG d   1       3.881   1.560  -3.515  0.00  0.00     0.026 H 
ATOM     32  H   LIG d   1       2.661   1.618  -2.221  0.00  0.00     0.026 H 
BRANCH  30  33
ATOM     33  C   LIG d   1       4.595   0.911  -1.589  0.00  0.00    -0.065 C 
ATOM     34  H   LIG d   1       4.346   0.104  -0.900  0.00  0.00     0.023 H 
ATOM     35  H   LIG d   1       5.540   0.687  -2.084  0.00  0.00     0.023 H 
ATOM     36  H   LIG d   1       4.686   1.845  -1.036  0.00  0.00     0.023 H 
ENDBRANCH  30  33
ENDBRANCH  27  30
ENDBRANCH  24  27
ENDBRANCH  23  24
ENDBRANCH  17  23
ENDBRANCH  10  13
ENDBRANCH   1   9
BRANCH   6  37
ATOM     37  C   LIG d   1      10.660   3.068  -2.774  0.00  0.00     0.017 C 
ATOM     38  H   LIG d   1       9.823   2.372  -2.709  0.00  0.00     0.038 H 
ATOM     39  H   LIG d   1      11.037   3.278  -1.773  0.00  0.00     0.038 H 
BRANCH  37  40
ATOM     40  C   LIG d   1      10.197   4.351  -3.414  0.00  0.00     0.053 A 
ATOM     41  N   LIG d   1       9.865   4.370  -4.684  0.00  0.00    -0.259 NA
ATOM     42  C   LIG d   1       9.450   5.468  -5.302  0.00  0.00     0.029 A 
ATOM     43  C   LIG d   1       9.342   6.660  -4.653  0.00  0.00    -0.036 A 
ATOM     44  H   LIG d   1       9.192   5.415  -6.349  0.00  0.00     0.083 H 
ATOM     45  C   LIG d   1       9.681   6.720  -3.288  0.00  0.00    -0.011 A 
ATOM     46  H   LIG d   1       9.004   7.542  -5.176  0.00  0.00     0.064 H 
ATOM     47  C   LIG d   1      10.115   5.528  -2.652  0.00  0.00     0.007 A 
ATOM     48  C   LIG d   1       9.596   7.909  -2.551  0.00  0.00    -0.009 A 
ATOM     49  C   LIG d   1      10.454   5.556  -1.290  0.00  0.00    -0.007 A 
ATOM     50  C   LIG d   1      10.356   6.726  -0.596  0.00  0.00     0.162 A 
ATOM     51  H   LIG d   1      10.790   4.656  -0.795  0.00  0.00     0.066 H 
ATOM     52  C   LIG d   1       9.922   7.904  -1.225  0.00  0.00     0.162 A 
ATOM     53  H   LIG d   1       9.264   8.820  -3.025  0.00  0.00     0.066 H 
BRANCH  50  54
ATOM     54  O   LIG d   1      10.685   6.753   0.723  0.00  0.00    -0.491 OA
BRANCH  54  55
ATOM     55  C   LIG d   1      11.061   5.511   1.323  0.00  0.00     0.079 C 
ATOM     56  H   LIG d   1      12.014   5.631   1.839  0.00  0.00     0.066 H 
ATOM     57  H   LIG d   1      10.296   5.207   2.038  0.00  0.00     0.066 H 
ATOM     58  H   LIG d   1      11.159   4.749   0.550  0.00  0.00     0.066 H 
ENDBRANCH  54  55
ENDBRANCH  50  54
BRANCH  52  59
ATOM     59  O   LIG d   1       9.836   9.055  -0.508  0.00  0.00    -0.491 OA
BRANCH  59  60
ATOM     60  C   LIG d   1       9.319  10.202  -1.184  0.00  0.00     0.079 C 
ATOM     61  H   LIG d   1      10.105  10.650  -1.792  0.00  0.00     0.066 H 
ATOM     62  H   LIG d   1       8.489   9.904  -1.825  0.00  0.00     0.066 H 
ATOM     63  H   LIG d   1       8.968  10.928  -0.450  0.00  0.00     0.066 H 
ENDBRANCH  59  60
ENDBRANCH  52  59
ENDBRANCH  37  40
ENDBRANCH   6  37
BRANCH   3  64
ATOM     64  O   LIG d   1      14.766   0.784  -5.895  0.00  0.00    -0.491 OA
BRANCH  64  65
ATOM     65  C   LIG d   1      15.373  -0.409  -5.396  0.00  0.00     0.079 C 
ATOM     66  H   LIG d   1      14.602  -1.154  -5.198  0.00  0.00     0.066 H 
ATOM     67  H   LIG d   1      16.072  -0.798  -6.138  0.00  0.00     0.066 H 
ATOM     68  H   LIG d   1      15.909  -0.186  -4.474  0.00  0.00     0.066 H 
ENDBRANCH  64  65
ENDBRANCH   3  64
BRANCH   4  69
ATOM     69  O   LIG d   1      15.211   3.134  -4.531  0.00  0.00    -0.491 OA
BRANCH  69  70
ATOM     70  C   LIG d   1      16.080   3.001  -3.405  0.00  0.00     0.079 C 
ATOM     71  H   LIG d   1      15.712   3.618  -2.587  0.00  0.00     0.066 H 
ATOM     72  H   LIG d   1      16.108   1.957  -3.089  0.00  0.00     0.066 H 
ATOM     73  H   LIG d   1      17.084   3.323  -3.681  0.00  0.00     0.066 H 
ENDBRANCH  69  70
ENDBRANCH   4  69
TORSDOF 17
ENDMDL
MODEL 2
REMARK VINA RESULT:      -5.9      6.792     11.147
REMARK  17 active torsions:
REMARK  status: ('A' for Active; 'I' for Inactive)
REMARK    1  A    between atoms: C_1  and  C_2 
REMARK    2  A    between atoms: C_2  and  C_3 
REMARK    3  A    between atoms: C_3  and  C_4 
REMARK    4  A    between atoms: C_4  and  O_5 
REMARK    5  A    between atoms: O_5  and  C_6 
REMARK    6  A    between atoms: C_9  and  C_12 
REMARK       I    between atoms: C_12  and  N_14 
REMARK    7  A    between atoms: N_14  and  C_15 
REMARK    8  A    between atoms: C_17  and  O_38 
REMARK    9  A    between atoms: C_18  and  O_36 
REMARK   10  A    between atoms: C_20  and  C_21 
REMARK   11  A    between atoms: C_21  and  C_22 
REMARK   12  A    between atoms: C_25  and  O_34 
REMARK   13  A    between atoms: C_26  and  O_32 
REMARK   14  A    between atoms: O_32  and  C_33 
REMARK   15  A    between atoms: O_34  and  C_35 
REMARK   16  A    between atoms: O_36  and  C_37 
REMARK   17  A    between atoms: O_38  and  C_39 
ROOT
ATOM      1  C   LIG d   1       5.053  -6.449  -7.627  0.00  0.00     0.041 A 
ATOM      2  C   LIG d   1       4.773  -7.712  -7.123  0.00  0.00     0.005 A 
ATOM      3  C   LIG d   1       4.319  -8.709  -7.970  0.00  0.00     0.163 A 
ATOM      4  C   LIG d   1       4.153  -8.445  -9.326  0.00  0.00     0.162 A 
ATOM      5  C   LIG d   1       4.438  -7.185  -9.827  0.00  0.00    -0.011 A 
ATOM      6  C   LIG d   1       4.886  -6.189  -8.981  0.00  0.00    -0.017 A 
ATOM      7  H   LIG d   1       4.906  -7.917  -6.071  0.00  0.00     0.067 H 
ATOM      8  H   LIG d   1       4.310  -6.981 -10.880  0.00  0.00     0.066 H 
ENDROOT
BRANCH   1   9
ATOM      9  N   LIG d   1       5.508  -5.438  -6.771  0.00  0.00    -0.281 N 
ATOM     10  C   LIG d   1       4.668  -4.890  -5.869  0.00  0.00     0.248 C 
ATOM     11  O   LIG d   1       3.540  -5.327  -5.745  0.00  0.00    -0.270 OA
ATOM     12  H   LIG d   1       6.426  -5.133  -6.826  0.00  0.00     0.155 HD
BRANCH  10  13
ATOM     13  C   LIG d   1       5.119  -3.761  -5.033  0.00  0.00     0.037 A 
ATOM     14  C   LIG d   1       6.382  -3.200  -5.237  0.00  0.00    -0.046 A 
ATOM     15  C   LIG d   1       6.796  -2.143  -4.458  0.00  0.00    -0.019 A 
ATOM     16  H   LIG d   1       7.032  -3.594  -6.003  0.00  0.00     0.063 H 
ATOM     17  C   LIG d   1       5.960  -1.634  -3.470  0.00  0.00     0.120 A 
ATOM     18  H   LIG d   1       7.772  -1.707  -4.614  0.00  0.00     0.065 H 
ATOM     19  C   LIG d   1       4.704  -2.191  -3.264  0.00  0.00    -0.019 A 
ATOM     20  C   LIG d   1       4.281  -3.248  -4.039  0.00  0.00    -0.046 A 
ATOM     21  H   LIG d   1       4.057  -1.793  -2.496  0.00  0.00     0.065 H 
ATOM     22  H   LIG d   1       3.304  -3.680  -3.878  0.00  0.00     0.063 H 
BRANCH  17  23
ATOM     23  O   LIG d   1       6.373  -0.593  -2.704  0.00  0.00    -0.492 OA
BRANCH  23  24
ATOM     24  C   LIG d   1       5.748   0.671  -2.936  0.00  0.00     0.090 C 
ATOM     25  H   LIG d   1       6.511   1.449  -2.993  0.00  0.00     0.070 H 
ATOM     26  H   LIG d   1       5.194   0.637  -3.874  0.00  0.00     0.070 H 
BRANCH  24  27
ATOM     27  C   LIG d   1       4.787   0.983  -1.787  0.00  0.00    -0.019 C 
ATOM     28  H   LIG d   1       4.684   0.105  -1.151  0.00  0.00     0.030 H 
ATOM     29  H   LIG d   1       5.179   1.814  -1.201  0.00  0.00     0.030 H 
BRANCH  27  30
ATOM     30  C   LIG d   1       3.418   1.364  -2.356  0.00  0.00    -0.053 C 
ATOM     31  H   LIG d   1       2.636   0.847  -1.800  0.00  0.00     0.026 H 
ATOM     32  H   LIG d   1       3.275   2.441  -2.268  0.00  0.00     0.026 H 
BRANCH  30  33
ATOM     33  C   LIG d   1       3.348   0.959  -3.830  0.00  0.00    -0.065 C 
ATOM     34  H   LIG d   1       3.118  -0.104  -3.904  0.00  0.00     0.023 H 
ATOM     35  H   LIG d   1       2.568   1.533  -4.328  0.00  0.00     0.023 H 
ATOM     36  H   LIG d   1       4.307   1.157  -4.307  0.00  0.00     0.023 H 
ENDBRANCH  30  33
ENDBRANCH  27  30
ENDBRANCH  24  27
ENDBRANCH  23  24
ENDBRANCH  17  23
ENDBRANCH  10  13
ENDBRANCH   1   9
BRANCH   6  37
ATOM     37  C   LIG d   1       5.195  -4.819  -9.527  0.00  0.00     0.017 C 
ATOM     38  H   LIG d   1       5.836  -4.284  -8.826  0.00  0.00     0.038 H 
ATOM     39  H   LIG d   1       5.706  -4.917 -10.485  0.00  0.00     0.038 H 
BRANCH  37  40
ATOM     40  C   LIG d   1       3.912  -4.054  -9.720  0.00  0.00     0.053 A 
ATOM     41  N   LIG d   1       2.927  -4.584 -10.409  0.00  0.00    -0.259 NA
ATOM     42  C   LIG d   1       1.775  -3.959 -10.612  0.00  0.00     0.029 A 
ATOM     43  C   LIG d   1       1.535  -2.714 -10.116  0.00  0.00    -0.036 A 
ATOM     44  H   LIG d   1       1.006  -4.451 -11.187  0.00  0.00     0.083 H 
ATOM     45  C   LIG d   1       2.544  -2.079  -9.367  0.00  0.00    -0.011 A 
ATOM     46  H   LIG d   1       0.591  -2.222 -10.295  0.00  0.00     0.064 H 
ATOM     47  C   LIG d   1       3.764  -2.775  -9.160  0.00  0.00     0.007 A 
ATOM     48  C   LIG d   1       2.375  -0.799  -8.823  0.00  0.00    -0.009 A 
ATOM     49  C   LIG d   1       4.786  -2.169  -8.411  0.00  0.00    -0.007 A 
ATOM     50  C   LIG d   1       4.591  -0.925  -7.888  0.00  0.00     0.162 A 
ATOM     51  H   LIG d   1       5.721  -2.686  -8.250  0.00  0.00     0.066 H 
ATOM     52  C   LIG d   1       3.382  -0.239  -8.090  0.00  0.00     0.162 A 
ATOM     53  H   LIG d   1       1.449  -0.263  -8.972  0.00  0.00     0.066 H 
BRANCH  50  54
ATOM     54  O   LIG d   1       5.581  -0.338  -7.164  0.00  0.00    -0.491 OA
BRANCH  54  55
ATOM     55  C   LIG d   1       6.848  -0.180  -7.806  0.00  0.00     0.079 C 
ATOM     56  H   LIG d   1       6.888   0.793  -8.297  0.00  0.00     0.066 H 
ATOM     57  H   LIG d   1       7.643  -0.246  -7.063  0.00  0.00     0.066 H 
ATOM     58  H   LIG d   1       6.979  -0.967  -8.549  0.00  0.00     0.066 H 
ENDBRANCH  54  55
ENDBRANCH  50  54
BRANCH  52  59
ATOM     59  O   LIG d   1       3.217   1.000  -7.558  0.00  0.00    -0.491 OA
BRANCH  59  60
ATOM     60  C   LIG d   1       2.931   2.064  -8.469  0.00  0.00     0.079 C 
ATOM     61  H   LIG d   1       3.231   1.770  -9.475  0.00  0.00     0.066 H 
ATOM     62  H   LIG d   1       1.863   2.276  -8.456  0.00  0.00     0.066 H 
ATOM     63  H   LIG d   1       3.483   2.955  -8.170  0.00  0.00     0.066 H 
ENDBRANCH  59  60
ENDBRANCH  52  59
ENDBRANCH  37  40
ENDBRANCH   6  37
BRANCH   3  64
ATOM     64  O   LIG d   1       4.039  -9.946  -7.478  0.00  0.00    -0.491 OA
BRANCH  64  65
ATOM     65  C   LIG d   1       5.140 -10.715  -6.992  0.00  0.00     0.079 C 
ATOM     66  H   LIG d   1       4.816 -11.317  -6.143  0.00  0.00     0.066 H 
ATOM     67  H   LIG d   1       5.503 -11.370  -7.784  0.00  0.00     0.066 H 
ATOM     68  H   LIG d   1       5.941 -10.045  -6.678  0.00  0.00     0.066 H 
ENDBRANCH  64  65
ENDBRANCH   3  64
BRANCH   4  69
ATOM     69  O   LIG d   1       3.712  -9.424 -10.162  0.00  0.00    -0.491 OA
BRANCH  69  70
ATOM     70  C   LIG d   1       2.466  -9.200 -10.826  0.00  0.00     0.079 C 
ATOM     71  H   LIG d   1       1.646  -9.456 -10.157  0.00  0.00     0.066 H 
ATOM     72  H   LIG d   1       2.391  -8.150 -11.109  0.00  0.00     0.066 H 
ATOM     73  H   LIG d   1       2.415  -9.822 -11.720  0.00  0.00     0.066 H 
ENDBRANCH  69  70
ENDBRANCH   4  69
TORSDOF 17
ENDMDL
MODEL 3
REMARK VINA RESULT:      -5.9      2.061      3.226
REMARK  17 active torsions:
REMARK  status: ('A' for Active; 'I' for Inactive)
REMARK    1  A    between atoms: C_1  and  C_2 
REMARK    2  A    between atoms: C_2  and  C_3 
REMARK    3  A    between atoms: C_3  and  C_4 
REMARK    4  A    between atoms: C_4  and  O_5 
REMARK    5  A    between atoms: O_5  and  C_6 
REMARK    6  A    between atoms: C_9  and  C_12 
REMARK       I    between atoms: C_12  and  N_14 
REMARK    7  A    between atoms: N_14  and  C_15 
REMARK    8  A    between atoms: C_17  and  O_38 
REMARK    9  A    between atoms: C_18  and  O_36 
REMARK   10  A    between atoms: C_20  and  C_21 
REMARK   11  A    between atoms: C_21  and  C_22 
REMARK   12  A    between atoms: C_25  and  O_34 
REMARK   13  A    between atoms: C_26  and  O_32 
REMARK   14  A    between atoms: O_32  and  C_33 
REMARK   15  A    between atoms: O_34  and  C_35 
REMARK   16  A    between atoms: O_36  and  C_37 
REMARK   17  A    between atoms: O_38  and  C_39 
ROOT
ATOM      1  C   LIG d   1      10.868   2.178  -4.520  0.00  0.00     0.041 A 
ATOM      2  C   LIG d   1      11.998   1.385  -4.675  0.00  0.00     0.005 A 
ATOM      3  C   LIG d   1      13.120   1.898  -5.304  0.00  0.00     0.163 A 
ATOM      4  C   LIG d   1      13.116   3.209  -5.771  0.00  0.00     0.162 A 
ATOM      5  C   LIG d   1      11.989   3.998  -5.609  0.00  0.00    -0.011 A 
ATOM      6  C   LIG d   1      10.868   3.485  -4.986  0.00  0.00    -0.017 A 
ATOM      7  H   LIG d   1      12.000   0.369  -4.310  0.00  0.00     0.067 H 
ATOM      8  H   LIG d   1      11.988   5.017  -5.971  0.00  0.00     0.066 H 
ENDROOT
BRANCH   1   9
ATOM      9  N   LIG d   1       9.730   1.659  -3.889  0.00  0.00    -0.281 N 
ATOM     10  C   LIG d   1       8.830   0.949  -4.598  0.00  0.00     0.248 C 
ATOM     11  O   LIG d   1       9.044   0.691  -5.767  0.00  0.00    -0.270 OA
ATOM     12  H   LIG d   1       9.591   1.810  -2.942  0.00  0.00     0.155 HD
BRANCH  10  13
ATOM     13  C   LIG d   1       7.586   0.484  -3.956  0.00  0.00     0.037 A 
ATOM     14  C   LIG d   1       7.289  -0.880  -3.910  0.00  0.00    -0.046 A 
ATOM     15  C   LIG d   1       6.129  -1.310  -3.306  0.00  0.00    -0.019 A 
ATOM     16  H   LIG d   1       7.968  -1.596  -4.349  0.00  0.00     0.063 H 
ATOM     17  C   LIG d   1       5.254  -0.389  -2.741  0.00  0.00     0.120 A 
ATOM     18  H   LIG d   1       5.898  -2.364  -3.268  0.00  0.00     0.065 H 
ATOM     19  C   LIG d   1       5.546   0.969  -2.786  0.00  0.00    -0.019 A 
ATOM     20  C   LIG d   1       6.703   1.408  -3.388  0.00  0.00    -0.046 A 
ATOM     21  H   LIG d   1       4.863   1.682  -2.346  0.00  0.00     0.065 H 
ATOM     22  H   LIG d   1       6.930   2.463  -3.423  0.00  0.00     0.063 H 
BRANCH  17  23
ATOM     23  O   LIG d   1       4.112  -0.816  -2.146  0.00  0.00    -0.492 OA
BRANCH  23  24
ATOM     24  C   LIG d   1       2.903  -0.141  -2.500  0.00  0.00     0.090 C 
ATOM     25  H   LIG d   1       2.153  -0.311  -1.727  0.00  0.00     0.070 H 
ATOM     26  H   LIG d   1       3.097   0.928  -2.589  0.00  0.00     0.070 H 
BRANCH  24  27
ATOM     27  C   LIG d   1       2.390  -0.679  -3.837  0.00  0.00    -0.019 C 
ATOM     28  H   LIG d   1       3.019  -1.508  -4.160  0.00  0.00     0.030 H 
ATOM     29  H   LIG d   1       1.363  -1.025  -3.719  0.00  0.00     0.030 H 
BRANCH  27  30
ATOM     30  C   LIG d   1       2.435   0.435  -4.886  0.00  0.00    -0.053 C 
ATOM     31  H   LIG d   1       1.431   0.610  -5.273  0.00  0.00     0.026 H 
ATOM     32  H   LIG d   1       2.812   1.349  -4.429  0.00  0.00     0.026 H 
BRANCH  30  33
ATOM     33  C   LIG d   1       3.358   0.018  -6.033  0.00  0.00    -0.065 C 
ATOM     34  H   LIG d   1       4.271   0.613  -5.999  0.00  0.00     0.023 H 
ATOM     35  H   LIG d   1       3.609  -1.038  -5.932  0.00  0.00     0.023 H 
ATOM     36  H   LIG d   1       2.852   0.183  -6.984  0.00  0.00     0.023 H 
ENDBRANCH  30  33
ENDBRANCH  27  30
ENDBRANCH  24  27
ENDBRANCH  23  24
ENDBRANCH  17  23
ENDBRANCH  10  13
ENDBRANCH   1   9
BRANCH   6  37
ATOM     37  C   LIG d   1       9.643   4.345  -4.812  0.00  0.00     0.017 C 
ATOM     38  H   LIG d   1       9.448   4.892  -5.735  0.00  0.00     0.038 H 
ATOM     39  H   LIG d   1       8.786   3.713  -4.576  0.00  0.00     0.038 H 
BRANCH  37  40
ATOM     40  C   LIG d   1       9.870   5.322  -3.688  0.00  0.00     0.053 A 
ATOM     41  N   LIG d   1      10.102   4.883  -2.473  0.00  0.00    -0.259 NA
ATOM     42  C   LIG d   1      10.309   5.694  -1.443  0.00  0.00     0.029 A 
ATOM     43  C   LIG d   1      10.292   7.049  -1.581  0.00  0.00    -0.036 A 
ATOM     44  H   LIG d   1      10.496   5.269  -0.469  0.00  0.00     0.083 H 
ATOM     45  C   LIG d   1      10.047   7.596  -2.855  0.00  0.00    -0.011 A 
ATOM     46  H   LIG d   1      10.461   7.691  -0.730  0.00  0.00     0.064 H 
ATOM     47  C   LIG d   1       9.836   6.703  -3.939  0.00  0.00     0.007 A 
ATOM     48  C   LIG d   1      10.014   8.979  -3.079  0.00  0.00    -0.009 A 
ATOM     49  C   LIG d   1       9.597   7.220  -5.222  0.00  0.00    -0.007 A 
ATOM     50  C   LIG d   1       9.576   8.571  -5.412  0.00  0.00     0.162 A 
ATOM     51  H   LIG d   1       9.431   6.551  -6.055  0.00  0.00     0.066 H 
ATOM     52  C   LIG d   1       9.790   9.452  -4.340  0.00  0.00     0.162 A 
ATOM     53  H   LIG d   1      10.177   9.665  -2.262  0.00  0.00     0.066 H 
BRANCH  50  54
ATOM     54  O   LIG d   1       9.344   9.070  -6.654  0.00  0.00    -0.491 OA
BRANCH  54  55
ATOM     55  C   LIG d   1       9.206   8.126  -7.718  0.00  0.00     0.079 C 
ATOM     56  H   LIG d   1       9.161   7.118  -7.305  0.00  0.00     0.066 H 
ATOM     57  H   LIG d   1       8.290   8.334  -8.272  0.00  0.00     0.066 H 
ATOM     58  H   LIG d   1      10.061   8.206  -8.389  0.00  0.00     0.066 H 
ENDBRANCH  54  55
ENDBRANCH  50  54
BRANCH  52  59
ATOM     59  O   LIG d   1       9.762  10.793  -4.558  0.00  0.00    -0.491 OA
BRANCH  59  60
ATOM     60  C   LIG d   1       8.789  11.548  -3.833  0.00  0.00     0.079 C 
ATOM     61  H   LIG d   1       8.308  10.906  -3.096  0.00  0.00     0.066 H 
ATOM     62  H   LIG d   1       9.279  12.380  -3.327  0.00  0.00     0.066 H 
ATOM     63  H   LIG d   1       8.040  11.935  -4.525  0.00  0.00     0.066 H 
ENDBRANCH  59  60
ENDBRANCH  52  59
ENDBRANCH  37  40
ENDBRANCH   6  37
BRANCH   3  64
ATOM     64  O   LIG d   1      14.226   1.122  -5.463  0.00  0.00    -0.491 OA
BRANCH  64  65
ATOM     65  C   LIG d   1      15.069   0.955  -4.322  0.00  0.00     0.079 C 
ATOM     66  H   LIG d   1      15.778   1.781  -4.270  0.00  0.00     0.066 H 
ATOM     67  H   LIG d   1      14.459   0.942  -3.418  0.00  0.00     0.066 H 
ATOM     68  H   LIG d   1      15.614   0.014  -4.407  0.00  0.00     0.066 H 
ENDBRANCH  64  65
ENDBRANCH   3  64
BRANCH   4  69
ATOM     69  O   LIG d   1      14.219   3.717  -6.384  0.00  0.00    -0.491 OA
BRANCH  69  70
ATOM     70  C   LIG d   1      14.052   4.218  -7.712  0.00  0.00     0.079 C 
ATOM     71  H   LIG d   1      14.444   5.232  -7.770  0.00  0.00     0.066 H 
ATOM     72  H   LIG d   1      14.591   3.578  -8.411  0.00  0.00     0.066 H 
ATOM     73  H   LIG d   1      12.992   4.222  -7.967  0.00  0.00     0.066 H 
ENDBRANCH  69  70
ENDBRANCH   4  69
TORSDOF 17
ENDMDL
MODEL 4
REMARK VINA RESULT:      -5.8      7.332     12.186
REMARK  17 active torsions:
REMARK  status: ('A' for Active; 'I' for Inactive)
REMARK    1  A    between atoms: C_1  and  C_2 
REMARK    2  A    between atoms: C_2  and  C_3 
REMARK    3  A    between atoms: C_3  and  C_4 
REMARK    4  A    between atoms: C_4  and  O_5 
REMARK    5  A    between atoms: O_5  and  C_6 
REMARK    6  A    between atoms: C_9  and  C_12 
REMARK       I    between atoms: C_12  and  N_14 
REMARK    7  A    between atoms: N_14  and  C_15 
REMARK    8  A    between atoms: C_17  and  O_38 
REMARK    9  A    between atoms: C_18  and  O_36 
REMARK   10  A    between atoms: C_20  and  C_21 
REMARK   11  A    between atoms: C_21  and  C_22 
REMARK   12  A    between atoms: C_25  and  O_34 
REMARK   13  A    between atoms: C_26  and  O_32 
REMARK   14  A    between atoms: O_32  and  C_33 
REMARK   15  A    between atoms: O_34  and  C_35 
REMARK   16  A    between atoms: O_36  and  C_37 
REMARK   17  A    between atoms: O_38  and  C_39 
ROOT
ATOM      1  C   LIG d   1       0.971  -3.645 -11.042  0.00  0.00     0.041 A 
ATOM      2  C   LIG d   1       0.611  -4.911 -11.484  0.00  0.00     0.005 A 
ATOM      3  C   LIG d   1      -0.081  -5.055 -12.675  0.00  0.00     0.163 A 
ATOM      4  C   LIG d   1      -0.406  -3.933 -13.430  0.00  0.00     0.162 A 
ATOM      5  C   LIG d   1      -0.040  -2.672 -12.989  0.00  0.00    -0.011 A 
ATOM      6  C   LIG d   1       0.647  -2.527 -11.798  0.00  0.00    -0.017 A 
ATOM      7  H   LIG d   1       0.867  -5.781 -10.899  0.00  0.00     0.067 H 
ATOM      8  H   LIG d   1      -0.291  -1.801 -13.576  0.00  0.00     0.066 H 
ENDROOT
BRANCH   1   9
ATOM      9  N   LIG d   1       1.668  -3.496  -9.836  0.00  0.00    -0.281 N 
ATOM     10  C   LIG d   1       2.972  -3.832  -9.764  0.00  0.00     0.248 C 
ATOM     11  O   LIG d   1       3.564  -4.189 -10.765  0.00  0.00    -0.270 OA
ATOM     12  H   LIG d   1       1.212  -3.152  -9.053  0.00  0.00     0.155 HD
BRANCH  10  13
ATOM     13  C   LIG d   1       3.680  -3.767  -8.471  0.00  0.00     0.037 A 
ATOM     14  C   LIG d   1       3.584  -4.828  -7.566  0.00  0.00    -0.046 A 
ATOM     15  C   LIG d   1       4.251  -4.765  -6.363  0.00  0.00    -0.019 A 
ATOM     16  H   LIG d   1       2.988  -5.694  -7.810  0.00  0.00     0.063 H 
ATOM     17  C   LIG d   1       5.019  -3.649  -6.048  0.00  0.00     0.120 A 
ATOM     18  H   LIG d   1       4.179  -5.584  -5.663  0.00  0.00     0.065 H 
ATOM     19  C   LIG d   1       5.115  -2.593  -6.946  0.00  0.00    -0.019 A 
ATOM     20  C   LIG d   1       4.452  -2.647  -8.151  0.00  0.00    -0.046 A 
ATOM     21  H   LIG d   1       5.712  -1.728  -6.698  0.00  0.00     0.065 H 
ATOM     22  H   LIG d   1       4.528  -1.825  -8.848  0.00  0.00     0.063 H 
BRANCH  17  23
ATOM     23  O   LIG d   1       5.674  -3.592  -4.862  0.00  0.00    -0.492 OA
BRANCH  23  24
ATOM     24  C   LIG d   1       5.540  -2.387  -4.104  0.00  0.00     0.090 C 
ATOM     25  H   LIG d   1       6.378  -2.298  -3.412  0.00  0.00     0.070 H 
ATOM     26  H   LIG d   1       5.533  -1.532  -4.779  0.00  0.00     0.070 H 
BRANCH  24  27
ATOM     27  C   LIG d   1       4.230  -2.425  -3.315  0.00  0.00    -0.019 C 
ATOM     28  H   LIG d   1       3.433  -1.980  -3.911  0.00  0.00     0.030 H 
ATOM     29  H   LIG d   1       3.975  -3.459  -3.081  0.00  0.00     0.030 H 
BRANCH  27  30
ATOM     30  C   LIG d   1       4.395  -1.635  -2.014  0.00  0.00    -0.053 C 
ATOM     31  H   LIG d   1       3.762  -2.070  -1.241  0.00  0.00     0.026 H 
ATOM     32  H   LIG d   1       5.436  -1.674  -1.696  0.00  0.00     0.026 H 
BRANCH  30  33
ATOM     33  C   LIG d   1       3.987  -0.179  -2.247  0.00  0.00    -0.065 C 
ATOM     34  H   LIG d   1       3.168  -0.141  -2.965  0.00  0.00     0.023 H 
ATOM     35  H   LIG d   1       3.664   0.263  -1.305  0.00  0.00     0.023 H 
ATOM     36  H   LIG d   1       4.838   0.379  -2.637  0.00  0.00     0.023 H 
ENDBRANCH  30  33
ENDBRANCH  27  30
ENDBRANCH  24  27
ENDBRANCH  23  24
ENDBRANCH  17  23
ENDBRANCH  10  13
ENDBRANCH   1   9
BRANCH   6  37
ATOM     37  C   LIG d   1       1.042  -1.154 -11.319  0.00  0.00     0.017 C 
ATOM     38  H   LIG d   1       0.412  -0.406 -11.798  0.00  0.00     0.038 H 
ATOM     39  H   LIG d   1       0.917  -1.097 -10.238  0.00  0.00     0.038 H 
BRANCH  37  40
ATOM     40  C   LIG d   1       2.484  -0.895 -11.671  0.00  0.00     0.053 A 
ATOM     41  N   LIG d   1       2.960  -1.294 -12.828  0.00  0.00    -0.259 NA
ATOM     42  C   LIG d   1       4.220  -1.095 -13.194  0.00  0.00     0.029 A 
ATOM     43  C   LIG d   1       5.111  -0.459 -12.383  0.00  0.00    -0.036 A 
ATOM     44  H   LIG d   1       4.548  -1.447 -14.159  0.00  0.00     0.083 H 
ATOM     45  C   LIG d   1       4.675  -0.003 -11.125  0.00  0.00    -0.011 A 
ATOM     46  H   LIG d   1       6.132  -0.309 -12.700  0.00  0.00     0.064 H 
ATOM     47  C   LIG d   1       3.320  -0.224 -10.764  0.00  0.00     0.007 A 
ATOM     48  C   LIG d   1       5.531   0.660 -10.235  0.00  0.00    -0.009 A 
ATOM     49  C   LIG d   1       2.855   0.225  -9.518  0.00  0.00    -0.007 A 
ATOM     50  C   LIG d   1       3.709   0.873  -8.674  0.00  0.00     0.162 A 
ATOM     51  H   LIG d   1       1.828   0.059  -9.229  0.00  0.00     0.066 H 
ATOM     52  C   LIG d   1       5.048   1.095  -9.034  0.00  0.00     0.162 A 
ATOM     53  H   LIG d   1       6.562   0.836 -10.502  0.00  0.00     0.066 H 
BRANCH  50  54
ATOM     54  O   LIG d   1       3.259   1.308  -7.467  0.00  0.00    -0.491 OA
BRANCH  54  55
ATOM     55  C   LIG d   1       2.862   0.309  -6.526  0.00  0.00     0.079 C 
ATOM     56  H   LIG d   1       1.943  -0.168  -6.867  0.00  0.00     0.066 H 
ATOM     57  H   LIG d   1       3.649  -0.441  -6.437  0.00  0.00     0.066 H 
ATOM     58  H   LIG d   1       2.692   0.773  -5.554  0.00  0.00     0.066 H 
ENDBRANCH  54  55
ENDBRANCH  50  54
BRANCH  52  59
ATOM     59  O   LIG d   1       5.876   1.742  -8.173  0.00  0.00    -0.491 OA
BRANCH  59  60
ATOM     60  C   LIG d   1       6.934   0.977  -7.592  0.00  0.00     0.079 C 
ATOM     61  H   LIG d   1       7.892   1.428  -7.850  0.00  0.00     0.066 H 
ATOM     62  H   LIG d   1       6.820   0.963  -6.508  0.00  0.00     0.066 H 
ATOM     63  H   LIG d   1       6.897  -0.043  -7.974  0.00  0.00     0.066 H 
ENDBRANCH  59  60
ENDBRANCH  52  59
ENDBRANCH  37  40
ENDBRANCH   6  37
BRANCH   3  64
ATOM     64  O   LIG d   1      -0.440  -6.294 -13.107  0.00  0.00    -0.491 OA
BRANCH  64  65
ATOM     65  C   LIG d   1      -1.598  -6.879 -12.508  0.00  0.00     0.079 C 
ATOM     66  H   LIG d   1      -1.642  -7.939 -12.763  0.00  0.00     0.066 H 
ATOM     67  H   LIG d   1      -1.541  -6.769 -11.425  0.00  0.00     0.066 H 
ATOM     68  H   LIG d   1      -2.492  -6.379 -12.879  0.00  0.00     0.066 H 
ENDBRANCH  64  65
ENDBRANCH   3  64
BRANCH   4  69
ATOM     69  O   LIG d   1      -1.081  -4.073 -14.603  0.00  0.00    -0.491 OA
BRANCH  69  70
ATOM     70  C   LIG d   1      -2.414  -3.558 -14.651  0.00  0.00     0.079 C 
ATOM     71  H   LIG d   1      -3.121  -4.386 -14.677  0.00  0.00     0.066 H 
ATOM     72  H   LIG d   1      -2.599  -2.949 -13.766  0.00  0.00     0.066 H 
ATOM     73  H   LIG d   1      -2.534  -2.947 -15.545  0.00  0.00     0.066 H 
ENDBRANCH  69  70
ENDBRANCH   4  69
TORSDOF 17
ENDMDL
MODEL 5
REMARK VINA RESULT:      -5.8      1.436      2.010
REMARK  17 active torsions:
REMARK  status: ('A' for Active; 'I' for Inactive)
REMARK    1  A    between atoms: C_1  and  C_2 
REMARK    2  A    between atoms: C_2  and  C_3 
REMARK    3  A    between atoms: C_3  and  C_4 
REMARK    4  A    between atoms: C_4  and  O_5 
REMARK    5  A    between atoms: O_5  and  C_6 
REMARK    6  A    between atoms: C_9  and  C_12 
REMARK       I    between atoms: C_12  and  N_14 
REMARK    7  A    between atoms: N_14  and  C_15 
REMARK    8  A    between atoms: C_17  and  O_38 
REMARK    9  A    between atoms: C_18  and  O_36 
REMARK   10  A    between atoms: C_20  and  C_21 
REMARK   11  A    between atoms: C_21  and  C_22 
REMARK   12  A    between atoms: C_25  and  O_34 
REMARK   13  A    between atoms: C_26  and  O_32 
REMARK   14  A    between atoms: O_32  and  C_33 
REMARK   15  A    between atoms: O_34  and  C_35 
REMARK   16  A    between atoms: O_36  and  C_37 
REMARK   17  A    between atoms: O_38  and  C_39 
ROOT
ATOM      1  C   LIG d   1      10.743   2.585  -3.921  0.00  0.00     0.041 A 
ATOM      2  C   LIG d   1      11.967   1.931  -3.866  0.00  0.00     0.005 A 
ATOM      3  C   LIG d   1      13.111   2.567  -4.316  0.00  0.00     0.163 A 
ATOM      4  C   LIG d   1      13.034   3.865  -4.812  0.00  0.00     0.162 A 
ATOM      5  C   LIG d   1      11.813   4.517  -4.860  0.00  0.00    -0.011 A 
ATOM      6  C   LIG d   1      10.670   3.880  -4.416  0.00  0.00    -0.017 A 
ATOM      7  H   LIG d   1      12.025   0.925  -3.478  0.00  0.00     0.067 H 
ATOM      8  H   LIG d   1      11.754   5.525  -5.244  0.00  0.00     0.066 H 
ENDROOT
BRANCH   1   9
ATOM      9  N   LIG d   1       9.584   1.941  -3.471  0.00  0.00    -0.281 N 
ATOM     10  C   LIG d   1       8.880   1.156  -4.312  0.00  0.00     0.248 C 
ATOM     11  O   LIG d   1       9.294   0.943  -5.435  0.00  0.00    -0.270 OA
ATOM     12  H   LIG d   1       9.288   2.059  -2.556  0.00  0.00     0.155 HD
BRANCH  10  13
ATOM     13  C   LIG d   1       7.608   0.554  -3.868  0.00  0.00     0.037 A 
ATOM     14  C   LIG d   1       6.614   1.356  -3.301  0.00  0.00    -0.046 A 
ATOM     15  C   LIG d   1       5.427   0.791  -2.892  0.00  0.00    -0.019 A 
ATOM     16  H   LIG d   1       6.778   2.417  -3.183  0.00  0.00     0.063 H 
ATOM     17  C   LIG d   1       5.216  -0.574  -3.043  0.00  0.00     0.120 A 
ATOM     18  H   LIG d   1       4.657   1.410  -2.455  0.00  0.00     0.065 H 
ATOM     19  C   LIG d   1       6.202  -1.375  -3.605  0.00  0.00    -0.019 A 
ATOM     20  C   LIG d   1       7.393  -0.819  -4.017  0.00  0.00    -0.046 A 
ATOM     21  H   LIG d   1       6.035  -2.436  -3.720  0.00  0.00     0.065 H 
ATOM     22  H   LIG d   1       8.159  -1.442  -4.454  0.00  0.00     0.063 H 
BRANCH  17  23
ATOM     23  O   LIG d   1       4.044  -1.127  -2.639  0.00  0.00    -0.492 OA
BRANCH  23  24
ATOM     24  C   LIG d   1       2.880  -0.300  -2.702  0.00  0.00     0.090 C 
ATOM     25  H   LIG d   1       2.217  -0.543  -1.871  0.00  0.00     0.070 H 
ATOM     26  H   LIG d   1       3.174   0.747  -2.637  0.00  0.00     0.070 H 
BRANCH  24  27
ATOM     27  C   LIG d   1       2.151  -0.545  -4.025  0.00  0.00    -0.019 C 
ATOM     28  H   LIG d   1       2.513  -1.470  -4.473  0.00  0.00     0.030 H 
ATOM     29  H   LIG d   1       1.080  -0.624  -3.840  0.00  0.00     0.030 H 
BRANCH  27  30
ATOM     30  C   LIG d   1       2.419   0.623  -4.978  0.00  0.00    -0.053 C 
ATOM     31  H   LIG d   1       1.471   1.053  -5.301  0.00  0.00     0.026 H 
ATOM     32  H   LIG d   1       3.006   1.383  -4.464  0.00  0.00     0.026 H 
BRANCH  30  33
ATOM     33  C   LIG d   1       3.192   0.118  -6.198  0.00  0.00    -0.065 C 
ATOM     34  H   LIG d   1       3.889   0.887  -6.530  0.00  0.00     0.023 H 
ATOM     35  H   LIG d   1       3.745  -0.782  -5.931  0.00  0.00     0.023 H 
ATOM     36  H   LIG d   1       2.492  -0.111  -7.001  0.00  0.00     0.023 H 
ENDBRANCH  30  33
ENDBRANCH  27  30
ENDBRANCH  24  27
ENDBRANCH  23  24
ENDBRANCH  17  23
ENDBRANCH  10  13
ENDBRANCH   1   9
BRANCH   6  37
ATOM     37  C   LIG d   1       9.343   4.591  -4.470  0.00  0.00     0.017 C 
ATOM     38  H   LIG d   1       8.780   4.246  -5.338  0.00  0.00     0.038 H 
ATOM     39  H   LIG d   1       8.779   4.375  -3.562  0.00  0.00     0.038 H 
BRANCH  37  40
ATOM     40  C   LIG d   1       9.571   6.076  -4.577  0.00  0.00     0.053 A 
ATOM     41  N   LIG d   1       9.527   6.664  -5.751  0.00  0.00    -0.259 NA
ATOM     42  C   LIG d   1       9.720   7.967  -5.909  0.00  0.00     0.029 A 
ATOM     43  C   LIG d   1       9.980   8.788  -4.853  0.00  0.00    -0.036 A 
ATOM     44  H   LIG d   1       9.669   8.389  -6.901  0.00  0.00     0.083 H 
ATOM     45  C   LIG d   1      10.045   8.230  -3.563  0.00  0.00    -0.011 A 
ATOM     46  H   LIG d   1      10.136   9.845  -5.004  0.00  0.00     0.064 H 
ATOM     47  C   LIG d   1       9.828   6.834  -3.424  0.00  0.00     0.007 A 
ATOM     48  C   LIG d   1      10.308   9.008  -2.427  0.00  0.00    -0.009 A 
ATOM     49  C   LIG d   1       9.880   6.250  -2.148  0.00  0.00    -0.007 A 
ATOM     50  C   LIG d   1      10.132   7.033  -1.059  0.00  0.00     0.162 A 
ATOM     51  H   LIG d   1       9.720   5.189  -2.029  0.00  0.00     0.066 H 
ATOM     52  C   LIG d   1      10.342   8.414  -1.197  0.00  0.00     0.162 A 
ATOM     53  H   LIG d   1      10.471  10.071  -2.522  0.00  0.00     0.066 H 
BRANCH  50  54
ATOM     54  O   LIG d   1      10.182   6.468   0.176  0.00  0.00    -0.491 OA
BRANCH  54  55
ATOM     55  C   LIG d   1      11.342   5.692   0.487  0.00  0.00     0.079 C 
ATOM     56  H   LIG d   1      11.127   4.636   0.326  0.00  0.00     0.066 H 
ATOM     57  H   LIG d   1      12.167   5.998  -0.157  0.00  0.00     0.066 H 
ATOM     58  H   LIG d   1      11.617   5.852   1.529  0.00  0.00     0.066 H 
ENDBRANCH  54  55
ENDBRANCH  50  54
BRANCH  52  59
ATOM     59  O   LIG d   1      10.592   9.168  -0.095  0.00  0.00    -0.491 OA
BRANCH  59  60
ATOM     60  C   LIG d   1       9.811  10.353   0.071  0.00  0.00     0.079 C 
ATOM     61  H   LIG d   1       8.756  10.113  -0.056  0.00  0.00     0.066 H 
ATOM     62  H   LIG d   1       9.973  10.758   1.070  0.00  0.00     0.066 H 
ATOM     63  H   LIG d   1      10.109  11.092  -0.673  0.00  0.00     0.066 H 
ENDBRANCH  59  60
ENDBRANCH  52  59
ENDBRANCH  37  40
ENDBRANCH   6  37
BRANCH   3  64
ATOM     64  O   LIG d   1      14.310   1.926  -4.269  0.00  0.00    -0.491 OA
BRANCH  64  65
ATOM     65  C   LIG d   1      14.530   0.893  -5.231  0.00  0.00     0.079 C 
ATOM     66  H   LIG d   1      14.538  -0.075  -4.729  0.00  0.00     0.066 H 
ATOM     67  H   LIG d   1      13.730   0.911  -5.973  0.00  0.00     0.066 H 
ATOM     68  H   LIG d   1      15.488   1.054  -5.725  0.00  0.00     0.066 H 
ENDBRANCH  64  65
ENDBRANCH   3  64
BRANCH   4  69
ATOM     69  O   LIG d   1      14.159   4.495  -5.249  0.00  0.00    -0.491 OA
BRANCH  69  70
ATOM     70  C   LIG d   1      14.733   5.475  -4.382  0.00  0.00     0.079 C 
ATOM     71  H   LIG d   1      14.560   5.189  -3.346  0.00  0.00     0.066 H 
ATOM     72  H   LIG d   1      15.805   5.540  -4.569  0.00  0.00     0.066 H 
ATOM     73  H   LIG d   1      14.272   6.444  -4.574  0.00  0.00     0.066 H 
ENDBRANCH  69  70
ENDBRANCH   4  69
TORSDOF 17
ENDMDL
MODEL 6
REMARK VINA RESULT:      -5.8      2.980      4.802
REMARK  17 active torsions:
REMARK  status: ('A' for Active; 'I' for Inactive)
REMARK    1  A    between atoms: C_1  and  C_2 
REMARK    2  A    between atoms: C_2  and  C_3 
REMARK    3  A    between atoms: C_3  and  C_4 
REMARK    4  A    between atoms: C_4  and  O_5 
REMARK    5  A    between atoms: O_5  and  C_6 
REMARK    6  A    between atoms: C_9  and  C_12 
REMARK       I    between atoms: C_12  and  N_14 
REMARK    7  A    between atoms: N_14  and  C_15 
REMARK    8  A    between atoms: C_17  and  O_38 
REMARK    9  A    between atoms: C_18  and  O_36 
REMARK   10  A    between atoms: C_20  and  C_21 
REMARK   11  A    between atoms: C_21  and  C_22 
REMARK   12  A    between atoms: C_25  and  O_34 
REMARK   13  A    between atoms: C_26  and  O_32 
REMARK   14  A    between atoms: O_32  and  C_33 
REMARK   15  A    between atoms: O_34  and  C_35 
REMARK   16  A    between atoms: O_36  and  C_37 
REMARK   17  A    between atoms: O_38  and  C_39 
ROOT
ATOM      1  C   LIG d   1      10.600   4.859  -2.675  0.00  0.00     0.041 A 
ATOM      2  C   LIG d   1      11.724   4.660  -1.884  0.00  0.00     0.005 A 
ATOM      3  C   LIG d   1      12.606   5.704  -1.662  0.00  0.00     0.163 A 
ATOM      4  C   LIG d   1      12.359   6.953  -2.223  0.00  0.00     0.162 A 
ATOM      5  C   LIG d   1      11.233   7.150  -3.006  0.00  0.00    -0.011 A 
ATOM      6  C   LIG d   1      10.356   6.106  -3.232  0.00  0.00    -0.017 A 
ATOM      7  H   LIG d   1      11.913   3.691  -1.447  0.00  0.00     0.067 H 
ATOM      8  H   LIG d   1      11.042   8.120  -3.441  0.00  0.00     0.066 H 
ENDROOT
BRANCH   1   9
ATOM      9  N   LIG d   1       9.710   3.803  -2.904  0.00  0.00    -0.281 N 
ATOM     10  C   LIG d   1      10.045   2.811  -3.755  0.00  0.00     0.248 C 
ATOM     11  O   LIG d   1      11.151   2.792  -4.261  0.00  0.00    -0.270 OA
ATOM     12  H   LIG d   1       8.853   3.784  -2.452  0.00  0.00     0.155 HD
BRANCH  10  13
ATOM     13  C   LIG d   1       9.071   1.749  -4.071  0.00  0.00     0.037 A 
ATOM     14  C   LIG d   1       9.464   0.640  -4.823  0.00  0.00    -0.046 A 
ATOM     15  C   LIG d   1       8.553  -0.351  -5.111  0.00  0.00    -0.019 A 
ATOM     16  H   LIG d   1      10.481   0.560  -5.178  0.00  0.00     0.063 H 
ATOM     17  C   LIG d   1       7.243  -0.250  -4.655  0.00  0.00     0.120 A 
ATOM     18  H   LIG d   1       8.855  -1.211  -5.692  0.00  0.00     0.065 H 
ATOM     19  C   LIG d   1       6.849   0.853  -3.908  0.00  0.00    -0.019 A 
ATOM     20  C   LIG d   1       7.753   1.849  -3.614  0.00  0.00    -0.046 A 
ATOM     21  H   LIG d   1       5.830   0.929  -3.555  0.00  0.00     0.065 H 
ATOM     22  H   LIG d   1       7.446   2.706  -3.033  0.00  0.00     0.063 H 
BRANCH  17  23
ATOM     23  O   LIG d   1       6.349  -1.228  -4.941  0.00  0.00    -0.492 OA
BRANCH  23  24
ATOM     24  C   LIG d   1       5.958  -2.086  -3.867  0.00  0.00     0.090 C 
ATOM     25  H   LIG d   1       6.466  -3.046  -3.965  0.00  0.00     0.070 H 
ATOM     26  H   LIG d   1       6.230  -1.626  -2.917  0.00  0.00     0.070 H 
BRANCH  24  27
ATOM     27  C   LIG d   1       4.444  -2.304  -3.913  0.00  0.00    -0.019 C 
ATOM     28  H   LIG d   1       3.988  -1.554  -4.559  0.00  0.00     0.030 H 
ATOM     29  H   LIG d   1       4.232  -3.299  -4.305  0.00  0.00     0.030 H 
BRANCH  27  30
ATOM     30  C   LIG d   1       3.868  -2.179  -2.501  0.00  0.00    -0.053 C 
ATOM     31  H   LIG d   1       2.781  -2.122  -2.555  0.00  0.00     0.026 H 
ATOM     32  H   LIG d   1       4.156  -3.050  -1.913  0.00  0.00     0.026 H 
BRANCH  30  33
ATOM     33  C   LIG d   1       4.413  -0.913  -1.838  0.00  0.00    -0.065 C 
ATOM     34  H   LIG d   1       3.924  -0.039  -2.267  0.00  0.00     0.023 H 
ATOM     35  H   LIG d   1       4.215  -0.949  -0.767  0.00  0.00     0.023 H 
ATOM     36  H   LIG d   1       5.487  -0.848  -2.007  0.00  0.00     0.023 H 
ENDBRANCH  30  33
ENDBRANCH  27  30
ENDBRANCH  24  27
ENDBRANCH  23  24
ENDBRANCH  17  23
ENDBRANCH  10  13
ENDBRANCH   1   9
BRANCH   6  37
ATOM     37  C   LIG d   1       9.133   6.322  -4.086  0.00  0.00     0.017 C 
ATOM     38  H   LIG d   1       8.422   5.514  -3.914  0.00  0.00     0.038 H 
ATOM     39  H   LIG d   1       8.671   7.274  -3.824  0.00  0.00     0.038 H 
BRANCH  37  40
ATOM     40  C   LIG d   1       9.531   6.341  -5.539  0.00  0.00     0.053 A 
ATOM     41  N   LIG d   1       9.729   5.213  -6.180  0.00  0.00    -0.259 NA
ATOM     42  C   LIG d   1      10.080   5.165  -7.459  0.00  0.00     0.029 A 
ATOM     43  C   LIG d   1      10.260   6.296  -8.197  0.00  0.00    -0.036 A 
ATOM     44  H   LIG d   1      10.227   4.205  -7.928  0.00  0.00     0.083 H 
ATOM     45  C   LIG d   1      10.067   7.545  -7.578  0.00  0.00    -0.011 A 
ATOM     46  H   LIG d   1      10.548   6.235  -9.235  0.00  0.00     0.064 H 
ATOM     47  C   LIG d   1       9.685   7.564  -6.210  0.00  0.00     0.007 A 
ATOM     48  C   LIG d   1      10.233   8.753  -8.269  0.00  0.00    -0.009 A 
ATOM     49  C   LIG d   1       9.479   8.795  -5.568  0.00  0.00    -0.007 A 
ATOM     50  C   LIG d   1       9.642   9.955  -6.267  0.00  0.00     0.162 A 
ATOM     51  H   LIG d   1       9.192   8.824  -4.527  0.00  0.00     0.066 H 
ATOM     52  C   LIG d   1      10.015   9.935  -7.621  0.00  0.00     0.162 A 
ATOM     53  H   LIG d   1      10.519   8.749  -9.310  0.00  0.00     0.066 H 
BRANCH  50  54
ATOM     54  O   LIG d   1       9.442  11.148  -5.645  0.00  0.00    -0.491 OA
BRANCH  54  55
ATOM     55  C   LIG d   1       9.075  11.105  -4.265  0.00  0.00     0.079 C 
ATOM     56  H   LIG d   1       9.751  11.736  -3.688  0.00  0.00     0.066 H 
ATOM     57  H   LIG d   1       8.052  11.466  -4.149  0.00  0.00     0.066 H 
ATOM     58  H   LIG d   1       9.139  10.079  -3.903  0.00  0.00     0.066 H 
ENDBRANCH  54  55
ENDBRANCH  50  54
BRANCH  52  59
ATOM     59  O   LIG d   1      10.171  11.107  -8.291  0.00  0.00    -0.491 OA
BRANCH  59  60
ATOM     60  C   LIG d   1      11.510  11.552  -8.516  0.00  0.00     0.079 C 
ATOM     61  H   LIG d   1      11.965  11.828  -7.565  0.00  0.00     0.066 H 
ATOM     62  H   LIG d   1      12.087  10.750  -8.975  0.00  0.00     0.066 H 
ATOM     63  H   LIG d   1      11.498  12.417  -9.179  0.00  0.00     0.066 H 
ENDBRANCH  59  60
ENDBRANCH  52  59
ENDBRANCH  37  40
ENDBRANCH   6  37
BRANCH   3  64
ATOM     64  O   LIG d   1      13.712   5.510  -0.893  0.00  0.00    -0.491 OA
BRANCH  64  65
ATOM     65  C   LIG d   1      14.811   4.827  -1.499  0.00  0.00     0.079 C 
ATOM     66  H   LIG d   1      15.737   5.355  -1.271  0.00  0.00     0.066 H 
ATOM     67  H   LIG d   1      14.868   3.810  -1.106  0.00  0.00     0.066 H 
ATOM     68  H   LIG d   1      14.668   4.792  -2.578  0.00  0.00     0.066 H 
ENDBRANCH  64  65
ENDBRANCH   3  64
BRANCH   4  69
ATOM     69  O   LIG d   1      13.221   7.982  -2.002  0.00  0.00    -0.491 OA
BRANCH  69  70
ATOM     70  C   LIG d   1      12.817   8.976  -1.057  0.00  0.00     0.079 C 
ATOM     71  H   LIG d   1      12.710   8.521  -0.074  0.00  0.00     0.066 H 
ATOM     72  H   LIG d   1      13.571   9.763  -1.014  0.00  0.00     0.066 H 
ATOM     73  H   LIG d   1      11.864   9.404  -1.366  0.00  0.00     0.066 H 
ENDBRANCH  69  70
ENDBRANCH   4  69
TORSDOF 17
ENDMDL
MODEL 7
REMARK VINA RESULT:      -5.7      6.265     10.306
REMARK  17 active torsions:
REMARK  status: ('A' for Active; 'I' for Inactive)
REMARK    1  A    between atoms: C_1  and  C_2 
REMARK    2  A    between atoms: C_2  and  C_3 
REMARK    3  A    between atoms: C_3  and  C_4 
REMARK    4  A    between atoms: C_4  and  O_5 
REMARK    5  A    between atoms: O_5  and  C_6 
REMARK    6  A    between atoms: C_9  and  C_12 
REMARK       I    between atoms: C_12  and  N_14 
REMARK    7  A    between atoms: N_14  and  C_15 
REMARK    8  A    between atoms: C_17  and  O_38 
REMARK    9  A    between atoms: C_18  and  O_36 
REMARK   10  A    between atoms: C_20  and  C_21 
REMARK   11  A    between atoms: C_21  and  C_22 
REMARK   12  A    between atoms: C_25  and  O_34 
REMARK   13  A    between atoms: C_26  and  O_32 
REMARK   14  A    between atoms: O_32  and  C_33 
REMARK   15  A    between atoms: O_34  and  C_35 
REMARK   16  A    between atoms: O_36  and  C_37 
REMARK   17  A    between atoms: O_38  and  C_39 
ROOT
ATOM      1  C   LIG d   1       4.380  -5.116  -6.385  0.00  0.00     0.041 A 
ATOM      2  C   LIG d   1       3.681  -5.267  -7.575  0.00  0.00     0.005 A 
ATOM      3  C   LIG d   1       3.482  -4.174  -8.402  0.00  0.00     0.163 A 
ATOM      4  C   LIG d   1       3.991  -2.930  -8.043  0.00  0.00     0.162 A 
ATOM      5  C   LIG d   1       4.693  -2.785  -6.858  0.00  0.00    -0.011 A 
ATOM      6  C   LIG d   1       4.888  -3.874  -6.030  0.00  0.00    -0.017 A 
ATOM      7  H   LIG d   1       3.289  -6.233  -7.854  0.00  0.00     0.067 H 
ATOM      8  H   LIG d   1       5.089  -1.819  -6.580  0.00  0.00     0.066 H 
ENDROOT
BRANCH   1   9
ATOM      9  N   LIG d   1       4.578  -6.220  -5.545  0.00  0.00    -0.281 N 
ATOM     10  C   LIG d   1       5.579  -7.088  -5.797  0.00  0.00     0.248 C 
ATOM     11  O   LIG d   1       6.358  -6.871  -6.706  0.00  0.00    -0.270 OA
ATOM     12  H   LIG d   1       3.997  -6.359  -4.783  0.00  0.00     0.155 HD
BRANCH  10  13
ATOM     13  C   LIG d   1       5.729  -8.301  -4.971  0.00  0.00     0.037 A 
ATOM     14  C   LIG d   1       6.978  -8.639  -4.445  0.00  0.00    -0.046 A 
ATOM     15  C   LIG d   1       7.113  -9.770  -3.670  0.00  0.00    -0.019 A 
ATOM     16  H   LIG d   1       7.837  -8.016  -4.646  0.00  0.00     0.063 H 
ATOM     17  C   LIG d   1       6.008 -10.573  -3.410  0.00  0.00     0.120 A 
ATOM     18  H   LIG d   1       8.078 -10.032  -3.262  0.00  0.00     0.065 H 
ATOM     19  C   LIG d   1       4.765 -10.240  -3.933  0.00  0.00    -0.019 A 
ATOM     20  C   LIG d   1       4.621  -9.112  -4.709  0.00  0.00    -0.046 A 
ATOM     21  H   LIG d   1       3.909 -10.867  -3.730  0.00  0.00     0.065 H 
ATOM     22  H   LIG d   1       3.654  -8.853  -5.115  0.00  0.00     0.063 H 
BRANCH  17  23
ATOM     23  O   LIG d   1       6.145 -11.686  -2.647  0.00  0.00    -0.492 OA
BRANCH  23  24
ATOM     24  C   LIG d   1       7.477 -12.098  -2.333  0.00  0.00     0.090 C 
ATOM     25  H   LIG d   1       7.649 -13.102  -2.724  0.00  0.00     0.070 H 
ATOM     26  H   LIG d   1       8.188 -11.406  -2.783  0.00  0.00     0.070 H 
BRANCH  24  27
ATOM     27  C   LIG d   1       7.664 -12.105  -0.814  0.00  0.00    -0.019 C 
ATOM     28  H   LIG d   1       6.702 -11.948  -0.329  0.00  0.00     0.030 H 
ATOM     29  H   LIG d   1       8.076 -13.065  -0.503  0.00  0.00     0.030 H 
BRANCH  27  30
ATOM     30  C   LIG d   1       8.627 -10.985  -0.414  0.00  0.00    -0.053 C 
ATOM     31  H   LIG d   1       9.015 -10.501  -1.310  0.00  0.00     0.026 H 
ATOM     32  H   LIG d   1       8.098 -10.251   0.194  0.00  0.00     0.026 H 
BRANCH  30  33
ATOM     33  C   LIG d   1       9.788 -11.573   0.391  0.00  0.00    -0.065 C 
ATOM     34  H   LIG d   1      10.611 -10.859   0.417  0.00  0.00     0.023 H 
ATOM     35  H   LIG d   1       9.456 -11.782   1.407  0.00  0.00     0.023 H 
ATOM     36  H   LIG d   1      10.123 -12.497  -0.079  0.00  0.00     0.023 H 
ENDBRANCH  30  33
ENDBRANCH  27  30
ENDBRANCH  24  27
ENDBRANCH  23  24
ENDBRANCH  17  23
ENDBRANCH  10  13
ENDBRANCH   1   9
BRANCH   6  37
ATOM     37  C   LIG d   1       5.651  -3.714  -4.741  0.00  0.00     0.017 C 
ATOM     38  H   LIG d   1       5.521  -4.606  -4.128  0.00  0.00     0.038 H 
ATOM     39  H   LIG d   1       6.709  -3.575  -4.960  0.00  0.00     0.038 H 
BRANCH  37  40
ATOM     40  C   LIG d   1       5.132  -2.512  -3.995  0.00  0.00     0.053 A 
ATOM     41  N   LIG d   1       3.944  -2.549  -3.435  0.00  0.00    -0.259 NA
ATOM     42  C   LIG d   1       3.434  -1.523  -2.766  0.00  0.00     0.029 A 
ATOM     43  C   LIG d   1       4.114  -0.353  -2.616  0.00  0.00    -0.036 A 
ATOM     44  H   LIG d   1       2.452  -1.619  -2.328  0.00  0.00     0.083 H 
ATOM     45  C   LIG d   1       5.394  -0.237  -3.190  0.00  0.00    -0.011 A 
ATOM     46  H   LIG d   1       3.680   0.470  -2.069  0.00  0.00     0.064 H 
ATOM     47  C   LIG d   1       5.917  -1.353  -3.894  0.00  0.00     0.007 A 
ATOM     48  C   LIG d   1       6.157   0.934  -3.079  0.00  0.00    -0.009 A 
ATOM     49  C   LIG d   1       7.194  -1.269  -4.472  0.00  0.00    -0.007 A 
ATOM     50  C   LIG d   1       7.917  -0.119  -4.343  0.00  0.00     0.162 A 
ATOM     51  H   LIG d   1       7.602  -2.109  -5.014  0.00  0.00     0.066 H 
ATOM     52  C   LIG d   1       7.400   0.983  -3.642  0.00  0.00     0.162 A 
ATOM     53  H   LIG d   1       5.769   1.786  -2.543  0.00  0.00     0.066 H 
BRANCH  50  54
ATOM     54  O   LIG d   1       9.153  -0.037  -4.902  0.00  0.00    -0.491 OA
BRANCH  54  55
ATOM     55  C   LIG d   1       9.281  -0.472  -6.258  0.00  0.00     0.079 C 
ATOM     56  H   LIG d   1       8.324  -0.362  -6.768  0.00  0.00     0.066 H 
ATOM     57  H   LIG d   1      10.034   0.133  -6.764  0.00  0.00     0.066 H 
ATOM     58  H   LIG d   1       9.584  -1.519  -6.276  0.00  0.00     0.066 H 
ENDBRANCH  54  55
ENDBRANCH  50  54
BRANCH  52  59
ATOM     59  O   LIG d   1       8.142   2.116  -3.532  0.00  0.00    -0.491 OA
BRANCH  59  60
ATOM     60  C   LIG d   1       8.335   2.883  -4.722  0.00  0.00     0.079 C 
ATOM     61  H   LIG d   1       9.399   3.070  -4.865  0.00  0.00     0.066 H 
ATOM     62  H   LIG d   1       7.944   2.333  -5.577  0.00  0.00     0.066 H 
ATOM     63  H   LIG d   1       7.808   3.834  -4.630  0.00  0.00     0.066 H 
ENDBRANCH  59  60
ENDBRANCH  52  59
ENDBRANCH  37  40
ENDBRANCH   6  37
BRANCH   3  64
ATOM     64  O   LIG d   1       2.791  -4.317  -9.566  0.00  0.00    -0.491 OA
BRANCH  64  65
ATOM     65  C   LIG d   1       2.284  -5.619  -9.862  0.00  0.00     0.079 C 
ATOM     66  H   LIG d   1       1.424  -5.827  -9.226  0.00  0.00     0.066 H 
ATOM     67  H   LIG d   1       1.980  -5.661 -10.909  0.00  0.00     0.066 H 
ATOM     68  H   LIG d   1       3.060  -6.362  -9.679  0.00  0.00     0.066 H 
ENDBRANCH  64  65
ENDBRANCH   3  64
BRANCH   4  69
ATOM     69  O   LIG d   1       3.802  -1.856  -8.856  0.00  0.00    -0.491 OA
BRANCH  69  70
ATOM     70  C   LIG d   1       3.050  -0.762  -8.324  0.00  0.00     0.079 C 
ATOM     71  H   LIG d   1       2.061  -0.746  -8.779  0.00  0.00     0.066 H 
ATOM     72  H   LIG d   1       2.953  -0.880  -7.245  0.00  0.00     0.066 H 
ATOM     73  H   LIG d   1       3.566   0.173  -8.542  0.00  0.00     0.066 H 
ENDBRANCH  69  70
ENDBRANCH   4  69
TORSDOF 17
ENDMDL
MODEL 8
REMARK VINA RESULT:      -5.7      2.628      3.989
REMARK  17 active torsions:
REMARK  status: ('A' for Active; 'I' for Inactive)
REMARK    1  A    between atoms: C_1  and  C_2 
REMARK    2  A    between atoms: C_2  and  C_3 
REMARK    3  A    between atoms: C_3  and  C_4 
REMARK    4  A    between atoms: C_4  and  O_5 
REMARK    5  A    between atoms: O_5  and  C_6 
REMARK    6  A    between atoms: C_9  and  C_12 
REMARK       I    between atoms: C_12  and  N_14 
REMARK    7  A    between atoms: N_14  and  C_15 
REMARK    8  A    between atoms: C_17  and  O_38 
REMARK    9  A    between atoms: C_18  and  O_36 
REMARK   10  A    between atoms: C_20  and  C_21 
REMARK   11  A    between atoms: C_21  and  C_22 
REMARK   12  A    between atoms: C_25  and  O_34 
REMARK   13  A    between atoms: C_26  and  O_32 
REMARK   14  A    between atoms: O_32  and  C_33 
REMARK   15  A    between atoms: O_34  and  C_35 
REMARK   16  A    between atoms: O_36  and  C_37 
REMARK   17  A    between atoms: O_38  and  C_39 
ROOT
ATOM      1  C   LIG d   1       9.577   4.594  -5.840  0.00  0.00     0.041 A 
ATOM      2  C   LIG d   1      10.249   4.427  -7.044  0.00  0.00     0.005 A 
ATOM      3  C   LIG d   1      11.047   5.446  -7.535  0.00  0.00     0.163 A 
ATOM      4  C   LIG d   1      11.182   6.631  -6.818  0.00  0.00     0.162 A 
ATOM      5  C   LIG d   1      10.515   6.791  -5.615  0.00  0.00    -0.011 A 
ATOM      6  C   LIG d   1       9.714   5.777  -5.127  0.00  0.00    -0.017 A 
ATOM      7  H   LIG d   1      10.147   3.507  -7.598  0.00  0.00     0.067 H 
ATOM      8  H   LIG d   1      10.620   7.711  -5.058  0.00  0.00     0.066 H 
ENDROOT
BRANCH   1   9
ATOM      9  N   LIG d   1       8.765   3.566  -5.344  0.00  0.00    -0.281 N 
ATOM     10  C   LIG d   1       9.311   2.380  -5.004  0.00  0.00     0.248 C 
ATOM     11  O   LIG d   1      10.516   2.229  -5.054  0.00  0.00    -0.270 OA
ATOM     12  H   LIG d   1       7.811   3.707  -5.244  0.00  0.00     0.155 HD
BRANCH  10  13
ATOM     13  C   LIG d   1       8.445   1.267  -4.573  0.00  0.00     0.037 A 
ATOM     14  C   LIG d   1       8.747  -0.043  -4.953  0.00  0.00    -0.046 A 
ATOM     15  C   LIG d   1       7.939  -1.080  -4.544  0.00  0.00    -0.019 A 
ATOM     16  H   LIG d   1       9.613  -0.242  -5.567  0.00  0.00     0.063 H 
ATOM     17  C   LIG d   1       6.824  -0.826  -3.753  0.00  0.00     0.120 A 
ATOM     18  H   LIG d   1       8.172  -2.094  -4.836  0.00  0.00     0.065 H 
ATOM     19  C   LIG d   1       6.520   0.476  -3.374  0.00  0.00    -0.019 A 
ATOM     20  C   LIG d   1       7.322   1.519  -3.779  0.00  0.00    -0.046 A 
ATOM     21  H   LIG d   1       5.652   0.670  -2.760  0.00  0.00     0.065 H 
ATOM     22  H   LIG d   1       7.085   2.531  -3.484  0.00  0.00     0.063 H 
BRANCH  17  23
ATOM     23  O   LIG d   1       6.030  -1.850  -3.353  0.00  0.00    -0.492 OA
BRANCH  23  24
ATOM     24  C   LIG d   1       4.678  -1.843  -3.815  0.00  0.00     0.090 C 
ATOM     25  H   LIG d   1       4.509  -0.959  -4.430  0.00  0.00     0.070 H 
ATOM     26  H   LIG d   1       4.492  -2.739  -4.408  0.00  0.00     0.070 H 
BRANCH  24  27
ATOM     27  C   LIG d   1       3.729  -1.819  -2.616  0.00  0.00    -0.019 C 
ATOM     28  H   LIG d   1       3.240  -2.788  -2.519  0.00  0.00     0.030 H 
ATOM     29  H   LIG d   1       4.294  -1.604  -1.709  0.00  0.00     0.030 H 
BRANCH  27  30
ATOM     30  C   LIG d   1       2.671  -0.733  -2.825  0.00  0.00    -0.053 C 
ATOM     31  H   LIG d   1       1.677  -1.176  -2.757  0.00  0.00     0.026 H 
ATOM     32  H   LIG d   1       2.780   0.033  -2.057  0.00  0.00     0.026 H 
BRANCH  30  33
ATOM     33  C   LIG d   1       2.855  -0.101  -4.206  0.00  0.00    -0.065 C 
ATOM     34  H   LIG d   1       3.761  -0.494  -4.667  0.00  0.00     0.023 H 
ATOM     35  H   LIG d   1       1.995  -0.340  -4.832  0.00  0.00     0.023 H 
ATOM     36  H   LIG d   1       2.939   0.980  -4.101  0.00  0.00     0.023 H 
ENDBRANCH  30  33
ENDBRANCH  27  30
ENDBRANCH  24  27
ENDBRANCH  23  24
ENDBRANCH  17  23
ENDBRANCH  10  13
ENDBRANCH   1   9
BRANCH   6  37
ATOM     37  C   LIG d   1       8.987   5.954  -3.818  0.00  0.00     0.017 C 
ATOM     38  H   LIG d   1       8.579   6.963  -3.763  0.00  0.00     0.038 H 
ATOM     39  H   LIG d   1       8.176   5.229  -3.753  0.00  0.00     0.038 H 
BRANCH  37  40
ATOM     40  C   LIG d   1       9.947   5.737  -2.677  0.00  0.00     0.053 A 
ATOM     41  N   LIG d   1      10.572   4.588  -2.553  0.00  0.00    -0.259 NA
ATOM     42  C   LIG d   1      11.427   4.338  -1.570  0.00  0.00     0.029 A 
ATOM     43  C   LIG d   1      11.714   5.266  -0.615  0.00  0.00    -0.036 A 
ATOM     44  H   LIG d   1      11.908   3.374  -1.526  0.00  0.00     0.083 H 
ATOM     45  C   LIG d   1      11.082   6.522  -0.679  0.00  0.00    -0.011 A 
ATOM     46  H   LIG d   1      12.412   5.041   0.178  0.00  0.00     0.064 H 
ATOM     47  C   LIG d   1      10.177   6.763  -1.746  0.00  0.00     0.007 A 
ATOM     48  C   LIG d   1      11.325   7.527   0.265  0.00  0.00    -0.009 A 
ATOM     49  C   LIG d   1       9.536   8.008  -1.841  0.00  0.00    -0.007 A 
ATOM     50  C   LIG d   1       9.796   8.971  -0.910  0.00  0.00     0.162 A 
ATOM     51  H   LIG d   1       8.842   8.203  -2.645  0.00  0.00     0.066 H 
ATOM     52  C   LIG d   1      10.695   8.733   0.142  0.00  0.00     0.162 A 
ATOM     53  H   LIG d   1      12.014   7.355   1.078  0.00  0.00     0.066 H 
BRANCH  50  54
ATOM     54  O   LIG d   1       9.176  10.177  -1.001  0.00  0.00    -0.491 OA
BRANCH  54  55
ATOM     55  C   LIG d   1       9.280  10.868  -2.248  0.00  0.00     0.079 C 
ATOM     56  H   LIG d   1       9.531  11.913  -2.065  0.00  0.00     0.066 H 
ATOM     57  H   LIG d   1      10.061  10.407  -2.854  0.00  0.00     0.066 H 
ATOM     58  H   LIG d   1       8.329  10.810  -2.776  0.00  0.00     0.066 H 
ENDBRANCH  54  55
ENDBRANCH  50  54
BRANCH  52  59
ATOM     59  O   LIG d   1      10.933   9.711   1.055  0.00  0.00    -0.491 OA
BRANCH  59  60
ATOM     60  C   LIG d   1      12.005   9.493   1.975  0.00  0.00     0.079 C 
ATOM     61  H   LIG d   1      12.468   8.527   1.769  0.00  0.00     0.066 H 
ATOM     62  H   LIG d   1      12.747  10.283   1.862  0.00  0.00     0.066 H 
ATOM     63  H   LIG d   1      11.617   9.501   2.993  0.00  0.00     0.066 H 
ENDBRANCH  59  60
ENDBRANCH  52  59
ENDBRANCH  37  40
ENDBRANCH   6  37
BRANCH   3  64
ATOM     64  O   LIG d   1      11.703   5.288  -8.717  0.00  0.00    -0.491 OA
BRANCH  64  65
ATOM     65  C   LIG d   1      10.935   5.450  -9.911  0.00  0.00     0.079 C 
ATOM     66  H   LIG d   1       9.965   5.883  -9.663  0.00  0.00     0.066 H 
ATOM     67  H   LIG d   1      11.464   6.115 -10.596  0.00  0.00     0.066 H 
ATOM     68  H   LIG d   1      10.789   4.480 -10.385  0.00  0.00     0.066 H 
ENDBRANCH  64  65
ENDBRANCH   3  64
BRANCH   4  69
ATOM     69  O   LIG d   1      11.970   7.631  -7.296  0.00  0.00    -0.491 OA
BRANCH  69  70
ATOM     70  C   LIG d   1      11.322   8.852  -7.660  0.00  0.00     0.079 C 
ATOM     71  H   LIG d   1      11.506   9.604  -6.893  0.00  0.00     0.066 H 
ATOM     72  H   LIG d   1      11.716   9.201  -8.615  0.00  0.00     0.066 H 
ATOM     73  H   LIG d   1      10.249   8.680  -7.751  0.00  0.00     0.066 H 
ENDBRANCH  69  70
ENDBRANCH   4  69
TORSDOF 17
ENDMDL
MODEL 9
REMARK VINA RESULT:      -5.7      5.576      9.619
REMARK  17 active torsions:
REMARK  status: ('A' for Active; 'I' for Inactive)
REMARK    1  A    between atoms: C_1  and  C_2 
REMARK    2  A    between atoms: C_2  and  C_3 
REMARK    3  A    between atoms: C_3  and  C_4 
REMARK    4  A    between atoms: C_4  and  O_5 
REMARK    5  A    between atoms: O_5  and  C_6 
REMARK    6  A    between atoms: C_9  and  C_12 
REMARK       I    between atoms: C_12  and  N_14 
REMARK    7  A    between atoms: N_14  and  C_15 
REMARK    8  A    between atoms: C_17  and  O_38 
REMARK    9  A    between atoms: C_18  and  O_36 
REMARK   10  A    between atoms: C_20  and  C_21 
REMARK   11  A    between atoms: C_21  and  C_22 
REMARK   12  A    between atoms: C_25  and  O_34 
REMARK   13  A    between atoms: C_26  and  O_32 
REMARK   14  A    between atoms: O_32  and  C_33 
REMARK   15  A    between atoms: O_34  and  C_35 
REMARK   16  A    between atoms: O_36  and  C_37 
REMARK   17  A    between atoms: O_38  and  C_39 
ROOT
ATOM      1  C   LIG d   1       4.369  -3.528  -7.780  0.00  0.00     0.041 A 
ATOM      2  C   LIG d   1       3.578  -3.401  -8.914  0.00  0.00     0.005 A 
ATOM      3  C   LIG d   1       2.979  -2.187  -9.205  0.00  0.00     0.163 A 
ATOM      4  C   LIG d   1       3.179  -1.095  -8.366  0.00  0.00     0.162 A 
ATOM      5  C   LIG d   1       3.974  -1.224  -7.239  0.00  0.00    -0.011 A 
ATOM      6  C   LIG d   1       4.567  -2.437  -6.945  0.00  0.00    -0.017 A 
ATOM      7  H   LIG d   1       3.426  -4.248  -9.566  0.00  0.00     0.067 H 
ATOM      8  H   LIG d   1       4.129  -0.376  -6.588  0.00  0.00     0.066 H 
ENDROOT
BRANCH   1   9
ATOM      9  N   LIG d   1       4.972  -4.757  -7.481  0.00  0.00    -0.281 N 
ATOM     10  C   LIG d   1       4.352  -5.630  -6.661  0.00  0.00     0.248 C 
ATOM     11  O   LIG d   1       3.236  -5.386  -6.245  0.00  0.00    -0.270 OA
ATOM     12  H   LIG d   1       5.834  -4.979  -7.864  0.00  0.00     0.155 HD
BRANCH  10  13
ATOM     13  C   LIG d   1       5.028  -6.882  -6.270  0.00  0.00     0.037 A 
ATOM     14  C   LIG d   1       6.130  -6.843  -5.412  0.00  0.00    -0.046 A 
ATOM     15  C   LIG d   1       6.755  -8.014  -5.046  0.00  0.00    -0.019 A 
ATOM     16  H   LIG d   1       6.491  -5.897  -5.038  0.00  0.00     0.063 H 
ATOM     17  C   LIG d   1       6.292  -9.233  -5.527  0.00  0.00     0.120 A 
ATOM     18  H   LIG d   1       7.607  -7.986  -4.382  0.00  0.00     0.065 H 
ATOM     19  C   LIG d   1       5.197  -9.274  -6.382  0.00  0.00    -0.019 A 
ATOM     20  C   LIG d   1       4.565  -8.109  -6.754  0.00  0.00    -0.046 A 
ATOM     21  H   LIG d   1       4.839 -10.224  -6.754  0.00  0.00     0.065 H 
ATOM     22  H   LIG d   1       3.714  -8.142  -7.417  0.00  0.00     0.063 H 
BRANCH  17  23
ATOM     23  O   LIG d   1       6.911 -10.384  -5.164  0.00  0.00    -0.492 OA
BRANCH  23  24
ATOM     24  C   LIG d   1       6.088 -11.423  -4.628  0.00  0.00     0.090 C 
ATOM     25  H   LIG d   1       5.083 -11.341  -5.045  0.00  0.00     0.070 H 
ATOM     26  H   LIG d   1       6.511 -12.393  -4.889  0.00  0.00     0.070 H 
BRANCH  24  27
ATOM     27  C   LIG d   1       6.021 -11.287  -3.106  0.00  0.00    -0.019 C 
ATOM     28  H   LIG d   1       5.953 -12.278  -2.656  0.00  0.00     0.030 H 
ATOM     29  H   LIG d   1       6.919 -10.785  -2.746  0.00  0.00     0.030 H 
BRANCH  27  30
ATOM     30  C   LIG d   1       4.789 -10.466  -2.720  0.00  0.00    -0.053 C 
ATOM     31  H   LIG d   1       4.588 -10.590  -1.656  0.00  0.00     0.026 H 
ATOM     32  H   LIG d   1       4.973  -9.413  -2.935  0.00  0.00     0.026 H 
BRANCH  30  33
ATOM     33  C   LIG d   1       3.582 -10.948  -3.527  0.00  0.00    -0.065 C 
ATOM     34  H   LIG d   1       2.931 -10.102  -3.747  0.00  0.00     0.023 H 
ATOM     35  H   LIG d   1       3.923 -11.395  -4.460  0.00  0.00     0.023 H 
ATOM     36  H   LIG d   1       3.032 -11.689  -2.948  0.00  0.00     0.023 H 
ENDBRANCH  30  33
ENDBRANCH  27  30
ENDBRANCH  24  27
ENDBRANCH  23  24
ENDBRANCH  17  23
ENDBRANCH  10  13
ENDBRANCH   1   9
BRANCH   6  37
ATOM     37  C   LIG d   1       5.430  -2.576  -5.718  0.00  0.00     0.017 C 
ATOM     38  H   LIG d   1       4.972  -2.037  -4.888  0.00  0.00     0.038 H 
ATOM     39  H   LIG d   1       5.525  -3.630  -5.458  0.00  0.00     0.038 H 
BRANCH  37  40
ATOM     40  C   LIG d   1       6.795  -2.003  -5.995  0.00  0.00     0.053 A 
ATOM     41  N   LIG d   1       7.578  -2.570  -6.884  0.00  0.00    -0.259 NA
ATOM     42  C   LIG d   1       8.790  -2.112  -7.171  0.00  0.00     0.029 A 
ATOM     43  C   LIG d   1       9.307  -1.013  -6.555  0.00  0.00    -0.036 A 
ATOM     44  H   LIG d   1       9.382  -2.625  -7.913  0.00  0.00     0.083 H 
ATOM     45  C   LIG d   1       8.527  -0.350  -5.588  0.00  0.00    -0.011 A 
ATOM     46  H   LIG d   1      10.295  -0.658  -6.802  0.00  0.00     0.064 H 
ATOM     47  C   LIG d   1       7.232  -0.859  -5.307  0.00  0.00     0.007 A 
ATOM     48  C   LIG d   1       8.988   0.787  -4.911  0.00  0.00    -0.009 A 
ATOM     49  C   LIG d   1       6.429  -0.216  -4.352  0.00  0.00    -0.007 A 
ATOM     50  C   LIG d   1       6.901   0.893  -3.713  0.00  0.00     0.162 A 
ATOM     51  H   LIG d   1       5.443  -0.595  -4.126  0.00  0.00     0.066 H 
ATOM     52  C   LIG d   1       8.180   1.398  -3.995  0.00  0.00     0.162 A 
ATOM     53  H   LIG d   1       9.970   1.183  -5.121  0.00  0.00     0.066 H 
BRANCH  50  54
ATOM     54  O   LIG d   1       6.124   1.517  -2.788  0.00  0.00    -0.491 OA
BRANCH  54  55
ATOM     55  C   LIG d   1       4.986   0.798  -2.308  0.00  0.00     0.079 C 
ATOM     56  H   LIG d   1       4.103   1.093  -2.874  0.00  0.00     0.066 H 
ATOM     57  H   LIG d   1       5.155  -0.273  -2.428  0.00  0.00     0.066 H 
ATOM     58  H   LIG d   1       4.832   1.024  -1.252  0.00  0.00     0.066 H 
ENDBRANCH  54  55
ENDBRANCH  50  54
BRANCH  52  59
ATOM     59  O   LIG d   1       8.625   2.504  -3.342  0.00  0.00    -0.491 OA
BRANCH  59  60
ATOM     60  C   LIG d   1      10.040   2.659  -3.217  0.00  0.00     0.079 C 
ATOM     61  H   LIG d   1      10.377   2.187  -2.295  0.00  0.00     0.066 H 
ATOM     62  H   LIG d   1      10.533   2.188  -4.067  0.00  0.00     0.066 H 
ATOM     63  H   LIG d   1      10.288   3.720  -3.195  0.00  0.00     0.066 H 
ENDBRANCH  59  60
ENDBRANCH  52  59
ENDBRANCH  37  40
ENDBRANCH   6  37
BRANCH   3  64
ATOM     64  O   LIG d   1       2.199  -2.061 -10.312  0.00  0.00    -0.491 OA
BRANCH  64  65
ATOM     65  C   LIG d   1       1.170  -3.035 -10.494  0.00  0.00     0.079 C 
ATOM     66  H   LIG d   1       0.377  -2.867  -9.765  0.00  0.00     0.066 H 
ATOM     67  H   LIG d   1       0.760  -2.947 -11.501  0.00  0.00     0.066 H 
ATOM     68  H   LIG d   1       1.585  -4.033 -10.356  0.00  0.00     0.066 H 
ENDBRANCH  64  65
ENDBRANCH   3  64
BRANCH   4  69
ATOM     69  O   LIG d   1       2.596   0.100  -8.653  0.00  0.00    -0.491 OA
BRANCH  69  70
ATOM     70  C   LIG d   1       3.057   1.240  -7.924  0.00  0.00     0.079 C 
ATOM     71  H   LIG d   1       2.790   1.131  -6.874  0.00  0.00     0.066 H 
ATOM     72  H   LIG d   1       4.140   1.317  -8.018  0.00  0.00     0.066 H 
ATOM     73  H   LIG d   1       2.592   2.140  -8.326  0.00  0.00     0.066 H 
ENDBRANCH  69  70
ENDBRANCH   4  69
TORSDOF 17
ENDMDL
MODEL 10
REMARK VINA RESULT:      -5.5      3.165      6.311
REMARK  17 active torsions:
REMARK  status: ('A' for Active; 'I' for Inactive)
REMARK    1  A    between atoms: C_1  and  C_2 
REMARK    2  A    between atoms: C_2  and  C_3 
REMARK    3  A    between atoms: C_3  and  C_4 
REMARK    4  A    between atoms: C_4  and  O_5 
REMARK    5  A    between atoms: O_5  and  C_6 
REMARK    6  A    between atoms: C_9  and  C_12 
REMARK       I    between atoms: C_12  and  N_14 
REMARK    7  A    between atoms: N_14  and  C_15 
REMARK    8  A    between atoms: C_17  and  O_38 
REMARK    9  A    between atoms: C_18  and  O_36 
REMARK   10  A    between atoms: C_20  and  C_21 
REMARK   11  A    between atoms: C_21  and  C_22 
REMARK   12  A    between atoms: C_25  and  O_34 
REMARK   13  A    between atoms: C_26  and  O_32 
REMARK   14  A    between atoms: O_32  and  C_33 
REMARK   15  A    between atoms: O_34  and  C_35 
REMARK   16  A    between atoms: O_36  and  C_37 
REMARK   17  A    between atoms: O_38  and  C_39 
ROOT
ATOM      1  C   LIG d   1      10.273   5.536  -2.923  0.00  0.00     0.041 A 
ATOM      2  C   LIG d   1      10.002   5.734  -1.575  0.00  0.00     0.005 A 
ATOM      3  C   LIG d   1      10.792   6.595  -0.832  0.00  0.00     0.163 A 
ATOM      4  C   LIG d   1      11.847   7.268  -1.439  0.00  0.00     0.162 A 
ATOM      5  C   LIG d   1      12.110   7.073  -2.785  0.00  0.00    -0.011 A 
ATOM      6  C   LIG d   1      11.326   6.209  -3.526  0.00  0.00    -0.017 A 
ATOM      7  H   LIG d   1       9.181   5.213  -1.106  0.00  0.00     0.067 H 
ATOM      8  H   LIG d   1      12.929   7.597  -3.257  0.00  0.00     0.066 H 
ENDROOT
BRANCH   1   9
ATOM      9  N   LIG d   1       9.478   4.661  -3.675  0.00  0.00    -0.281 N 
ATOM     10  C   LIG d   1       9.648   3.328  -3.559  0.00  0.00     0.248 C 
ATOM     11  O   LIG d   1      10.434   2.884  -2.745  0.00  0.00    -0.270 OA
ATOM     12  H   LIG d   1       8.807   5.014  -4.278  0.00  0.00     0.155 HD
BRANCH  10  13
ATOM     13  C   LIG d   1       8.879   2.410  -4.420  0.00  0.00     0.037 A 
ATOM     14  C   LIG d   1       8.943   2.535  -5.810  0.00  0.00    -0.046 A 
ATOM     15  C   LIG d   1       8.228   1.672  -6.610  0.00  0.00    -0.019 A 
ATOM     16  H   LIG d   1       9.552   3.307  -6.256  0.00  0.00     0.063 H 
ATOM     17  C   LIG d   1       7.444   0.677  -6.038  0.00  0.00     0.120 A 
ATOM     18  H   LIG d   1       8.278   1.767  -7.685  0.00  0.00     0.065 H 
ATOM     19  C   LIG d   1       7.377   0.551  -4.656  0.00  0.00    -0.019 A 
ATOM     20  C   LIG d   1       8.089   1.409  -3.848  0.00  0.00    -0.046 A 
ATOM     21  H   LIG d   1       6.766  -0.223  -4.214  0.00  0.00     0.065 H 
ATOM     22  H   LIG d   1       8.036   1.310  -2.773  0.00  0.00     0.063 H 
BRANCH  17  23
ATOM     23  O   LIG d   1       6.741  -0.171  -6.830  0.00  0.00    -0.492 OA
BRANCH  23  24
ATOM     24  C   LIG d   1       6.521   0.236  -8.182  0.00  0.00     0.090 C 
ATOM     25  H   LIG d   1       7.203   1.049  -8.432  0.00  0.00     0.070 H 
ATOM     26  H   LIG d   1       6.700  -0.607  -8.849  0.00  0.00     0.070 H 
BRANCH  24  27
ATOM     27  C   LIG d   1       5.077   0.715  -8.343  0.00  0.00    -0.019 C 
ATOM     28  H   LIG d   1       4.436  -0.135  -8.577  0.00  0.00     0.030 H 
ATOM     29  H   LIG d   1       4.742   1.178  -7.414  0.00  0.00     0.030 H 
BRANCH  27  30
ATOM     30  C   LIG d   1       5.002   1.739  -9.477  0.00  0.00    -0.053 C 
ATOM     31  H   LIG d   1       5.937   2.298  -9.525  0.00  0.00     0.026 H 
ATOM     32  H   LIG d   1       4.840   1.222 -10.423  0.00  0.00     0.026 H 
BRANCH  30  33
ATOM     33  C   LIG d   1       3.844   2.704  -9.218  0.00  0.00    -0.065 C 
ATOM     34  H   LIG d   1       3.061   2.539  -9.958  0.00  0.00     0.023 H 
ATOM     35  H   LIG d   1       3.443   2.531  -8.220  0.00  0.00     0.023 H 
ATOM     36  H   LIG d   1       4.203   3.730  -9.293  0.00  0.00     0.023 H 
ENDBRANCH  30  33
ENDBRANCH  27  30
ENDBRANCH  24  27
ENDBRANCH  23  24
ENDBRANCH  17  23
ENDBRANCH  10  13
ENDBRANCH   1   9
BRANCH   6  37
ATOM     37  C   LIG d   1      11.614   5.998  -4.989  0.00  0.00     0.017 C 
ATOM     38  H   LIG d   1      12.662   6.220  -5.190  0.00  0.00     0.038 H 
ATOM     39  H   LIG d   1      11.406   4.961  -5.254  0.00  0.00     0.038 H 
BRANCH  37  40
ATOM     40  C   LIG d   1      10.741   6.910  -5.812  0.00  0.00     0.053 A 
ATOM     41  N   LIG d   1      10.429   8.103  -5.361  0.00  0.00    -0.259 NA
ATOM     42  C   LIG d   1       9.665   8.950  -6.038  0.00  0.00     0.029 A 
ATOM     43  C   LIG d   1       9.148   8.633  -7.258  0.00  0.00    -0.036 A 
ATOM     44  H   LIG d   1       9.447   9.916  -5.611  0.00  0.00     0.083 H 
ATOM     45  C   LIG d   1       9.437   7.369  -7.807  0.00  0.00    -0.011 A 
ATOM     46  H   LIG d   1       8.526   9.336  -7.791  0.00  0.00     0.064 H 
ATOM     47  C   LIG d   1      10.262   6.487  -7.062  0.00  0.00     0.007 A 
ATOM     48  C   LIG d   1       8.942   6.969  -9.055  0.00  0.00    -0.009 A 
ATOM     49  C   LIG d   1      10.573   5.223  -7.587  0.00  0.00    -0.007 A 
ATOM     50  C   LIG d   1      10.083   4.862  -8.808  0.00  0.00     0.162 A 
ATOM     51  H   LIG d   1      11.197   4.540  -7.029  0.00  0.00     0.066 H 
ATOM     52  C   LIG d   1       9.270   5.737  -9.546  0.00  0.00     0.162 A 
ATOM     53  H   LIG d   1       8.316   7.634  -9.631  0.00  0.00     0.066 H 
BRANCH  50  54
ATOM     54  O   LIG d   1      10.384   3.638  -9.317  0.00  0.00    -0.491 OA
BRANCH  54  55
ATOM     55  C   LIG d   1      11.357   2.864  -8.612  0.00  0.00     0.079 C 
ATOM     56  H   LIG d   1      12.041   2.402  -9.324  0.00  0.00     0.066 H 
ATOM     57  H   LIG d   1      11.917   3.512  -7.937  0.00  0.00     0.066 H 
ATOM     58  H   LIG d   1      10.855   2.087  -8.035  0.00  0.00     0.066 H 
ENDBRANCH  54  55
ENDBRANCH  50  54
BRANCH  52  59
ATOM     59  O   LIG d   1       8.795   5.350 -10.759  0.00  0.00    -0.491 OA
BRANCH  59  60
ATOM     60  C   LIG d   1       9.119   6.179 -11.877  0.00  0.00     0.079 C 
ATOM     61  H   LIG d   1       8.207   6.626 -12.273  0.00  0.00     0.066 H 
ATOM     62  H   LIG d   1       9.802   6.966 -11.560  0.00  0.00     0.066 H 
ATOM     63  H   LIG d   1       9.594   5.575 -12.651  0.00  0.00     0.066 H 
ENDBRANCH  59  60
ENDBRANCH  52  59
ENDBRANCH  37  40
ENDBRANCH   6  37
BRANCH   3  64
ATOM     64  O   LIG d   1      10.533   6.786   0.490  0.00  0.00    -0.491 OA
BRANCH  64  65
ATOM     65  C   LIG d   1      11.037   5.805   1.397  0.00  0.00     0.079 C 
ATOM     66  H   LIG d   1      10.721   6.051   2.411  0.00  0.00     0.066 H 
ATOM     67  H   LIG d   1      10.647   4.823   1.124  0.00  0.00     0.066 H 
ATOM     68  H   LIG d   1      12.126   5.790   1.350  0.00  0.00     0.066 H 
ENDBRANCH  64  65
ENDBRANCH   3  64
BRANCH   4  69
ATOM     69  O   LIG d   1      12.621   8.120  -0.712  0.00  0.00    -0.491 OA
BRANCH  69  70
ATOM     70  C   LIG d   1      13.976   7.729  -0.481  0.00  0.00     0.079 C 
ATOM     71  H   LIG d   1      14.640   8.553  -0.737  0.00  0.00     0.066 H 
ATOM     72  H   LIG d   1      14.104   7.471   0.570  0.00  0.00     0.066 H 
ATOM     73  H   LIG d   1      14.215   6.863  -1.099  0.00  0.00     0.066 H 
ENDBRANCH  69  70
ENDBRANCH   4  69
TORSDOF 17
ENDMDL
