MODEL 1
REMARK VINA RESULT:      -7.3      0.000      0.000
REMARK  10 active torsions:
REMARK  status: ('A' for Active; 'I' for Inactive)
REMARK    1  A    between atoms: C_1  and  O_2 
REMARK    2  A    between atoms: O_2  and  C_3 
REMARK    3  A    between atoms: C_5  and  C_13 
REMARK    4  A    between atoms: C_8  and  O_9 
REMARK    5  A    between atoms: O_9  and  C_10 
REMARK    6  A    between atoms: C_19  and  C_20 
REMARK    7  A    between atoms: C_23  and  O_28 
REMARK    8  A    between atoms: C_24  and  O_26 
REMARK    9  A    between atoms: O_26  and  C_27 
REMARK   10  A    between atoms: O_28  and  C_29 
ROOT
ATOM      1  C   LIG d   1       4.964  -4.119  -5.058  0.00  0.00    -0.048 C 
ATOM      2  C   LIG d   1       6.280  -4.357  -5.250  0.00  0.00     0.000 C 
ATOM      3  C   LIG d   1       7.344  -3.396  -4.758  0.00  0.00    -0.024 C 
ATOM      4  C   LIG d   1       8.402  -4.186  -3.982  0.00  0.00    -0.045 C 
ATOM      5  C   LIG d   1       9.049  -5.231  -4.894  0.00  0.00    -0.024 C 
ATOM      6  C   LIG d   1       7.978  -6.183  -5.386  0.00  0.00     0.000 C 
ATOM      7  C   LIG d   1       8.129  -7.523  -5.311  0.00  0.00    -0.048 C 
ATOM      8  C   LIG d   1       6.758  -5.571  -5.949  0.00  0.00     0.185 C 
ATOM      9  O   LIG d   1       6.186  -6.035  -6.921  0.00  0.00    -0.287 OA
ATOM     10  H   LIG d   1       4.236  -4.877  -5.309  0.00  0.00     0.063 H 
ATOM     11  H   LIG d   1       7.810  -2.900  -5.608  0.00  0.00     0.031 H 
ATOM     12  H   LIG d   1       6.888  -2.652  -4.105  0.00  0.00     0.031 H 
ATOM     13  H   LIG d   1       9.167  -3.501  -3.616  0.00  0.00     0.027 H 
ATOM     14  H   LIG d   1       7.932  -4.686  -3.136  0.00  0.00     0.027 H 
ATOM     15  H   LIG d   1       9.515  -4.734  -5.746  0.00  0.00     0.031 H 
ATOM     16  H   LIG d   1       9.804  -5.785  -4.337  0.00  0.00     0.031 H 
ATOM     17  H   LIG d   1       9.081  -7.944  -5.020  0.00  0.00     0.063 H 
ENDROOT
BRANCH   1  18
ATOM     18  C   LIG d   1       4.523  -2.830  -4.508  0.00  0.00    -0.021 A 
ATOM     19  C   LIG d   1       4.292  -1.745  -5.361  0.00  0.00    -0.009 A 
ATOM     20  C   LIG d   1       3.877  -0.536  -4.838  0.00  0.00     0.162 A 
ATOM     21  H   LIG d   1       4.439  -1.852  -6.426  0.00  0.00     0.066 H 
ATOM     22  C   LIG d   1       3.694  -0.397  -3.463  0.00  0.00     0.168 A 
ATOM     23  C   LIG d   1       3.916  -1.475  -2.616  0.00  0.00    -0.015 A 
ATOM     24  C   LIG d   1       4.331  -2.685  -3.129  0.00  0.00    -0.051 A 
ATOM     25  H   LIG d   1       3.768  -1.363  -1.552  0.00  0.00     0.066 H 
ATOM     26  H   LIG d   1       4.507  -3.520  -2.468  0.00  0.00     0.062 H 
BRANCH  20  27
ATOM     27  O   LIG d   1       3.653   0.521  -5.664  0.00  0.00    -0.491 OA
BRANCH  27  28
ATOM     28  C   LIG d   1       3.082   0.236  -6.943  0.00  0.00     0.079 C 
ATOM     29  H   LIG d   1       3.854   0.304  -7.709  0.00  0.00     0.066 H 
ATOM     30  H   LIG d   1       2.663  -0.770  -6.938  0.00  0.00     0.066 H 
ATOM     31  H   LIG d   1       2.293   0.957  -7.156  0.00  0.00     0.066 H 
ENDBRANCH  27  28
ENDBRANCH  20  27
BRANCH  22  32
ATOM     32  O   LIG d   1       3.291   0.795  -2.951  0.00  0.00    -0.430 OA
BRANCH  32  33
ATOM     33  C   LIG d   1       4.287   1.594  -2.308  0.00  0.00     0.389 C 
ATOM     34  F   LIG d   1       4.578   1.053  -1.050  0.00  0.00    -0.166 F 
ATOM     35  F   LIG d   1       5.447   1.611  -3.088  0.00  0.00    -0.166 F 
ATOM     36  H   LIG d   1       3.914   2.612  -2.188  0.00  0.00     0.152 H 
ENDBRANCH  32  33
ENDBRANCH  22  32
ENDBRANCH   1  18
BRANCH   7  37
ATOM     37  C   LIG d   1       7.000  -8.409  -5.626  0.00  0.00    -0.021 A 
ATOM     38  C   LIG d   1       5.903  -8.484  -4.759  0.00  0.00    -0.009 A 
ATOM     39  C   LIG d   1       4.843  -9.314  -5.064  0.00  0.00     0.162 A 
ATOM     40  H   LIG d   1       5.886  -7.891  -3.856  0.00  0.00     0.066 H 
ATOM     41  C   LIG d   1       4.870 -10.082  -6.227  0.00  0.00     0.168 A 
ATOM     42  C   LIG d   1       5.960 -10.013  -7.084  0.00  0.00    -0.015 A 
ATOM     43  C   LIG d   1       7.020  -9.184  -6.792  0.00  0.00    -0.051 A 
ATOM     44  H   LIG d   1       5.976 -10.611  -7.984  0.00  0.00     0.066 H 
ATOM     45  H   LIG d   1       7.866  -9.133  -7.460  0.00  0.00     0.062 H 
BRANCH  39  46
ATOM     46  O   LIG d   1       3.774  -9.386  -4.226  0.00  0.00    -0.491 OA
BRANCH  46  47
ATOM     47  C   LIG d   1       3.908 -10.217  -3.072  0.00  0.00     0.079 C 
ATOM     48  H   LIG d   1       2.934 -10.346  -2.601  0.00  0.00     0.066 H 
ATOM     49  H   LIG d   1       4.301 -11.189  -3.367  0.00  0.00     0.066 H 
ATOM     50  H   LIG d   1       4.594  -9.749  -2.365  0.00  0.00     0.066 H 
ENDBRANCH  46  47
ENDBRANCH  39  46
BRANCH  41  51
ATOM     51  O   LIG d   1       3.828 -10.902  -6.521  0.00  0.00    -0.430 OA
BRANCH  51  52
ATOM     52  C   LIG d   1       4.020 -12.301  -6.301  0.00  0.00     0.389 C 
ATOM     53  F   LIG d   1       4.896 -12.488  -5.225  0.00  0.00    -0.166 F 
ATOM     54  F   LIG d   1       2.790 -12.901  -6.011  0.00  0.00    -0.166 F 
ATOM     55  H   LIG d   1       4.444 -12.755  -7.197  0.00  0.00     0.152 H 
ENDBRANCH  51  52
ENDBRANCH  41  51
ENDBRANCH   7  37
TORSDOF 10
ENDMDL
MODEL 2
REMARK VINA RESULT:      -6.5      1.822      2.407
REMARK  10 active torsions:
REMARK  status: ('A' for Active; 'I' for Inactive)
REMARK    1  A    between atoms: C_1  and  O_2 
REMARK    2  A    between atoms: O_2  and  C_3 
REMARK    3  A    between atoms: C_5  and  C_13 
REMARK    4  A    between atoms: C_8  and  O_9 
REMARK    5  A    between atoms: O_9  and  C_10 
REMARK    6  A    between atoms: C_19  and  C_20 
REMARK    7  A    between atoms: C_23  and  O_28 
REMARK    8  A    between atoms: C_24  and  O_26 
REMARK    9  A    between atoms: O_26  and  C_27 
REMARK   10  A    between atoms: O_28  and  C_29 
ROOT
ATOM      1  C   LIG d   1       4.969  -4.252  -5.085  0.00  0.00    -0.048 C 
ATOM      2  C   LIG d   1       5.259  -4.552  -6.370  0.00  0.00     0.000 C 
ATOM      3  C   LIG d   1       5.850  -3.524  -7.314  0.00  0.00    -0.024 C 
ATOM      4  C   LIG d   1       7.069  -4.135  -8.010  0.00  0.00    -0.045 C 
ATOM      5  C   LIG d   1       6.651  -5.372  -8.809  0.00  0.00    -0.024 C 
ATOM      6  C   LIG d   1       6.056  -6.392  -7.858  0.00  0.00     0.000 C 
ATOM      7  C   LIG d   1       6.455  -7.682  -7.859  0.00  0.00    -0.048 C 
ATOM      8  C   LIG d   1       5.020  -5.902  -6.928  0.00  0.00     0.185 C 
ATOM      9  O   LIG d   1       4.037  -6.564  -6.641  0.00  0.00    -0.287 OA
ATOM     10  H   LIG d   1       4.665  -5.033  -4.404  0.00  0.00     0.063 H 
ATOM     11  H   LIG d   1       5.107  -3.243  -8.060  0.00  0.00     0.031 H 
ATOM     12  H   LIG d   1       6.153  -2.642  -6.750  0.00  0.00     0.031 H 
ATOM     13  H   LIG d   1       7.506  -3.400  -8.685  0.00  0.00     0.027 H 
ATOM     14  H   LIG d   1       7.808  -4.421  -7.262  0.00  0.00     0.027 H 
ATOM     15  H   LIG d   1       5.907  -5.091  -9.555  0.00  0.00     0.031 H 
ATOM     16  H   LIG d   1       7.523  -5.799  -9.305  0.00  0.00     0.031 H 
ATOM     17  H   LIG d   1       7.115  -8.043  -8.635  0.00  0.00     0.063 H 
ENDROOT
BRANCH   1  18
ATOM     18  C   LIG d   1       5.067  -2.864  -4.614  0.00  0.00    -0.021 A 
ATOM     19  C   LIG d   1       4.144  -1.907  -5.053  0.00  0.00    -0.009 A 
ATOM     20  C   LIG d   1       4.241  -0.604  -4.606  0.00  0.00     0.162 A 
ATOM     21  H   LIG d   1       3.358  -2.187  -5.739  0.00  0.00     0.066 H 
ATOM     22  C   LIG d   1       5.259  -0.242  -3.725  0.00  0.00     0.168 A 
ATOM     23  C   LIG d   1       6.171  -1.192  -3.284  0.00  0.00    -0.015 A 
ATOM     24  C   LIG d   1       6.082  -2.494  -3.724  0.00  0.00    -0.051 A 
ATOM     25  H   LIG d   1       6.955  -0.908  -2.598  0.00  0.00     0.066 H 
ATOM     26  H   LIG d   1       6.795  -3.230  -3.384  0.00  0.00     0.062 H 
BRANCH  20  27
ATOM     27  O   LIG d   1       3.346   0.328  -5.031  0.00  0.00    -0.491 OA
BRANCH  27  28
ATOM     28  C   LIG d   1       2.943   0.265  -6.401  0.00  0.00     0.079 C 
ATOM     29  H   LIG d   1       1.967   0.735  -6.514  0.00  0.00     0.066 H 
ATOM     30  H   LIG d   1       3.673   0.789  -7.019  0.00  0.00     0.066 H 
ATOM     31  H   LIG d   1       2.885  -0.777  -6.714  0.00  0.00     0.066 H 
ENDBRANCH  27  28
ENDBRANCH  20  27
BRANCH  22  32
ATOM     32  O   LIG d   1       5.355   1.042  -3.292  0.00  0.00    -0.430 OA
BRANCH  32  33
ATOM     33  C   LIG d   1       4.678   1.368  -2.076  0.00  0.00     0.389 C 
ATOM     34  F   LIG d   1       3.395   1.844  -2.371  0.00  0.00    -0.166 F 
ATOM     35  F   LIG d   1       4.578   0.226  -1.276  0.00  0.00    -0.166 F 
ATOM     36  H   LIG d   1       5.237   2.137  -1.544  0.00  0.00     0.152 H 
ENDBRANCH  32  33
ENDBRANCH  22  32
ENDBRANCH   1  18
BRANCH   7  37
ATOM     37  C   LIG d   1       5.992  -8.596  -6.806  0.00  0.00    -0.021 A 
ATOM     38  C   LIG d   1       6.561  -8.540  -5.527  0.00  0.00    -0.009 A 
ATOM     39  C   LIG d   1       6.117  -9.397  -4.540  0.00  0.00     0.162 A 
ATOM     40  H   LIG d   1       7.343  -7.825  -5.314  0.00  0.00     0.066 H 
ATOM     41  C   LIG d   1       5.112 -10.321  -4.820  0.00  0.00     0.168 A 
ATOM     42  C   LIG d   1       4.551 -10.382  -6.088  0.00  0.00    -0.015 A 
ATOM     43  C   LIG d   1       4.984  -9.527  -7.078  0.00  0.00    -0.051 A 
ATOM     44  H   LIG d   1       3.773 -11.101  -6.300  0.00  0.00     0.066 H 
ATOM     45  H   LIG d   1       4.546  -9.577  -8.064  0.00  0.00     0.062 H 
BRANCH  39  46
ATOM     46  O   LIG d   1       6.665  -9.342  -3.297  0.00  0.00    -0.491 OA
BRANCH  46  47
ATOM     47  C   LIG d   1       8.050  -9.002  -3.212  0.00  0.00     0.079 C 
ATOM     48  H   LIG d   1       8.242  -8.494  -2.267  0.00  0.00     0.066 H 
ATOM     49  H   LIG d   1       8.651  -9.910  -3.265  0.00  0.00     0.066 H 
ATOM     50  H   LIG d   1       8.314  -8.343  -4.039  0.00  0.00     0.066 H 
ENDBRANCH  46  47
ENDBRANCH  39  46
BRANCH  41  51
ATOM     51  O   LIG d   1       4.681 -11.167  -3.848  0.00  0.00    -0.430 OA
BRANCH  51  52
ATOM     52  C   LIG d   1       3.428 -10.862  -3.231  0.00  0.00     0.389 C 
ATOM     53  F   LIG d   1       3.283  -9.474  -3.131  0.00  0.00    -0.166 F 
ATOM     54  F   LIG d   1       2.388 -11.386  -4.006  0.00  0.00    -0.166 F 
ATOM     55  H   LIG d   1       3.397 -11.303  -2.234  0.00  0.00     0.152 H 
ENDBRANCH  51  52
ENDBRANCH  41  51
ENDBRANCH   7  37
TORSDOF 10
ENDMDL
MODEL 3
REMARK VINA RESULT:      -6.4      5.100      7.585
REMARK  10 active torsions:
REMARK  status: ('A' for Active; 'I' for Inactive)
REMARK    1  A    between atoms: C_1  and  O_2 
REMARK    2  A    between atoms: O_2  and  C_3 
REMARK    3  A    between atoms: C_5  and  C_13 
REMARK    4  A    between atoms: C_8  and  O_9 
REMARK    5  A    between atoms: O_9  and  C_10 
REMARK    6  A    between atoms: C_19  and  C_20 
REMARK    7  A    between atoms: C_23  and  O_28 
REMARK    8  A    between atoms: C_24  and  O_26 
REMARK    9  A    between atoms: O_26  and  C_27 
REMARK   10  A    between atoms: O_28  and  C_29 
ROOT
ATOM      1  C   LIG d   1       2.728  -0.864  -7.838  0.00  0.00    -0.048 C 
ATOM      2  C   LIG d   1       3.015  -0.139  -8.941  0.00  0.00     0.000 C 
ATOM      3  C   LIG d   1       4.118   0.900  -8.947  0.00  0.00    -0.024 C 
ATOM      4  C   LIG d   1       5.013   0.664 -10.167  0.00  0.00    -0.045 C 
ATOM      5  C   LIG d   1       4.192   0.792 -11.453  0.00  0.00    -0.024 C 
ATOM      6  C   LIG d   1       3.088  -0.246 -11.435  0.00  0.00     0.000 C 
ATOM      7  C   LIG d   1       2.865  -1.064 -12.487  0.00  0.00    -0.048 C 
ATOM      8  C   LIG d   1       2.271  -0.322 -10.208  0.00  0.00     0.185 C 
ATOM      9  O   LIG d   1       1.068  -0.519 -10.238  0.00  0.00    -0.287 OA
ATOM     10  H   LIG d   1       2.023  -1.681  -7.897  0.00  0.00     0.063 H 
ATOM     11  H   LIG d   1       3.680   1.896  -9.003  0.00  0.00     0.031 H 
ATOM     12  H   LIG d   1       4.708   0.811  -8.035  0.00  0.00     0.031 H 
ATOM     13  H   LIG d   1       5.814   1.402 -10.175  0.00  0.00     0.027 H 
ATOM     14  H   LIG d   1       5.444  -0.335 -10.112  0.00  0.00     0.027 H 
ATOM     15  H   LIG d   1       3.754   1.790 -11.508  0.00  0.00     0.031 H 
ATOM     16  H   LIG d   1       4.836   0.628 -12.316  0.00  0.00     0.031 H 
ATOM     17  H   LIG d   1       3.387  -0.900 -13.419  0.00  0.00     0.063 H 
ENDROOT
BRANCH   1  18
ATOM     18  C   LIG d   1       3.375  -0.543  -6.558  0.00  0.00    -0.021 A 
ATOM     19  C   LIG d   1       4.648  -1.049  -6.269  0.00  0.00    -0.009 A 
ATOM     20  C   LIG d   1       5.251  -0.743  -5.065  0.00  0.00     0.162 A 
ATOM     21  H   LIG d   1       5.157  -1.677  -6.986  0.00  0.00     0.066 H 
ATOM     22  C   LIG d   1       4.590   0.063  -4.139  0.00  0.00     0.168 A 
ATOM     23  C   LIG d   1       3.330   0.571  -4.427  0.00  0.00    -0.015 A 
ATOM     24  C   LIG d   1       2.721   0.271  -5.626  0.00  0.00    -0.051 A 
ATOM     25  H   LIG d   1       2.825   1.198  -3.709  0.00  0.00     0.066 H 
ATOM     26  H   LIG d   1       1.739   0.663  -5.846  0.00  0.00     0.062 H 
BRANCH  20  27
ATOM     27  O   LIG d   1       6.487  -1.233  -4.781  0.00  0.00    -0.491 OA
BRANCH  27  28
ATOM     28  C   LIG d   1       6.552  -2.548  -4.224  0.00  0.00     0.079 C 
ATOM     29  H   LIG d   1       5.701  -2.705  -3.562  0.00  0.00     0.066 H 
ATOM     30  H   LIG d   1       6.528  -3.285  -5.028  0.00  0.00     0.066 H 
ATOM     31  H   LIG d   1       7.478  -2.657  -3.660  0.00  0.00     0.066 H 
ENDBRANCH  27  28
ENDBRANCH  20  27
BRANCH  22  32
ATOM     32  O   LIG d   1       5.184   0.358  -2.953  0.00  0.00    -0.430 OA
BRANCH  32  33
ATOM     33  C   LIG d   1       4.365   0.289  -1.784  0.00  0.00     0.389 C 
ATOM     34  F   LIG d   1       4.445  -0.996  -1.234  0.00  0.00    -0.166 F 
ATOM     35  F   LIG d   1       4.809   1.226  -0.846  0.00  0.00    -0.166 F 
ATOM     36  H   LIG d   1       3.330   0.505  -2.052  0.00  0.00     0.152 H 
ENDBRANCH  32  33
ENDBRANCH  22  32
ENDBRANCH   1  18
BRANCH   7  37
ATOM     37  C   LIG d   1       1.912  -2.176 -12.364  0.00  0.00    -0.021 A 
ATOM     38  C   LIG d   1       2.274  -3.338 -11.673  0.00  0.00    -0.009 A 
ATOM     39  C   LIG d   1       1.372  -4.377 -11.557  0.00  0.00     0.162 A 
ATOM     40  H   LIG d   1       3.256  -3.420 -11.230  0.00  0.00     0.066 H 
ATOM     41  C   LIG d   1       0.108  -4.271 -12.135  0.00  0.00     0.168 A 
ATOM     42  C   LIG d   1      -0.250  -3.121 -12.825  0.00  0.00    -0.015 A 
ATOM     43  C   LIG d   1       0.641  -2.077 -12.942  0.00  0.00    -0.051 A 
ATOM     44  H   LIG d   1      -1.231  -3.044 -13.271  0.00  0.00     0.066 H 
ATOM     45  H   LIG d   1       0.359  -1.185 -13.480  0.00  0.00     0.062 H 
BRANCH  39  46
ATOM     46  O   LIG d   1       1.720  -5.506 -10.883  0.00  0.00    -0.491 OA
BRANCH  46  47
ATOM     47  C   LIG d   1       2.550  -5.345  -9.731  0.00  0.00     0.079 C 
ATOM     48  H   LIG d   1       2.645  -4.285  -9.496  0.00  0.00     0.066 H 
ATOM     49  H   LIG d   1       2.102  -5.866  -8.885  0.00  0.00     0.066 H 
ATOM     50  H   LIG d   1       3.536  -5.762  -9.933  0.00  0.00     0.066 H 
ENDBRANCH  46  47
ENDBRANCH  39  46
BRANCH  41  51
ATOM     51  O   LIG d   1      -0.775  -5.297 -12.023  0.00  0.00    -0.430 OA
BRANCH  51  52
ATOM     52  C   LIG d   1      -1.849  -5.131 -11.094  0.00  0.00     0.389 C 
ATOM     53  F   LIG d   1      -2.519  -6.349 -10.933  0.00  0.00    -0.166 F 
ATOM     54  F   LIG d   1      -1.337  -4.713  -9.861  0.00  0.00    -0.166 F 
ATOM     55  H   LIG d   1      -2.544  -4.381 -11.472  0.00  0.00     0.152 H 
ENDBRANCH  51  52
ENDBRANCH  41  51
ENDBRANCH   7  37
TORSDOF 10
ENDMDL
MODEL 4
REMARK VINA RESULT:      -6.2      6.509      9.553
REMARK  10 active torsions:
REMARK  status: ('A' for Active; 'I' for Inactive)
REMARK    1  A    between atoms: C_1  and  O_2 
REMARK    2  A    between atoms: O_2  and  C_3 
REMARK    3  A    between atoms: C_5  and  C_13 
REMARK    4  A    between atoms: C_8  and  O_9 
REMARK    5  A    between atoms: O_9  and  C_10 
REMARK    6  A    between atoms: C_19  and  C_20 
REMARK    7  A    between atoms: C_23  and  O_28 
REMARK    8  A    between atoms: C_24  and  O_26 
REMARK    9  A    between atoms: O_26  and  C_27 
REMARK   10  A    between atoms: O_28  and  C_29 
ROOT
ATOM      1  C   LIG d   1       8.850   3.464  -4.044  0.00  0.00    -0.048 C 
ATOM      2  C   LIG d   1       9.492   2.485  -4.718  0.00  0.00     0.000 C 
ATOM      3  C   LIG d   1      11.003   2.448  -4.822  0.00  0.00    -0.024 C 
ATOM      4  C   LIG d   1      11.490   1.046  -4.446  0.00  0.00    -0.045 C 
ATOM      5  C   LIG d   1      10.893   0.010  -5.402  0.00  0.00    -0.024 C 
ATOM      6  C   LIG d   1       9.383   0.058  -5.296  0.00  0.00     0.000 C 
ATOM      7  C   LIG d   1       8.646  -1.061  -5.119  0.00  0.00    -0.048 C 
ATOM      8  C   LIG d   1       8.755   1.391  -5.390  0.00  0.00     0.185 C 
ATOM      9  O   LIG d   1       7.706   1.576  -5.983  0.00  0.00    -0.287 OA
ATOM     10  H   LIG d   1       7.784   3.399  -3.882  0.00  0.00     0.063 H 
ATOM     11  H   LIG d   1      11.304   2.677  -5.844  0.00  0.00     0.031 H 
ATOM     12  H   LIG d   1      11.434   3.182  -4.141  0.00  0.00     0.031 H 
ATOM     13  H   LIG d   1      12.577   1.013  -4.510  0.00  0.00     0.027 H 
ATOM     14  H   LIG d   1      11.182   0.817  -3.427  0.00  0.00     0.027 H 
ATOM     15  H   LIG d   1      11.195   0.240  -6.425  0.00  0.00     0.031 H 
ATOM     16  H   LIG d   1      11.248  -0.984  -5.132  0.00  0.00     0.031 H 
ATOM     17  H   LIG d   1       9.115  -2.032  -5.186  0.00  0.00     0.063 H 
ENDROOT
BRANCH   1  18
ATOM     18  C   LIG d   1       9.602   4.617  -3.530  0.00  0.00    -0.021 A 
ATOM     19  C   LIG d   1      10.338   4.503  -2.345  0.00  0.00    -0.009 A 
ATOM     20  C   LIG d   1      11.043   5.590  -1.867  0.00  0.00     0.162 A 
ATOM     21  H   LIG d   1      10.356   3.567  -1.806  0.00  0.00     0.066 H 
ATOM     22  C   LIG d   1      11.015   6.800  -2.561  0.00  0.00     0.168 A 
ATOM     23  C   LIG d   1      10.290   6.912  -3.740  0.00  0.00    -0.015 A 
ATOM     24  C   LIG d   1       9.584   5.832  -4.224  0.00  0.00    -0.051 A 
ATOM     25  H   LIG d   1      10.275   7.849  -4.276  0.00  0.00     0.066 H 
ATOM     26  H   LIG d   1       9.017   5.924  -5.138  0.00  0.00     0.062 H 
BRANCH  20  27
ATOM     27  O   LIG d   1      11.759   5.483  -0.716  0.00  0.00    -0.491 OA
BRANCH  27  28
ATOM     28  C   LIG d   1      11.062   5.720   0.508  0.00  0.00     0.079 C 
ATOM     29  H   LIG d   1      10.535   6.672   0.447  0.00  0.00     0.066 H 
ATOM     30  H   LIG d   1      10.343   4.918   0.679  0.00  0.00     0.066 H 
ATOM     31  H   LIG d   1      11.774   5.751   1.331  0.00  0.00     0.066 H 
ENDBRANCH  27  28
ENDBRANCH  20  27
BRANCH  22  32
ATOM     32  O   LIG d   1      11.705   7.869  -2.086  0.00  0.00    -0.430 OA
BRANCH  32  33
ATOM     33  C   LIG d   1      10.940   8.928  -1.508  0.00  0.00     0.389 C 
ATOM     34  F   LIG d   1      10.603   9.855  -2.501  0.00  0.00    -0.166 F 
ATOM     35  F   LIG d   1       9.773   8.407  -0.942  0.00  0.00    -0.166 F 
ATOM     36  H   LIG d   1      11.530   9.422  -0.735  0.00  0.00     0.152 H 
ENDBRANCH  32  33
ENDBRANCH  22  32
ENDBRANCH   1  18
BRANCH   7  37
ATOM     37  C   LIG d   1       7.208  -0.957  -4.837  0.00  0.00    -0.021 A 
ATOM     38  C   LIG d   1       6.765  -0.683  -3.537  0.00  0.00    -0.009 A 
ATOM     39  C   LIG d   1       5.412  -0.581  -3.280  0.00  0.00     0.162 A 
ATOM     40  H   LIG d   1       7.480  -0.549  -2.739  0.00  0.00     0.066 H 
ATOM     41  C   LIG d   1       4.491  -0.761  -4.311  0.00  0.00     0.168 A 
ATOM     42  C   LIG d   1       4.929  -1.039  -5.599  0.00  0.00    -0.015 A 
ATOM     43  C   LIG d   1       6.276  -1.137  -5.867  0.00  0.00    -0.051 A 
ATOM     44  H   LIG d   1       4.210  -1.178  -6.394  0.00  0.00     0.066 H 
ATOM     45  H   LIG d   1       6.614  -1.353  -6.869  0.00  0.00     0.062 H 
BRANCH  39  46
ATOM     46  O   LIG d   1       4.979  -0.311  -2.020  0.00  0.00    -0.491 OA
BRANCH  46  47
ATOM     47  C   LIG d   1       4.638   1.044  -1.727  0.00  0.00     0.079 C 
ATOM     48  H   LIG d   1       4.710   1.642  -2.635  0.00  0.00     0.066 H 
ATOM     49  H   LIG d   1       3.619   1.088  -1.342  0.00  0.00     0.066 H 
ATOM     50  H   LIG d   1       5.325   1.438  -0.977  0.00  0.00     0.066 H 
ENDBRANCH  46  47
ENDBRANCH  39  46
BRANCH  41  51
ATOM     51  O   LIG d   1       3.160  -0.666  -4.054  0.00  0.00    -0.430 OA
BRANCH  51  52
ATOM     52  C   LIG d   1       2.413   0.265  -4.838  0.00  0.00     0.389 C 
ATOM     53  F   LIG d   1       1.048  -0.026  -4.733  0.00  0.00    -0.166 F 
ATOM     54  F   LIG d   1       2.650   1.563  -4.373  0.00  0.00    -0.166 F 
ATOM     55  H   LIG d   1       2.720   0.192  -5.881  0.00  0.00     0.152 H 
ENDBRANCH  51  52
ENDBRANCH  41  51
ENDBRANCH   7  37
TORSDOF 10
ENDMDL
MODEL 5
REMARK VINA RESULT:      -6.2      2.660      3.703
REMARK  10 active torsions:
REMARK  status: ('A' for Active; 'I' for Inactive)
REMARK    1  A    between atoms: C_1  and  O_2 
REMARK    2  A    between atoms: O_2  and  C_3 
REMARK    3  A    between atoms: C_5  and  C_13 
REMARK    4  A    between atoms: C_8  and  O_9 
REMARK    5  A    between atoms: O_9  and  C_10 
REMARK    6  A    between atoms: C_19  and  C_20 
REMARK    7  A    between atoms: C_23  and  O_28 
REMARK    8  A    between atoms: C_24  and  O_26 
REMARK    9  A    between atoms: O_26  and  C_27 
REMARK   10  A    between atoms: O_28  and  C_29 
ROOT
ATOM      1  C   LIG d   1       5.836  -3.417  -4.438  0.00  0.00    -0.048 C 
ATOM      2  C   LIG d   1       5.206  -3.710  -5.597  0.00  0.00     0.000 C 
ATOM      3  C   LIG d   1       5.044  -2.681  -6.698  0.00  0.00    -0.024 C 
ATOM      4  C   LIG d   1       5.498  -3.299  -8.023  0.00  0.00    -0.045 C 
ATOM      5  C   LIG d   1       4.642  -4.526  -8.349  0.00  0.00    -0.024 C 
ATOM      6  C   LIG d   1       4.806  -5.547  -7.241  0.00  0.00     0.000 C 
ATOM      7  C   LIG d   1       5.091  -6.841  -7.503  0.00  0.00    -0.048 C 
ATOM      8  C   LIG d   1       4.643  -5.054  -5.859  0.00  0.00     0.185 C 
ATOM      9  O   LIG d   1       4.082  -5.708  -4.996  0.00  0.00    -0.287 OA
ATOM     10  H   LIG d   1       6.045  -4.200  -3.724  0.00  0.00     0.063 H 
ATOM     11  H   LIG d   1       3.997  -2.388  -6.772  0.00  0.00     0.031 H 
ATOM     12  H   LIG d   1       5.653  -1.806  -6.472  0.00  0.00     0.031 H 
ATOM     13  H   LIG d   1       5.392  -2.563  -8.819  0.00  0.00     0.027 H 
ATOM     14  H   LIG d   1       6.542  -3.597  -7.944  0.00  0.00     0.027 H 
ATOM     15  H   LIG d   1       3.595  -4.232  -8.423  0.00  0.00     0.031 H 
ATOM     16  H   LIG d   1       4.967  -4.958  -9.296  0.00  0.00     0.031 H 
ATOM     17  H   LIG d   1       5.073  -7.202  -8.521  0.00  0.00     0.063 H 
ENDROOT
BRANCH   1  18
ATOM     18  C   LIG d   1       6.236  -2.033  -4.148  0.00  0.00    -0.021 A 
ATOM     19  C   LIG d   1       5.482  -1.256  -3.261  0.00  0.00    -0.009 A 
ATOM     20  C   LIG d   1       5.864   0.044  -2.992  0.00  0.00     0.162 A 
ATOM     21  H   LIG d   1       4.605  -1.672  -2.787  0.00  0.00     0.066 H 
ATOM     22  C   LIG d   1       6.994   0.581  -3.608  0.00  0.00     0.168 A 
ATOM     23  C   LIG d   1       7.745  -0.191  -4.484  0.00  0.00    -0.015 A 
ATOM     24  C   LIG d   1       7.372  -1.489  -4.758  0.00  0.00    -0.051 A 
ATOM     25  H   LIG d   1       8.622   0.228  -4.955  0.00  0.00     0.066 H 
ATOM     26  H   LIG d   1       7.955  -2.086  -5.443  0.00  0.00     0.062 H 
BRANCH  20  27
ATOM     27  O   LIG d   1       5.134   0.802  -2.131  0.00  0.00    -0.491 OA
BRANCH  27  28
ATOM     28  C   LIG d   1       3.879   1.295  -2.603  0.00  0.00     0.079 C 
ATOM     29  H   LIG d   1       4.031   2.248  -3.111  0.00  0.00     0.066 H 
ATOM     30  H   LIG d   1       3.445   0.578  -3.300  0.00  0.00     0.066 H 
ATOM     31  H   LIG d   1       3.204   1.436  -1.760  0.00  0.00     0.066 H 
ENDBRANCH  27  28
ENDBRANCH  20  27
BRANCH  22  32
ATOM     32  O   LIG d   1       7.363   1.862  -3.346  0.00  0.00    -0.430 OA
BRANCH  32  33
ATOM     33  C   LIG d   1       8.597   2.309  -3.912  0.00  0.00     0.389 C 
ATOM     34  F   LIG d   1       8.358   3.416  -4.734  0.00  0.00    -0.166 F 
ATOM     35  F   LIG d   1       9.477   2.670  -2.888  0.00  0.00    -0.166 F 
ATOM     36  H   LIG d   1       9.037   1.506  -4.504  0.00  0.00     0.152 H 
ENDBRANCH  32  33
ENDBRANCH  22  32
ENDBRANCH   1  18
BRANCH   7  37
ATOM     37  C   LIG d   1       5.423  -7.758  -6.403  0.00  0.00    -0.021 A 
ATOM     38  C   LIG d   1       4.502  -8.732  -5.999  0.00  0.00    -0.009 A 
ATOM     39  C   LIG d   1       4.823  -9.593  -4.969  0.00  0.00     0.162 A 
ATOM     40  H   LIG d   1       3.545  -8.811  -6.494  0.00  0.00     0.066 H 
ATOM     41  C   LIG d   1       6.056  -9.486  -4.328  0.00  0.00     0.168 A 
ATOM     42  C   LIG d   1       6.967  -8.517  -4.724  0.00  0.00    -0.015 A 
ATOM     43  C   LIG d   1       6.659  -7.656  -5.755  0.00  0.00    -0.051 A 
ATOM     44  H   LIG d   1       7.922  -8.437  -4.224  0.00  0.00     0.066 H 
ATOM     45  H   LIG d   1       7.369  -6.903  -6.060  0.00  0.00     0.062 H 
BRANCH  39  46
ATOM     46  O   LIG d   1       3.932 -10.543  -4.576  0.00  0.00    -0.491 OA
BRANCH  46  47
ATOM     47  C   LIG d   1       3.804 -11.697  -5.409  0.00  0.00     0.079 C 
ATOM     48  H   LIG d   1       4.790 -12.012  -5.749  0.00  0.00     0.066 H 
ATOM     49  H   LIG d   1       3.339 -12.504  -4.843  0.00  0.00     0.066 H 
ATOM     50  H   LIG d   1       3.183 -11.454  -6.271  0.00  0.00     0.066 H 
ENDBRANCH  46  47
ENDBRANCH  39  46
BRANCH  41  51
ATOM     51  O   LIG d   1       6.367 -10.332  -3.311  0.00  0.00    -0.430 OA
BRANCH  51  52
ATOM     52  C   LIG d   1       6.072  -9.888  -1.984  0.00  0.00     0.389 C 
ATOM     53  F   LIG d   1       5.706 -10.984  -1.196  0.00  0.00    -0.166 F 
ATOM     54  F   LIG d   1       7.204  -9.275  -1.436  0.00  0.00    -0.166 F 
ATOM     55  H   LIG d   1       5.250  -9.172  -2.015  0.00  0.00     0.152 H 
ENDBRANCH  51  52
ENDBRANCH  41  51
ENDBRANCH   7  37
TORSDOF 10
ENDMDL
MODEL 6
REMARK VINA RESULT:      -6.1      5.867      8.733
REMARK  10 active torsions:
REMARK  status: ('A' for Active; 'I' for Inactive)
REMARK    1  A    between atoms: C_1  and  O_2 
REMARK    2  A    between atoms: O_2  and  C_3 
REMARK    3  A    between atoms: C_5  and  C_13 
REMARK    4  A    between atoms: C_8  and  O_9 
REMARK    5  A    between atoms: O_9  and  C_10 
REMARK    6  A    between atoms: C_19  and  C_20 
REMARK    7  A    between atoms: C_23  and  O_28 
REMARK    8  A    between atoms: C_24  and  O_26 
REMARK    9  A    between atoms: O_26  and  C_27 
REMARK   10  A    between atoms: O_28  and  C_29 
ROOT
ATOM      1  C   LIG d   1       8.663   3.138  -4.472  0.00  0.00    -0.048 C 
ATOM      2  C   LIG d   1       9.306   2.396  -5.399  0.00  0.00     0.000 C 
ATOM      3  C   LIG d   1      10.754   2.656  -5.763  0.00  0.00    -0.024 C 
ATOM      4  C   LIG d   1      11.522   1.332  -5.713  0.00  0.00    -0.045 C 
ATOM      5  C   LIG d   1      10.921   0.340  -6.712  0.00  0.00    -0.024 C 
ATOM      6  C   LIG d   1       9.472   0.090  -6.343  0.00  0.00     0.000 C 
ATOM      7  C   LIG d   1       8.972  -1.160  -6.232  0.00  0.00    -0.048 C 
ATOM      8  C   LIG d   1       8.635   1.283  -6.108  0.00  0.00     0.185 C 
ATOM      9  O   LIG d   1       7.474   1.346  -6.474  0.00  0.00    -0.287 OA
ATOM     10  H   LIG d   1       7.673   2.854  -4.144  0.00  0.00     0.063 H 
ATOM     11  H   LIG d   1      10.808   3.072  -6.769  0.00  0.00     0.031 H 
ATOM     12  H   LIG d   1      11.188   3.360  -5.053  0.00  0.00     0.031 H 
ATOM     13  H   LIG d   1      12.567   1.512  -5.966  0.00  0.00     0.027 H 
ATOM     14  H   LIG d   1      11.461   0.916  -4.708  0.00  0.00     0.027 H 
ATOM     15  H   LIG d   1      10.975   0.756  -7.718  0.00  0.00     0.031 H 
ATOM     16  H   LIG d   1      11.475  -0.598  -6.674  0.00  0.00     0.031 H 
ATOM     17  H   LIG d   1       9.567  -2.008  -6.538  0.00  0.00     0.063 H 
ENDROOT
BRANCH   1  18
ATOM     18  C   LIG d   1       9.308   4.333  -3.909  0.00  0.00    -0.021 A 
ATOM     19  C   LIG d   1       9.236   5.555  -4.589  0.00  0.00    -0.009 A 
ATOM     20  C   LIG d   1       9.845   6.674  -4.055  0.00  0.00     0.162 A 
ATOM     21  H   LIG d   1       8.708   5.622  -5.528  0.00  0.00     0.066 H 
ATOM     22  C   LIG d   1      10.532   6.584  -2.845  0.00  0.00     0.168 A 
ATOM     23  C   LIG d   1      10.598   5.374  -2.167  0.00  0.00    -0.015 A 
ATOM     24  C   LIG d   1       9.994   4.252  -2.692  0.00  0.00    -0.051 A 
ATOM     25  H   LIG d   1      11.127   5.311  -1.228  0.00  0.00     0.066 H 
ATOM     26  H   LIG d   1      10.051   3.312  -2.165  0.00  0.00     0.062 H 
BRANCH  20  27
ATOM     27  O   LIG d   1       9.778   7.862  -4.713  0.00  0.00    -0.491 OA
BRANCH  27  28
ATOM     28  C   LIG d   1       9.327   7.830  -6.068  0.00  0.00     0.079 C 
ATOM     29  H   LIG d   1       8.408   8.409  -6.160  0.00  0.00     0.066 H 
ATOM     30  H   LIG d   1      10.092   8.258  -6.717  0.00  0.00     0.066 H 
ATOM     31  H   LIG d   1       9.137   6.798  -6.363  0.00  0.00     0.066 H 
ENDBRANCH  27  28
ENDBRANCH  20  27
BRANCH  22  32
ATOM     32  O   LIG d   1      11.134   7.686  -2.326  0.00  0.00    -0.430 OA
BRANCH  32  33
ATOM     33  C   LIG d   1      10.355   8.492  -1.439  0.00  0.00     0.389 C 
ATOM     34  F   LIG d   1      10.038   9.702  -2.066  0.00  0.00    -0.166 F 
ATOM     35  F   LIG d   1       9.177   7.817  -1.106  0.00  0.00    -0.166 F 
ATOM     36  H   LIG d   1      10.928   8.692  -0.533  0.00  0.00     0.152 H 
ENDBRANCH  32  33
ENDBRANCH  22  32
ENDBRANCH   1  18
BRANCH   7  37
ATOM     37  C   LIG d   1       7.620  -1.365  -5.696  0.00  0.00    -0.021 A 
ATOM     38  C   LIG d   1       6.568  -1.708  -6.555  0.00  0.00    -0.009 A 
ATOM     39  C   LIG d   1       5.301  -1.905  -6.044  0.00  0.00     0.162 A 
ATOM     40  H   LIG d   1       6.750  -1.820  -7.614  0.00  0.00     0.066 H 
ATOM     41  C   LIG d   1       5.068  -1.753  -4.678  0.00  0.00     0.168 A 
ATOM     42  C   LIG d   1       6.109  -1.408  -3.826  0.00  0.00    -0.015 A 
ATOM     43  C   LIG d   1       7.378  -1.214  -4.326  0.00  0.00    -0.051 A 
ATOM     44  H   LIG d   1       5.923  -1.291  -2.768  0.00  0.00     0.066 H 
ATOM     45  H   LIG d   1       8.185  -0.946  -3.661  0.00  0.00     0.062 H 
BRANCH  39  46
ATOM     46  O   LIG d   1       4.279  -2.242  -6.875  0.00  0.00    -0.491 OA
BRANCH  46  47
ATOM     47  C   LIG d   1       4.114  -1.453  -8.055  0.00  0.00     0.079 C 
ATOM     48  H   LIG d   1       5.088  -1.255  -8.500  0.00  0.00     0.066 H 
ATOM     49  H   LIG d   1       3.490  -1.991  -8.768  0.00  0.00     0.066 H 
ATOM     50  H   LIG d   1       3.635  -0.508  -7.796  0.00  0.00     0.066 H 
ENDBRANCH  46  47
ENDBRANCH  39  46
BRANCH  41  51
ATOM     51  O   LIG d   1       3.819  -1.943  -4.179  0.00  0.00    -0.430 OA
BRANCH  51  52
ATOM     52  C   LIG d   1       3.614  -1.619  -2.802  0.00  0.00     0.389 C 
ATOM     53  F   LIG d   1       2.383  -0.969  -2.653  0.00  0.00    -0.166 F 
ATOM     54  F   LIG d   1       3.616  -2.794  -2.042  0.00  0.00    -0.166 F 
ATOM     55  H   LIG d   1       4.414  -0.963  -2.460  0.00  0.00     0.152 H 
ENDBRANCH  51  52
ENDBRANCH  41  51
ENDBRANCH   7  37
TORSDOF 10
ENDMDL
MODEL 7
REMARK VINA RESULT:      -6.0      4.086      9.511
REMARK  10 active torsions:
REMARK  status: ('A' for Active; 'I' for Inactive)
REMARK    1  A    between atoms: C_1  and  O_2 
REMARK    2  A    between atoms: O_2  and  C_3 
REMARK    3  A    between atoms: C_5  and  C_13 
REMARK    4  A    between atoms: C_8  and  O_9 
REMARK    5  A    between atoms: O_9  and  C_10 
REMARK    6  A    between atoms: C_19  and  C_20 
REMARK    7  A    between atoms: C_23  and  O_28 
REMARK    8  A    between atoms: C_24  and  O_26 
REMARK    9  A    between atoms: O_26  and  C_27 
REMARK   10  A    between atoms: O_28  and  C_29 
ROOT
ATOM      1  C   LIG d   1       8.921  -4.859  -3.731  0.00  0.00    -0.048 C 
ATOM      2  C   LIG d   1       8.132  -5.387  -4.692  0.00  0.00     0.000 C 
ATOM      3  C   LIG d   1       8.164  -6.865  -5.026  0.00  0.00    -0.024 C 
ATOM      4  C   LIG d   1       6.729  -7.399  -5.044  0.00  0.00    -0.045 C 
ATOM      5  C   LIG d   1       5.907  -6.659  -6.103  0.00  0.00    -0.024 C 
ATOM      6  C   LIG d   1       5.886  -5.182  -5.764  0.00  0.00     0.000 C 
ATOM      7  C   LIG d   1       4.734  -4.477  -5.729  0.00  0.00    -0.048 C 
ATOM      8  C   LIG d   1       7.189  -4.553  -5.469  0.00  0.00     0.185 C 
ATOM      9  O   LIG d   1       7.467  -3.426  -5.843  0.00  0.00    -0.287 OA
ATOM     10  H   LIG d   1       8.791  -3.830  -3.429  0.00  0.00     0.063 H 
ATOM     11  H   LIG d   1       8.618  -7.008  -6.007  0.00  0.00     0.031 H 
ATOM     12  H   LIG d   1       8.745  -7.397  -4.273  0.00  0.00     0.031 H 
ATOM     13  H   LIG d   1       6.742  -8.463  -5.276  0.00  0.00     0.027 H 
ATOM     14  H   LIG d   1       6.275  -7.249  -4.065  0.00  0.00     0.027 H 
ATOM     15  H   LIG d   1       6.363  -6.801  -7.084  0.00  0.00     0.031 H 
ATOM     16  H   LIG d   1       4.889  -7.047  -6.114  0.00  0.00     0.031 H 
ATOM     17  H   LIG d   1       3.815  -4.926  -6.077  0.00  0.00     0.063 H 
ENDROOT
BRANCH   1  18
ATOM     18  C   LIG d   1       9.958  -5.685  -3.095  0.00  0.00    -0.021 A 
ATOM     19  C   LIG d   1      11.254  -5.714  -3.623  0.00  0.00    -0.009 A 
ATOM     20  C   LIG d   1      12.223  -6.491  -3.021  0.00  0.00     0.162 A 
ATOM     21  H   LIG d   1      11.495  -5.130  -4.499  0.00  0.00     0.066 H 
ATOM     22  C   LIG d   1      11.909  -7.250  -1.893  0.00  0.00     0.168 A 
ATOM     23  C   LIG d   1      10.625  -7.217  -1.365  0.00  0.00    -0.015 A 
ATOM     24  C   LIG d   1       9.651  -6.444  -1.959  0.00  0.00    -0.051 A 
ATOM     25  H   LIG d   1      10.388  -7.802  -0.490  0.00  0.00     0.066 H 
ATOM     26  H   LIG d   1       8.653  -6.424  -1.550  0.00  0.00     0.062 H 
BRANCH  20  27
ATOM     27  O   LIG d   1      13.483  -6.522  -3.531  0.00  0.00    -0.491 OA
BRANCH  27  28
ATOM     28  C   LIG d   1      14.257  -5.326  -3.426  0.00  0.00     0.079 C 
ATOM     29  H   LIG d   1      14.777  -5.312  -2.468  0.00  0.00     0.066 H 
ATOM     30  H   LIG d   1      14.986  -5.291  -4.236  0.00  0.00     0.066 H 
ATOM     31  H   LIG d   1      13.597  -4.461  -3.495  0.00  0.00     0.066 H 
ENDBRANCH  27  28
ENDBRANCH  20  27
BRANCH  22  32
ATOM     32  O   LIG d   1      12.864  -8.018  -1.307  0.00  0.00    -0.430 OA
BRANCH  32  33
ATOM     33  C   LIG d   1      12.566  -8.546  -0.013  0.00  0.00     0.389 C 
ATOM     34  F   LIG d   1      12.263  -9.908  -0.124  0.00  0.00    -0.166 F 
ATOM     35  F   LIG d   1      13.672  -8.381   0.825  0.00  0.00    -0.166 F 
ATOM     36  H   LIG d   1      11.709  -8.017   0.406  0.00  0.00     0.152 H 
ENDBRANCH  32  33
ENDBRANCH  22  32
ENDBRANCH   1  18
BRANCH   7  37
ATOM     37  C   LIG d   1       4.731  -3.099  -5.219  0.00  0.00    -0.021 A 
ATOM     38  C   LIG d   1       4.579  -2.023  -6.103  0.00  0.00    -0.009 A 
ATOM     39  C   LIG d   1       4.571  -0.731  -5.616  0.00  0.00     0.162 A 
ATOM     40  H   LIG d   1       4.464  -2.205  -7.161  0.00  0.00     0.066 H 
ATOM     41  C   LIG d   1       4.725  -0.499  -4.250  0.00  0.00     0.168 A 
ATOM     42  C   LIG d   1       4.882  -1.564  -3.374  0.00  0.00    -0.015 A 
ATOM     43  C   LIG d   1       4.886  -2.858  -3.849  0.00  0.00    -0.051 A 
ATOM     44  H   LIG d   1       5.002  -1.379  -2.316  0.00  0.00     0.066 H 
ATOM     45  H   LIG d   1       5.009  -3.684  -3.165  0.00  0.00     0.062 H 
BRANCH  39  46
ATOM     46  O   LIG d   1       4.419   0.315  -6.471  0.00  0.00    -0.491 OA
BRANCH  46  47
ATOM     47  C   LIG d   1       3.194   0.385  -7.202  0.00  0.00     0.079 C 
ATOM     48  H   LIG d   1       3.377   0.830  -8.179  0.00  0.00     0.066 H 
ATOM     49  H   LIG d   1       2.789  -0.619  -7.329  0.00  0.00     0.066 H 
ATOM     50  H   LIG d   1       2.478   0.997  -6.653  0.00  0.00     0.066 H 
ENDBRANCH  46  47
ENDBRANCH  39  46
BRANCH  41  51
ATOM     51  O   LIG d   1       4.723   0.774  -3.775  0.00  0.00    -0.430 OA
BRANCH  51  52
ATOM     52  C   LIG d   1       3.600   1.169  -2.984  0.00  0.00     0.389 C 
ATOM     53  F   LIG d   1       3.967   1.194  -1.634  0.00  0.00    -0.166 F 
ATOM     54  F   LIG d   1       3.179   2.445  -3.377  0.00  0.00    -0.166 F 
ATOM     55  H   LIG d   1       2.787   0.458  -3.126  0.00  0.00     0.152 H 
ENDBRANCH  51  52
ENDBRANCH  41  51
ENDBRANCH   7  37
TORSDOF 10
ENDMDL
MODEL 8
REMARK VINA RESULT:      -6.0      5.563      8.352
REMARK  10 active torsions:
REMARK  status: ('A' for Active; 'I' for Inactive)
REMARK    1  A    between atoms: C_1  and  O_2 
REMARK    2  A    between atoms: O_2  and  C_3 
REMARK    3  A    between atoms: C_5  and  C_13 
REMARK    4  A    between atoms: C_8  and  O_9 
REMARK    5  A    between atoms: O_9  and  C_10 
REMARK    6  A    between atoms: C_19  and  C_20 
REMARK    7  A    between atoms: C_23  and  O_28 
REMARK    8  A    between atoms: C_24  and  O_26 
REMARK    9  A    between atoms: O_26  and  C_27 
REMARK   10  A    between atoms: O_28  and  C_29 
ROOT
ATOM      1  C   LIG d   1       8.612   2.537  -4.209  0.00  0.00    -0.048 C 
ATOM      2  C   LIG d   1       9.281   1.592  -4.905  0.00  0.00     0.000 C 
ATOM      3  C   LIG d   1      10.759   1.726  -5.214  0.00  0.00    -0.024 C 
ATOM      4  C   LIG d   1      11.466   0.425  -4.824  0.00  0.00    -0.045 C 
ATOM      5  C   LIG d   1      10.888  -0.746  -5.623  0.00  0.00    -0.024 C 
ATOM      6  C   LIG d   1       9.410  -0.869  -5.312  0.00  0.00     0.000 C 
ATOM      7  C   LIG d   1       8.851  -2.050  -4.968  0.00  0.00    -0.048 C 
ATOM      8  C   LIG d   1       8.610   0.369  -5.401  0.00  0.00     0.185 C 
ATOM      9  O   LIG d   1       7.478   0.382  -5.853  0.00  0.00    -0.287 OA
ATOM     10  H   LIG d   1       7.593   2.358  -3.898  0.00  0.00     0.063 H 
ATOM     11  H   LIG d   1      10.894   1.909  -6.280  0.00  0.00     0.031 H 
ATOM     12  H   LIG d   1      11.176   2.556  -4.645  0.00  0.00     0.031 H 
ATOM     13  H   LIG d   1      12.531   0.516  -5.035  0.00  0.00     0.027 H 
ATOM     14  H   LIG d   1      11.324   0.241  -3.759  0.00  0.00     0.027 H 
ATOM     15  H   LIG d   1      11.023  -0.562  -6.689  0.00  0.00     0.031 H 
ATOM     16  H   LIG d   1      11.399  -1.667  -5.343  0.00  0.00     0.031 H 
ATOM     17  H   LIG d   1       9.428  -2.961  -5.039  0.00  0.00     0.063 H 
ENDROOT
BRANCH   1  18
ATOM     18  C   LIG d   1       9.271   3.808  -3.875  0.00  0.00    -0.021 A 
ATOM     19  C   LIG d   1       9.168   4.900  -4.745  0.00  0.00    -0.009 A 
ATOM     20  C   LIG d   1       9.788   6.092  -4.425  0.00  0.00     0.162 A 
ATOM     21  H   LIG d   1       8.606   4.812  -5.662  0.00  0.00     0.066 H 
ATOM     22  C   LIG d   1      10.519   6.203  -3.242  0.00  0.00     0.168 A 
ATOM     23  C   LIG d   1      10.616   5.122  -2.377  0.00  0.00    -0.015 A 
ATOM     24  C   LIG d   1      10.000   3.929  -2.687  0.00  0.00    -0.051 A 
ATOM     25  H   LIG d   1      11.178   5.215  -1.460  0.00  0.00     0.066 H 
ATOM     26  H   LIG d   1      10.081   3.089  -2.015  0.00  0.00     0.062 H 
BRANCH  20  27
ATOM     27  O   LIG d   1       9.692   7.155  -5.268  0.00  0.00    -0.491 OA
BRANCH  27  28
ATOM     28  C   LIG d   1       9.918   6.907  -6.656  0.00  0.00     0.079 C 
ATOM     29  H   LIG d   1      10.159   7.843  -7.159  0.00  0.00     0.066 H 
ATOM     30  H   LIG d   1      10.748   6.209  -6.770  0.00  0.00     0.066 H 
ATOM     31  H   LIG d   1       9.020   6.477  -7.098  0.00  0.00     0.066 H 
ENDBRANCH  27  28
ENDBRANCH  20  27
BRANCH  22  32
ATOM     32  O   LIG d   1      11.133   7.375  -2.934  0.00  0.00    -0.430 OA
BRANCH  32  33
ATOM     33  C   LIG d   1      10.706   8.035  -1.740  0.00  0.00     0.389 C 
ATOM     34  F   LIG d   1      11.148   9.364  -1.759  0.00  0.00    -0.166 F 
ATOM     35  F   LIG d   1       9.311   8.009  -1.665  0.00  0.00    -0.166 F 
ATOM     36  H   LIG d   1      11.127   7.525  -0.873  0.00  0.00     0.152 H 
ENDBRANCH  32  33
ENDBRANCH  22  32
ENDBRANCH   1  18
BRANCH   7  37
ATOM     37  C   LIG d   1       7.460  -2.096  -4.497  0.00  0.00    -0.021 A 
ATOM     38  C   LIG d   1       6.516  -2.879  -5.172  0.00  0.00    -0.009 A 
ATOM     39  C   LIG d   1       5.212  -2.922  -4.721  0.00  0.00     0.162 A 
ATOM     40  H   LIG d   1       6.808  -3.449  -6.042  0.00  0.00     0.066 H 
ATOM     41  C   LIG d   1       4.835  -2.180  -3.603  0.00  0.00     0.168 A 
ATOM     42  C   LIG d   1       5.770  -1.399  -2.936  0.00  0.00    -0.015 A 
ATOM     43  C   LIG d   1       7.075  -1.354  -3.375  0.00  0.00    -0.051 A 
ATOM     44  H   LIG d   1       5.473  -0.825  -2.069  0.00  0.00     0.066 H 
ATOM     45  H   LIG d   1       7.799  -0.745  -2.855  0.00  0.00     0.062 H 
BRANCH  39  46
ATOM     46  O   LIG d   1       4.293  -3.684  -5.373  0.00  0.00    -0.491 OA
BRANCH  46  47
ATOM     47  C   LIG d   1       4.668  -5.026  -5.687  0.00  0.00     0.079 C 
ATOM     48  H   LIG d   1       4.241  -5.706  -4.950  0.00  0.00     0.066 H 
ATOM     49  H   LIG d   1       4.297  -5.285  -6.679  0.00  0.00     0.066 H 
ATOM     50  H   LIG d   1       5.755  -5.112  -5.672  0.00  0.00     0.066 H 
ENDBRANCH  46  47
ENDBRANCH  39  46
BRANCH  41  51
ATOM     51  O   LIG d   1       3.550  -2.220  -3.165  0.00  0.00    -0.430 OA
BRANCH  51  52
ATOM     52  C   LIG d   1       2.759  -1.047  -3.366  0.00  0.00     0.389 C 
ATOM     53  F   LIG d   1       2.974  -0.152  -2.312  0.00  0.00    -0.166 F 
ATOM     54  F   LIG d   1       3.123  -0.441  -4.574  0.00  0.00    -0.166 F 
ATOM     55  H   LIG d   1       1.704  -1.321  -3.400  0.00  0.00     0.152 H 
ENDBRANCH  51  52
ENDBRANCH  41  51
ENDBRANCH   7  37
TORSDOF 10
ENDMDL
MODEL 9
REMARK VINA RESULT:      -5.8      5.701      8.431
REMARK  10 active torsions:
REMARK  status: ('A' for Active; 'I' for Inactive)
REMARK    1  A    between atoms: C_1  and  O_2 
REMARK    2  A    between atoms: O_2  and  C_3 
REMARK    3  A    between atoms: C_5  and  C_13 
REMARK    4  A    between atoms: C_8  and  O_9 
REMARK    5  A    between atoms: O_9  and  C_10 
REMARK    6  A    between atoms: C_19  and  C_20 
REMARK    7  A    between atoms: C_23  and  O_28 
REMARK    8  A    between atoms: C_24  and  O_26 
REMARK    9  A    between atoms: O_26  and  C_27 
REMARK   10  A    between atoms: O_28  and  C_29 
ROOT
ATOM      1  C   LIG d   1       8.631   1.898  -5.909  0.00  0.00    -0.048 C 
ATOM      2  C   LIG d   1       9.326   0.745  -6.018  0.00  0.00     0.000 C 
ATOM      3  C   LIG d   1      10.831   0.737  -6.201  0.00  0.00    -0.024 C 
ATOM      4  C   LIG d   1      11.448  -0.228  -5.185  0.00  0.00    -0.045 C 
ATOM      5  C   LIG d   1      10.904  -1.642  -5.408  0.00  0.00    -0.024 C 
ATOM      6  C   LIG d   1       9.400  -1.622  -5.228  0.00  0.00     0.000 C 
ATOM      7  C   LIG d   1       8.766  -2.516  -4.436  0.00  0.00    -0.048 C 
ATOM      8  C   LIG d   1       8.660  -0.575  -5.959  0.00  0.00     0.185 C 
ATOM      9  O   LIG d   1       7.577  -0.785  -6.479  0.00  0.00    -0.287 OA
ATOM     10  H   LIG d   1       7.581   1.874  -5.656  0.00  0.00     0.063 H 
ATOM     11  H   LIG d   1      11.074   0.407  -7.211  0.00  0.00     0.031 H 
ATOM     12  H   LIG d   1      11.224   1.741  -6.040  0.00  0.00     0.031 H 
ATOM     13  H   LIG d   1      12.530  -0.234  -5.304  0.00  0.00     0.027 H 
ATOM     14  H   LIG d   1      11.198   0.101  -4.176  0.00  0.00     0.027 H 
ATOM     15  H   LIG d   1      11.147  -1.971  -6.418  0.00  0.00     0.031 H 
ATOM     16  H   LIG d   1      11.351  -2.324  -4.684  0.00  0.00     0.031 H 
ATOM     17  H   LIG d   1       9.312  -3.350  -4.020  0.00  0.00     0.063 H 
ENDROOT
BRANCH   1  18
ATOM     18  C   LIG d   1       9.302   3.186  -6.134  0.00  0.00    -0.021 A 
ATOM     19  C   LIG d   1       9.723   3.958  -5.044  0.00  0.00    -0.009 A 
ATOM     20  C   LIG d   1      10.353   5.167  -5.263  0.00  0.00     0.162 A 
ATOM     21  H   LIG d   1       9.555   3.609  -4.036  0.00  0.00     0.066 H 
ATOM     22  C   LIG d   1      10.565   5.619  -6.565  0.00  0.00     0.168 A 
ATOM     23  C   LIG d   1      10.153   4.851  -7.646  0.00  0.00    -0.015 A 
ATOM     24  C   LIG d   1       9.523   3.644  -7.438  0.00  0.00    -0.051 A 
ATOM     25  H   LIG d   1      10.323   5.204  -8.652  0.00  0.00     0.066 H 
ATOM     26  H   LIG d   1       9.199   3.051  -8.280  0.00  0.00     0.062 H 
BRANCH  20  27
ATOM     27  O   LIG d   1      10.763   5.919  -4.206  0.00  0.00    -0.491 OA
BRANCH  27  28
ATOM     28  C   LIG d   1      11.682   5.314  -3.295  0.00  0.00     0.079 C 
ATOM     29  H   LIG d   1      12.701   5.577  -3.578  0.00  0.00     0.066 H 
ATOM     30  H   LIG d   1      11.482   5.673  -2.285  0.00  0.00     0.066 H 
ATOM     31  H   LIG d   1      11.564   4.232  -3.326  0.00  0.00     0.066 H 
ENDBRANCH  27  28
ENDBRANCH  20  27
BRANCH  22  32
ATOM     32  O   LIG d   1      11.180   6.812  -6.775  0.00  0.00    -0.430 OA
BRANCH  32  33
ATOM     33  C   LIG d   1      10.344   7.922  -7.108  0.00  0.00     0.389 C 
ATOM     34  F   LIG d   1      10.171   7.976  -8.496  0.00  0.00    -0.166 F 
ATOM     35  F   LIG d   1       9.100   7.772  -6.489  0.00  0.00    -0.166 F 
ATOM     36  H   LIG d   1      10.813   8.845  -6.764  0.00  0.00     0.152 H 
ENDBRANCH  32  33
ENDBRANCH  22  32
ENDBRANCH   1  18
BRANCH   7  37
ATOM     37  C   LIG d   1       7.336  -2.353  -4.142  0.00  0.00    -0.021 A 
ATOM     38  C   LIG d   1       6.401  -3.239  -4.691  0.00  0.00    -0.009 A 
ATOM     39  C   LIG d   1       5.059  -3.084  -4.406  0.00  0.00     0.162 A 
ATOM     40  H   LIG d   1       6.729  -4.043  -5.333  0.00  0.00     0.066 H 
ATOM     41  C   LIG d   1       4.637  -2.042  -3.582  0.00  0.00     0.168 A 
ATOM     42  C   LIG d   1       5.562  -1.159  -3.042  0.00  0.00    -0.015 A 
ATOM     43  C   LIG d   1       6.904  -1.309  -3.316  0.00  0.00    -0.051 A 
ATOM     44  H   LIG d   1       5.230  -0.353  -2.404  0.00  0.00     0.066 H 
ATOM     45  H   LIG d   1       7.621  -0.621  -2.895  0.00  0.00     0.062 H 
BRANCH  39  46
ATOM     46  O   LIG d   1       4.149  -3.945  -4.935  0.00  0.00    -0.491 OA
BRANCH  46  47
ATOM     47  C   LIG d   1       4.529  -4.645  -6.120  0.00  0.00     0.079 C 
ATOM     48  H   LIG d   1       5.588  -4.897  -6.070  0.00  0.00     0.066 H 
ATOM     49  H   LIG d   1       3.942  -5.559  -6.207  0.00  0.00     0.066 H 
ATOM     50  H   LIG d   1       4.347  -4.013  -6.989  0.00  0.00     0.066 H 
ENDBRANCH  46  47
ENDBRANCH  39  46
BRANCH  41  51
ATOM     51  O   LIG d   1       3.315  -1.888  -3.308  0.00  0.00    -0.430 OA
BRANCH  51  52
ATOM     52  C   LIG d   1       2.758  -0.586  -3.503  0.00  0.00     0.389 C 
ATOM     53  F   LIG d   1       1.458  -0.706  -4.006  0.00  0.00    -0.166 F 
ATOM     54  F   LIG d   1       2.725   0.094  -2.281  0.00  0.00    -0.166 F 
ATOM     55  H   LIG d   1       3.372  -0.031  -4.212  0.00  0.00     0.152 H 
ENDBRANCH  51  52
ENDBRANCH  41  51
ENDBRANCH   7  37
TORSDOF 10
ENDMDL
