MODEL 1
REMARK VINA RESULT:      -5.4      0.000      0.000
REMARK  1 active torsions:
REMARK  status: ('A' for Active; 'I' for Inactive)
REMARK    1  A    between atoms: C_1  and  C_2 
ROOT
ATOM      1  C   LIG d   1       6.954  -1.007  -3.616  0.00  0.00     0.049 A 
ATOM      2  C   LIG d   1       5.614  -0.816  -3.234  0.00  0.00     0.021 A 
ATOM      3  C   LIG d   1       4.741  -1.892  -3.015  0.00  0.00    -0.051 A 
ATOM      4  C   LIG d   1       3.454  -1.645  -2.645  0.00  0.00    -0.061 A 
ATOM      5  C   LIG d   1       2.992  -0.341  -2.483  0.00  0.00    -0.060 A 
ATOM      6  C   LIG d   1       3.813   0.726  -2.688  0.00  0.00    -0.036 A 
ATOM      7  C   LIG d   1       5.145   0.513  -3.068  0.00  0.00     0.074 A 
ATOM      8  N   LIG d   1       5.995   1.525  -3.282  0.00  0.00    -0.235 NA
ATOM      9  C   LIG d   1       7.234   1.283  -3.638  0.00  0.00     0.117 A 
ATOM     10  N   LIG d   1       7.710   0.058  -3.798  0.00  0.00    -0.240 NA
ATOM     11  H   LIG d   1       5.087  -2.908  -3.138  0.00  0.00     0.062 H 
ATOM     12  H   LIG d   1       2.780  -2.474  -2.477  0.00  0.00     0.062 H 
ATOM     13  H   LIG d   1       1.966  -0.173  -2.189  0.00  0.00     0.062 H 
ATOM     14  H   LIG d   1       3.440   1.731  -2.557  0.00  0.00     0.064 H 
ATOM     15  H   LIG d   1       7.896   2.121  -3.803  0.00  0.00     0.105 H 
ENDROOT
BRANCH   1  16
ATOM     16  C   LIG d   1       7.514  -2.393  -3.809  0.00  0.00    -0.022 C 
ATOM     17  H   LIG d   1       7.939  -2.746  -2.869  0.00  0.00     0.029 H 
ATOM     18  H   LIG d   1       8.291  -2.369  -4.573  0.00  0.00     0.029 H 
ATOM     19  H   LIG d   1       6.716  -3.066  -4.122  0.00  0.00     0.029 H 
ENDBRANCH   1  16
TORSDOF 1
ENDMDL
MODEL 2
REMARK VINA RESULT:      -5.2      2.441      2.750
REMARK  1 active torsions:
REMARK  status: ('A' for Active; 'I' for Inactive)
REMARK    1  A    between atoms: C_1  and  C_2 
ROOT
ATOM      1  C   LIG d   1       4.644  -2.307  -5.100  0.00  0.00     0.049 A 
ATOM      2  C   LIG d   1       4.439  -1.414  -4.033  0.00  0.00     0.021 A 
ATOM      3  C   LIG d   1       4.635  -1.793  -2.696  0.00  0.00    -0.051 A 
ATOM      4  C   LIG d   1       4.421  -0.884  -1.705  0.00  0.00    -0.061 A 
ATOM      5  C   LIG d   1       4.010   0.415  -1.999  0.00  0.00    -0.060 A 
ATOM      6  C   LIG d   1       3.811   0.815  -3.285  0.00  0.00    -0.036 A 
ATOM      7  C   LIG d   1       4.021  -0.092  -4.333  0.00  0.00     0.074 A 
ATOM      8  N   LIG d   1       3.841   0.249  -5.615  0.00  0.00    -0.235 NA
ATOM      9  C   LIG d   1       4.048  -0.629  -6.567  0.00  0.00     0.117 A 
ATOM     10  N   LIG d   1       4.443  -1.870  -6.328  0.00  0.00    -0.240 NA
ATOM     11  H   LIG d   1       4.952  -2.797  -2.455  0.00  0.00     0.062 H 
ATOM     12  H   LIG d   1       4.571  -1.175  -0.675  0.00  0.00     0.062 H 
ATOM     13  H   LIG d   1       3.847   1.116  -1.193  0.00  0.00     0.062 H 
ATOM     14  H   LIG d   1       3.493   1.825  -3.496  0.00  0.00     0.064 H 
ATOM     15  H   LIG d   1       3.894  -0.324  -7.592  0.00  0.00     0.105 H 
ENDROOT
BRANCH   1  16
ATOM     16  C   LIG d   1       5.088  -3.724  -4.848  0.00  0.00    -0.022 C 
ATOM     17  H   LIG d   1       4.460  -4.409  -5.419  0.00  0.00     0.029 H 
ATOM     18  H   LIG d   1       4.998  -3.950  -3.785  0.00  0.00     0.029 H 
ATOM     19  H   LIG d   1       6.127  -3.840  -5.157  0.00  0.00     0.029 H 
ENDBRANCH   1  16
TORSDOF 1
ENDMDL
MODEL 3
REMARK VINA RESULT:      -5.0      1.165      2.529
REMARK  1 active torsions:
REMARK  status: ('A' for Active; 'I' for Inactive)
REMARK    1  A    between atoms: C_1  and  C_2 
ROOT
ATOM      1  C   LIG d   1       7.241   0.423  -3.732  0.00  0.00     0.049 A 
ATOM      2  C   LIG d   1       5.949   0.256  -3.203  0.00  0.00     0.021 A 
ATOM      3  C   LIG d   1       5.186   1.339  -2.740  0.00  0.00    -0.051 A 
ATOM      4  C   LIG d   1       3.940   1.115  -2.239  0.00  0.00    -0.061 A 
ATOM      5  C   LIG d   1       3.413  -0.173  -2.177  0.00  0.00    -0.060 A 
ATOM      6  C   LIG d   1       4.126  -1.246  -2.618  0.00  0.00    -0.036 A 
ATOM      7  C   LIG d   1       5.412  -1.056  -3.141  0.00  0.00     0.074 A 
ATOM      8  N   LIG d   1       6.156  -2.075  -3.588  0.00  0.00    -0.235 NA
ATOM      9  C   LIG d   1       7.356  -1.856  -4.070  0.00  0.00     0.117 A 
ATOM     10  N   LIG d   1       7.889  -0.646  -4.149  0.00  0.00    -0.240 NA
ATOM     11  H   LIG d   1       5.584   2.343  -2.781  0.00  0.00     0.062 H 
ATOM     12  H   LIG d   1       3.353   1.949  -1.882  0.00  0.00     0.062 H 
ATOM     13  H   LIG d   1       2.421  -0.323  -1.774  0.00  0.00     0.062 H 
ATOM     14  H   LIG d   1       3.703  -2.239  -2.564  0.00  0.00     0.064 H 
ATOM     15  H   LIG d   1       7.933  -2.699  -4.423  0.00  0.00     0.105 H 
ENDROOT
BRANCH   1  16
ATOM     16  C   LIG d   1       7.867   1.791  -3.825  0.00  0.00    -0.022 C 
ATOM     17  H   LIG d   1       8.090   2.158  -2.823  0.00  0.00     0.029 H 
ATOM     18  H   LIG d   1       7.175   2.475  -4.316  0.00  0.00     0.029 H 
ATOM     19  H   LIG d   1       8.789   1.730  -4.403  0.00  0.00     0.029 H 
ENDBRANCH   1  16
TORSDOF 1
ENDMDL
MODEL 4
REMARK VINA RESULT:      -4.8      1.256      3.307
REMARK  1 active torsions:
REMARK  status: ('A' for Active; 'I' for Inactive)
REMARK    1  A    between atoms: C_1  and  C_2 
ROOT
ATOM      1  C   LIG d   1       4.472  -0.917  -2.501  0.00  0.00     0.049 A 
ATOM      2  C   LIG d   1       5.690  -0.832  -3.199  0.00  0.00     0.021 A 
ATOM      3  C   LIG d   1       6.333  -1.965  -3.718  0.00  0.00    -0.051 A 
ATOM      4  C   LIG d   1       7.511  -1.820  -4.386  0.00  0.00    -0.061 A 
ATOM      5  C   LIG d   1       8.086  -0.563  -4.561  0.00  0.00    -0.060 A 
ATOM      6  C   LIG d   1       7.488   0.558  -4.071  0.00  0.00    -0.036 A 
ATOM      7  C   LIG d   1       6.274   0.449  -3.378  0.00  0.00     0.074 A 
ATOM      8  N   LIG d   1       5.644   1.518  -2.876  0.00  0.00    -0.235 NA
ATOM      9  C   LIG d   1       4.510   1.374  -2.232  0.00  0.00     0.117 A 
ATOM     10  N   LIG d   1       3.931   0.198  -2.050  0.00  0.00    -0.240 NA
ATOM     11  H   LIG d   1       5.899  -2.945  -3.588  0.00  0.00     0.062 H 
ATOM     12  H   LIG d   1       8.008  -2.693  -4.785  0.00  0.00     0.062 H 
ATOM     13  H   LIG d   1       9.021  -0.475  -5.096  0.00  0.00     0.062 H 
ATOM     14  H   LIG d   1       7.946   1.526  -4.216  0.00  0.00     0.064 H 
ATOM     15  H   LIG d   1       4.025   2.256  -1.839  0.00  0.00     0.105 H 
ENDROOT
BRANCH   1  16
ATOM     16  C   LIG d   1       3.801  -2.247  -2.278  0.00  0.00    -0.022 C 
ATOM     17  H   LIG d   1       4.245  -2.993  -2.936  0.00  0.00     0.029 H 
ATOM     18  H   LIG d   1       2.736  -2.158  -2.496  0.00  0.00     0.029 H 
ATOM     19  H   LIG d   1       3.934  -2.552  -1.240  0.00  0.00     0.029 H 
ENDBRANCH   1  16
TORSDOF 1
ENDMDL
MODEL 5
REMARK VINA RESULT:      -4.7      1.472      1.939
REMARK  1 active torsions:
REMARK  status: ('A' for Active; 'I' for Inactive)
REMARK    1  A    between atoms: C_1  and  C_2 
ROOT
ATOM      1  C   LIG d   1       6.448  -2.800  -4.693  0.00  0.00     0.049 A 
ATOM      2  C   LIG d   1       5.655  -2.079  -3.782  0.00  0.00     0.021 A 
ATOM      3  C   LIG d   1       4.455  -2.592  -3.268  0.00  0.00    -0.051 A 
ATOM      4  C   LIG d   1       3.730  -1.847  -2.389  0.00  0.00    -0.061 A 
ATOM      5  C   LIG d   1       4.162  -0.583  -1.993  0.00  0.00    -0.060 A 
ATOM      6  C   LIG d   1       5.322  -0.055  -2.473  0.00  0.00    -0.036 A 
ATOM      7  C   LIG d   1       6.096  -0.792  -3.380  0.00  0.00     0.074 A 
ATOM      8  N   LIG d   1       7.244  -0.320  -3.882  0.00  0.00    -0.235 NA
ATOM      9  C   LIG d   1       7.940  -1.041  -4.729  0.00  0.00     0.117 A 
ATOM     10  N   LIG d   1       7.564  -2.248  -5.124  0.00  0.00    -0.240 NA
ATOM     11  H   LIG d   1       4.109  -3.571  -3.568  0.00  0.00     0.062 H 
ATOM     12  H   LIG d   1       2.805  -2.242  -1.993  0.00  0.00     0.062 H 
ATOM     13  H   LIG d   1       3.568  -0.012  -1.294  0.00  0.00     0.062 H 
ATOM     14  H   LIG d   1       5.644   0.926  -2.156  0.00  0.00     0.064 H 
ATOM     15  H   LIG d   1       8.862  -0.634  -5.117  0.00  0.00     0.105 H 
ENDROOT
BRANCH   1  16
ATOM     16  C   LIG d   1       6.035  -4.172  -5.159  0.00  0.00    -0.022 C 
ATOM     17  H   LIG d   1       6.745  -4.912  -4.788  0.00  0.00     0.029 H 
ATOM     18  H   LIG d   1       6.022  -4.197  -6.249  0.00  0.00     0.029 H 
ATOM     19  H   LIG d   1       5.040  -4.401  -4.779  0.00  0.00     0.029 H 
ENDBRANCH   1  16
TORSDOF 1
ENDMDL
MODEL 6
REMARK VINA RESULT:      -4.5      2.677      3.544
REMARK  1 active torsions:
REMARK  status: ('A' for Active; 'I' for Inactive)
REMARK    1  A    between atoms: C_1  and  C_2 
ROOT
ATOM      1  C   LIG d   1       4.031  -0.830  -6.258  0.00  0.00     0.049 A 
ATOM      2  C   LIG d   1       3.981  -0.982  -4.861  0.00  0.00     0.021 A 
ATOM      3  C   LIG d   1       2.960  -0.416  -4.085  0.00  0.00    -0.051 A 
ATOM      4  C   LIG d   1       2.965  -0.598  -2.735  0.00  0.00    -0.061 A 
ATOM      5  C   LIG d   1       3.970  -1.336  -2.115  0.00  0.00    -0.060 A 
ATOM      6  C   LIG d   1       4.977  -1.900  -2.839  0.00  0.00    -0.036 A 
ATOM      7  C   LIG d   1       5.006  -1.736  -4.231  0.00  0.00     0.074 A 
ATOM      8  N   LIG d   1       5.971  -2.268  -4.990  0.00  0.00    -0.235 NA
ATOM      9  C   LIG d   1       5.963  -2.090  -6.289  0.00  0.00     0.117 A 
ATOM     10  N   LIG d   1       5.022  -1.399  -6.915  0.00  0.00    -0.240 NA
ATOM     11  H   LIG d   1       2.175   0.160  -4.553  0.00  0.00     0.062 H 
ATOM     12  H   LIG d   1       2.179  -0.160  -2.136  0.00  0.00     0.062 H 
ATOM     13  H   LIG d   1       3.951  -1.465  -1.042  0.00  0.00     0.062 H 
ATOM     14  H   LIG d   1       5.749  -2.470  -2.343  0.00  0.00     0.064 H 
ATOM     15  H   LIG d   1       6.755  -2.533  -6.876  0.00  0.00     0.105 H 
ENDROOT
BRANCH   1  16
ATOM     16  C   LIG d   1       2.973  -0.043  -6.988  0.00  0.00    -0.022 C 
ATOM     17  H   LIG d   1       2.215  -0.724  -7.376  0.00  0.00     0.029 H 
ATOM     18  H   LIG d   1       3.430   0.501  -7.815  0.00  0.00     0.029 H 
ATOM     19  H   LIG d   1       2.509   0.665  -6.301  0.00  0.00     0.029 H 
ENDBRANCH   1  16
TORSDOF 1
ENDMDL
MODEL 7
REMARK VINA RESULT:      -4.2      1.301      3.322
REMARK  1 active torsions:
REMARK  status: ('A' for Active; 'I' for Inactive)
REMARK    1  A    between atoms: C_1  and  C_2 
ROOT
ATOM      1  C   LIG d   1       4.068  -0.455  -3.240  0.00  0.00     0.049 A 
ATOM      2  C   LIG d   1       4.963  -1.431  -3.715  0.00  0.00     0.021 A 
ATOM      3  C   LIG d   1       4.532  -2.699  -4.131  0.00  0.00    -0.051 A 
ATOM      4  C   LIG d   1       5.446  -3.603  -4.582  0.00  0.00    -0.061 A 
ATOM      5  C   LIG d   1       6.802  -3.287  -4.633  0.00  0.00    -0.060 A 
ATOM      6  C   LIG d   1       7.254  -2.065  -4.237  0.00  0.00    -0.036 A 
ATOM      7  C   LIG d   1       6.344  -1.108  -3.768  0.00  0.00     0.074 A 
ATOM      8  N   LIG d   1       6.734   0.108  -3.366  0.00  0.00    -0.235 NA
ATOM      9  C   LIG d   1       5.851   0.975  -2.932  0.00  0.00     0.117 A 
ATOM     10  N   LIG d   1       4.554   0.713  -2.873  0.00  0.00    -0.240 NA
ATOM     11  H   LIG d   1       3.483  -2.957  -4.095  0.00  0.00     0.062 H 
ATOM     12  H   LIG d   1       5.114  -4.581  -4.902  0.00  0.00     0.062 H 
ATOM     13  H   LIG d   1       7.506  -4.022  -4.995  0.00  0.00     0.062 H 
ATOM     14  H   LIG d   1       8.308  -1.835  -4.284  0.00  0.00     0.064 H 
ATOM     15  H   LIG d   1       6.196   1.949  -2.615  0.00  0.00     0.105 H 
ENDROOT
BRANCH   1  16
ATOM     16  C   LIG d   1       2.590  -0.737  -3.160  0.00  0.00    -0.022 C 
ATOM     17  H   LIG d   1       2.423  -1.814  -3.182  0.00  0.00     0.029 H 
ATOM     18  H   LIG d   1       2.085  -0.273  -4.008  0.00  0.00     0.029 H 
ATOM     19  H   LIG d   1       2.192  -0.327  -2.232  0.00  0.00     0.029 H 
ENDBRANCH   1  16
TORSDOF 1
ENDMDL
MODEL 8
REMARK VINA RESULT:      -4.1      9.052     11.162
REMARK  1 active torsions:
REMARK  status: ('A' for Active; 'I' for Inactive)
REMARK    1  A    between atoms: C_1  and  C_2 
ROOT
ATOM      1  C   LIG d   1      10.196   7.110  -0.601  0.00  0.00     0.049 A 
ATOM      2  C   LIG d   1      10.653   8.289   0.015  0.00  0.00     0.021 A 
ATOM      3  C   LIG d   1      10.432   9.556  -0.543  0.00  0.00    -0.051 A 
ATOM      4  C   LIG d   1      10.898  10.662   0.101  0.00  0.00    -0.061 A 
ATOM      5  C   LIG d   1      11.592  10.553   1.304  0.00  0.00    -0.060 A 
ATOM      6  C   LIG d   1      11.824   9.338   1.873  0.00  0.00    -0.036 A 
ATOM      7  C   LIG d   1      11.359   8.176   1.241  0.00  0.00     0.074 A 
ATOM      8  N   LIG d   1      11.560   6.957   1.757  0.00  0.00    -0.235 NA
ATOM      9  C   LIG d   1      11.110   5.895   1.135  0.00  0.00     0.117 A 
ATOM     10  N   LIG d   1      10.442   5.959  -0.007  0.00  0.00    -0.240 NA
ATOM     11  H   LIG d   1       9.896   9.655  -1.476  0.00  0.00     0.062 H 
ATOM     12  H   LIG d   1      10.728  11.639  -0.330  0.00  0.00     0.062 H 
ATOM     13  H   LIG d   1      11.951  11.447   1.794  0.00  0.00     0.062 H 
ATOM     14  H   LIG d   1      12.363   9.270   2.807  0.00  0.00     0.064 H 
ATOM     15  H   LIG d   1      11.286   4.924   1.576  0.00  0.00     0.105 H 
ENDROOT
BRANCH   1  16
ATOM     16  C   LIG d   1       9.440   7.162  -1.903  0.00  0.00    -0.022 C 
ATOM     17  H   LIG d   1       8.486   7.666  -1.749  0.00  0.00     0.029 H 
ATOM     18  H   LIG d   1       9.261   6.147  -2.260  0.00  0.00     0.029 H 
ATOM     19  H   LIG d   1      10.026   7.709  -2.642  0.00  0.00     0.029 H 
ENDBRANCH   1  16
TORSDOF 1
ENDMDL
MODEL 9
REMARK VINA RESULT:      -3.9      6.251      6.782
REMARK  1 active torsions:
REMARK  status: ('A' for Active; 'I' for Inactive)
REMARK    1  A    between atoms: C_1  and  C_2 
ROOT
ATOM      1  C   LIG d   1       3.287   0.731  -8.134  0.00  0.00     0.049 A 
ATOM      2  C   LIG d   1       2.798  -0.365  -8.868  0.00  0.00     0.021 A 
ATOM      3  C   LIG d   1       1.855  -0.213  -9.895  0.00  0.00    -0.051 A 
ATOM      4  C   LIG d   1       1.419  -1.312 -10.571  0.00  0.00    -0.061 A 
ATOM      5  C   LIG d   1       1.894  -2.583 -10.256  0.00  0.00    -0.060 A 
ATOM      6  C   LIG d   1       2.809  -2.766  -9.265  0.00  0.00    -0.036 A 
ATOM      7  C   LIG d   1       3.283  -1.659  -8.546  0.00  0.00     0.074 A 
ATOM      8  N   LIG d   1       4.182  -1.782  -7.563  0.00  0.00    -0.235 NA
ATOM      9  C   LIG d   1       4.600  -0.721  -6.914  0.00  0.00     0.117 A 
ATOM     10  N   LIG d   1       4.175   0.503  -7.187  0.00  0.00    -0.240 NA
ATOM     11  H   LIG d   1       1.478   0.767 -10.149  0.00  0.00     0.062 H 
ATOM     12  H   LIG d   1       0.692  -1.196 -11.363  0.00  0.00     0.062 H 
ATOM     13  H   LIG d   1       1.531  -3.439 -10.809  0.00  0.00     0.062 H 
ATOM     14  H   LIG d   1       3.168  -3.758  -9.033  0.00  0.00     0.064 H 
ATOM     15  H   LIG d   1       5.326  -0.852  -6.125  0.00  0.00     0.105 H 
ENDROOT
BRANCH   1  16
ATOM     16  C   LIG d   1       2.812   2.131  -8.426  0.00  0.00    -0.022 C 
ATOM     17  H   LIG d   1       2.777   2.704  -7.500  0.00  0.00     0.029 H 
ATOM     18  H   LIG d   1       1.815   2.092  -8.866  0.00  0.00     0.029 H 
ATOM     19  H   LIG d   1       3.498   2.609  -9.125  0.00  0.00     0.029 H 
ENDBRANCH   1  16
TORSDOF 1
ENDMDL
MODEL 10
REMARK VINA RESULT:      -3.9      9.116     10.348
REMARK  1 active torsions:
REMARK  status: ('A' for Active; 'I' for Inactive)
REMARK    1  A    between atoms: C_1  and  C_2 
ROOT
ATOM      1  C   LIG d   1      11.101   6.977   1.179  0.00  0.00     0.049 A 
ATOM      2  C   LIG d   1      10.727   7.259  -0.147  0.00  0.00     0.021 A 
ATOM      3  C   LIG d   1      10.230   6.269  -1.008  0.00  0.00    -0.051 A 
ATOM      4  C   LIG d   1       9.884   6.603  -2.282  0.00  0.00    -0.061 A 
ATOM      5  C   LIG d   1      10.017   7.911  -2.743  0.00  0.00    -0.060 A 
ATOM      6  C   LIG d   1      10.496   8.896  -1.933  0.00  0.00    -0.036 A 
ATOM      7  C   LIG d   1      10.863   8.592  -0.615  0.00  0.00     0.074 A 
ATOM      8  N   LIG d   1      11.339   9.521   0.222  0.00  0.00    -0.235 NA
ATOM      9  C   LIG d   1      11.672   9.196   1.449  0.00  0.00     0.117 A 
ATOM     10  N   LIG d   1      11.555   7.966   1.924  0.00  0.00    -0.240 NA
ATOM     11  H   LIG d   1      10.123   5.251  -0.663  0.00  0.00     0.062 H 
ATOM     12  H   LIG d   1       9.501   5.840  -2.946  0.00  0.00     0.062 H 
ATOM     13  H   LIG d   1       9.735   8.148  -3.759  0.00  0.00     0.062 H 
ATOM     14  H   LIG d   1      10.593   9.905  -2.305  0.00  0.00     0.064 H 
ATOM     15  H   LIG d   1      12.053   9.968   2.102  0.00  0.00     0.105 H 
ENDROOT
BRANCH   1  16
ATOM     16  C   LIG d   1      10.981   5.583   1.736  0.00  0.00    -0.022 C 
ATOM     17  H   LIG d   1      11.824   4.981   1.395  0.00  0.00     0.029 H 
ATOM     18  H   LIG d   1      10.050   5.132   1.391  0.00  0.00     0.029 H 
ATOM     19  H   LIG d   1      10.982   5.625   2.825  0.00  0.00     0.029 H 
ENDBRANCH   1  16
TORSDOF 1
ENDMDL
