MODEL 1
REMARK VINA RESULT:      -7.3      0.000      0.000
REMARK  10 active torsions:
REMARK  status: ('A' for Active; 'I' for Inactive)
REMARK    1  A    between atoms: C_1  and  C_2 
REMARK    2  A    between atoms: C_12  and  C_13 
REMARK    3  A    between atoms: C_13  and  C_14 
REMARK    4  A    between atoms: C_14  and  C_15 
REMARK       I    between atoms: C_15  and  N_17 
REMARK       I    between atoms: N_17  and  CA_18 
REMARK    5  A    between atoms: CA_18  and  CB_20 
REMARK       I    between atoms: CA_18  and  C_24 
REMARK    6  A    between atoms: CB_20  and  CG_21 
REMARK    7  A    between atoms: CG_21  and  SD_22 
REMARK    8  A    between atoms: SD_22  and  CE_23 
REMARK    9  A    between atoms: C_27  and  C_35 
REMARK   10  A    between atoms: C_28  and  C_29 
ROOT
ATOM      1  C   UNK d   0       5.371   0.354  -3.199  0.00  0.00    -0.030 A 
ATOM      2  C   UNK d   0       6.727   0.375  -3.754  0.00  0.00     0.022 A 
ATOM      3  C   UNK d   0       7.500   1.536  -3.709  0.00  0.00    -0.040 A 
ATOM      4  C   UNK d   0       8.778   1.522  -4.244  0.00  0.00     0.029 A 
ATOM      5  C   UNK d   0       9.296   0.350  -4.829  0.00  0.00     0.139 A 
ATOM      6  C   UNK d   0       8.524  -0.802  -4.870  0.00  0.00     0.024 A 
ATOM      7  C   UNK d   0       7.245  -0.800  -4.339  0.00  0.00     0.143 A 
ATOM      8  O   UNK d   0       6.487  -1.918  -4.377  0.00  0.00    -0.422 OA
ATOM      9  C   UNK d   0       5.246  -1.942  -3.869  0.00  0.00     0.341 A 
ATOM     10  O   UNK d   0       4.602  -2.974  -3.927  0.00  0.00    -0.245 OA
ATOM     11  C   UNK d   0       4.666  -0.803  -3.270  0.00  0.00     0.041 A 
ATOM     12  O   UNK d   0      10.544   0.632  -5.259  0.00  0.00    -0.459 OA
ATOM     13  C   UNK d   0      10.873   1.907  -4.993  0.00  0.00     0.111 A 
ATOM     14  C   UNK d   0       9.848   2.531  -4.372  0.00  0.00     0.030 A 
ATOM     15  H   UNK d   0       7.107   2.437  -3.262  0.00  0.00     0.063 H 
ATOM     16  H   UNK d   0       8.919  -1.701  -5.319  0.00  0.00     0.069 H 
ENDROOT
BRANCH  11  17
ATOM     17  C   UNK d   0       3.268  -0.873  -2.712  0.00  0.00    -0.012 C 
ATOM     18  H   UNK d   0       3.150  -1.793  -2.140  0.00  0.00     0.032 H 
ATOM     19  H   UNK d   0       3.094  -0.016  -2.061  0.00  0.00     0.032 H 
BRANCH  17  20
ATOM     20  C   UNK d   0       2.259  -0.854  -3.862  0.00  0.00     0.028 C 
ATOM     21  H   UNK d   0       2.074  -1.873  -4.200  0.00  0.00     0.036 H 
ATOM     22  H   UNK d   0       1.324  -0.411  -3.517  0.00  0.00     0.036 H 
BRANCH  20  23
ATOM     23  C   UNK d   0       2.810  -0.037  -5.002  0.00  0.00     0.214 C 
ATOM     24  O   UNK d   0       2.568   1.149  -5.070  0.00  0.00    -0.276 OA
ATOM     25  N   MET d   1       3.572  -0.625  -5.945  0.00  0.00    -0.307 N 
ATOM     26  CA  MET d   1       4.109   0.169  -7.053  0.00  0.00     0.063 C 
ATOM     27  H   MET d   1       3.766  -1.574  -5.890  0.00  0.00     0.149 HD
ATOM     28  HA  MET d   1       4.352   1.171  -6.698  0.00  0.00     0.056 H 
ATOM     29  C   MET d   1       3.078   0.263  -8.149  0.00  0.00     0.062 C 
ATOM     30  O   MET d   1       2.006  -0.279  -8.017  0.00  0.00    -0.548 OA
ATOM     31  OXT MET d   1       3.351   0.947  -9.271  0.00  0.00    -0.548 OA
BRANCH  26  32
ATOM     32  CB  MET d   1       5.372  -0.501  -7.597  0.00  0.00    -0.020 C 
ATOM     33  HB1 MET d   1       5.683  -1.294  -6.918  0.00  0.00     0.029 H 
ATOM     34  HB2 MET d   1       5.164  -0.924  -8.580  0.00  0.00     0.029 H 
BRANCH  32  35
ATOM     35  CG  MET d   1       6.490   0.537  -7.714  0.00  0.00    -0.005 C 
ATOM     36  HG1 MET d   1       6.132   1.499  -7.345  0.00  0.00     0.038 H 
ATOM     37  HG2 MET d   1       7.346   0.217  -7.120  0.00  0.00     0.038 H 
BRANCH  35  38
ATOM     38  SD  MET d   1       6.984   0.702  -9.451  0.00  0.00    -0.164 SA
BRANCH  38  39
ATOM     39  CE  MET d   1       6.305  -0.782 -10.243  0.00  0.00    -0.018 C 
ATOM     40  HE1 MET d   1       7.083  -1.270 -10.830  0.00  0.00     0.034 H 
ATOM     41  HE2 MET d   1       5.943  -1.469  -9.478  0.00  0.00     0.034 H 
ATOM     42  HE3 MET d   1       5.479  -0.500 -10.896  0.00  0.00     0.034 H 
ENDBRANCH  38  39
ENDBRANCH  35  38
ENDBRANCH  32  35
ENDBRANCH  26  32
ENDBRANCH  20  23
ENDBRANCH  17  20
ENDBRANCH  11  17
BRANCH   1  43
ATOM     43  C   UNK d   0       4.776   1.585  -2.564  0.00  0.00    -0.039 C 
ATOM     44  H   UNK d   0       5.301   1.805  -1.635  0.00  0.00     0.028 H 
ATOM     45  H   UNK d   0       4.875   2.430  -3.246  0.00  0.00     0.028 H 
ATOM     46  H   UNK d   0       3.720   1.410  -2.353  0.00  0.00     0.028 H 
ENDBRANCH   1  43
BRANCH  14  47
ATOM     47  C   UNK d   0       9.807   3.939  -3.910  0.00  0.00    -0.014 A 
ATOM     48  C   UNK d   0       9.359   4.943  -4.767  0.00  0.00    -0.054 A 
ATOM     49  C   UNK d   0       9.322   6.252  -4.333  0.00  0.00    -0.061 A 
ATOM     50  H   UNK d   0       9.042   4.697  -5.770  0.00  0.00     0.062 H 
ATOM     51  C   UNK d   0       9.728   6.569  -3.049  0.00  0.00    -0.062 A 
ATOM     52  H   UNK d   0       8.976   7.031  -4.995  0.00  0.00     0.062 H 
ATOM     53  C   UNK d   0      10.174   5.578  -2.194  0.00  0.00    -0.061 A 
ATOM     54  H   UNK d   0       9.698   7.595  -2.713  0.00  0.00     0.062 H 
ATOM     55  C   UNK d   0      10.210   4.263  -2.615  0.00  0.00    -0.054 A 
ATOM     56  H   UNK d   0      10.490   5.830  -1.193  0.00  0.00     0.062 H 
ATOM     57  H   UNK d   0      10.552   3.489  -1.946  0.00  0.00     0.062 H 
ENDBRANCH  14  47
BRANCH  13  58
ATOM     58  C   UNK d   0      12.192   2.548  -5.339  0.00  0.00    -0.006 C 
ATOM     59  H   UNK d   0      12.730   2.792  -4.423  0.00  0.00     0.031 H 
ATOM     60  H   UNK d   0      12.787   1.857  -5.937  0.00  0.00     0.031 H 
ATOM     61  H   UNK d   0      12.014   3.460  -5.909  0.00  0.00     0.031 H 
ENDBRANCH  13  58
TORSDOF 12
ENDMDL
MODEL 2
REMARK VINA RESULT:      -7.1      3.670      6.795
REMARK  10 active torsions:
REMARK  status: ('A' for Active; 'I' for Inactive)
REMARK    1  A    between atoms: C_1  and  C_2 
REMARK    2  A    between atoms: C_12  and  C_13 
REMARK    3  A    between atoms: C_13  and  C_14 
REMARK    4  A    between atoms: C_14  and  C_15 
REMARK       I    between atoms: C_15  and  N_17 
REMARK       I    between atoms: N_17  and  CA_18 
REMARK    5  A    between atoms: CA_18  and  CB_20 
REMARK       I    between atoms: CA_18  and  C_24 
REMARK    6  A    between atoms: CB_20  and  CG_21 
REMARK    7  A    between atoms: CG_21  and  SD_22 
REMARK    8  A    between atoms: SD_22  and  CE_23 
REMARK    9  A    between atoms: C_27  and  C_35 
REMARK   10  A    between atoms: C_28  and  C_29 
ROOT
ATOM      1  C   UNK d   0      10.034   4.930  -5.245  0.00  0.00    -0.030 A 
ATOM      2  C   UNK d   0       9.983   5.836  -4.094  0.00  0.00     0.022 A 
ATOM      3  C   UNK d   0      10.132   7.213  -4.262  0.00  0.00    -0.040 A 
ATOM      4  C   UNK d   0      10.079   8.042  -3.153  0.00  0.00     0.029 A 
ATOM      5  C   UNK d   0       9.878   7.504  -1.867  0.00  0.00     0.139 A 
ATOM      6  C   UNK d   0       9.730   6.134  -1.707  0.00  0.00     0.024 A 
ATOM      7  C   UNK d   0       9.781   5.296  -2.807  0.00  0.00     0.143 A 
ATOM      8  O   UNK d   0       9.639   3.960  -2.657  0.00  0.00    -0.422 OA
ATOM      9  C   UNK d   0       9.684   3.128  -3.708  0.00  0.00     0.341 A 
ATOM     10  O   UNK d   0       9.551   1.932  -3.522  0.00  0.00    -0.245 OA
ATOM     11  C   UNK d   0       9.883   3.600  -5.022  0.00  0.00     0.041 A 
ATOM     12  O   UNK d   0       9.872   8.535  -0.996  0.00  0.00    -0.459 OA
ATOM     13  C   UNK d   0      10.056   9.706  -1.627  0.00  0.00     0.111 A 
ATOM     14  C   UNK d   0      10.193   9.500  -2.956  0.00  0.00     0.030 A 
ATOM     15  H   UNK d   0      10.287   7.630  -5.247  0.00  0.00     0.063 H 
ATOM     16  H   UNK d   0       9.576   5.720  -0.721  0.00  0.00     0.069 H 
ENDROOT
BRANCH  11  17
ATOM     17  C   UNK d   0       9.929   2.630  -6.175  0.00  0.00    -0.012 C 
ATOM     18  H   UNK d   0      10.596   3.013  -6.946  0.00  0.00     0.032 H 
ATOM     19  H   UNK d   0      10.294   1.665  -5.824  0.00  0.00     0.032 H 
BRANCH  17  20
ATOM     20  C   UNK d   0       8.523   2.462  -6.755  0.00  0.00     0.028 C 
ATOM     21  H   UNK d   0       7.868   3.233  -6.349  0.00  0.00     0.036 H 
ATOM     22  H   UNK d   0       8.564   2.554  -7.840  0.00  0.00     0.036 H 
BRANCH  20  23
ATOM     23  C   UNK d   0       7.986   1.102  -6.387  0.00  0.00     0.214 C 
ATOM     24  O   UNK d   0       8.214   0.148  -7.100  0.00  0.00    -0.276 OA
ATOM     25  N   MET d   1       7.255   0.947  -5.266  0.00  0.00    -0.307 N 
ATOM     26  CA  MET d   1       6.734  -0.375  -4.908  0.00  0.00     0.063 C 
ATOM     27  H   MET d   1       7.073   1.710  -4.695  0.00  0.00     0.149 HD
ATOM     28  HA  MET d   1       7.451  -1.141  -5.205  0.00  0.00     0.056 H 
ATOM     29  C   MET d   1       5.426  -0.610  -5.621  0.00  0.00     0.062 C 
ATOM     30  O   MET d   1       4.977   0.241  -6.353  0.00  0.00    -0.548 OA
ATOM     31  OXT MET d   1       4.762  -1.762  -5.444  0.00  0.00    -0.548 OA
BRANCH  26  32
ATOM     32  CB  MET d   1       6.509  -0.444  -3.397  0.00  0.00    -0.020 C 
ATOM     33  HB1 MET d   1       5.832  -1.266  -3.167  0.00  0.00     0.029 H 
ATOM     34  HB2 MET d   1       7.462  -0.606  -2.895  0.00  0.00     0.029 H 
BRANCH  32  35
ATOM     35  CG  MET d   1       5.895   0.871  -2.912  0.00  0.00    -0.005 C 
ATOM     36  HG1 MET d   1       6.624   1.412  -2.308  0.00  0.00     0.038 H 
ATOM     37  HG2 MET d   1       5.614   1.480  -3.773  0.00  0.00     0.038 H 
BRANCH  35  38
ATOM     38  SD  MET d   1       4.423   0.519  -1.912  0.00  0.00    -0.164 SA
BRANCH  38  39
ATOM     39  CE  MET d   1       4.293  -1.290  -1.945  0.00  0.00    -0.018 C 
ATOM     40  HE1 MET d   1       4.995  -1.692  -2.675  0.00  0.00     0.034 H 
ATOM     41  HE2 MET d   1       4.527  -1.689  -0.958  0.00  0.00     0.034 H 
ATOM     42  HE3 MET d   1       3.278  -1.576  -2.221  0.00  0.00     0.034 H 
ENDBRANCH  38  39
ENDBRANCH  35  38
ENDBRANCH  32  35
ENDBRANCH  26  32
ENDBRANCH  20  23
ENDBRANCH  17  20
ENDBRANCH  11  17
BRANCH   1  43
ATOM     43  C   UNK d   0      10.249   5.462  -6.640  0.00  0.00    -0.039 C 
ATOM     44  H   UNK d   0      10.442   4.632  -7.319  0.00  0.00     0.028 H 
ATOM     45  H   UNK d   0       9.356   5.997  -6.966  0.00  0.00     0.028 H 
ATOM     46  H   UNK d   0      11.101   6.141  -6.642  0.00  0.00     0.028 H 
ENDBRANCH   1  43
BRANCH  14  47
ATOM     47  C   UNK d   0      10.412  10.529  -4.001  0.00  0.00    -0.014 A 
ATOM     48  C   UNK d   0      11.708  10.901  -4.357  0.00  0.00    -0.054 A 
ATOM     49  C   UNK d   0      11.906  11.858  -5.330  0.00  0.00    -0.061 A 
ATOM     50  H   UNK d   0      12.555  10.441  -3.870  0.00  0.00     0.062 H 
ATOM     51  C   UNK d   0      10.821  12.447  -5.955  0.00  0.00    -0.062 A 
ATOM     52  H   UNK d   0      12.909  12.147  -5.606  0.00  0.00     0.062 H 
ATOM     53  C   UNK d   0       9.533  12.083  -5.607  0.00  0.00    -0.061 A 
ATOM     54  H   UNK d   0      10.981  13.197  -6.716  0.00  0.00     0.062 H 
ATOM     55  C   UNK d   0       9.323  11.122  -4.637  0.00  0.00    -0.054 A 
ATOM     56  H   UNK d   0       8.690  12.546  -6.097  0.00  0.00     0.062 H 
ATOM     57  H   UNK d   0       8.317  10.834  -4.370  0.00  0.00     0.062 H 
ENDBRANCH  14  47
BRANCH  13  58
ATOM     58  C   UNK d   0      10.103  11.053  -0.952  0.00  0.00    -0.006 C 
ATOM     59  H   UNK d   0       9.801  10.948   0.089  0.00  0.00     0.031 H 
ATOM     60  H   UNK d   0      11.118  11.447  -0.998  0.00  0.00     0.031 H 
ATOM     61  H   UNK d   0       9.424  11.738  -1.461  0.00  0.00     0.031 H 
ENDBRANCH  13  58
TORSDOF 12
ENDMDL
MODEL 3
REMARK VINA RESULT:      -6.9      4.237      6.731
REMARK  10 active torsions:
REMARK  status: ('A' for Active; 'I' for Inactive)
REMARK    1  A    between atoms: C_1  and  C_2 
REMARK    2  A    between atoms: C_12  and  C_13 
REMARK    3  A    between atoms: C_13  and  C_14 
REMARK    4  A    between atoms: C_14  and  C_15 
REMARK       I    between atoms: C_15  and  N_17 
REMARK       I    between atoms: N_17  and  CA_18 
REMARK    5  A    between atoms: CA_18  and  CB_20 
REMARK       I    between atoms: CA_18  and  C_24 
REMARK    6  A    between atoms: CB_20  and  CG_21 
REMARK    7  A    between atoms: CG_21  and  SD_22 
REMARK    8  A    between atoms: SD_22  and  CE_23 
REMARK    9  A    between atoms: C_27  and  C_35 
REMARK   10  A    between atoms: C_28  and  C_29 
ROOT
ATOM      1  C   UNK d   0       3.631  -0.907  -9.126  0.00  0.00    -0.030 A 
ATOM      2  C   UNK d   0       4.717  -1.522  -8.358  0.00  0.00     0.022 A 
ATOM      3  C   UNK d   0       4.852  -1.281  -6.990  0.00  0.00    -0.040 A 
ATOM      4  C   UNK d   0       5.891  -1.878  -6.294  0.00  0.00     0.029 A 
ATOM      5  C   UNK d   0       6.804  -2.720  -6.957  0.00  0.00     0.139 A 
ATOM      6  C   UNK d   0       6.664  -2.958  -8.316  0.00  0.00     0.024 A 
ATOM      7  C   UNK d   0       5.630  -2.366  -9.022  0.00  0.00     0.143 A 
ATOM      8  O   UNK d   0       5.491  -2.593 -10.348  0.00  0.00    -0.422 OA
ATOM      9  C   UNK d   0       4.497  -2.032 -11.054  0.00  0.00     0.341 A 
ATOM     10  O   UNK d   0       4.412  -2.266 -12.246  0.00  0.00    -0.245 OA
ATOM     11  C   UNK d   0       3.549  -1.177 -10.453  0.00  0.00     0.041 A 
ATOM     12  O   UNK d   0       7.693  -3.151  -6.038  0.00  0.00    -0.459 OA
ATOM     13  C   UNK d   0       7.421  -2.646  -4.823  0.00  0.00     0.111 A 
ATOM     14  C   UNK d   0       6.330  -1.851  -4.886  0.00  0.00     0.030 A 
ATOM     15  H   UNK d   0       4.153  -0.634  -6.479  0.00  0.00     0.063 H 
ATOM     16  H   UNK d   0       7.365  -3.603  -8.826  0.00  0.00     0.069 H 
ENDROOT
BRANCH  11  17
ATOM     17  C   UNK d   0       2.449  -0.568 -11.283  0.00  0.00    -0.012 C 
ATOM     18  H   UNK d   0       2.442   0.513 -11.141  0.00  0.00     0.032 H 
ATOM     19  H   UNK d   0       2.619  -0.795 -12.335  0.00  0.00     0.032 H 
BRANCH  17  20
ATOM     20  C   UNK d   0       1.101  -1.147 -10.847  0.00  0.00     0.028 C 
ATOM     21  H   UNK d   0       1.008  -1.076  -9.763  0.00  0.00     0.036 H 
ATOM     22  H   UNK d   0       0.295  -0.584 -11.318  0.00  0.00     0.036 H 
BRANCH  20  23
ATOM     23  C   UNK d   0       1.015  -2.592 -11.266  0.00  0.00     0.214 C 
ATOM     24  O   UNK d   0       0.758  -2.875 -12.416  0.00  0.00    -0.276 OA
ATOM     25  N   MET d   1       1.226  -3.569 -10.362  0.00  0.00    -0.307 N 
ATOM     26  CA  MET d   1       1.143  -4.974 -10.769  0.00  0.00     0.063 C 
ATOM     27  H   MET d   1       1.432  -3.342  -9.441  0.00  0.00     0.149 HD
ATOM     28  HA  MET d   1       1.518  -5.080 -11.788  0.00  0.00     0.056 H 
ATOM     29  C   MET d   1      -0.293  -5.429 -10.713  0.00  0.00     0.062 C 
ATOM     30  O   MET d   1      -1.158  -4.659 -10.369  0.00  0.00    -0.548 OA
ATOM     31  OXT MET d   1      -0.610  -6.690 -11.046  0.00  0.00    -0.548 OA
BRANCH  26  32
ATOM     32  CB  MET d   1       1.986  -5.830  -9.823  0.00  0.00    -0.020 C 
ATOM     33  HB1 MET d   1       1.366  -6.179  -8.998  0.00  0.00     0.029 H 
ATOM     34  HB2 MET d   1       2.385  -6.687 -10.366  0.00  0.00     0.029 H 
BRANCH  32  35
ATOM     35  CG  MET d   1       3.142  -4.993  -9.271  0.00  0.00    -0.005 C 
ATOM     36  HG1 MET d   1       3.787  -4.678 -10.092  0.00  0.00     0.038 H 
ATOM     37  HG2 MET d   1       2.743  -4.113  -8.764  0.00  0.00     0.038 H 
BRANCH  35  38
ATOM     38  SD  MET d   1       4.101  -5.986  -8.095  0.00  0.00    -0.164 SA
BRANCH  38  39
ATOM     39  CE  MET d   1       3.976  -5.066  -6.538  0.00  0.00    -0.018 C 
ATOM     40  HE1 MET d   1       4.691  -4.243  -6.543  0.00  0.00     0.034 H 
ATOM     41  HE2 MET d   1       2.967  -4.669  -6.431  0.00  0.00     0.034 H 
ATOM     42  HE3 MET d   1       4.194  -5.732  -5.703  0.00  0.00     0.034 H 
ENDBRANCH  38  39
ENDBRANCH  35  38
ENDBRANCH  32  35
ENDBRANCH  26  32
ENDBRANCH  20  23
ENDBRANCH  17  20
ENDBRANCH  11  17
BRANCH   1  43
ATOM     43  C   UNK d   0       2.630   0.003  -8.458  0.00  0.00    -0.039 C 
ATOM     44  H   UNK d   0       2.796  -0.003  -7.382  0.00  0.00     0.028 H 
ATOM     45  H   UNK d   0       2.751   1.018  -8.839  0.00  0.00     0.028 H 
ATOM     46  H   UNK d   0       1.621  -0.348  -8.674  0.00  0.00     0.028 H 
ENDBRANCH   1  43
BRANCH  14  47
ATOM     47  C   UNK d   0       5.702  -1.107  -3.768  0.00  0.00    -0.014 A 
ATOM     48  C   UNK d   0       5.947   0.257  -3.610  0.00  0.00    -0.054 A 
ATOM     49  C   UNK d   0       5.360   0.945  -2.569  0.00  0.00    -0.061 A 
ATOM     50  H   UNK d   0       6.596   0.773  -4.302  0.00  0.00     0.062 H 
ATOM     51  C   UNK d   0       4.528   0.285  -1.682  0.00  0.00    -0.062 A 
ATOM     52  H   UNK d   0       5.549   2.001  -2.445  0.00  0.00     0.062 H 
ATOM     53  C   UNK d   0       4.281  -1.068  -1.833  0.00  0.00    -0.061 A 
ATOM     54  H   UNK d   0       4.071   0.828  -0.868  0.00  0.00     0.062 H 
ATOM     55  C   UNK d   0       4.859  -1.766  -2.875  0.00  0.00    -0.054 A 
ATOM     56  H   UNK d   0       3.631  -1.578  -1.138  0.00  0.00     0.062 H 
ATOM     57  H   UNK d   0       4.661  -2.820  -2.995  0.00  0.00     0.062 H 
ENDBRANCH  14  47
BRANCH  13  58
ATOM     58  C   UNK d   0       8.217  -2.924  -3.574  0.00  0.00    -0.006 C 
ATOM     59  H   UNK d   0       8.051  -2.126  -2.852  0.00  0.00     0.031 H 
ATOM     60  H   UNK d   0       7.900  -3.875  -3.146  0.00  0.00     0.031 H 
ATOM     61  H   UNK d   0       9.277  -2.974  -3.823  0.00  0.00     0.031 H 
ENDBRANCH  13  58
TORSDOF 12
ENDMDL
MODEL 4
REMARK VINA RESULT:      -6.9      6.389      9.168
REMARK  10 active torsions:
REMARK  status: ('A' for Active; 'I' for Inactive)
REMARK    1  A    between atoms: C_1  and  C_2 
REMARK    2  A    between atoms: C_12  and  C_13 
REMARK    3  A    between atoms: C_13  and  C_14 
REMARK    4  A    between atoms: C_14  and  C_15 
REMARK       I    between atoms: C_15  and  N_17 
REMARK       I    between atoms: N_17  and  CA_18 
REMARK    5  A    between atoms: CA_18  and  CB_20 
REMARK       I    between atoms: CA_18  and  C_24 
REMARK    6  A    between atoms: CB_20  and  CG_21 
REMARK    7  A    between atoms: CG_21  and  SD_22 
REMARK    8  A    between atoms: SD_22  and  CE_23 
REMARK    9  A    between atoms: C_27  and  C_35 
REMARK   10  A    between atoms: C_28  and  C_29 
ROOT
ATOM      1  C   UNK d   0       9.493  -4.938  -3.289  0.00  0.00    -0.030 A 
ATOM      2  C   UNK d   0       8.546  -4.423  -4.282  0.00  0.00     0.022 A 
ATOM      3  C   UNK d   0       7.680  -3.375  -3.966  0.00  0.00    -0.040 A 
ATOM      4  C   UNK d   0       6.796  -2.912  -4.928  0.00  0.00     0.029 A 
ATOM      5  C   UNK d   0       6.770  -3.489  -6.212  0.00  0.00     0.139 A 
ATOM      6  C   UNK d   0       7.635  -4.529  -6.520  0.00  0.00     0.024 A 
ATOM      7  C   UNK d   0       8.522  -5.000  -5.568  0.00  0.00     0.143 A 
ATOM      8  O   UNK d   0       9.365  -6.015  -5.862  0.00  0.00    -0.422 OA
ATOM      9  C   UNK d   0      10.234  -6.489  -4.956  0.00  0.00     0.341 A 
ATOM     10  O   UNK d   0      10.975  -7.404  -5.268  0.00  0.00    -0.245 OA
ATOM     11  C   UNK d   0      10.312  -5.958  -3.651  0.00  0.00     0.041 A 
ATOM     12  O   UNK d   0       5.823  -2.842  -6.924  0.00  0.00    -0.459 OA
ATOM     13  C   UNK d   0       5.232  -1.884  -6.191  0.00  0.00     0.111 A 
ATOM     14  C   UNK d   0       5.766  -1.855  -4.950  0.00  0.00     0.030 A 
ATOM     15  H   UNK d   0       7.697  -2.930  -2.982  0.00  0.00     0.063 H 
ATOM     16  H   UNK d   0       7.615  -4.973  -7.505  0.00  0.00     0.069 H 
ENDROOT
BRANCH  11  17
ATOM     17  C   UNK d   0      11.302  -6.521  -2.664  0.00  0.00    -0.012 C 
ATOM     18  H   UNK d   0      11.916  -7.275  -3.155  0.00  0.00     0.032 H 
ATOM     19  H   UNK d   0      11.939  -5.719  -2.292  0.00  0.00     0.032 H 
BRANCH  17  20
ATOM     20  C   UNK d   0      10.549  -7.158  -1.495  0.00  0.00     0.028 C 
ATOM     21  H   UNK d   0      11.257  -7.434  -0.713  0.00  0.00     0.036 H 
ATOM     22  H   UNK d   0       9.827  -6.445  -1.095  0.00  0.00     0.036 H 
BRANCH  20  23
ATOM     23  C   UNK d   0       9.825  -8.390  -1.974  0.00  0.00     0.214 C 
ATOM     24  O   UNK d   0      10.425  -9.243  -2.591  0.00  0.00    -0.276 OA
ATOM     25  N   MET d   1       8.511  -8.543  -1.715  0.00  0.00    -0.307 N 
ATOM     26  CA  MET d   1       7.808  -9.741  -2.181  0.00  0.00     0.063 C 
ATOM     27  H   MET d   1       8.031  -7.860  -1.221  0.00  0.00     0.149 HD
ATOM     28  HA  MET d   1       8.479 -10.599  -2.133  0.00  0.00     0.056 H 
ATOM     29  C   MET d   1       7.357  -9.537  -3.605  0.00  0.00     0.062 C 
ATOM     30  O   MET d   1       7.598  -8.497  -4.172  0.00  0.00    -0.548 OA
ATOM     31  OXT MET d   1       6.687 -10.509  -4.242  0.00  0.00    -0.548 OA
BRANCH  26  32
ATOM     32  CB  MET d   1       6.589  -9.996  -1.292  0.00  0.00    -0.020 C 
ATOM     33  HB1 MET d   1       6.635  -9.345  -0.419  0.00  0.00     0.029 H 
ATOM     34  HB2 MET d   1       5.679  -9.787  -1.854  0.00  0.00     0.029 H 
BRANCH  32  35
ATOM     35  CG  MET d   1       6.586 -11.457  -0.838  0.00  0.00    -0.005 C 
ATOM     36  HG1 MET d   1       6.147 -11.527   0.157  0.00  0.00     0.038 H 
ATOM     37  HG2 MET d   1       5.997 -12.053  -1.537  0.00  0.00     0.038 H 
BRANCH  35  38
ATOM     38  SD  MET d   1       8.288 -12.081  -0.794  0.00  0.00    -0.164 SA
BRANCH  38  39
ATOM     39  CE  MET d   1       8.122 -13.840  -1.202  0.00  0.00    -0.018 C 
ATOM     40  HE1 MET d   1       7.486 -13.951  -2.080  0.00  0.00     0.034 H 
ATOM     41  HE2 MET d   1       9.106 -14.259  -1.412  0.00  0.00     0.034 H 
ATOM     42  HE3 MET d   1       7.675 -14.368  -0.360  0.00  0.00     0.034 H 
ENDBRANCH  38  39
ENDBRANCH  35  38
ENDBRANCH  32  35
ENDBRANCH  26  32
ENDBRANCH  20  23
ENDBRANCH  17  20
ENDBRANCH  11  17
BRANCH   1  43
ATOM     43  C   UNK d   0       9.556  -4.352  -1.901  0.00  0.00    -0.039 C 
ATOM     44  H   UNK d   0       8.651  -3.776  -1.709  0.00  0.00     0.028 H 
ATOM     45  H   UNK d   0       9.636  -5.156  -1.170  0.00  0.00     0.028 H 
ATOM     46  H   UNK d   0      10.426  -3.700  -1.821  0.00  0.00     0.028 H 
ENDBRANCH   1  43
BRANCH  14  47
ATOM     47  C   UNK d   0       5.395  -0.946  -3.839  0.00  0.00    -0.014 A 
ATOM     48  C   UNK d   0       5.895   0.354  -3.802  0.00  0.00    -0.054 A 
ATOM     49  C   UNK d   0       5.546   1.197  -2.767  0.00  0.00    -0.061 A 
ATOM     50  H   UNK d   0       6.556   0.702  -4.582  0.00  0.00     0.062 H 
ATOM     51  C   UNK d   0       4.699   0.753  -1.767  0.00  0.00    -0.062 A 
ATOM     52  H   UNK d   0       5.933   2.204  -2.737  0.00  0.00     0.062 H 
ATOM     53  C   UNK d   0       4.199  -0.536  -1.798  0.00  0.00    -0.061 A 
ATOM     54  H   UNK d   0       4.428   1.416  -0.958  0.00  0.00     0.062 H 
ATOM     55  C   UNK d   0       4.537  -1.386  -2.832  0.00  0.00    -0.054 A 
ATOM     56  H   UNK d   0       3.538  -0.878  -1.015  0.00  0.00     0.062 H 
ATOM     57  H   UNK d   0       4.142  -2.391  -2.859  0.00  0.00     0.062 H 
ENDBRANCH  14  47
BRANCH  13  58
ATOM     58  C   UNK d   0       4.134  -0.976  -6.681  0.00  0.00    -0.006 C 
ATOM     59  H   UNK d   0       4.572  -0.107  -7.171  0.00  0.00     0.031 H 
ATOM     60  H   UNK d   0       3.507  -1.515  -7.391  0.00  0.00     0.031 H 
ATOM     61  H   UNK d   0       3.529  -0.650  -5.835  0.00  0.00     0.031 H 
ENDBRANCH  13  58
TORSDOF 12
ENDMDL
MODEL 5
REMARK VINA RESULT:      -6.8      7.358     10.348
REMARK  10 active torsions:
REMARK  status: ('A' for Active; 'I' for Inactive)
REMARK    1  A    between atoms: C_1  and  C_2 
REMARK    2  A    between atoms: C_12  and  C_13 
REMARK    3  A    between atoms: C_13  and  C_14 
REMARK    4  A    between atoms: C_14  and  C_15 
REMARK       I    between atoms: C_15  and  N_17 
REMARK       I    between atoms: N_17  and  CA_18 
REMARK    5  A    between atoms: CA_18  and  CB_20 
REMARK       I    between atoms: CA_18  and  C_24 
REMARK    6  A    between atoms: CB_20  and  CG_21 
REMARK    7  A    between atoms: CG_21  and  SD_22 
REMARK    8  A    between atoms: SD_22  and  CE_23 
REMARK    9  A    between atoms: C_27  and  C_35 
REMARK   10  A    between atoms: C_28  and  C_29 
ROOT
ATOM      1  C   UNK d   0       9.244  -4.621  -3.260  0.00  0.00    -0.030 A 
ATOM      2  C   UNK d   0       8.368  -4.082  -4.304  0.00  0.00     0.022 A 
ATOM      3  C   UNK d   0       7.467  -3.054  -4.020  0.00  0.00    -0.040 A 
ATOM      4  C   UNK d   0       6.653  -2.567  -5.030  0.00  0.00     0.029 A 
ATOM      5  C   UNK d   0       6.730  -3.100  -6.331  0.00  0.00     0.139 A 
ATOM      6  C   UNK d   0       7.628  -4.121  -6.607  0.00  0.00     0.024 A 
ATOM      7  C   UNK d   0       8.447  -4.616  -5.606  0.00  0.00     0.143 A 
ATOM      8  O   UNK d   0       9.322  -5.611  -5.870  0.00  0.00    -0.422 OA
ATOM      9  C   UNK d   0      10.127  -6.108  -4.917  0.00  0.00     0.341 A 
ATOM     10  O   UNK d   0      10.900  -7.004  -5.203  0.00  0.00    -0.245 OA
ATOM     11  C   UNK d   0      10.100  -5.620  -3.594  0.00  0.00     0.041 A 
ATOM     12  O   UNK d   0       5.831  -2.439  -7.090  0.00  0.00    -0.459 OA
ATOM     13  C   UNK d   0       5.175  -1.513  -6.372  0.00  0.00     0.111 A 
ATOM     14  C   UNK d   0       5.615  -1.520  -5.094  0.00  0.00     0.030 A 
ATOM     15  H   UNK d   0       7.405  -2.642  -3.023  0.00  0.00     0.063 H 
ATOM     16  H   UNK d   0       7.688  -4.531  -7.604  0.00  0.00     0.069 H 
ENDROOT
BRANCH  11  17
ATOM     17  C   UNK d   0      11.020  -6.206  -2.554  0.00  0.00    -0.012 C 
ATOM     18  H   UNK d   0      11.849  -6.714  -3.047  0.00  0.00     0.032 H 
ATOM     19  H   UNK d   0      11.408  -5.408  -1.920  0.00  0.00     0.032 H 
BRANCH  17  20
ATOM     20  C   UNK d   0      10.246  -7.208  -1.695  0.00  0.00     0.028 C 
ATOM     21  H   UNK d   0       9.462  -6.686  -1.146  0.00  0.00     0.036 H 
ATOM     22  H   UNK d   0       9.797  -7.966  -2.337  0.00  0.00     0.036 H 
BRANCH  20  23
ATOM     23  C   UNK d   0      11.187  -7.869  -0.721  0.00  0.00     0.214 C 
ATOM     24  O   UNK d   0      12.371  -7.934  -0.973  0.00  0.00    -0.276 OA
ATOM     25  N   MET d   1      10.713  -8.387   0.430  0.00  0.00    -0.307 N 
ATOM     26  CA  MET d   1      11.628  -9.029   1.376  0.00  0.00     0.063 C 
ATOM     27  H   MET d   1       9.765  -8.334   0.631  0.00  0.00     0.149 HD
ATOM     28  HA  MET d   1      12.587  -8.509   1.363  0.00  0.00     0.056 H 
ATOM     29  C   MET d   1      11.832 -10.469   0.980  0.00  0.00     0.062 C 
ATOM     30  O   MET d   1      11.270 -10.912   0.007  0.00  0.00    -0.548 OA
ATOM     31  OXT MET d   1      12.637 -11.257   1.708  0.00  0.00    -0.548 OA
BRANCH  26  32
ATOM     32  CB  MET d   1      11.033  -8.966   2.784  0.00  0.00    -0.020 C 
ATOM     33  HB1 MET d   1      10.074  -8.450   2.750  0.00  0.00     0.029 H 
ATOM     34  HB2 MET d   1      10.889  -9.978   3.162  0.00  0.00     0.029 H 
BRANCH  32  35
ATOM     35  CG  MET d   1      11.988  -8.207   3.708  0.00  0.00    -0.005 C 
ATOM     36  HG1 MET d   1      11.516  -7.280   4.035  0.00  0.00     0.038 H 
ATOM     37  HG2 MET d   1      12.218  -8.823   4.578  0.00  0.00     0.038 H 
BRANCH  35  38
ATOM     38  SD  MET d   1      13.518  -7.824   2.814  0.00  0.00    -0.164 SA
BRANCH  38  39
ATOM     39  CE  MET d   1      14.716  -9.023   3.460  0.00  0.00    -0.018 C 
ATOM     40  HE1 MET d   1      15.659  -8.920   2.924  0.00  0.00     0.034 H 
ATOM     41  HE2 MET d   1      14.880  -8.838   4.521  0.00  0.00     0.034 H 
ATOM     42  HE3 MET d   1      14.329 -10.033   3.323  0.00  0.00     0.034 H 
ENDBRANCH  38  39
ENDBRANCH  35  38
ENDBRANCH  32  35
ENDBRANCH  26  32
ENDBRANCH  20  23
ENDBRANCH  17  20
ENDBRANCH  11  17
BRANCH   1  43
ATOM     43  C   UNK d   0       9.195  -4.081  -1.853  0.00  0.00    -0.039 C 
ATOM     44  H   UNK d   0       8.159  -4.027  -1.521  0.00  0.00     0.028 H 
ATOM     45  H   UNK d   0       9.755  -4.742  -1.191  0.00  0.00     0.028 H 
ATOM     46  H   UNK d   0       9.639  -3.085  -1.831  0.00  0.00     0.028 H 
ENDBRANCH   1  43
BRANCH  14  47
ATOM     47  C   UNK d   0       5.150  -0.653  -3.985  0.00  0.00    -0.014 A 
ATOM     48  C   UNK d   0       5.891   0.468  -3.615  0.00  0.00    -0.054 A 
ATOM     49  C   UNK d   0       5.454   1.272  -2.583  0.00  0.00    -0.061 A 
ATOM     50  H   UNK d   0       6.807   0.706  -4.136  0.00  0.00     0.062 H 
ATOM     51  C   UNK d   0       4.281   0.968  -1.916  0.00  0.00    -0.062 A 
ATOM     52  H   UNK d   0       6.028   2.140  -2.296  0.00  0.00     0.062 H 
ATOM     53  C   UNK d   0       3.540  -0.142  -2.278  0.00  0.00    -0.061 A 
ATOM     54  H   UNK d   0       3.942   1.601  -1.108  0.00  0.00     0.062 H 
ATOM     55  C   UNK d   0       3.965  -0.951  -3.313  0.00  0.00    -0.054 A 
ATOM     56  H   UNK d   0       2.625  -0.375  -1.754  0.00  0.00     0.062 H 
ATOM     57  H   UNK d   0       3.384  -1.815  -3.599  0.00  0.00     0.062 H 
ENDBRANCH  14  47
BRANCH  13  58
ATOM     58  C   UNK d   0       4.106  -0.599  -6.913  0.00  0.00    -0.006 C 
ATOM     59  H   UNK d   0       3.153  -0.835  -6.441  0.00  0.00     0.031 H 
ATOM     60  H   UNK d   0       4.371   0.436  -6.701  0.00  0.00     0.031 H 
ATOM     61  H   UNK d   0       4.021  -0.738  -7.991  0.00  0.00     0.031 H 
ENDBRANCH  13  58
TORSDOF 12
ENDMDL
MODEL 6
REMARK VINA RESULT:      -6.7      4.498     10.080
REMARK  10 active torsions:
REMARK  status: ('A' for Active; 'I' for Inactive)
REMARK    1  A    between atoms: C_1  and  C_2 
REMARK    2  A    between atoms: C_12  and  C_13 
REMARK    3  A    between atoms: C_13  and  C_14 
REMARK    4  A    between atoms: C_14  and  C_15 
REMARK       I    between atoms: C_15  and  N_17 
REMARK       I    between atoms: N_17  and  CA_18 
REMARK    5  A    between atoms: CA_18  and  CB_20 
REMARK       I    between atoms: CA_18  and  C_24 
REMARK    6  A    between atoms: CB_20  and  CG_21 
REMARK    7  A    between atoms: CG_21  and  SD_22 
REMARK    8  A    between atoms: SD_22  and  CE_23 
REMARK    9  A    between atoms: C_27  and  C_35 
REMARK   10  A    between atoms: C_28  and  C_29 
ROOT
ATOM      1  C   UNK d   0       3.934  -2.922  -8.100  0.00  0.00    -0.030 A 
ATOM      2  C   UNK d   0       3.023  -2.382  -9.114  0.00  0.00     0.022 A 
ATOM      3  C   UNK d   0       2.405  -3.223 -10.040  0.00  0.00    -0.040 A 
ATOM      4  C   UNK d   0       1.550  -2.680 -10.986  0.00  0.00     0.029 A 
ATOM      5  C   UNK d   0       1.305  -1.293 -11.017  0.00  0.00     0.139 A 
ATOM      6  C   UNK d   0       1.922  -0.462 -10.093  0.00  0.00     0.024 A 
ATOM      7  C   UNK d   0       2.778  -0.993  -9.143  0.00  0.00     0.143 A 
ATOM      8  O   UNK d   0       3.384  -0.188  -8.242  0.00  0.00    -0.422 OA
ATOM      9  C   UNK d   0       4.217  -0.678  -7.312  0.00  0.00     0.341 A 
ATOM     10  O   UNK d   0       4.738   0.087  -6.521  0.00  0.00    -0.245 OA
ATOM     11  C   UNK d   0       4.506  -2.056  -7.226  0.00  0.00     0.041 A 
ATOM     12  O   UNK d   0       0.445  -1.059 -12.030  0.00  0.00    -0.459 OA
ATOM     13  C   UNK d   0       0.114  -2.198 -12.660  0.00  0.00     0.111 A 
ATOM     14  C   UNK d   0       0.747  -3.246 -12.087  0.00  0.00     0.030 A 
ATOM     15  H   UNK d   0       2.590  -4.287 -10.020  0.00  0.00     0.063 H 
ATOM     16  H   UNK d   0       1.736   0.602 -10.116  0.00  0.00     0.069 H 
ENDROOT
BRANCH  11  17
ATOM     17  C   UNK d   0       5.449  -2.566  -6.166  0.00  0.00    -0.012 C 
ATOM     18  H   UNK d   0       6.139  -3.285  -6.608  0.00  0.00     0.032 H 
ATOM     19  H   UNK d   0       6.012  -1.731  -5.749  0.00  0.00     0.032 H 
BRANCH  17  20
ATOM     20  C   UNK d   0       4.647  -3.245  -5.054  0.00  0.00     0.028 C 
ATOM     21  H   UNK d   0       3.659  -3.512  -5.430  0.00  0.00     0.036 H 
ATOM     22  H   UNK d   0       5.168  -4.146  -4.729  0.00  0.00     0.036 H 
BRANCH  20  23
ATOM     23  C   UNK d   0       4.503  -2.301  -3.889  0.00  0.00     0.214 C 
ATOM     24  O   UNK d   0       3.904  -2.653  -2.895  0.00  0.00    -0.276 OA
ATOM     25  N   MET d   1       5.039  -1.066  -3.951  0.00  0.00    -0.307 N 
ATOM     26  CA  MET d   1       4.899  -0.149  -2.817  0.00  0.00     0.063 C 
ATOM     27  H   MET d   1       5.518  -0.785  -4.746  0.00  0.00     0.149 HD
ATOM     28  HA  MET d   1       4.932  -0.714  -1.885  0.00  0.00     0.056 H 
ATOM     29  C   MET d   1       3.581   0.576  -2.917  0.00  0.00     0.062 C 
ATOM     30  O   MET d   1       2.835   0.348  -3.841  0.00  0.00    -0.548 OA
ATOM     31  OXT MET d   1       3.235   1.473  -1.981  0.00  0.00    -0.548 OA
BRANCH  26  32
ATOM     32  CB  MET d   1       6.042   0.868  -2.839  0.00  0.00    -0.020 C 
ATOM     33  HB1 MET d   1       5.650   1.848  -3.109  0.00  0.00     0.029 H 
ATOM     34  HB2 MET d   1       6.502   0.918  -1.853  0.00  0.00     0.029 H 
BRANCH  32  35
ATOM     35  CG  MET d   1       7.088   0.437  -3.869  0.00  0.00    -0.005 C 
ATOM     36  HG1 MET d   1       7.658  -0.406  -3.477  0.00  0.00     0.038 H 
ATOM     37  HG2 MET d   1       6.588   0.139  -4.791  0.00  0.00     0.038 H 
BRANCH  35  38
ATOM     38  SD  MET d   1       8.210   1.821  -4.207  0.00  0.00    -0.164 SA
BRANCH  38  39
ATOM     39  CE  MET d   1       8.325   1.861  -6.017  0.00  0.00    -0.018 C 
ATOM     40  HE1 MET d   1       7.478   2.415  -6.423  0.00  0.00     0.034 H 
ATOM     41  HE2 MET d   1       9.253   2.351  -6.311  0.00  0.00     0.034 H 
ATOM     42  HE3 MET d   1       8.313   0.843  -6.405  0.00  0.00     0.034 H 
ENDBRANCH  38  39
ENDBRANCH  35  38
ENDBRANCH  32  35
ENDBRANCH  26  32
ENDBRANCH  20  23
ENDBRANCH  17  20
ENDBRANCH  11  17
BRANCH   1  43
ATOM     43  C   UNK d   0       4.226  -4.399  -8.031  0.00  0.00    -0.039 C 
ATOM     44  H   UNK d   0       4.907  -4.596  -7.204  0.00  0.00     0.028 H 
ATOM     45  H   UNK d   0       3.296  -4.946  -7.873  0.00  0.00     0.028 H 
ATOM     46  H   UNK d   0       4.684  -4.723  -8.966  0.00  0.00     0.028 H 
ENDBRANCH   1  43
BRANCH  14  47
ATOM     47  C   UNK d   0       0.651  -4.671 -12.482  0.00  0.00    -0.014 A 
ATOM     48  C   UNK d   0      -0.328  -5.489 -11.919  0.00  0.00    -0.054 A 
ATOM     49  C   UNK d   0      -0.413  -6.815 -12.291  0.00  0.00    -0.061 A 
ATOM     50  H   UNK d   0      -1.017  -5.086 -11.193  0.00  0.00     0.062 H 
ATOM     51  C   UNK d   0       0.470  -7.333 -13.222  0.00  0.00    -0.062 A 
ATOM     52  H   UNK d   0      -1.170  -7.450 -11.856  0.00  0.00     0.062 H 
ATOM     53  C   UNK d   0       1.443  -6.527 -13.784  0.00  0.00    -0.061 A 
ATOM     54  H   UNK d   0       0.399  -8.372 -13.509  0.00  0.00     0.062 H 
ATOM     55  C   UNK d   0       1.535  -5.198 -13.423  0.00  0.00    -0.054 A 
ATOM     56  H   UNK d   0       2.130  -6.937 -14.509  0.00  0.00     0.062 H 
ATOM     57  H   UNK d   0       2.291  -4.568 -13.866  0.00  0.00     0.062 H 
ENDBRANCH  14  47
BRANCH  13  58
ATOM     58  C   UNK d   0      -0.825  -2.293 -13.835  0.00  0.00    -0.006 C 
ATOM     59  H   UNK d   0      -0.688  -1.427 -14.481  0.00  0.00     0.031 H 
ATOM     60  H   UNK d   0      -0.613  -3.203 -14.396  0.00  0.00     0.031 H 
ATOM     61  H   UNK d   0      -1.854  -2.319 -13.475  0.00  0.00     0.031 H 
ENDBRANCH  13  58
TORSDOF 12
ENDMDL
MODEL 7
REMARK VINA RESULT:      -6.7      3.820      7.422
REMARK  10 active torsions:
REMARK  status: ('A' for Active; 'I' for Inactive)
REMARK    1  A    between atoms: C_1  and  C_2 
REMARK    2  A    between atoms: C_12  and  C_13 
REMARK    3  A    between atoms: C_13  and  C_14 
REMARK    4  A    between atoms: C_14  and  C_15 
REMARK       I    between atoms: C_15  and  N_17 
REMARK       I    between atoms: N_17  and  CA_18 
REMARK    5  A    between atoms: CA_18  and  CB_20 
REMARK       I    between atoms: CA_18  and  C_24 
REMARK    6  A    between atoms: CB_20  and  CG_21 
REMARK    7  A    between atoms: CG_21  and  SD_22 
REMARK    8  A    between atoms: SD_22  and  CE_23 
REMARK    9  A    between atoms: C_27  and  C_35 
REMARK   10  A    between atoms: C_28  and  C_29 
ROOT
ATOM      1  C   UNK d   0       9.905   5.213  -5.563  0.00  0.00    -0.030 A 
ATOM      2  C   UNK d   0       9.806   6.665  -5.731  0.00  0.00     0.022 A 
ATOM      3  C   UNK d   0       9.933   7.522  -4.637  0.00  0.00    -0.040 A 
ATOM      4  C   UNK d   0       9.834   8.890  -4.830  0.00  0.00     0.029 A 
ATOM      5  C   UNK d   0       9.608   9.416  -6.117  0.00  0.00     0.139 A 
ATOM      6  C   UNK d   0       9.484   8.560  -7.201  0.00  0.00     0.024 A 
ATOM      7  C   UNK d   0       9.581   7.191  -7.020  0.00  0.00     0.143 A 
ATOM      8  O   UNK d   0       9.460   6.352  -8.073  0.00  0.00    -0.422 OA
ATOM      9  C   UNK d   0       9.551   5.022  -7.924  0.00  0.00     0.341 A 
ATOM     10  O   UNK d   0       9.435   4.306  -8.902  0.00  0.00    -0.245 OA
ATOM     11  C   UNK d   0       9.775   4.429  -6.663  0.00  0.00     0.041 A 
ATOM     12  O   UNK d   0       9.558  10.759  -5.999  0.00  0.00    -0.459 OA
ATOM     13  C   UNK d   0       9.736  11.143  -4.724  0.00  0.00     0.111 A 
ATOM     14  C   UNK d   0       9.912  10.060  -3.935  0.00  0.00     0.030 A 
ATOM     15  H   UNK d   0      10.105   7.122  -3.648  0.00  0.00     0.063 H 
ATOM     16  H   UNK d   0       9.311   8.962  -8.188  0.00  0.00     0.069 H 
ENDROOT
BRANCH  11  17
ATOM     17  C   UNK d   0       9.869   2.930  -6.539  0.00  0.00    -0.012 C 
ATOM     18  H   UNK d   0      10.386   2.525  -7.409  0.00  0.00     0.032 H 
ATOM     19  H   UNK d   0      10.423   2.674  -5.636  0.00  0.00     0.032 H 
BRANCH  17  20
ATOM     20  C   UNK d   0       8.461   2.335  -6.459  0.00  0.00     0.028 C 
ATOM     21  H   UNK d   0       7.731   3.141  -6.386  0.00  0.00     0.036 H 
ATOM     22  H   UNK d   0       8.265   1.746  -7.354  0.00  0.00     0.036 H 
BRANCH  20  23
ATOM     23  C   UNK d   0       8.357   1.451  -5.243  0.00  0.00     0.214 C 
ATOM     24  O   UNK d   0       9.358   1.139  -4.634  0.00  0.00    -0.276 OA
ATOM     25  N   MET d   1       7.152   1.008  -4.833  0.00  0.00    -0.307 N 
ATOM     26  CA  MET d   1       7.052   0.148  -3.651  0.00  0.00     0.063 C 
ATOM     27  H   MET d   1       6.352   1.258  -5.321  0.00  0.00     0.149 HD
ATOM     28  HA  MET d   1       7.804   0.447  -2.919  0.00  0.00     0.056 H 
ATOM     29  C   MET d   1       7.282  -1.286  -4.051  0.00  0.00     0.062 C 
ATOM     30  O   MET d   1       7.508  -1.562  -5.206  0.00  0.00    -0.548 OA
ATOM     31  OXT MET d   1       7.237  -2.257  -3.126  0.00  0.00    -0.548 OA
BRANCH  26  32
ATOM     32  CB  MET d   1       5.658   0.288  -3.035  0.00  0.00    -0.020 C 
ATOM     33  HB1 MET d   1       5.523  -0.472  -2.266  0.00  0.00     0.029 H 
ATOM     34  HB2 MET d   1       5.554   1.278  -2.592  0.00  0.00     0.029 H 
BRANCH  32  35
ATOM     35  CG  MET d   1       4.599   0.103  -4.124  0.00  0.00    -0.005 C 
ATOM     36  HG1 MET d   1       4.284   1.079  -4.494  0.00  0.00     0.038 H 
ATOM     37  HG2 MET d   1       5.021  -0.477  -4.946  0.00  0.00     0.038 H 
BRANCH  35  38
ATOM     38  SD  MET d   1       3.169  -0.774  -3.435  0.00  0.00    -0.164 SA
BRANCH  38  39
ATOM     39  CE  MET d   1       3.902  -1.992  -2.308  0.00  0.00    -0.018 C 
ATOM     40  HE1 MET d   1       4.194  -2.879  -2.872  0.00  0.00     0.034 H 
ATOM     41  HE2 MET d   1       4.781  -1.561  -1.829  0.00  0.00     0.034 H 
ATOM     42  HE3 MET d   1       3.173  -2.269  -1.547  0.00  0.00     0.034 H 
ENDBRANCH  38  39
ENDBRANCH  35  38
ENDBRANCH  32  35
ENDBRANCH  26  32
ENDBRANCH  20  23
ENDBRANCH  17  20
ENDBRANCH  11  17
BRANCH   1  43
ATOM     43  C   UNK d   0      10.145   4.605  -4.204  0.00  0.00    -0.039 C 
ATOM     44  H   UNK d   0      11.149   4.183  -4.168  0.00  0.00     0.028 H 
ATOM     45  H   UNK d   0      10.047   5.376  -3.439  0.00  0.00     0.028 H 
ATOM     46  H   UNK d   0       9.412   3.819  -4.023  0.00  0.00     0.028 H 
ENDBRANCH   1  43
BRANCH  14  47
ATOM     47  C   UNK d   0      10.140  10.051  -2.470  0.00  0.00    -0.014 A 
ATOM     48  C   UNK d   0       9.056  10.085  -1.593  0.00  0.00    -0.054 A 
ATOM     49  C   UNK d   0       9.273  10.075  -0.231  0.00  0.00    -0.061 A 
ATOM     50  H   UNK d   0       8.048  10.119  -1.980  0.00  0.00     0.062 H 
ATOM     51  C   UNK d   0      10.563  10.031   0.266  0.00  0.00    -0.062 A 
ATOM     52  H   UNK d   0       8.435  10.102   0.449  0.00  0.00     0.062 H 
ATOM     53  C   UNK d   0      11.642   9.998  -0.598  0.00  0.00    -0.061 A 
ATOM     54  H   UNK d   0      10.728  10.024   1.334  0.00  0.00     0.062 H 
ATOM     55  C   UNK d   0      11.438  10.001  -1.963  0.00  0.00    -0.054 A 
ATOM     56  H   UNK d   0      12.648   9.964  -0.205  0.00  0.00     0.062 H 
ATOM     57  H   UNK d   0      12.280   9.970  -2.637  0.00  0.00     0.062 H 
ENDBRANCH  14  47
BRANCH  13  58
ATOM     58  C   UNK d   0       9.738  12.572  -4.245  0.00  0.00    -0.006 C 
ATOM     59  H   UNK d   0      10.762  12.891  -4.058  0.00  0.00     0.031 H 
ATOM     60  H   UNK d   0       9.290  13.211  -5.006  0.00  0.00     0.031 H 
ATOM     61  H   UNK d   0       9.160  12.646  -3.323  0.00  0.00     0.031 H 
ENDBRANCH  13  58
TORSDOF 12
ENDMDL
MODEL 8
REMARK VINA RESULT:      -6.7      6.389      8.988
REMARK  10 active torsions:
REMARK  status: ('A' for Active; 'I' for Inactive)
REMARK    1  A    between atoms: C_1  and  C_2 
REMARK    2  A    between atoms: C_12  and  C_13 
REMARK    3  A    between atoms: C_13  and  C_14 
REMARK    4  A    between atoms: C_14  and  C_15 
REMARK       I    between atoms: C_15  and  N_17 
REMARK       I    between atoms: N_17  and  CA_18 
REMARK    5  A    between atoms: CA_18  and  CB_20 
REMARK       I    between atoms: CA_18  and  C_24 
REMARK    6  A    between atoms: CB_20  and  CG_21 
REMARK    7  A    between atoms: CG_21  and  SD_22 
REMARK    8  A    between atoms: SD_22  and  CE_23 
REMARK    9  A    between atoms: C_27  and  C_35 
REMARK   10  A    between atoms: C_28  and  C_29 
ROOT
ATOM      1  C   UNK d   0       7.123  -6.123  -5.992  0.00  0.00    -0.030 A 
ATOM      2  C   UNK d   0       7.598  -4.767  -5.705  0.00  0.00     0.022 A 
ATOM      3  C   UNK d   0       6.740  -3.808  -5.164  0.00  0.00    -0.040 A 
ATOM      4  C   UNK d   0       7.221  -2.535  -4.904  0.00  0.00     0.029 A 
ATOM      5  C   UNK d   0       8.563  -2.207  -5.182  0.00  0.00     0.139 A 
ATOM      6  C   UNK d   0       9.411  -3.164  -5.719  0.00  0.00     0.024 A 
ATOM      7  C   UNK d   0       8.941  -4.440  -5.983  0.00  0.00     0.143 A 
ATOM      8  O   UNK d   0       9.764  -5.376  -6.508  0.00  0.00    -0.422 OA
ATOM      9  C   UNK d   0       9.333  -6.618  -6.771  0.00  0.00     0.341 A 
ATOM     10  O   UNK d   0      10.111  -7.428  -7.243  0.00  0.00    -0.245 OA
ATOM     11  C   UNK d   0       8.002  -7.013  -6.518  0.00  0.00     0.041 A 
ATOM     12  O   UNK d   0       8.741  -0.916  -4.832  0.00  0.00    -0.459 OA
ATOM     13  C   UNK d   0       7.609  -0.382  -4.345  0.00  0.00     0.111 A 
ATOM     14  C   UNK d   0       6.621  -1.305  -4.353  0.00  0.00     0.030 A 
ATOM     15  H   UNK d   0       5.711  -4.056  -4.949  0.00  0.00     0.063 H 
ATOM     16  H   UNK d   0      10.440  -2.913  -5.934  0.00  0.00     0.069 H 
ENDROOT
BRANCH  11  17
ATOM     17  C   UNK d   0       7.559  -8.419  -6.830  0.00  0.00    -0.012 C 
ATOM     18  H   UNK d   0       6.469  -8.462  -6.849  0.00  0.00     0.032 H 
ATOM     19  H   UNK d   0       7.951  -8.717  -7.802  0.00  0.00     0.032 H 
BRANCH  17  20
ATOM     20  C   UNK d   0       8.086  -9.371  -5.754  0.00  0.00     0.028 C 
ATOM     21  H   UNK d   0       8.848 -10.021  -6.186  0.00  0.00     0.036 H 
ATOM     22  H   UNK d   0       8.522  -8.792  -4.940  0.00  0.00     0.036 H 
BRANCH  20  23
ATOM     23  C   UNK d   0       6.952 -10.209  -5.223  0.00  0.00     0.214 C 
ATOM     24  O   UNK d   0       6.501 -11.113  -5.895  0.00  0.00    -0.276 OA
ATOM     25  N   MET d   1       6.439  -9.955  -4.003  0.00  0.00    -0.307 N 
ATOM     26  CA  MET d   1       5.337 -10.770  -3.487  0.00  0.00     0.063 C 
ATOM     27  H   MET d   1       6.801  -9.232  -3.466  0.00  0.00     0.149 HD
ATOM     28  HA  MET d   1       5.455 -11.799  -3.828  0.00  0.00     0.056 H 
ATOM     29  C   MET d   1       4.027 -10.222  -3.993  0.00  0.00     0.062 C 
ATOM     30  O   MET d   1       4.017  -9.250  -4.711  0.00  0.00    -0.548 OA
ATOM     31  OXT MET d   1       2.873 -10.813  -3.647  0.00  0.00    -0.548 OA
BRANCH  26  32
ATOM     32  CB  MET d   1       5.347 -10.734  -1.958  0.00  0.00    -0.020 C 
ATOM     33  HB1 MET d   1       4.756  -9.888  -1.611  0.00  0.00     0.029 H 
ATOM     34  HB2 MET d   1       4.922 -11.659  -1.570  0.00  0.00     0.029 H 
BRANCH  32  35
ATOM     35  CG  MET d   1       6.787 -10.587  -1.462  0.00  0.00    -0.005 C 
ATOM     36  HG1 MET d   1       7.415 -10.220  -2.273  0.00  0.00     0.038 H 
ATOM     37  HG2 MET d   1       6.815  -9.879  -0.633  0.00  0.00     0.038 H 
BRANCH  35  38
ATOM     38  SD  MET d   1       7.402 -12.199  -0.903  0.00  0.00    -0.164 SA
BRANCH  38  39
ATOM     39  CE  MET d   1       8.112 -12.941  -2.399  0.00  0.00    -0.018 C 
ATOM     40  HE1 MET d   1       9.181 -13.098  -2.254  0.00  0.00     0.034 H 
ATOM     41  HE2 MET d   1       7.627 -13.897  -2.595  0.00  0.00     0.034 H 
ATOM     42  HE3 MET d   1       7.954 -12.273  -3.245  0.00  0.00     0.034 H 
ENDBRANCH  38  39
ENDBRANCH  35  38
ENDBRANCH  32  35
ENDBRANCH  26  32
ENDBRANCH  20  23
ENDBRANCH  17  20
ENDBRANCH  11  17
BRANCH   1  43
ATOM     43  C   UNK d   0       5.695  -6.519  -5.712  0.00  0.00    -0.039 C 
ATOM     44  H   UNK d   0       5.459  -6.309  -4.669  0.00  0.00     0.028 H 
ATOM     45  H   UNK d   0       5.027  -5.949  -6.357  0.00  0.00     0.028 H 
ATOM     46  H   UNK d   0       5.569  -7.584  -5.907  0.00  0.00     0.028 H 
ENDBRANCH   1  43
BRANCH  14  47
ATOM     47  C   UNK d   0       5.223  -1.119  -3.898  0.00  0.00    -0.014 A 
ATOM     48  C   UNK d   0       4.341  -0.340  -4.647  0.00  0.00    -0.054 A 
ATOM     49  C   UNK d   0       3.041  -0.170  -4.220  0.00  0.00    -0.061 A 
ATOM     50  H   UNK d   0       4.677   0.131  -5.559  0.00  0.00     0.062 H 
ATOM     51  C   UNK d   0       2.609  -0.773  -3.052  0.00  0.00    -0.062 A 
ATOM     52  H   UNK d   0       2.357   0.433  -4.799  0.00  0.00     0.062 H 
ATOM     53  C   UNK d   0       3.478  -1.547  -2.305  0.00  0.00    -0.061 A 
ATOM     54  H   UNK d   0       1.590  -0.637  -2.721  0.00  0.00     0.062 H 
ATOM     55  C   UNK d   0       4.781  -1.728  -2.725  0.00  0.00    -0.054 A 
ATOM     56  H   UNK d   0       3.137  -2.015  -1.393  0.00  0.00     0.062 H 
ATOM     57  H   UNK d   0       5.458  -2.337  -2.144  0.00  0.00     0.062 H 
ENDBRANCH  14  47
BRANCH  13  58
ATOM     58  C   UNK d   0       7.462   1.038  -3.863  0.00  0.00    -0.006 C 
ATOM     59  H   UNK d   0       6.642   1.519  -4.394  0.00  0.00     0.031 H 
ATOM     60  H   UNK d   0       7.252   1.038  -2.793  0.00  0.00     0.031 H 
ATOM     61  H   UNK d   0       8.387   1.583  -4.051  0.00  0.00     0.031 H 
ENDBRANCH  13  58
TORSDOF 12
ENDMDL
MODEL 9
REMARK VINA RESULT:      -6.6      4.803      7.423
REMARK  10 active torsions:
REMARK  status: ('A' for Active; 'I' for Inactive)
REMARK    1  A    between atoms: C_1  and  C_2 
REMARK    2  A    between atoms: C_12  and  C_13 
REMARK    3  A    between atoms: C_13  and  C_14 
REMARK    4  A    between atoms: C_14  and  C_15 
REMARK       I    between atoms: C_15  and  N_17 
REMARK       I    between atoms: N_17  and  CA_18 
REMARK    5  A    between atoms: CA_18  and  CB_20 
REMARK       I    between atoms: CA_18  and  C_24 
REMARK    6  A    between atoms: CB_20  and  CG_21 
REMARK    7  A    between atoms: CG_21  and  SD_22 
REMARK    8  A    between atoms: SD_22  and  CE_23 
REMARK    9  A    between atoms: C_27  and  C_35 
REMARK   10  A    between atoms: C_28  and  C_29 
ROOT
ATOM      1  C   UNK d   0       3.669  -0.839  -9.162  0.00  0.00    -0.030 A 
ATOM      2  C   UNK d   0       4.689  -1.526  -8.365  0.00  0.00     0.022 A 
ATOM      3  C   UNK d   0       4.834  -1.255  -7.003  0.00  0.00    -0.040 A 
ATOM      4  C   UNK d   0       5.808  -1.922  -6.278  0.00  0.00     0.029 A 
ATOM      5  C   UNK d   0       6.647  -2.863  -6.905  0.00  0.00     0.139 A 
ATOM      6  C   UNK d   0       6.498  -3.129  -8.258  0.00  0.00     0.024 A 
ATOM      7  C   UNK d   0       5.528  -2.469  -8.993  0.00  0.00     0.143 A 
ATOM      8  O   UNK d   0       5.379  -2.723 -10.313  0.00  0.00    -0.422 OA
ATOM      9  C   UNK d   0       4.447  -2.097 -11.046  0.00  0.00     0.341 A 
ATOM     10  O   UNK d   0       4.351  -2.359 -12.231  0.00  0.00    -0.245 OA
ATOM     11  C   UNK d   0       3.574  -1.143 -10.482  0.00  0.00     0.041 A 
ATOM     12  O   UNK d   0       7.486  -3.343  -5.963  0.00  0.00    -0.459 OA
ATOM     13  C   UNK d   0       7.251  -2.779  -4.767  0.00  0.00     0.111 A 
ATOM     14  C   UNK d   0       6.236  -1.891  -4.866  0.00  0.00     0.030 A 
ATOM     15  H   UNK d   0       4.192  -0.533  -6.519  0.00  0.00     0.063 H 
ATOM     16  H   UNK d   0       7.141  -3.851  -8.740  0.00  0.00     0.069 H 
ENDROOT
BRANCH  11  17
ATOM     17  C   UNK d   0       2.541  -0.462 -11.342  0.00  0.00    -0.012 C 
ATOM     18  H   UNK d   0       2.565   0.612 -11.158  0.00  0.00     0.032 H 
ATOM     19  H   UNK d   0       2.758  -0.656 -12.392  0.00  0.00     0.032 H 
BRANCH  17  20
ATOM     20  C   UNK d   0       1.153  -1.007 -10.999  0.00  0.00     0.028 C 
ATOM     21  H   UNK d   0       1.170  -1.443 -10.000  0.00  0.00     0.036 H 
ATOM     22  H   UNK d   0       0.426  -0.195 -11.028  0.00  0.00     0.036 H 
BRANCH  20  23
ATOM     23  C   UNK d   0       0.766  -2.064 -12.001  0.00  0.00     0.214 C 
ATOM     24  O   UNK d   0       1.174  -1.996 -13.141  0.00  0.00    -0.276 OA
ATOM     25  N   MET d   1      -0.033  -3.085 -11.631  0.00  0.00    -0.307 N 
ATOM     26  CA  MET d   1      -0.409  -4.112 -12.605  0.00  0.00     0.063 C 
ATOM     27  H   MET d   1      -0.359  -3.139 -10.718  0.00  0.00     0.149 HD
ATOM     28  HA  MET d   1       0.424  -4.288 -13.287  0.00  0.00     0.056 H 
ATOM     29  C   MET d   1      -1.609  -3.646 -13.389  0.00  0.00     0.062 C 
ATOM     30  O   MET d   1      -2.100  -2.566 -13.156  0.00  0.00    -0.548 OA
ATOM     31  OXT MET d   1      -2.133  -4.430 -14.343  0.00  0.00    -0.548 OA
BRANCH  26  32
ATOM     32  CB  MET d   1      -0.751  -5.410 -11.872  0.00  0.00    -0.020 C 
ATOM     33  HB1 MET d   1      -1.723  -5.771 -12.207  0.00  0.00     0.029 H 
ATOM     34  HB2 MET d   1       0.010  -6.160 -12.087  0.00  0.00     0.029 H 
BRANCH  32  35
ATOM     35  CG  MET d   1      -0.798  -5.147 -10.365  0.00  0.00    -0.005 C 
ATOM     36  HG1 MET d   1       0.047  -5.640  -9.884  0.00  0.00     0.038 H 
ATOM     37  HG2 MET d   1      -0.744  -4.074 -10.181  0.00  0.00     0.038 H 
BRANCH  35  38
ATOM     38  SD  MET d   1      -2.347  -5.802  -9.685  0.00  0.00    -0.164 SA
BRANCH  38  39
ATOM     39  CE  MET d   1      -3.408  -6.017 -11.140  0.00  0.00    -0.018 C 
ATOM     40  HE1 MET d   1      -3.296  -5.160 -11.802  0.00  0.00     0.034 H 
ATOM     41  HE2 MET d   1      -3.120  -6.925 -11.669  0.00  0.00     0.034 H 
ATOM     42  HE3 MET d   1      -4.448  -6.098 -10.822  0.00  0.00     0.034 H 
ENDBRANCH  38  39
ENDBRANCH  35  38
ENDBRANCH  32  35
ENDBRANCH  26  32
ENDBRANCH  20  23
ENDBRANCH  17  20
ENDBRANCH  11  17
BRANCH   1  43
ATOM     43  C   UNK d   0       2.749   0.177  -8.534  0.00  0.00    -0.039 C 
ATOM     44  H   UNK d   0       2.425   0.890  -9.291  0.00  0.00     0.028 H 
ATOM     45  H   UNK d   0       1.880  -0.330  -8.115  0.00  0.00     0.028 H 
ATOM     46  H   UNK d   0       3.279   0.704  -7.740  0.00  0.00     0.028 H 
ENDBRANCH   1  43
BRANCH  14  47
ATOM     47  C   UNK d   0       5.669  -1.059  -3.778  0.00  0.00    -0.014 A 
ATOM     48  C   UNK d   0       4.811  -1.627  -2.838  0.00  0.00    -0.054 A 
ATOM     49  C   UNK d   0       4.286  -0.850  -1.827  0.00  0.00    -0.061 A 
ATOM     50  H   UNK d   0       4.557  -2.675  -2.901  0.00  0.00     0.062 H 
ATOM     51  C   UNK d   0       4.611   0.493  -1.744  0.00  0.00    -0.062 A 
ATOM     52  H   UNK d   0       3.621  -1.288  -1.098  0.00  0.00     0.062 H 
ATOM     53  C   UNK d   0       5.461   1.063  -2.674  0.00  0.00    -0.061 A 
ATOM     54  H   UNK d   0       4.197   1.098  -0.951  0.00  0.00     0.062 H 
ATOM     55  C   UNK d   0       5.997   0.293  -3.687  0.00  0.00    -0.054 A 
ATOM     56  H   UNK d   0       5.711   2.111  -2.605  0.00  0.00     0.062 H 
ATOM     57  H   UNK d   0       6.665   0.737  -4.409  0.00  0.00     0.062 H 
ENDBRANCH  14  47
BRANCH  13  58
ATOM     58  C   UNK d   0       8.007  -3.089  -3.502  0.00  0.00    -0.006 C 
ATOM     59  H   UNK d   0       8.876  -3.702  -3.738  0.00  0.00     0.031 H 
ATOM     60  H   UNK d   0       8.334  -2.159  -3.037  0.00  0.00     0.031 H 
ATOM     61  H   UNK d   0       7.357  -3.630  -2.814  0.00  0.00     0.031 H 
ENDBRANCH  13  58
TORSDOF 12
ENDMDL
