MODEL 1
REMARK VINA RESULT:      -6.6      0.000      0.000
REMARK  2 active torsions:
REMARK  status: ('A' for Active; 'I' for Inactive)
REMARK    1  A    between atoms: C_4  and  C_7 
REMARK    2  A    between atoms: C_17  and  C_18 
ROOT
ATOM      1  C   LIG d   1       5.595  -1.545  -6.579  0.00  0.00     0.007 A 
ATOM      2  C   LIG d   1       5.593  -1.470  -8.050  0.00  0.00     0.029 A 
ATOM      3  C   LIG d   1       6.545  -2.172  -8.796  0.00  0.00    -0.032 A 
ATOM      4  C   LIG d   1       6.529  -2.091 -10.171  0.00  0.00     0.043 A 
ATOM      5  C   LIG d   1       5.571  -1.321 -10.816  0.00  0.00    -0.021 A 
ATOM      6  C   LIG d   1       4.630  -0.620 -10.091  0.00  0.00     0.085 A 
ATOM      7  C   LIG d   1       4.628  -0.688  -8.700  0.00  0.00     0.158 A 
ATOM      8  O   LIG d   1       3.701  -0.006  -7.994  0.00  0.00    -0.420 OA
ATOM      9  C   LIG d   1       3.657  -0.037  -6.653  0.00  0.00     0.346 A 
ATOM     10  O   LIG d   1       2.801   0.598  -6.066  0.00  0.00    -0.244 OA
ATOM     11  C   LIG d   1       4.623  -0.825  -5.888  0.00  0.00     0.075 A 
ATOM     12 CL   LIG d   1       3.442   0.342 -10.913  0.00  0.00    -0.080 Cl
ATOM     13 CL   LIG d   1       7.708  -2.962 -11.102  0.00  0.00    -0.084 Cl
ATOM     14  H   LIG d   1       7.289  -2.774  -8.297  0.00  0.00     0.064 H 
ATOM     15  H   LIG d   1       5.564  -1.267 -11.895  0.00  0.00     0.065 H 
ENDROOT
BRANCH   1  16
ATOM     16  C   LIG d   1       6.596  -2.359  -5.858  0.00  0.00    -0.016 A 
ATOM     17  C   LIG d   1       7.759  -1.764  -5.364  0.00  0.00    -0.054 A 
ATOM     18  C   LIG d   1       8.689  -2.529  -4.692  0.00  0.00    -0.061 A 
ATOM     19  H   LIG d   1       7.929  -0.707  -5.507  0.00  0.00     0.062 H 
ATOM     20  C   LIG d   1       8.472  -3.883  -4.508  0.00  0.00    -0.062 A 
ATOM     21  H   LIG d   1       9.588  -2.071  -4.309  0.00  0.00     0.062 H 
ATOM     22  C   LIG d   1       7.323  -4.480  -4.996  0.00  0.00    -0.061 A 
ATOM     23  H   LIG d   1       9.204  -4.478  -3.981  0.00  0.00     0.062 H 
ATOM     24  C   LIG d   1       6.382  -3.725  -5.664  0.00  0.00    -0.054 A 
ATOM     25  H   LIG d   1       7.161  -5.537  -4.849  0.00  0.00     0.062 H 
ATOM     26  H   LIG d   1       5.482  -4.191  -6.040  0.00  0.00     0.062 H 
ENDBRANCH   1  16
BRANCH  11  27
ATOM     27  C   LIG d   1       4.569  -0.857  -4.409  0.00  0.00    -0.010 A 
ATOM     28  C   LIG d   1       3.958  -1.925  -3.753  0.00  0.00    -0.054 A 
ATOM     29  C   LIG d   1       3.913  -1.949  -2.374  0.00  0.00    -0.061 A 
ATOM     30  H   LIG d   1       3.523  -2.733  -4.323  0.00  0.00     0.062 H 
ATOM     31  C   LIG d   1       4.469  -0.915  -1.643  0.00  0.00    -0.062 A 
ATOM     32  H   LIG d   1       3.440  -2.776  -1.865  0.00  0.00     0.062 H 
ATOM     33  C   LIG d   1       5.076   0.148  -2.287  0.00  0.00    -0.061 A 
ATOM     34  H   LIG d   1       4.432  -0.939  -0.563  0.00  0.00     0.062 H 
ATOM     35  C   LIG d   1       5.134   0.181  -3.666  0.00  0.00    -0.054 A 
ATOM     36  H   LIG d   1       5.510   0.952  -1.711  0.00  0.00     0.062 H 
ATOM     37  H   LIG d   1       5.612   1.008  -4.167  0.00  0.00     0.062 H 
ENDBRANCH  11  27
TORSDOF 2
ENDMDL
MODEL 2
REMARK VINA RESULT:      -6.6      0.184      1.372
REMARK  2 active torsions:
REMARK  status: ('A' for Active; 'I' for Inactive)
REMARK    1  A    between atoms: C_4  and  C_7 
REMARK    2  A    between atoms: C_17  and  C_18 
ROOT
ATOM      1  C   LIG d   1       5.541  -1.518  -6.576  0.00  0.00     0.007 A 
ATOM      2  C   LIG d   1       5.501  -1.467  -8.047  0.00  0.00     0.029 A 
ATOM      3  C   LIG d   1       6.486  -2.108  -8.804  0.00  0.00    -0.032 A 
ATOM      4  C   LIG d   1       6.435  -2.051 -10.180  0.00  0.00     0.043 A 
ATOM      5  C   LIG d   1       5.408  -1.366 -10.813  0.00  0.00    -0.021 A 
ATOM      6  C   LIG d   1       4.433  -0.724 -10.077  0.00  0.00     0.085 A 
ATOM      7  C   LIG d   1       4.466  -0.769  -8.686  0.00  0.00     0.158 A 
ATOM      8  O   LIG d   1       3.507  -0.146  -7.969  0.00  0.00    -0.420 OA
ATOM      9  C   LIG d   1       3.495  -0.159  -6.628  0.00  0.00     0.346 A 
ATOM     10  O   LIG d   1       2.606   0.421  -6.030  0.00  0.00    -0.244 OA
ATOM     11  C   LIG d   1       4.532  -0.860  -5.873  0.00  0.00     0.075 A 
ATOM     12 CL   LIG d   1       3.159   0.133 -10.887  0.00  0.00    -0.080 Cl
ATOM     13 CL   LIG d   1       7.655  -2.847 -11.124  0.00  0.00    -0.084 Cl
ATOM     14  H   LIG d   1       7.284  -2.646  -8.313  0.00  0.00     0.064 H 
ATOM     15  H   LIG d   1       5.374  -1.330 -11.892  0.00  0.00     0.065 H 
ENDROOT
BRANCH   1  16
ATOM     16  C   LIG d   1       6.615  -2.243  -5.866  0.00  0.00    -0.016 A 
ATOM     17  C   LIG d   1       6.468  -3.602  -5.575  0.00  0.00    -0.054 A 
ATOM     18  C   LIG d   1       7.475  -4.273  -4.912  0.00  0.00    -0.061 A 
ATOM     19  H   LIG d   1       5.570  -4.125  -5.868  0.00  0.00     0.062 H 
ATOM     20  C   LIG d   1       8.626  -3.604  -4.535  0.00  0.00    -0.062 A 
ATOM     21  H   LIG d   1       7.363  -5.323  -4.686  0.00  0.00     0.062 H 
ATOM     22  C   LIG d   1       8.777  -2.258  -4.819  0.00  0.00    -0.061 A 
ATOM     23  H   LIG d   1       9.410  -4.135  -4.016  0.00  0.00     0.062 H 
ATOM     24  C   LIG d   1       7.781  -1.576  -5.488  0.00  0.00    -0.054 A 
ATOM     25  H   LIG d   1       9.678  -1.743  -4.522  0.00  0.00     0.062 H 
ATOM     26  H   LIG d   1       7.902  -0.527  -5.714  0.00  0.00     0.062 H 
ENDBRANCH   1  16
BRANCH  11  27
ATOM     27  C   LIG d   1       4.513  -0.871  -4.393  0.00  0.00    -0.010 A 
ATOM     28  C   LIG d   1       5.092   0.176  -3.677  0.00  0.00    -0.054 A 
ATOM     29  C   LIG d   1       5.070   0.161  -2.297  0.00  0.00    -0.061 A 
ATOM     30  H   LIG d   1       5.557   0.998  -4.201  0.00  0.00     0.062 H 
ATOM     31  C   LIG d   1       4.476  -0.893  -1.625  0.00  0.00    -0.062 A 
ATOM     32  H   LIG d   1       5.518   0.971  -1.742  0.00  0.00     0.062 H 
ATOM     33  C   LIG d   1       3.901  -1.935  -2.329  0.00  0.00    -0.061 A 
ATOM     34  H   LIG d   1       4.461  -0.900  -0.545  0.00  0.00     0.062 H 
ATOM     35  C   LIG d   1       3.910  -1.928  -3.709  0.00  0.00    -0.054 A 
ATOM     36  H   LIG d   1       3.438  -2.754  -1.798  0.00  0.00     0.062 H 
ATOM     37  H   LIG d   1       3.457  -2.740  -4.257  0.00  0.00     0.062 H 
ENDBRANCH  11  27
TORSDOF 2
ENDMDL
MODEL 3
REMARK VINA RESULT:      -6.6      3.345      6.844
REMARK  2 active torsions:
REMARK  status: ('A' for Active; 'I' for Inactive)
REMARK    1  A    between atoms: C_4  and  C_7 
REMARK    2  A    between atoms: C_17  and  C_18 
ROOT
ATOM      1  C   LIG d   1       3.948  -1.497  -8.142  0.00  0.00     0.007 A 
ATOM      2  C   LIG d   1       4.486  -1.967  -6.854  0.00  0.00     0.029 A 
ATOM      3  C   LIG d   1       5.007  -1.056  -5.930  0.00  0.00    -0.032 A 
ATOM      4  C   LIG d   1       5.506  -1.512  -4.730  0.00  0.00     0.043 A 
ATOM      5  C   LIG d   1       5.489  -2.868  -4.435  0.00  0.00    -0.021 A 
ATOM      6  C   LIG d   1       4.982  -3.777  -5.340  0.00  0.00     0.085 A 
ATOM      7  C   LIG d   1       4.473  -3.338  -6.559  0.00  0.00     0.158 A 
ATOM      8  O   LIG d   1       3.972  -4.229  -7.441  0.00  0.00    -0.420 OA
ATOM      9  C   LIG d   1       3.471  -3.858  -8.628  0.00  0.00     0.346 A 
ATOM     10  O   LIG d   1       3.033  -4.704  -9.386  0.00  0.00    -0.244 OA
ATOM     11  C   LIG d   1       3.442  -2.450  -9.024  0.00  0.00     0.075 A 
ATOM     12 CL   LIG d   1       4.973  -5.470  -4.957  0.00  0.00    -0.080 Cl
ATOM     13 CL   LIG d   1       6.153  -0.384  -3.579  0.00  0.00    -0.084 Cl
ATOM     14  H   LIG d   1       5.018  -0.001  -6.156  0.00  0.00     0.064 H 
ATOM     15  H   LIG d   1       5.879  -3.215  -3.489  0.00  0.00     0.065 H 
ENDROOT
BRANCH   1  16
ATOM     16  C   LIG d   1       3.944  -0.061  -8.489  0.00  0.00    -0.016 A 
ATOM     17  C   LIG d   1       5.059   0.514  -9.106  0.00  0.00    -0.054 A 
ATOM     18  C   LIG d   1       5.048   1.856  -9.427  0.00  0.00    -0.061 A 
ATOM     19  H   LIG d   1       5.925  -0.090  -9.331  0.00  0.00     0.062 H 
ATOM     20  C   LIG d   1       3.939   2.631  -9.139  0.00  0.00    -0.062 A 
ATOM     21  H   LIG d   1       5.908   2.301  -9.903  0.00  0.00     0.062 H 
ATOM     22  C   LIG d   1       2.833   2.068  -8.527  0.00  0.00    -0.061 A 
ATOM     23  H   LIG d   1       3.937   3.681  -9.392  0.00  0.00     0.062 H 
ATOM     24  C   LIG d   1       2.827   0.726  -8.207  0.00  0.00    -0.054 A 
ATOM     25  H   LIG d   1       1.970   2.679  -8.306  0.00  0.00     0.062 H 
ATOM     26  H   LIG d   1       1.961   0.287  -7.734  0.00  0.00     0.062 H 
ENDBRANCH   1  16
BRANCH  11  27
ATOM     27  C   LIG d   1       2.887  -2.046 -10.336  0.00  0.00    -0.010 A 
ATOM     28  C   LIG d   1       3.713  -1.990 -11.458  0.00  0.00    -0.054 A 
ATOM     29  C   LIG d   1       3.189  -1.614 -12.678  0.00  0.00    -0.061 A 
ATOM     30  H   LIG d   1       4.759  -2.243 -11.374  0.00  0.00     0.062 H 
ATOM     31  C   LIG d   1       1.848  -1.289 -12.788  0.00  0.00    -0.062 A 
ATOM     32  H   LIG d   1       3.827  -1.571 -13.549  0.00  0.00     0.062 H 
ATOM     33  C   LIG d   1       1.025  -1.342 -11.678  0.00  0.00    -0.061 A 
ATOM     34  H   LIG d   1       1.443  -0.996 -13.745  0.00  0.00     0.062 H 
ATOM     35  C   LIG d   1       1.534  -1.723 -10.454  0.00  0.00    -0.054 A 
ATOM     36  H   LIG d   1      -0.021  -1.088 -11.770  0.00  0.00     0.062 H 
ATOM     37  H   LIG d   1       0.889  -1.768  -9.589  0.00  0.00     0.062 H 
ENDBRANCH  11  27
TORSDOF 2
ENDMDL
MODEL 4
REMARK VINA RESULT:      -6.5      2.860      4.543
REMARK  2 active torsions:
REMARK  status: ('A' for Active; 'I' for Inactive)
REMARK    1  A    between atoms: C_4  and  C_7 
REMARK    2  A    between atoms: C_17  and  C_18 
ROOT
ATOM      1  C   LIG d   1       4.246  -1.763  -6.943  0.00  0.00     0.007 A 
ATOM      2  C   LIG d   1       4.178  -2.984  -7.764  0.00  0.00     0.029 A 
ATOM      3  C   LIG d   1       4.034  -2.898  -9.151  0.00  0.00    -0.032 A 
ATOM      4  C   LIG d   1       3.972  -4.050  -9.904  0.00  0.00     0.043 A 
ATOM      5  C   LIG d   1       4.057  -5.292  -9.291  0.00  0.00    -0.021 A 
ATOM      6  C   LIG d   1       4.193  -5.390  -7.921  0.00  0.00     0.085 A 
ATOM      7  C   LIG d   1       4.258  -4.239  -7.142  0.00  0.00     0.158 A 
ATOM      8  O   LIG d   1       4.399  -4.338  -5.803  0.00  0.00    -0.420 OA
ATOM      9  C   LIG d   1       4.465  -3.260  -5.008  0.00  0.00     0.346 A 
ATOM     10  O   LIG d   1       4.591  -3.407  -3.806  0.00  0.00    -0.244 OA
ATOM     11  C   LIG d   1       4.390  -1.910  -5.565  0.00  0.00     0.075 A 
ATOM     12 CL   LIG d   1       4.292  -6.952  -7.170  0.00  0.00    -0.080 Cl
ATOM     13 CL   LIG d   1       3.795  -3.947 -11.628  0.00  0.00    -0.084 Cl
ATOM     14  H   LIG d   1       3.972  -1.933  -9.632  0.00  0.00     0.064 H 
ATOM     15  H   LIG d   1       4.011  -6.189  -9.890  0.00  0.00     0.065 H 
ENDROOT
BRANCH   1  16
ATOM     16  C   LIG d   1       4.166  -0.423  -7.562  0.00  0.00    -0.016 A 
ATOM     17  C   LIG d   1       2.932   0.220  -7.681  0.00  0.00    -0.054 A 
ATOM     18  C   LIG d   1       2.864   1.471  -8.260  0.00  0.00    -0.061 A 
ATOM     19  H   LIG d   1       2.034  -0.260  -7.322  0.00  0.00     0.062 H 
ATOM     20  C   LIG d   1       4.013   2.087  -8.721  0.00  0.00    -0.062 A 
ATOM     21  H   LIG d   1       1.911   1.969  -8.353  0.00  0.00     0.062 H 
ATOM     22  C   LIG d   1       5.239   1.455  -8.606  0.00  0.00    -0.061 A 
ATOM     23  H   LIG d   1       3.954   3.066  -9.173  0.00  0.00     0.062 H 
ATOM     24  C   LIG d   1       5.323   0.207  -8.024  0.00  0.00    -0.054 A 
ATOM     25  H   LIG d   1       6.132   1.942  -8.969  0.00  0.00     0.062 H 
ATOM     26  H   LIG d   1       6.280  -0.284  -7.931  0.00  0.00     0.062 H 
ENDBRANCH   1  16
BRANCH  11  27
ATOM     27  C   LIG d   1       4.465  -0.724  -4.683  0.00  0.00    -0.010 A 
ATOM     28  C   LIG d   1       3.296  -0.130  -4.207  0.00  0.00    -0.054 A 
ATOM     29  C   LIG d   1       3.372   0.975  -3.384  0.00  0.00    -0.061 A 
ATOM     30  H   LIG d   1       2.333  -0.534  -4.481  0.00  0.00     0.062 H 
ATOM     31  C   LIG d   1       4.605   1.495  -3.033  0.00  0.00    -0.062 A 
ATOM     32  H   LIG d   1       2.468   1.436  -3.015  0.00  0.00     0.062 H 
ATOM     33  C   LIG d   1       5.768   0.911  -3.502  0.00  0.00    -0.061 A 
ATOM     34  H   LIG d   1       4.660   2.360  -2.388  0.00  0.00     0.062 H 
ATOM     35  C   LIG d   1       5.706  -0.198  -4.320  0.00  0.00    -0.054 A 
ATOM     36  H   LIG d   1       6.728   1.321  -3.223  0.00  0.00     0.062 H 
ATOM     37  H   LIG d   1       6.614  -0.656  -4.681  0.00  0.00     0.062 H 
ENDBRANCH  11  27
TORSDOF 2
ENDMDL
MODEL 5
REMARK VINA RESULT:      -6.1      3.240      4.475
REMARK  2 active torsions:
REMARK  status: ('A' for Active; 'I' for Inactive)
REMARK    1  A    between atoms: C_4  and  C_7 
REMARK    2  A    between atoms: C_17  and  C_18 
ROOT
ATOM      1  C   LIG d   1       7.459  -1.112  -5.122  0.00  0.00     0.007 A 
ATOM      2  C   LIG d   1       8.798  -0.696  -5.572  0.00  0.00     0.029 A 
ATOM      3  C   LIG d   1       9.539  -1.509  -6.434  0.00  0.00    -0.032 A 
ATOM      4  C   LIG d   1      10.791  -1.105  -6.845  0.00  0.00     0.043 A 
ATOM      5  C   LIG d   1      11.313   0.105  -6.411  0.00  0.00    -0.021 A 
ATOM      6  C   LIG d   1      10.594   0.914  -5.555  0.00  0.00     0.085 A 
ATOM      7  C   LIG d   1       9.327   0.525  -5.128  0.00  0.00     0.158 A 
ATOM      8  O   LIG d   1       8.623   1.321  -4.296  0.00  0.00    -0.420 OA
ATOM      9  C   LIG d   1       7.400   0.992  -3.854  0.00  0.00     0.346 A 
ATOM     10  O   LIG d   1       6.809   1.747  -3.104  0.00  0.00    -0.244 OA
ATOM     11  C   LIG d   1       6.766  -0.261  -4.262  0.00  0.00     0.075 A 
ATOM     12 CL   LIG d   1      11.265   2.422  -5.018  0.00  0.00    -0.080 Cl
ATOM     13 CL   LIG d   1      11.714  -2.111  -7.918  0.00  0.00    -0.084 Cl
ATOM     14  H   LIG d   1       9.134  -2.449  -6.776  0.00  0.00     0.064 H 
ATOM     15  H   LIG d   1      12.294   0.415  -6.742  0.00  0.00     0.065 H 
ENDROOT
BRANCH   1  16
ATOM     16  C   LIG d   1       6.867  -2.390  -5.568  0.00  0.00    -0.016 A 
ATOM     17  C   LIG d   1       7.120  -3.566  -4.856  0.00  0.00    -0.054 A 
ATOM     18  C   LIG d   1       6.564  -4.755  -5.278  0.00  0.00    -0.061 A 
ATOM     19  H   LIG d   1       7.747  -3.542  -3.978  0.00  0.00     0.062 H 
ATOM     20  C   LIG d   1       5.760  -4.787  -6.403  0.00  0.00    -0.062 A 
ATOM     21  H   LIG d   1       6.758  -5.664  -4.729  0.00  0.00     0.062 H 
ATOM     22  C   LIG d   1       5.507  -3.627  -7.114  0.00  0.00    -0.061 A 
ATOM     23  H   LIG d   1       5.328  -5.722  -6.729  0.00  0.00     0.062 H 
ATOM     24  C   LIG d   1       6.050  -2.428  -6.699  0.00  0.00    -0.054 A 
ATOM     25  H   LIG d   1       4.878  -3.659  -7.991  0.00  0.00     0.062 H 
ATOM     26  H   LIG d   1       5.848  -1.522  -7.252  0.00  0.00     0.062 H 
ENDBRANCH   1  16
BRANCH  11  27
ATOM     27  C   LIG d   1       5.416  -0.619  -3.772  0.00  0.00    -0.010 A 
ATOM     28  C   LIG d   1       4.282  -0.150  -4.436  0.00  0.00    -0.054 A 
ATOM     29  C   LIG d   1       3.027  -0.489  -3.975  0.00  0.00    -0.061 A 
ATOM     30  H   LIG d   1       4.387   0.476  -5.310  0.00  0.00     0.062 H 
ATOM     31  C   LIG d   1       2.891  -1.290  -2.856  0.00  0.00    -0.062 A 
ATOM     32  H   LIG d   1       2.148  -0.126  -4.488  0.00  0.00     0.062 H 
ATOM     33  C   LIG d   1       4.011  -1.758  -2.192  0.00  0.00    -0.061 A 
ATOM     34  H   LIG d   1       1.906  -1.553  -2.499  0.00  0.00     0.062 H 
ATOM     35  C   LIG d   1       5.272  -1.432  -2.647  0.00  0.00    -0.054 A 
ATOM     36  H   LIG d   1       3.899  -2.384  -1.319  0.00  0.00     0.062 H 
ATOM     37  H   LIG d   1       6.146  -1.802  -2.131  0.00  0.00     0.062 H 
ENDBRANCH  11  27
TORSDOF 2
ENDMDL
MODEL 6
REMARK VINA RESULT:      -6.1      3.276      4.174
REMARK  2 active torsions:
REMARK  status: ('A' for Active; 'I' for Inactive)
REMARK    1  A    between atoms: C_4  and  C_7 
REMARK    2  A    between atoms: C_17  and  C_18 
ROOT
ATOM      1  C   LIG d   1       6.359  -0.039  -6.215  0.00  0.00     0.007 A 
ATOM      2  C   LIG d   1       7.406   0.682  -6.958  0.00  0.00     0.029 A 
ATOM      3  C   LIG d   1       7.645   0.393  -8.305  0.00  0.00    -0.032 A 
ATOM      4  C   LIG d   1       8.629   1.077  -8.985  0.00  0.00     0.043 A 
ATOM      5  C   LIG d   1       9.377   2.053  -8.340  0.00  0.00    -0.021 A 
ATOM      6  C   LIG d   1       9.153   2.343  -7.010  0.00  0.00     0.085 A 
ATOM      7  C   LIG d   1       8.164   1.664  -6.304  0.00  0.00     0.158 A 
ATOM      8  O   LIG d   1       7.944   1.955  -5.005  0.00  0.00    -0.420 OA
ATOM      9  C   LIG d   1       7.005   1.329  -4.280  0.00  0.00     0.346 A 
ATOM     10  O   LIG d   1       6.849   1.630  -3.111  0.00  0.00    -0.244 OA
ATOM     11  C   LIG d   1       6.164   0.291  -4.875  0.00  0.00     0.075 A 
ATOM     12 CL   LIG d   1      10.102   3.562  -6.218  0.00  0.00    -0.080 Cl
ATOM     13 CL   LIG d   1       8.929   0.722 -10.658  0.00  0.00    -0.084 Cl
ATOM     14  H   LIG d   1       7.063  -0.362  -8.810  0.00  0.00     0.064 H 
ATOM     15  H   LIG d   1      10.143   2.586  -8.884  0.00  0.00     0.065 H 
ENDROOT
BRANCH   1  16
ATOM     16  C   LIG d   1       5.539  -1.080  -6.870  0.00  0.00    -0.016 A 
ATOM     17  C   LIG d   1       5.939  -2.418  -6.826  0.00  0.00    -0.054 A 
ATOM     18  C   LIG d   1       5.168  -3.384  -7.439  0.00  0.00    -0.061 A 
ATOM     19  H   LIG d   1       6.848  -2.695  -6.314  0.00  0.00     0.062 H 
ATOM     20  C   LIG d   1       4.003  -3.031  -8.096  0.00  0.00    -0.062 A 
ATOM     21  H   LIG d   1       5.476  -4.418  -7.407  0.00  0.00     0.062 H 
ATOM     22  C   LIG d   1       3.602  -1.708  -8.144  0.00  0.00    -0.061 A 
ATOM     23  H   LIG d   1       3.404  -3.792  -8.575  0.00  0.00     0.062 H 
ATOM     24  C   LIG d   1       4.359  -0.732  -7.530  0.00  0.00    -0.054 A 
ATOM     25  H   LIG d   1       2.691  -1.439  -8.659  0.00  0.00     0.062 H 
ATOM     26  H   LIG d   1       4.042   0.300  -7.563  0.00  0.00     0.062 H 
ENDBRANCH   1  16
BRANCH  11  27
ATOM     27  C   LIG d   1       5.129  -0.396  -4.071  0.00  0.00    -0.010 A 
ATOM     28  C   LIG d   1       3.826   0.100  -4.035  0.00  0.00    -0.054 A 
ATOM     29  C   LIG d   1       2.865  -0.546  -3.285  0.00  0.00    -0.061 A 
ATOM     30  H   LIG d   1       3.569   0.988  -4.594  0.00  0.00     0.062 H 
ATOM     31  C   LIG d   1       3.192  -1.683  -2.567  0.00  0.00    -0.062 A 
ATOM     32  H   LIG d   1       1.856  -0.162  -3.256  0.00  0.00     0.062 H 
ATOM     33  C   LIG d   1       4.483  -2.180  -2.599  0.00  0.00    -0.061 A 
ATOM     34  H   LIG d   1       2.437  -2.185  -1.982  0.00  0.00     0.062 H 
ATOM     35  C   LIG d   1       5.451  -1.547  -3.350  0.00  0.00    -0.054 A 
ATOM     36  H   LIG d   1       4.732  -3.068  -2.037  0.00  0.00     0.062 H 
ATOM     37  H   LIG d   1       6.457  -1.939  -3.378  0.00  0.00     0.062 H 
ENDBRANCH  11  27
TORSDOF 2
ENDMDL
MODEL 7
REMARK VINA RESULT:      -6.1      2.784      5.535
REMARK  2 active torsions:
REMARK  status: ('A' for Active; 'I' for Inactive)
REMARK    1  A    between atoms: C_4  and  C_7 
REMARK    2  A    between atoms: C_17  and  C_18 
ROOT
ATOM      1  C   LIG d   1       5.147  -1.561  -7.069  0.00  0.00     0.007 A 
ATOM      2  C   LIG d   1       5.681  -1.590  -5.698  0.00  0.00     0.029 A 
ATOM      3  C   LIG d   1       6.706  -2.477  -5.356  0.00  0.00    -0.032 A 
ATOM      4  C   LIG d   1       7.195  -2.492  -4.067  0.00  0.00     0.043 A 
ATOM      5  C   LIG d   1       6.678  -1.627  -3.113  0.00  0.00    -0.021 A 
ATOM      6  C   LIG d   1       5.663  -0.750  -3.437  0.00  0.00     0.085 A 
ATOM      7  C   LIG d   1       5.154  -0.720  -4.733  0.00  0.00     0.158 A 
ATOM      8  O   LIG d   1       4.165   0.144  -5.048  0.00  0.00    -0.420 OA
ATOM      9  C   LIG d   1       3.641   0.212  -6.280  0.00  0.00     0.346 A 
ATOM     10  O   LIG d   1       2.749   1.009  -6.510  0.00  0.00    -0.244 OA
ATOM     11  C   LIG d   1       4.125  -0.656  -7.353  0.00  0.00     0.075 A 
ATOM     12 CL   LIG d   1       5.024   0.320  -2.229  0.00  0.00    -0.080 Cl
ATOM     13 CL   LIG d   1       8.469  -3.591  -3.639  0.00  0.00    -0.084 Cl
ATOM     14  H   LIG d   1       7.113  -3.148  -6.097  0.00  0.00     0.064 H 
ATOM     15  H   LIG d   1       7.070  -1.643  -2.107  0.00  0.00     0.065 H 
ENDROOT
BRANCH   1  16
ATOM     16  C   LIG d   1       5.677  -2.463  -8.114  0.00  0.00    -0.016 A 
ATOM     17  C   LIG d   1       6.756  -2.060  -8.905  0.00  0.00    -0.054 A 
ATOM     18  C   LIG d   1       7.245  -2.906  -9.878  0.00  0.00    -0.061 A 
ATOM     19  H   LIG d   1       7.205  -1.090  -8.754  0.00  0.00     0.062 H 
ATOM     20  C   LIG d   1       6.671  -4.150 -10.071  0.00  0.00    -0.062 A 
ATOM     21  H   LIG d   1       8.079  -2.597 -10.490  0.00  0.00     0.062 H 
ATOM     22  C   LIG d   1       5.601  -4.554  -9.292  0.00  0.00    -0.061 A 
ATOM     23  H   LIG d   1       7.058  -4.808 -10.835  0.00  0.00     0.062 H 
ATOM     24  C   LIG d   1       5.105  -3.721  -8.311  0.00  0.00    -0.054 A 
ATOM     25  H   LIG d   1       5.157  -5.526  -9.449  0.00  0.00     0.062 H 
ATOM     26  H   LIG d   1       4.273  -4.039  -7.700  0.00  0.00     0.062 H 
ENDBRANCH   1  16
BRANCH  11  27
ATOM     27  C   LIG d   1       3.543  -0.576  -8.711  0.00  0.00    -0.010 A 
ATOM     28  C   LIG d   1       2.434  -1.353  -9.045  0.00  0.00    -0.054 A 
ATOM     29  C   LIG d   1       1.895  -1.273 -10.313  0.00  0.00    -0.061 A 
ATOM     30  H   LIG d   1       1.998  -2.016  -8.313  0.00  0.00     0.062 H 
ATOM     31  C   LIG d   1       2.455  -0.425 -11.252  0.00  0.00    -0.062 A 
ATOM     32  H   LIG d   1       1.037  -1.874 -10.573  0.00  0.00     0.062 H 
ATOM     33  C   LIG d   1       3.555   0.348 -10.928  0.00  0.00    -0.061 A 
ATOM     34  H   LIG d   1       2.029  -0.365 -12.244  0.00  0.00     0.062 H 
ATOM     35  C   LIG d   1       4.099   0.282  -9.662  0.00  0.00    -0.054 A 
ATOM     36  H   LIG d   1       3.987   1.009 -11.665  0.00  0.00     0.062 H 
ATOM     37  H   LIG d   1       4.955   0.889  -9.408  0.00  0.00     0.062 H 
ENDBRANCH  11  27
TORSDOF 2
ENDMDL
MODEL 8
REMARK VINA RESULT:      -6.1      3.310      5.528
REMARK  2 active torsions:
REMARK  status: ('A' for Active; 'I' for Inactive)
REMARK    1  A    between atoms: C_4  and  C_7 
REMARK    2  A    between atoms: C_17  and  C_18 
ROOT
ATOM      1  C   LIG d   1       3.357  -1.662  -8.972  0.00  0.00     0.007 A 
ATOM      2  C   LIG d   1       2.481  -2.461  -9.846  0.00  0.00     0.029 A 
ATOM      3  C   LIG d   1       1.709  -1.841 -10.832  0.00  0.00    -0.032 A 
ATOM      4  C   LIG d   1       0.895  -2.603 -11.641  0.00  0.00     0.043 A 
ATOM      5  C   LIG d   1       0.843  -3.981 -11.483  0.00  0.00    -0.021 A 
ATOM      6  C   LIG d   1       1.597  -4.604 -10.510  0.00  0.00     0.085 A 
ATOM      7  C   LIG d   1       2.426  -3.853  -9.681  0.00  0.00     0.158 A 
ATOM      8  O   LIG d   1       3.167  -4.467  -8.734  0.00  0.00    -0.420 OA
ATOM      9  C   LIG d   1       3.980  -3.789  -7.911  0.00  0.00     0.346 A 
ATOM     10  O   LIG d   1       4.625  -4.392  -7.073  0.00  0.00    -0.244 OA
ATOM     11  C   LIG d   1       4.104  -2.335  -8.006  0.00  0.00     0.075 A 
ATOM     12 CL   LIG d   1       1.516  -6.328 -10.322  0.00  0.00    -0.080 Cl
ATOM     13 CL   LIG d   1      -0.065  -1.837 -12.869  0.00  0.00    -0.084 Cl
ATOM     14  H   LIG d   1       1.750  -0.770 -10.960  0.00  0.00     0.064 H 
ATOM     15  H   LIG d   1       0.205  -4.570 -12.125  0.00  0.00     0.065 H 
ENDROOT
BRANCH   1  16
ATOM     16  C   LIG d   1       3.443  -0.194  -9.115  0.00  0.00    -0.016 A 
ATOM     17  C   LIG d   1       4.277   0.368 -10.085  0.00  0.00    -0.054 A 
ATOM     18  C   LIG d   1       4.352   1.739 -10.213  0.00  0.00    -0.061 A 
ATOM     19  H   LIG d   1       4.860  -0.269 -10.733  0.00  0.00     0.062 H 
ATOM     20  C   LIG d   1       3.605   2.557  -9.384  0.00  0.00    -0.062 A 
ATOM     21  H   LIG d   1       4.996   2.175 -10.961  0.00  0.00     0.062 H 
ATOM     22  C   LIG d   1       2.778   2.007  -8.420  0.00  0.00    -0.061 A 
ATOM     23  H   LIG d   1       3.669   3.630  -9.488  0.00  0.00     0.062 H 
ATOM     24  C   LIG d   1       2.688   0.637  -8.286  0.00  0.00    -0.054 A 
ATOM     25  H   LIG d   1       2.198   2.651  -7.776  0.00  0.00     0.062 H 
ATOM     26  H   LIG d   1       2.038   0.208  -7.537  0.00  0.00     0.062 H 
ENDBRANCH   1  16
BRANCH  11  27
ATOM     27  C   LIG d   1       5.004  -1.592  -7.096  0.00  0.00    -0.010 A 
ATOM     28  C   LIG d   1       4.548  -1.179  -5.844  0.00  0.00    -0.054 A 
ATOM     29  C   LIG d   1       5.392  -0.488  -4.999  0.00  0.00    -0.061 A 
ATOM     30  H   LIG d   1       3.537  -1.401  -5.535  0.00  0.00     0.062 H 
ATOM     31  C   LIG d   1       6.687  -0.203  -5.392  0.00  0.00    -0.062 A 
ATOM     32  H   LIG d   1       5.041  -0.168  -4.029  0.00  0.00     0.062 H 
ATOM     33  C   LIG d   1       7.145  -0.608  -6.633  0.00  0.00    -0.061 A 
ATOM     34  H   LIG d   1       7.345   0.338  -4.727  0.00  0.00     0.062 H 
ATOM     35  C   LIG d   1       6.313  -1.306  -7.485  0.00  0.00    -0.054 A 
ATOM     36  H   LIG d   1       8.158  -0.383  -6.935  0.00  0.00     0.062 H 
ATOM     37  H   LIG d   1       6.673  -1.626  -8.451  0.00  0.00     0.062 H 
ENDBRANCH  11  27
TORSDOF 2
ENDMDL
MODEL 9
REMARK VINA RESULT:      -5.9      2.766      4.643
REMARK  2 active torsions:
REMARK  status: ('A' for Active; 'I' for Inactive)
REMARK    1  A    between atoms: C_4  and  C_7 
REMARK    2  A    between atoms: C_17  and  C_18 
ROOT
ATOM      1  C   LIG d   1       4.299  -2.671  -7.343  0.00  0.00     0.007 A 
ATOM      2  C   LIG d   1       3.542  -1.673  -8.117  0.00  0.00     0.029 A 
ATOM      3  C   LIG d   1       3.533  -0.331  -7.724  0.00  0.00    -0.032 A 
ATOM      4  C   LIG d   1       2.820   0.591  -8.460  0.00  0.00     0.043 A 
ATOM      5  C   LIG d   1       2.117   0.192  -9.588  0.00  0.00    -0.021 A 
ATOM      6  C   LIG d   1       2.114  -1.130  -9.983  0.00  0.00     0.085 A 
ATOM      7  C   LIG d   1       2.828  -2.077  -9.254  0.00  0.00     0.158 A 
ATOM      8  O   LIG d   1       2.828  -3.369  -9.647  0.00  0.00    -0.420 OA
ATOM      9  C   LIG d   1       3.498  -4.320  -8.979  0.00  0.00     0.346 A 
ATOM     10  O   LIG d   1       3.464  -5.470  -9.376  0.00  0.00    -0.244 OA
ATOM     11  C   LIG d   1       4.272  -3.994  -7.781  0.00  0.00     0.075 A 
ATOM     12 CL   LIG d   1       1.225  -1.611 -11.394  0.00  0.00    -0.080 Cl
ATOM     13 CL   LIG d   1       2.807   2.258  -7.976  0.00  0.00    -0.084 Cl
ATOM     14  H   LIG d   1       4.082  -0.018  -6.849  0.00  0.00     0.064 H 
ATOM     15  H   LIG d   1       1.565   0.923 -10.161  0.00  0.00     0.065 H 
ENDROOT
BRANCH   1  16
ATOM     16  C   LIG d   1       5.064  -2.284  -6.140  0.00  0.00    -0.016 A 
ATOM     17  C   LIG d   1       4.476  -2.376  -4.875  0.00  0.00    -0.054 A 
ATOM     18  C   LIG d   1       5.195  -2.013  -3.756  0.00  0.00    -0.061 A 
ATOM     19  H   LIG d   1       3.461  -2.732  -4.775  0.00  0.00     0.062 H 
ATOM     20  C   LIG d   1       6.495  -1.557  -3.883  0.00  0.00    -0.062 A 
ATOM     21  H   LIG d   1       4.742  -2.084  -2.779  0.00  0.00     0.062 H 
ATOM     22  C   LIG d   1       7.083  -1.462  -5.132  0.00  0.00    -0.061 A 
ATOM     23  H   LIG d   1       7.054  -1.274  -3.003  0.00  0.00     0.062 H 
ATOM     24  C   LIG d   1       6.378  -1.828  -6.260  0.00  0.00    -0.054 A 
ATOM     25  H   LIG d   1       8.099  -1.105  -5.224  0.00  0.00     0.062 H 
ATOM     26  H   LIG d   1       6.839  -1.758  -7.234  0.00  0.00     0.062 H 
ENDBRANCH   1  16
BRANCH  11  27
ATOM     27  C   LIG d   1       5.010  -5.047  -7.049  0.00  0.00    -0.010 A 
ATOM     28  C   LIG d   1       4.362  -5.810  -6.078  0.00  0.00    -0.054 A 
ATOM     29  C   LIG d   1       5.056  -6.792  -5.400  0.00  0.00    -0.061 A 
ATOM     30  H   LIG d   1       3.319  -5.635  -5.858  0.00  0.00     0.062 H 
ATOM     31  C   LIG d   1       6.391  -7.018  -5.680  0.00  0.00    -0.062 A 
ATOM     32  H   LIG d   1       4.555  -7.384  -4.648  0.00  0.00     0.062 H 
ATOM     33  C   LIG d   1       7.040  -6.263  -6.641  0.00  0.00    -0.061 A 
ATOM     34  H   LIG d   1       6.930  -7.787  -5.147  0.00  0.00     0.062 H 
ATOM     35  C   LIG d   1       6.356  -5.284  -7.332  0.00  0.00    -0.054 A 
ATOM     36  H   LIG d   1       8.083  -6.445  -6.856  0.00  0.00     0.062 H 
ATOM     37  H   LIG d   1       6.862  -4.699  -8.085  0.00  0.00     0.062 H 
ENDBRANCH  11  27
TORSDOF 2
ENDMDL
MODEL 10
REMARK VINA RESULT:      -5.9      3.144      5.148
REMARK  2 active torsions:
REMARK  status: ('A' for Active; 'I' for Inactive)
REMARK    1  A    between atoms: C_4  and  C_7 
REMARK    2  A    between atoms: C_17  and  C_18 
ROOT
ATOM      1  C   LIG d   1       4.278  -2.255  -7.798  0.00  0.00     0.007 A 
ATOM      2  C   LIG d   1       4.194  -3.724  -7.763  0.00  0.00     0.029 A 
ATOM      3  C   LIG d   1       4.819  -4.445  -6.740  0.00  0.00    -0.032 A 
ATOM      4  C   LIG d   1       4.731  -5.820  -6.722  0.00  0.00     0.043 A 
ATOM      5  C   LIG d   1       4.022  -6.489  -7.711  0.00  0.00    -0.021 A 
ATOM      6  C   LIG d   1       3.406  -5.790  -8.728  0.00  0.00     0.085 A 
ATOM      7  C   LIG d   1       3.482  -4.400  -8.765  0.00  0.00     0.158 A 
ATOM      8  O   LIG d   1       2.873  -3.718  -9.758  0.00  0.00    -0.420 OA
ATOM      9  C   LIG d   1       2.917  -2.380  -9.840  0.00  0.00     0.346 A 
ATOM     10  O   LIG d   1       2.351  -1.816 -10.758  0.00  0.00    -0.244 OA
ATOM     11  C   LIG d   1       3.636  -1.589  -8.841  0.00  0.00     0.075 A 
ATOM     12 CL   LIG d   1       2.529  -6.643  -9.959  0.00  0.00    -0.080 Cl
ATOM     13 CL   LIG d   1       5.504  -6.718  -5.453  0.00  0.00    -0.084 Cl
ATOM     14  H   LIG d   1       5.367  -3.927  -5.969  0.00  0.00     0.064 H 
ATOM     15  H   LIG d   1       3.956  -7.567  -7.685  0.00  0.00     0.065 H 
ENDROOT
BRANCH   1  16
ATOM     16  C   LIG d   1       5.018  -1.508  -6.760  0.00  0.00    -0.016 A 
ATOM     17  C   LIG d   1       4.366  -1.092  -5.596  0.00  0.00    -0.054 A 
ATOM     18  C   LIG d   1       5.062  -0.395  -4.632  0.00  0.00    -0.061 A 
ATOM     19  H   LIG d   1       3.319  -1.317  -5.453  0.00  0.00     0.062 H 
ATOM     20  C   LIG d   1       6.403  -0.107  -4.814  0.00  0.00    -0.062 A 
ATOM     21  H   LIG d   1       4.560  -0.074  -3.732  0.00  0.00     0.062 H 
ATOM     22  C   LIG d   1       7.055  -0.515  -5.964  0.00  0.00    -0.061 A 
ATOM     23  H   LIG d   1       6.944   0.439  -4.055  0.00  0.00     0.062 H 
ATOM     24  C   LIG d   1       6.372  -1.218  -6.935  0.00  0.00    -0.054 A 
ATOM     25  H   LIG d   1       8.102  -0.286  -6.100  0.00  0.00     0.062 H 
ATOM     26  H   LIG d   1       6.883  -1.540  -7.830  0.00  0.00     0.062 H 
ENDBRANCH   1  16
BRANCH  11  27
ATOM     27  C   LIG d   1       3.681  -0.113  -8.936  0.00  0.00    -0.010 A 
ATOM     28  C   LIG d   1       4.703   0.512  -9.649  0.00  0.00    -0.054 A 
ATOM     29  C   LIG d   1       4.739   1.889  -9.735  0.00  0.00    -0.061 A 
ATOM     30  H   LIG d   1       5.465  -0.080 -10.134  0.00  0.00     0.062 H 
ATOM     31  C   LIG d   1       3.764   2.649  -9.113  0.00  0.00    -0.062 A 
ATOM     32  H   LIG d   1       5.530   2.374 -10.286  0.00  0.00     0.062 H 
ATOM     33  C   LIG d   1       2.747   2.035  -8.404  0.00  0.00    -0.061 A 
ATOM     34  H   LIG d   1       3.796   3.726  -9.183  0.00  0.00     0.062 H 
ATOM     35  C   LIG d   1       2.696   0.659  -8.316  0.00  0.00    -0.054 A 
ATOM     36  H   LIG d   1       1.988   2.633  -7.921  0.00  0.00     0.062 H 
ATOM     37  H   LIG d   1       1.900   0.180  -7.766  0.00  0.00     0.062 H 
ENDBRANCH  11  27
TORSDOF 2
ENDMDL
