MODEL 1
REMARK VINA RESULT:      -5.7      0.000      0.000
REMARK  11 active torsions:
REMARK  status: ('A' for Active; 'I' for Inactive)
REMARK    1  A    between atoms: C_1  and  O_2 
REMARK    2  A    between atoms: O_2  and  C_3 
REMARK    3  A    between atoms: C_6  and  C_9 
REMARK    4  A    between atoms: C_9  and  N_56 
REMARK    5  A    between atoms: C_10  and  C_11 
REMARK    6  A    between atoms: C_10  and  N_56 
REMARK    7  A    between atoms: C_11  and  C_12 
REMARK    8  A    between atoms: C_12  and  C_14 
REMARK    9  A    between atoms: C_12  and  C_22 
REMARK   10  A    between atoms: C_17  and  O_20 
REMARK   11  A    between atoms: O_20  and  C_21 
ROOT
ATOM      1  C   LIG d   1       5.775  -3.134  -5.484  0.00  0.00     0.014 C 
ATOM      2  H   LIG d   1       5.535  -2.801  -6.494  0.00  0.00     0.040 H 
ENDROOT
BRANCH   1   3
ATOM      3  C   LIG d   1       5.238  -4.551  -5.273  0.00  0.00    -0.002 C 
ATOM      4  H   LIG d   1       4.430  -4.528  -4.543  0.00  0.00     0.033 H 
ATOM      5  H   LIG d   1       6.040  -5.192  -4.907  0.00  0.00     0.033 H 
BRANCH   3   6
ATOM      6  C   LIG d   1       4.710  -5.099  -6.600  0.00  0.00    -0.033 C 
ATOM      7  H   LIG d   1       4.358  -6.121  -6.456  0.00  0.00     0.081 H 
ATOM      8  H   LIG d   1       5.510  -5.091  -7.341  0.00  0.00     0.081 H 
BRANCH   6   9
ATOM      9  N   LIG d   1       3.596  -4.251  -7.064  0.00  0.00     0.230 N 
ATOM     10  H   LIG d   1       2.723  -4.791  -7.031  0.00  0.00     0.202 HD
ATOM     11  H   LIG d   1       3.515  -3.433  -6.450  0.00  0.00     0.202 HD
BRANCH   9  12
ATOM     12  C   LIG d   1       3.837  -3.800  -8.448  0.00  0.00    -0.008 C 
ATOM     13  H   LIG d   1       2.925  -3.915  -9.034  0.00  0.00     0.087 H 
ATOM     14  H   LIG d   1       4.633  -4.396  -8.894  0.00  0.00     0.087 H 
BRANCH  12  15
ATOM     15  C   LIG d   1       4.244  -2.349  -8.431  0.00  0.00    -0.003 A 
ATOM     16  C   LIG d   1       5.468  -1.970  -8.950  0.00  0.00    -0.050 A 
ATOM     17  C   LIG d   1       5.843  -0.641  -8.936  0.00  0.00    -0.019 A 
ATOM     18  H   LIG d   1       6.131  -2.714  -9.367  0.00  0.00     0.062 H 
ATOM     19  C   LIG d   1       4.991   0.314  -8.401  0.00  0.00     0.120 A 
ATOM     20  H   LIG d   1       6.802  -0.347  -9.338  0.00  0.00     0.065 H 
ATOM     21  C   LIG d   1       3.763  -0.069  -7.882  0.00  0.00    -0.019 A 
ATOM     22  C   LIG d   1       3.392  -1.399  -7.897  0.00  0.00    -0.050 A 
ATOM     23  H   LIG d   1       3.098   0.673  -7.465  0.00  0.00     0.065 H 
ATOM     24  H   LIG d   1       2.437  -1.698  -7.492  0.00  0.00     0.062 H 
BRANCH  19  25
ATOM     25  O   LIG d   1       5.359   1.622  -8.386  0.00  0.00    -0.495 OA
BRANCH  25  26
ATOM     26  C   LIG d   1       4.641   2.507  -9.248  0.00  0.00     0.079 C 
ATOM     27  H   LIG d   1       3.644   2.680  -8.842  0.00  0.00     0.066 H 
ATOM     28  H   LIG d   1       5.173   3.455  -9.320  0.00  0.00     0.066 H 
ATOM     29  H   LIG d   1       4.557   2.061 -10.238  0.00  0.00     0.066 H 
ENDBRANCH  25  26
ENDBRANCH  19  25
ENDBRANCH  12  15
ENDBRANCH   9  12
ENDBRANCH   6   9
ENDBRANCH   3   6
ENDBRANCH   1   3
BRANCH   1  30
ATOM     30  C   LIG d   1       7.270  -3.130  -5.296  0.00  0.00    -0.040 A 
ATOM     31  C   LIG d   1       7.819  -3.591  -4.114  0.00  0.00    -0.054 A 
ATOM     32  C   LIG d   1       9.189  -3.588  -3.941  0.00  0.00    -0.020 A 
ATOM     33  H   LIG d   1       7.176  -3.954  -3.327  0.00  0.00     0.062 H 
ATOM     34  C   LIG d   1      10.015  -3.122  -4.953  0.00  0.00     0.120 A 
ATOM     35  H   LIG d   1       9.617  -3.950  -3.016  0.00  0.00     0.065 H 
ATOM     36  C   LIG d   1       9.462  -2.659  -6.137  0.00  0.00    -0.020 A 
ATOM     37  C   LIG d   1       8.092  -2.669  -6.309  0.00  0.00    -0.054 A 
ATOM     38  H   LIG d   1      10.103  -2.296  -6.927  0.00  0.00     0.065 H 
ATOM     39  H   LIG d   1       7.661  -2.314  -7.233  0.00  0.00     0.062 H 
BRANCH  34  40
ATOM     40  O   LIG d   1      11.364  -3.119  -4.784  0.00  0.00    -0.495 OA
BRANCH  40  41
ATOM     41  C   LIG d   1      11.981  -1.860  -4.514  0.00  0.00     0.079 C 
ATOM     42  H   LIG d   1      12.930  -1.798  -5.046  0.00  0.00     0.066 H 
ATOM     43  H   LIG d   1      11.326  -1.054  -4.847  0.00  0.00     0.066 H 
ATOM     44  H   LIG d   1      12.158  -1.764  -3.443  0.00  0.00     0.066 H 
ENDBRANCH  40  41
ENDBRANCH  34  40
ENDBRANCH   1  30
BRANCH   1  45
ATOM     45  C   LIG d   1       5.141  -2.201  -4.483  0.00  0.00    -0.036 A 
ATOM     46  C   LIG d   1       5.338  -0.837  -4.591  0.00  0.00    -0.012 A 
ATOM     47  C   LIG d   1       4.753   0.022  -3.674  0.00  0.00     0.167 A 
ATOM     48  H   LIG d   1       5.946  -0.441  -5.390  0.00  0.00     0.066 H 
ATOM     49  C   LIG d   1       3.973  -0.494  -2.642  0.00  0.00     0.166 A 
ATOM     50  O   LIG d   1       4.786   1.382  -3.559  0.00  0.00    -0.453 OA
ATOM     51  C   LIG d   1       3.783  -1.862  -2.539  0.00  0.00    -0.016 A 
ATOM     52  O   LIG d   1       3.518   0.543  -1.879  0.00  0.00    -0.453 OA
ATOM     53  C   LIG d   1       4.367  -2.713  -3.458  0.00  0.00    -0.054 A 
ATOM     54  H   LIG d   1       3.180  -2.265  -1.738  0.00  0.00     0.066 H 
ATOM     55  H   LIG d   1       4.219  -3.780  -3.376  0.00  0.00     0.062 H 
ATOM     56  C   LIG d   1       3.689   1.721  -2.691  0.00  0.00     0.233 C 
ATOM     57  H   LIG d   1       2.789   1.919  -3.271  0.00  0.00     0.117 H 
ATOM     58  H   LIG d   1       3.943   2.580  -2.070  0.00  0.00     0.117 H 
ENDBRANCH   1  45
TORSDOF 11
ENDMDL
MODEL 2
REMARK VINA RESULT:      -5.6      2.818      6.502
REMARK  11 active torsions:
REMARK  status: ('A' for Active; 'I' for Inactive)
REMARK    1  A    between atoms: C_1  and  O_2 
REMARK    2  A    between atoms: O_2  and  C_3 
REMARK    3  A    between atoms: C_6  and  C_9 
REMARK    4  A    between atoms: C_9  and  N_56 
REMARK    5  A    between atoms: C_10  and  C_11 
REMARK    6  A    between atoms: C_10  and  N_56 
REMARK    7  A    between atoms: C_11  and  C_12 
REMARK    8  A    between atoms: C_12  and  C_14 
REMARK    9  A    between atoms: C_12  and  C_22 
REMARK   10  A    between atoms: C_17  and  O_20 
REMARK   11  A    between atoms: O_20  and  C_21 
ROOT
ATOM      1  C   LIG d   1       3.728  -0.599  -6.989  0.00  0.00     0.014 C 
ATOM      2  H   LIG d   1       3.951  -1.410  -6.296  0.00  0.00     0.040 H 
ENDROOT
BRANCH   1   3
ATOM      3  C   LIG d   1       2.791   0.405  -6.314  0.00  0.00    -0.002 C 
ATOM      4  H   LIG d   1       1.756   0.126  -6.512  0.00  0.00     0.033 H 
ATOM      5  H   LIG d   1       2.980   1.402  -6.711  0.00  0.00     0.033 H 
BRANCH   3   6
ATOM      6  C   LIG d   1       3.040   0.400  -4.805  0.00  0.00    -0.033 C 
ATOM      7  H   LIG d   1       2.582   1.283  -4.358  0.00  0.00     0.081 H 
ATOM      8  H   LIG d   1       4.113   0.410  -4.613  0.00  0.00     0.081 H 
BRANCH   6   9
ATOM      9  N   LIG d   1       2.444  -0.817  -4.221  0.00  0.00     0.230 N 
ATOM     10  H   LIG d   1       1.470  -0.624  -3.958  0.00  0.00     0.202 HD
ATOM     11  H   LIG d   1       2.467  -1.572  -4.915  0.00  0.00     0.202 HD
BRANCH   9  12
ATOM     12  C   LIG d   1       3.198  -1.233  -3.023  0.00  0.00    -0.008 C 
ATOM     13  H   LIG d   1       2.640  -2.001  -2.487  0.00  0.00     0.087 H 
ATOM     14  H   LIG d   1       3.353  -0.374  -2.370  0.00  0.00     0.087 H 
BRANCH  12  15
ATOM     15  C   LIG d   1       4.533  -1.788  -3.448  0.00  0.00    -0.003 A 
ATOM     16  C   LIG d   1       5.700  -1.210  -2.982  0.00  0.00    -0.050 A 
ATOM     17  C   LIG d   1       6.925  -1.716  -3.370  0.00  0.00    -0.019 A 
ATOM     18  H   LIG d   1       5.653  -0.361  -2.316  0.00  0.00     0.062 H 
ATOM     19  C   LIG d   1       6.984  -2.806  -4.226  0.00  0.00     0.120 A 
ATOM     20  H   LIG d   1       7.836  -1.261  -3.010  0.00  0.00     0.065 H 
ATOM     21  C   LIG d   1       5.812  -3.385  -4.690  0.00  0.00    -0.019 A 
ATOM     22  C   LIG d   1       4.590  -2.875  -4.301  0.00  0.00    -0.050 A 
ATOM     23  H   LIG d   1       5.856  -4.234  -5.357  0.00  0.00     0.065 H 
ATOM     24  H   LIG d   1       3.677  -3.324  -4.663  0.00  0.00     0.062 H 
BRANCH  19  25
ATOM     25  O   LIG d   1       8.189  -3.306  -4.609  0.00  0.00    -0.495 OA
BRANCH  25  26
ATOM     26  C   LIG d   1       8.938  -4.018  -3.622  0.00  0.00     0.079 C 
ATOM     27  H   LIG d   1      10.002  -3.832  -3.769  0.00  0.00     0.066 H 
ATOM     28  H   LIG d   1       8.644  -3.681  -2.629  0.00  0.00     0.066 H 
ATOM     29  H   LIG d   1       8.739  -5.086  -3.717  0.00  0.00     0.066 H 
ENDBRANCH  25  26
ENDBRANCH  19  25
ENDBRANCH  12  15
ENDBRANCH   9  12
ENDBRANCH   6   9
ENDBRANCH   3   6
ENDBRANCH   1   3
BRANCH   1  30
ATOM     30  C   LIG d   1       5.007   0.093  -7.381  0.00  0.00    -0.040 A 
ATOM     31  C   LIG d   1       6.177  -0.181  -6.697  0.00  0.00    -0.054 A 
ATOM     32  C   LIG d   1       7.352   0.452  -7.055  0.00  0.00    -0.020 A 
ATOM     33  H   LIG d   1       6.173  -0.891  -5.883  0.00  0.00     0.062 H 
ATOM     34  C   LIG d   1       7.358   1.363  -8.100  0.00  0.00     0.120 A 
ATOM     35  H   LIG d   1       8.266   0.237  -6.520  0.00  0.00     0.065 H 
ATOM     36  C   LIG d   1       6.182   1.637  -8.784  0.00  0.00    -0.020 A 
ATOM     37  C   LIG d   1       5.012   0.997  -8.427  0.00  0.00    -0.054 A 
ATOM     38  H   LIG d   1       6.184   2.346  -9.600  0.00  0.00     0.065 H 
ATOM     39  H   LIG d   1       4.098   1.205  -8.963  0.00  0.00     0.062 H 
BRANCH  34  40
ATOM     40  O   LIG d   1       8.512   1.987  -8.454  0.00  0.00    -0.495 OA
BRANCH  40  41
ATOM     41  C   LIG d   1       9.244   2.635  -7.413  0.00  0.00     0.079 C 
ATOM     42  H   LIG d   1       8.629   2.690  -6.515  0.00  0.00     0.066 H 
ATOM     43  H   LIG d   1      10.151   2.069  -7.199  0.00  0.00     0.066 H 
ATOM     44  H   LIG d   1       9.513   3.643  -7.731  0.00  0.00     0.066 H 
ENDBRANCH  40  41
ENDBRANCH  34  40
ENDBRANCH   1  30
BRANCH   1  45
ATOM     45  C   LIG d   1       3.062  -1.159  -8.221  0.00  0.00    -0.036 A 
ATOM     46  C   LIG d   1       3.451  -2.390  -8.716  0.00  0.00    -0.012 A 
ATOM     47  C   LIG d   1       2.838  -2.907  -9.845  0.00  0.00     0.167 A 
ATOM     48  H   LIG d   1       4.231  -2.948  -8.221  0.00  0.00     0.066 H 
ATOM     49  C   LIG d   1       1.836  -2.181 -10.483  0.00  0.00     0.166 A 
ATOM     50  O   LIG d   1       3.029  -4.077 -10.523  0.00  0.00    -0.453 OA
ATOM     51  C   LIG d   1       1.454  -0.947  -9.984  0.00  0.00    -0.016 A 
ATOM     52  O   LIG d   1       1.399  -2.895 -11.562  0.00  0.00    -0.453 OA
ATOM     53  C   LIG d   1       2.067  -0.438  -8.855  0.00  0.00    -0.054 A 
ATOM     54  H   LIG d   1       0.677  -0.381 -10.478  0.00  0.00     0.066 H 
ATOM     55  H   LIG d   1       1.769   0.525  -8.467  0.00  0.00     0.062 H 
ATOM     56  C   LIG d   1       1.856  -4.244 -11.340  0.00  0.00     0.233 C 
ATOM     57  H   LIG d   1       1.099  -4.822 -10.811  0.00  0.00     0.117 H 
ATOM     58  H   LIG d   1       2.113  -4.721 -12.286  0.00  0.00     0.117 H 
ENDBRANCH   1  45
TORSDOF 11
ENDMDL
MODEL 3
REMARK VINA RESULT:      -5.6      3.189      6.807
REMARK  11 active torsions:
REMARK  status: ('A' for Active; 'I' for Inactive)
REMARK    1  A    between atoms: C_1  and  O_2 
REMARK    2  A    between atoms: O_2  and  C_3 
REMARK    3  A    between atoms: C_6  and  C_9 
REMARK    4  A    between atoms: C_9  and  N_56 
REMARK    5  A    between atoms: C_10  and  C_11 
REMARK    6  A    between atoms: C_10  and  N_56 
REMARK    7  A    between atoms: C_11  and  C_12 
REMARK    8  A    between atoms: C_12  and  C_14 
REMARK    9  A    between atoms: C_12  and  C_22 
REMARK   10  A    between atoms: C_17  and  O_20 
REMARK   11  A    between atoms: O_20  and  C_21 
ROOT
ATOM      1  C   LIG d   1       6.467  -3.122  -4.622  0.00  0.00     0.014 C 
ATOM      2  H   LIG d   1       6.992  -3.729  -3.885  0.00  0.00     0.040 H 
ENDROOT
BRANCH   1   3
ATOM      3  C   LIG d   1       7.486  -2.339  -5.454  0.00  0.00    -0.002 C 
ATOM      4  H   LIG d   1       7.273  -1.273  -5.380  0.00  0.00     0.033 H 
ATOM      5  H   LIG d   1       7.421  -2.651  -6.496  0.00  0.00     0.033 H 
BRANCH   3   6
ATOM      6  C   LIG d   1       8.895  -2.615  -4.925  0.00  0.00    -0.033 C 
ATOM      7  H   LIG d   1       9.463  -1.684  -4.905  0.00  0.00     0.081 H 
ATOM      8  H   LIG d   1       9.394  -3.332  -5.576  0.00  0.00     0.081 H 
BRANCH   6   9
ATOM      9  N   LIG d   1       8.800  -3.167  -3.560  0.00  0.00     0.230 N 
ATOM     10  H   LIG d   1       8.716  -2.395  -2.888  0.00  0.00     0.202 HD
ATOM     11  H   LIG d   1       7.971  -3.768  -3.496  0.00  0.00     0.202 HD
BRANCH   9  12
ATOM     12  C   LIG d   1      10.003  -3.959  -3.243  0.00  0.00    -0.008 C 
ATOM     13  H   LIG d   1      10.448  -3.595  -2.318  0.00  0.00     0.087 H 
ATOM     14  H   LIG d   1      10.726  -3.870  -4.054  0.00  0.00     0.087 H 
BRANCH  12  15
ATOM     15  C   LIG d   1       9.612  -5.405  -3.076  0.00  0.00    -0.003 A 
ATOM     16  C   LIG d   1       8.992  -6.076  -4.114  0.00  0.00    -0.050 A 
ATOM     17  C   LIG d   1       8.633  -7.402  -3.964  0.00  0.00    -0.019 A 
ATOM     18  H   LIG d   1       8.789  -5.564  -5.043  0.00  0.00     0.062 H 
ATOM     19  C   LIG d   1       8.895  -8.059  -2.771  0.00  0.00     0.120 A 
ATOM     20  H   LIG d   1       8.145  -7.924  -4.773  0.00  0.00     0.065 H 
ATOM     21  C   LIG d   1       9.519  -7.384  -1.731  0.00  0.00    -0.019 A 
ATOM     22  C   LIG d   1       9.875  -6.059  -1.886  0.00  0.00    -0.050 A 
ATOM     23  H   LIG d   1       9.724  -7.894  -0.802  0.00  0.00     0.065 H 
ATOM     24  H   LIG d   1      10.359  -5.532  -1.077  0.00  0.00     0.062 H 
BRANCH  19  25
ATOM     25  O   LIG d   1       8.542  -9.363  -2.621  0.00  0.00    -0.495 OA
BRANCH  25  26
ATOM     26  C   LIG d   1       7.513  -9.651  -1.672  0.00  0.00     0.079 C 
ATOM     27  H   LIG d   1       6.955 -10.530  -1.996  0.00  0.00     0.066 H 
ATOM     28  H   LIG d   1       7.960  -9.843  -0.697  0.00  0.00     0.066 H 
ATOM     29  H   LIG d   1       6.837  -8.798  -1.600  0.00  0.00     0.066 H 
ENDBRANCH  25  26
ENDBRANCH  19  25
ENDBRANCH  12  15
ENDBRANCH   9  12
ENDBRANCH   6   9
ENDBRANCH   3   6
ENDBRANCH   1   3
BRANCH   1  30
ATOM     30  C   LIG d   1       5.661  -4.016  -5.527  0.00  0.00    -0.040 A 
ATOM     31  C   LIG d   1       5.705  -5.388  -5.361  0.00  0.00    -0.054 A 
ATOM     32  C   LIG d   1       4.966  -6.209  -6.189  0.00  0.00    -0.020 A 
ATOM     33  H   LIG d   1       6.318  -5.817  -4.582  0.00  0.00     0.062 H 
ATOM     34  C   LIG d   1       4.179  -5.658  -7.190  0.00  0.00     0.120 A 
ATOM     35  H   LIG d   1       5.001  -7.282  -6.058  0.00  0.00     0.065 H 
ATOM     36  C   LIG d   1       4.137  -4.282  -7.355  0.00  0.00    -0.020 A 
ATOM     37  C   LIG d   1       4.873  -3.464  -6.520  0.00  0.00    -0.054 A 
ATOM     38  H   LIG d   1       3.524  -3.850  -8.133  0.00  0.00     0.065 H 
ATOM     39  H   LIG d   1       4.836  -2.392  -6.645  0.00  0.00     0.062 H 
BRANCH  34  40
ATOM     40  O   LIG d   1       3.451  -6.465  -8.006  0.00  0.00    -0.495 OA
BRANCH  40  41
ATOM     41  C   LIG d   1       3.974  -7.768  -8.264  0.00  0.00     0.079 C 
ATOM     42  H   LIG d   1       3.797  -8.409  -7.400  0.00  0.00     0.066 H 
ATOM     43  H   LIG d   1       3.479  -8.193  -9.138  0.00  0.00     0.066 H 
ATOM     44  H   LIG d   1       5.046  -7.699  -8.453  0.00  0.00     0.066 H 
ENDBRANCH  40  41
ENDBRANCH  34  40
ENDBRANCH   1  30
BRANCH   1  45
ATOM     45  C   LIG d   1       5.547  -2.159  -3.917  0.00  0.00    -0.036 A 
ATOM     46  C   LIG d   1       5.770  -0.798  -4.012  0.00  0.00    -0.012 A 
ATOM     47  C   LIG d   1       4.923   0.090  -3.368  0.00  0.00     0.167 A 
ATOM     48  H   LIG d   1       6.603  -0.426  -4.589  0.00  0.00     0.066 H 
ATOM     49  C   LIG d   1       3.852  -0.394  -2.621  0.00  0.00     0.166 A 
ATOM     50  O   LIG d   1       4.919   1.454  -3.304  0.00  0.00    -0.453 OA
ATOM     51  C   LIG d   1       3.637  -1.759  -2.527  0.00  0.00    -0.016 A 
ATOM     52  O   LIG d   1       3.178   0.667  -2.087  0.00  0.00    -0.453 OA
ATOM     53  C   LIG d   1       4.484  -2.638  -3.175  0.00  0.00    -0.054 A 
ATOM     54  H   LIG d   1       2.807  -2.137  -1.947  0.00  0.00     0.066 H 
ATOM     55  H   LIG d   1       4.315  -3.703  -3.101  0.00  0.00     0.062 H 
ATOM     56  C   LIG d   1       3.601   1.813  -2.849  0.00  0.00     0.233 C 
ATOM     57  H   LIG d   1       2.936   1.978  -3.695  0.00  0.00     0.117 H 
ATOM     58  H   LIG d   1       3.644   2.700  -2.215  0.00  0.00     0.117 H 
ENDBRANCH   1  45
TORSDOF 11
ENDMDL
MODEL 4
REMARK VINA RESULT:      -5.5      3.623      6.361
REMARK  11 active torsions:
REMARK  status: ('A' for Active; 'I' for Inactive)
REMARK    1  A    between atoms: C_1  and  O_2 
REMARK    2  A    between atoms: O_2  and  C_3 
REMARK    3  A    between atoms: C_6  and  C_9 
REMARK    4  A    between atoms: C_9  and  N_56 
REMARK    5  A    between atoms: C_10  and  C_11 
REMARK    6  A    between atoms: C_10  and  N_56 
REMARK    7  A    between atoms: C_11  and  C_12 
REMARK    8  A    between atoms: C_12  and  C_14 
REMARK    9  A    between atoms: C_12  and  C_22 
REMARK   10  A    between atoms: C_17  and  O_20 
REMARK   11  A    between atoms: O_20  and  C_21 
ROOT
ATOM      1  C   LIG d   1       4.188  -0.353  -8.019  0.00  0.00     0.014 C 
ATOM      2  H   LIG d   1       5.182  -0.780  -8.149  0.00  0.00     0.040 H 
ENDROOT
BRANCH   1   3
ATOM      3  C   LIG d   1       4.197   1.106  -8.482  0.00  0.00    -0.002 C 
ATOM      4  H   LIG d   1       3.938   1.754  -7.645  0.00  0.00     0.033 H 
ATOM      5  H   LIG d   1       3.469   1.238  -9.282  0.00  0.00     0.033 H 
BRANCH   3   6
ATOM      6  C   LIG d   1       5.592   1.470  -8.995  0.00  0.00    -0.033 C 
ATOM      7  H   LIG d   1       6.099   2.090  -8.256  0.00  0.00     0.081 H 
ATOM      8  H   LIG d   1       5.503   2.018  -9.932  0.00  0.00     0.081 H 
BRANCH   6   9
ATOM      9  N   LIG d   1       6.363   0.232  -9.215  0.00  0.00     0.230 N 
ATOM     10  H   LIG d   1       7.185   0.229  -8.599  0.00  0.00     0.202 HD
ATOM     11  H   LIG d   1       5.772  -0.579  -8.999  0.00  0.00     0.202 HD
BRANCH   9  12
ATOM     12  C   LIG d   1       6.808   0.149 -10.619  0.00  0.00    -0.008 C 
ATOM     13  H   LIG d   1       7.807  -0.286 -10.662  0.00  0.00     0.087 H 
ATOM     14  H   LIG d   1       6.827   1.147 -11.057  0.00  0.00     0.087 H 
BRANCH  12  15
ATOM     15  C   LIG d   1       5.849  -0.720 -11.391  0.00  0.00    -0.003 A 
ATOM     16  C   LIG d   1       6.037  -2.090 -11.430  0.00  0.00    -0.050 A 
ATOM     17  C   LIG d   1       5.160  -2.889 -12.137  0.00  0.00    -0.019 A 
ATOM     18  H   LIG d   1       6.871  -2.534 -10.907  0.00  0.00     0.062 H 
ATOM     19  C   LIG d   1       4.090  -2.316 -12.809  0.00  0.00     0.120 A 
ATOM     20  H   LIG d   1       5.310  -3.957 -12.170  0.00  0.00     0.065 H 
ATOM     21  C   LIG d   1       3.902  -0.942 -12.767  0.00  0.00    -0.019 A 
ATOM     22  C   LIG d   1       4.783  -0.147 -12.060  0.00  0.00    -0.050 A 
ATOM     23  H   LIG d   1       3.070  -0.495 -13.289  0.00  0.00     0.065 H 
ATOM     24  H   LIG d   1       4.639   0.922 -12.028  0.00  0.00     0.062 H 
BRANCH  19  25
ATOM     25  O   LIG d   1       3.226  -3.101 -13.505  0.00  0.00    -0.495 OA
BRANCH  25  26
ATOM     26  C   LIG d   1       3.185  -4.486 -13.158  0.00  0.00     0.079 C 
ATOM     27  H   LIG d   1       3.485  -4.610 -12.118  0.00  0.00     0.066 H 
ATOM     28  H   LIG d   1       2.171  -4.864 -13.291  0.00  0.00     0.066 H 
ATOM     29  H   LIG d   1       3.867  -5.042 -13.801  0.00  0.00     0.066 H 
ENDBRANCH  25  26
ENDBRANCH  19  25
ENDBRANCH  12  15
ENDBRANCH   9  12
ENDBRANCH   6   9
ENDBRANCH   3   6
ENDBRANCH   1   3
BRANCH   1  30
ATOM     30  C   LIG d   1       3.194  -1.133  -8.839  0.00  0.00    -0.040 A 
ATOM     31  C   LIG d   1       3.314  -2.507  -8.945  0.00  0.00    -0.054 A 
ATOM     32  C   LIG d   1       2.403  -3.224  -9.695  0.00  0.00    -0.020 A 
ATOM     33  H   LIG d   1       4.119  -3.019  -8.439  0.00  0.00     0.062 H 
ATOM     34  C   LIG d   1       1.368  -2.567 -10.345  0.00  0.00     0.120 A 
ATOM     35  H   LIG d   1       2.497  -4.298  -9.777  0.00  0.00     0.065 H 
ATOM     36  C   LIG d   1       1.251  -1.189 -10.238  0.00  0.00    -0.020 A 
ATOM     37  C   LIG d   1       2.160  -0.477  -9.481  0.00  0.00    -0.054 A 
ATOM     38  H   LIG d   1       0.446  -0.675 -10.742  0.00  0.00     0.065 H 
ATOM     39  H   LIG d   1       2.066   0.596  -9.393  0.00  0.00     0.062 H 
BRANCH  34  40
ATOM     40  O   LIG d   1       0.471  -3.272 -11.084  0.00  0.00    -0.495 OA
BRANCH  40  41
ATOM     41  C   LIG d   1       0.027  -4.519 -10.549  0.00  0.00     0.079 C 
ATOM     42  H   LIG d   1       0.633  -5.327 -10.960  0.00  0.00     0.066 H 
ATOM     43  H   LIG d   1       0.126  -4.507  -9.464  0.00  0.00     0.066 H 
ATOM     44  H   LIG d   1      -1.018  -4.678 -10.817  0.00  0.00     0.066 H 
ENDBRANCH  40  41
ENDBRANCH  34  40
ENDBRANCH   1  30
BRANCH   1  45
ATOM     45  C   LIG d   1       3.799  -0.416  -6.564  0.00  0.00    -0.036 A 
ATOM     46  C   LIG d   1       4.475  -1.263  -5.706  0.00  0.00    -0.012 A 
ATOM     47  C   LIG d   1       4.122  -1.321  -4.368  0.00  0.00     0.167 A 
ATOM     48  H   LIG d   1       5.280  -1.879  -6.079  0.00  0.00     0.066 H 
ATOM     49  C   LIG d   1       3.080  -0.529  -3.892  0.00  0.00     0.166 A 
ATOM     50  O   LIG d   1       4.621  -2.055  -3.330  0.00  0.00    -0.453 OA
ATOM     51  C   LIG d   1       2.404   0.315  -4.759  0.00  0.00    -0.016 A 
ATOM     52  O   LIG d   1       2.924  -0.768  -2.557  0.00  0.00    -0.453 OA
ATOM     53  C   LIG d   1       2.764   0.369  -6.092  0.00  0.00    -0.054 A 
ATOM     54  H   LIG d   1       1.594   0.929  -4.392  0.00  0.00     0.066 H 
ATOM     55  H   LIG d   1       2.236   1.027  -6.767  0.00  0.00     0.062 H 
ATOM     56  C   LIG d   1       4.145  -1.406  -2.136  0.00  0.00     0.233 C 
ATOM     57  H   LIG d   1       4.865  -0.665  -1.791  0.00  0.00     0.117 H 
ATOM     58  H   LIG d   1       3.944  -2.140  -1.356  0.00  0.00     0.117 H 
ENDBRANCH   1  45
TORSDOF 11
ENDMDL
MODEL 5
REMARK VINA RESULT:      -5.5      3.202      5.594
REMARK  11 active torsions:
REMARK  status: ('A' for Active; 'I' for Inactive)
REMARK    1  A    between atoms: C_1  and  O_2 
REMARK    2  A    between atoms: O_2  and  C_3 
REMARK    3  A    between atoms: C_6  and  C_9 
REMARK    4  A    between atoms: C_9  and  N_56 
REMARK    5  A    between atoms: C_10  and  C_11 
REMARK    6  A    between atoms: C_10  and  N_56 
REMARK    7  A    between atoms: C_11  and  C_12 
REMARK    8  A    between atoms: C_12  and  C_14 
REMARK    9  A    between atoms: C_12  and  C_22 
REMARK   10  A    between atoms: C_17  and  O_20 
REMARK   11  A    between atoms: O_20  and  C_21 
ROOT
ATOM      1  C   LIG d   1       6.235  -3.228  -4.665  0.00  0.00     0.014 C 
ATOM      2  H   LIG d   1       6.648  -3.941  -3.952  0.00  0.00     0.040 H 
ENDROOT
BRANCH   1   3
ATOM      3  C   LIG d   1       7.378  -2.515  -5.391  0.00  0.00    -0.002 C 
ATOM      4  H   LIG d   1       7.323  -1.444  -5.193  0.00  0.00     0.033 H 
ATOM      5  H   LIG d   1       7.294  -2.690  -6.463  0.00  0.00     0.033 H 
BRANCH   3   6
ATOM      6  C   LIG d   1       8.718  -3.057  -4.888  0.00  0.00    -0.033 C 
ATOM      7  H   LIG d   1       9.135  -3.737  -5.630  0.00  0.00     0.081 H 
ATOM      8  H   LIG d   1       8.566  -3.590  -3.950  0.00  0.00     0.081 H 
BRANCH   6   9
ATOM      9  N   LIG d   1       9.645  -1.929  -4.672  0.00  0.00     0.230 N 
ATOM     10  H   LIG d   1       9.549  -1.590  -3.708  0.00  0.00     0.202 HD
ATOM     11  H   LIG d   1      10.608  -2.249  -4.827  0.00  0.00     0.202 HD
BRANCH   9  12
ATOM     12  C   LIG d   1       9.341  -0.830  -5.607  0.00  0.00    -0.008 C 
ATOM     13  H   LIG d   1       8.325  -0.942  -5.986  0.00  0.00     0.087 H 
ATOM     14  H   LIG d   1      10.044  -0.851  -6.440  0.00  0.00     0.087 H 
BRANCH  12  15
ATOM     15  C   LIG d   1       9.463   0.485  -4.881  0.00  0.00    -0.003 A 
ATOM     16  C   LIG d   1      10.713   1.010  -4.610  0.00  0.00    -0.050 A 
ATOM     17  C   LIG d   1      10.827   2.215  -3.944  0.00  0.00    -0.019 A 
ATOM     18  H   LIG d   1      11.600   0.478  -4.920  0.00  0.00     0.062 H 
ATOM     19  C   LIG d   1       9.687   2.898  -3.547  0.00  0.00     0.120 A 
ATOM     20  H   LIG d   1      11.804   2.622  -3.730  0.00  0.00     0.065 H 
ATOM     21  C   LIG d   1       8.434   2.369  -3.821  0.00  0.00    -0.019 A 
ATOM     22  C   LIG d   1       8.325   1.164  -4.486  0.00  0.00    -0.050 A 
ATOM     23  H   LIG d   1       7.545   2.899  -3.513  0.00  0.00     0.065 H 
ATOM     24  H   LIG d   1       7.350   0.751  -4.698  0.00  0.00     0.062 H 
BRANCH  19  25
ATOM     25  O   LIG d   1       9.798   4.083  -2.891  0.00  0.00    -0.495 OA
BRANCH  25  26
ATOM     26  C   LIG d   1      10.994   4.299  -2.140  0.00  0.00     0.079 C 
ATOM     27  H   LIG d   1      11.439   3.338  -1.881  0.00  0.00     0.066 H 
ATOM     28  H   LIG d   1      11.699   4.877  -2.738  0.00  0.00     0.066 H 
ATOM     29  H   LIG d   1      10.756   4.847  -1.229  0.00  0.00     0.066 H 
ENDBRANCH  25  26
ENDBRANCH  19  25
ENDBRANCH  12  15
ENDBRANCH   9  12
ENDBRANCH   6   9
ENDBRANCH   3   6
ENDBRANCH   1   3
BRANCH   1  30
ATOM     30  C   LIG d   1       5.381  -3.958  -5.669  0.00  0.00    -0.040 A 
ATOM     31  C   LIG d   1       5.123  -5.306  -5.505  0.00  0.00    -0.054 A 
ATOM     32  C   LIG d   1       4.340  -5.977  -6.424  0.00  0.00    -0.020 A 
ATOM     33  H   LIG d   1       5.534  -5.835  -4.657  0.00  0.00     0.062 H 
ATOM     34  C   LIG d   1       3.813  -5.298  -7.512  0.00  0.00     0.120 A 
ATOM     35  H   LIG d   1       4.139  -7.031  -6.294  0.00  0.00     0.065 H 
ATOM     36  C   LIG d   1       4.074  -3.945  -7.675  0.00  0.00    -0.020 A 
ATOM     37  C   LIG d   1       4.852  -3.277  -6.750  0.00  0.00    -0.054 A 
ATOM     38  H   LIG d   1       3.663  -3.414  -8.521  0.00  0.00     0.065 H 
ATOM     39  H   LIG d   1       5.051  -2.223  -6.873  0.00  0.00     0.062 H 
BRANCH  34  40
ATOM     40  O   LIG d   1       3.042  -5.956  -8.417  0.00  0.00    -0.495 OA
BRANCH  40  41
ATOM     41  C   LIG d   1       2.724  -5.263  -9.625  0.00  0.00     0.079 C 
ATOM     42  H   LIG d   1       2.684  -5.972 -10.452  0.00  0.00     0.066 H 
ATOM     43  H   LIG d   1       1.757  -4.772  -9.520  0.00  0.00     0.066 H 
ATOM     44  H   LIG d   1       3.491  -4.514  -9.826  0.00  0.00     0.066 H 
ENDBRANCH  40  41
ENDBRANCH  34  40
ENDBRANCH   1  30
BRANCH   1  45
ATOM     45  C   LIG d   1       5.394  -2.213  -3.933  0.00  0.00    -0.036 A 
ATOM     46  C   LIG d   1       5.665  -0.865  -4.070  0.00  0.00    -0.012 A 
ATOM     47  C   LIG d   1       4.891   0.069  -3.401  0.00  0.00     0.167 A 
ATOM     48  H   LIG d   1       6.479  -0.539  -4.700  0.00  0.00     0.066 H 
ATOM     49  C   LIG d   1       3.845  -0.356  -2.585  0.00  0.00     0.166 A 
ATOM     50  O   LIG d   1       4.944   1.433  -3.367  0.00  0.00    -0.453 OA
ATOM     51  C   LIG d   1       3.581  -1.709  -2.450  0.00  0.00    -0.016 A 
ATOM     52  O   LIG d   1       3.244   0.742  -2.040  0.00  0.00    -0.453 OA
ATOM     53  C   LIG d   1       4.356  -2.634  -3.123  0.00  0.00    -0.054 A 
ATOM     54  H   LIG d   1       2.771  -2.040  -1.816  0.00  0.00     0.066 H 
ATOM     55  H   LIG d   1       4.150  -3.690  -3.016  0.00  0.00     0.062 H 
ATOM     56  C   LIG d   1       3.670   1.855  -2.849  0.00  0.00     0.233 C 
ATOM     57  H   LIG d   1       2.965   2.030  -3.661  0.00  0.00     0.117 H 
ATOM     58  H   LIG d   1       3.783   2.752  -2.238  0.00  0.00     0.117 H 
ENDBRANCH   1  45
TORSDOF 11
ENDMDL
MODEL 6
REMARK VINA RESULT:      -5.5      2.843      6.571
REMARK  11 active torsions:
REMARK  status: ('A' for Active; 'I' for Inactive)
REMARK    1  A    between atoms: C_1  and  O_2 
REMARK    2  A    between atoms: O_2  and  C_3 
REMARK    3  A    between atoms: C_6  and  C_9 
REMARK    4  A    between atoms: C_9  and  N_56 
REMARK    5  A    between atoms: C_10  and  C_11 
REMARK    6  A    between atoms: C_10  and  N_56 
REMARK    7  A    between atoms: C_11  and  C_12 
REMARK    8  A    between atoms: C_12  and  C_14 
REMARK    9  A    between atoms: C_12  and  C_22 
REMARK   10  A    between atoms: C_17  and  O_20 
REMARK   11  A    between atoms: O_20  and  C_21 
ROOT
ATOM      1  C   LIG d   1       4.214  -0.506  -8.083  0.00  0.00     0.014 C 
ATOM      2  H   LIG d   1       5.208  -0.929  -8.228  0.00  0.00     0.040 H 
ENDROOT
BRANCH   1   3
ATOM      3  C   LIG d   1       4.217   0.963  -8.512  0.00  0.00    -0.002 C 
ATOM      4  H   LIG d   1       4.068   1.597  -7.639  0.00  0.00     0.033 H 
ATOM      5  H   LIG d   1       3.414   1.134  -9.228  0.00  0.00     0.033 H 
BRANCH   3   6
ATOM      6  C   LIG d   1       5.561   1.300  -9.163  0.00  0.00    -0.033 C 
ATOM      7  H   LIG d   1       5.419   2.093  -9.898  0.00  0.00     0.081 H 
ATOM      8  H   LIG d   1       5.959   0.414  -9.655  0.00  0.00     0.081 H 
BRANCH   6   9
ATOM      9  N   LIG d   1       6.501   1.754  -8.121  0.00  0.00     0.230 N 
ATOM     10  H   LIG d   1       6.752   2.735  -8.294  0.00  0.00     0.202 HD
ATOM     11  H   LIG d   1       6.053   1.673  -7.201  0.00  0.00     0.202 HD
BRANCH   9  12
ATOM     12  C   LIG d   1       7.724   0.929  -8.140  0.00  0.00    -0.008 C 
ATOM     13  H   LIG d   1       8.602   1.574  -8.113  0.00  0.00     0.087 H 
ATOM     14  H   LIG d   1       7.744   0.325  -9.047  0.00  0.00     0.087 H 
BRANCH  12  15
ATOM     15  C   LIG d   1       7.729   0.025  -6.934  0.00  0.00    -0.003 A 
ATOM     16  C   LIG d   1       7.448   0.542  -5.683  0.00  0.00    -0.050 A 
ATOM     17  C   LIG d   1       7.453  -0.285  -4.576  0.00  0.00    -0.019 A 
ATOM     18  H   LIG d   1       7.226   1.593  -5.571  0.00  0.00     0.062 H 
ATOM     19  C   LIG d   1       7.738  -1.634  -4.721  0.00  0.00     0.120 A 
ATOM     20  H   LIG d   1       7.238   0.121  -3.599  0.00  0.00     0.065 H 
ATOM     21  C   LIG d   1       8.018  -2.151  -5.978  0.00  0.00    -0.019 A 
ATOM     22  C   LIG d   1       8.014  -1.321  -7.081  0.00  0.00    -0.050 A 
ATOM     23  H   LIG d   1       8.241  -3.201  -6.092  0.00  0.00     0.065 H 
ATOM     24  H   LIG d   1       8.233  -1.721  -8.059  0.00  0.00     0.062 H 
BRANCH  19  25
ATOM     25  O   LIG d   1       7.743  -2.449  -3.633  0.00  0.00    -0.495 OA
BRANCH  25  26
ATOM     26  C   LIG d   1       8.546  -3.629  -3.711  0.00  0.00     0.079 C 
ATOM     27  H   LIG d   1       7.901  -4.502  -3.810  0.00  0.00     0.066 H 
ATOM     28  H   LIG d   1       9.205  -3.564  -4.576  0.00  0.00     0.066 H 
ATOM     29  H   LIG d   1       9.144  -3.721  -2.804  0.00  0.00     0.066 H 
ENDBRANCH  25  26
ENDBRANCH  19  25
ENDBRANCH  12  15
ENDBRANCH   9  12
ENDBRANCH   6   9
ENDBRANCH   3   6
ENDBRANCH   1   3
BRANCH   1  30
ATOM     30  C   LIG d   1       3.216  -1.270  -8.914  0.00  0.00    -0.040 A 
ATOM     31  C   LIG d   1       2.147  -0.609  -9.489  0.00  0.00    -0.054 A 
ATOM     32  C   LIG d   1       1.231  -1.308 -10.252  0.00  0.00    -0.020 A 
ATOM     33  H   LIG d   1       2.028   0.454  -9.343  0.00  0.00     0.062 H 
ATOM     34  C   LIG d   1       1.385  -2.673 -10.440  0.00  0.00     0.120 A 
ATOM     35  H   LIG d   1       0.396  -0.790 -10.702  0.00  0.00     0.065 H 
ATOM     36  C   LIG d   1       2.458  -3.334  -9.861  0.00  0.00    -0.020 A 
ATOM     37  C   LIG d   1       3.374  -2.630  -9.105  0.00  0.00    -0.054 A 
ATOM     38  H   LIG d   1       2.580  -4.398 -10.007  0.00  0.00     0.065 H 
ATOM     39  H   LIG d   1       4.213  -3.144  -8.658  0.00  0.00     0.062 H 
BRANCH  34  40
ATOM     40  O   LIG d   1       0.485  -3.363 -11.190  0.00  0.00    -0.495 OA
BRANCH  40  41
ATOM     41  C   LIG d   1      -0.187  -4.453 -10.558  0.00  0.00     0.079 C 
ATOM     42  H   LIG d   1       0.337  -5.382 -10.780  0.00  0.00     0.066 H 
ATOM     43  H   LIG d   1      -0.204  -4.294  -9.479  0.00  0.00     0.066 H 
ATOM     44  H   LIG d   1      -1.210  -4.514 -10.931  0.00  0.00     0.066 H 
ENDBRANCH  40  41
ENDBRANCH  34  40
ENDBRANCH   1  30
BRANCH   1  45
ATOM     45  C   LIG d   1       3.834  -0.603  -6.627  0.00  0.00    -0.036 A 
ATOM     46  C   LIG d   1       4.322  -1.641  -5.855  0.00  0.00    -0.012 A 
ATOM     47  C   LIG d   1       3.977  -1.731  -4.516  0.00  0.00     0.167 A 
ATOM     48  H   LIG d   1       4.972  -2.382  -6.295  0.00  0.00     0.066 H 
ATOM     49  C   LIG d   1       3.133  -0.776  -3.954  0.00  0.00     0.166 A 
ATOM     50  O   LIG d   1       4.317  -2.635  -3.552  0.00  0.00    -0.453 OA
ATOM     51  C   LIG d   1       2.645   0.259  -4.734  0.00  0.00    -0.016 A 
ATOM     52  O   LIG d   1       2.943  -1.084  -2.637  0.00  0.00    -0.453 OA
ATOM     53  C   LIG d   1       2.996   0.344  -6.068  0.00  0.00    -0.054 A 
ATOM     54  H   LIG d   1       1.990   1.000  -4.300  0.00  0.00     0.066 H 
ATOM     55  H   LIG d   1       2.615   1.151  -6.676  0.00  0.00     0.062 H 
ATOM     56  C   LIG d   1       4.003  -1.999  -2.300  0.00  0.00     0.233 C 
ATOM     57  H   LIG d   1       4.868  -1.459  -1.918  0.00  0.00     0.117 H 
ATOM     58  H   LIG d   1       3.657  -2.735  -1.573  0.00  0.00     0.117 H 
ENDBRANCH   1  45
TORSDOF 11
ENDMDL
MODEL 7
REMARK VINA RESULT:      -5.4      2.687      3.918
REMARK  11 active torsions:
REMARK  status: ('A' for Active; 'I' for Inactive)
REMARK    1  A    between atoms: C_1  and  O_2 
REMARK    2  A    between atoms: O_2  and  C_3 
REMARK    3  A    between atoms: C_6  and  C_9 
REMARK    4  A    between atoms: C_9  and  N_56 
REMARK    5  A    between atoms: C_10  and  C_11 
REMARK    6  A    between atoms: C_10  and  N_56 
REMARK    7  A    between atoms: C_11  and  C_12 
REMARK    8  A    between atoms: C_12  and  C_14 
REMARK    9  A    between atoms: C_12  and  C_22 
REMARK   10  A    between atoms: C_17  and  O_20 
REMARK   11  A    between atoms: O_20  and  C_21 
ROOT
ATOM      1  C   LIG d   1       8.789  -3.240  -4.276  0.00  0.00     0.014 C 
ATOM      2  H   LIG d   1       9.375  -2.407  -3.888  0.00  0.00     0.040 H 
ENDROOT
BRANCH   1   3
ATOM      3  C   LIG d   1       9.114  -3.445  -5.757  0.00  0.00    -0.002 C 
ATOM      4  H   LIG d   1       8.190  -3.450  -6.335  0.00  0.00     0.033 H 
ATOM      5  H   LIG d   1       9.629  -4.397  -5.888  0.00  0.00     0.033 H 
BRANCH   3   6
ATOM      6  C   LIG d   1      10.012  -2.307  -6.245  0.00  0.00    -0.033 C 
ATOM      7  H   LIG d   1      10.947  -2.720  -6.624  0.00  0.00     0.081 H 
ATOM      8  H   LIG d   1      10.223  -1.630  -5.417  0.00  0.00     0.081 H 
BRANCH   6   9
ATOM      9  N   LIG d   1       9.322  -1.573  -7.322  0.00  0.00     0.230 N 
ATOM     10  H   LIG d   1      10.019  -1.134  -7.935  0.00  0.00     0.202 HD
ATOM     11  H   LIG d   1       8.753  -2.230  -7.869  0.00  0.00     0.202 HD
BRANCH   9  12
ATOM     12  C   LIG d   1       8.448  -0.530  -6.753  0.00  0.00    -0.008 C 
ATOM     13  H   LIG d   1       8.752   0.447  -7.128  0.00  0.00     0.087 H 
ATOM     14  H   LIG d   1       8.523  -0.542  -5.666  0.00  0.00     0.087 H 
BRANCH  12  15
ATOM     15  C   LIG d   1       7.023  -0.802  -7.161  0.00  0.00    -0.003 A 
ATOM     16  C   LIG d   1       5.987  -0.128  -6.541  0.00  0.00    -0.050 A 
ATOM     17  C   LIG d   1       4.680  -0.375  -6.914  0.00  0.00    -0.019 A 
ATOM     18  H   LIG d   1       6.200   0.593  -5.766  0.00  0.00     0.062 H 
ATOM     19  C   LIG d   1       4.407  -1.301  -7.910  0.00  0.00     0.120 A 
ATOM     20  H   LIG d   1       3.871   0.148  -6.426  0.00  0.00     0.065 H 
ATOM     21  C   LIG d   1       5.448  -1.975  -8.532  0.00  0.00    -0.019 A 
ATOM     22  C   LIG d   1       6.753  -1.725  -8.156  0.00  0.00    -0.050 A 
ATOM     23  H   LIG d   1       5.238  -2.696  -9.308  0.00  0.00     0.065 H 
ATOM     24  H   LIG d   1       7.564  -2.250  -8.637  0.00  0.00     0.062 H 
BRANCH  19  25
ATOM     25  O   LIG d   1       3.122  -1.546  -8.278  0.00  0.00    -0.495 OA
BRANCH  25  26
ATOM     26  C   LIG d   1       2.315  -0.414  -8.607  0.00  0.00     0.079 C 
ATOM     27  H   LIG d   1       1.645  -0.190  -7.776  0.00  0.00     0.066 H 
ATOM     28  H   LIG d   1       2.956   0.446  -8.799  0.00  0.00     0.066 H 
ATOM     29  H   LIG d   1       1.727  -0.634  -9.498  0.00  0.00     0.066 H 
ENDBRANCH  25  26
ENDBRANCH  19  25
ENDBRANCH  12  15
ENDBRANCH   9  12
ENDBRANCH   6   9
ENDBRANCH   3   6
ENDBRANCH   1   3
BRANCH   1  30
ATOM     30  C   LIG d   1       9.127  -4.492  -3.510  0.00  0.00    -0.040 A 
ATOM     31  C   LIG d   1       9.092  -5.720  -4.143  0.00  0.00    -0.054 A 
ATOM     32  C   LIG d   1       9.402  -6.869  -3.442  0.00  0.00    -0.020 A 
ATOM     33  H   LIG d   1       8.822  -5.781  -5.187  0.00  0.00     0.062 H 
ATOM     34  C   LIG d   1       9.749  -6.791  -2.101  0.00  0.00     0.120 A 
ATOM     35  H   LIG d   1       9.375  -7.829  -3.939  0.00  0.00     0.065 H 
ATOM     36  C   LIG d   1       9.782  -5.558  -1.468  0.00  0.00    -0.020 A 
ATOM     37  C   LIG d   1       9.478  -4.411  -2.175  0.00  0.00    -0.054 A 
ATOM     38  H   LIG d   1      10.053  -5.494  -0.424  0.00  0.00     0.065 H 
ATOM     39  H   LIG d   1       9.509  -3.450  -1.683  0.00  0.00     0.062 H 
BRANCH  34  40
ATOM     40  O   LIG d   1      10.054  -7.920  -1.410  0.00  0.00    -0.495 OA
BRANCH  40  41
ATOM     41  C   LIG d   1      11.122  -7.833  -0.465  0.00  0.00     0.079 C 
ATOM     42  H   LIG d   1      10.908  -8.480   0.386  0.00  0.00     0.066 H 
ATOM     43  H   LIG d   1      12.053  -8.149  -0.937  0.00  0.00     0.066 H 
ATOM     44  H   LIG d   1      11.220  -6.803  -0.122  0.00  0.00     0.066 H 
ENDBRANCH  40  41
ENDBRANCH  34  40
ENDBRANCH   1  30
BRANCH   1  45
ATOM     45  C   LIG d   1       7.320  -2.937  -4.121  0.00  0.00    -0.036 A 
ATOM     46  C   LIG d   1       6.910  -1.946  -3.249  0.00  0.00    -0.012 A 
ATOM     47  C   LIG d   1       5.560  -1.663  -3.107  0.00  0.00     0.167 A 
ATOM     48  H   LIG d   1       7.640  -1.391  -2.680  0.00  0.00     0.066 H 
ATOM     49  C   LIG d   1       4.621  -2.385  -3.840  0.00  0.00     0.166 A 
ATOM     50  O   LIG d   1       4.903  -0.751  -2.333  0.00  0.00    -0.453 OA
ATOM     51  C   LIG d   1       5.040  -3.380  -4.709  0.00  0.00    -0.016 A 
ATOM     52  O   LIG d   1       3.375  -1.927  -3.523  0.00  0.00    -0.453 OA
ATOM     53  C   LIG d   1       6.388  -3.654  -4.847  0.00  0.00    -0.054 A 
ATOM     54  H   LIG d   1       4.313  -3.942  -5.277  0.00  0.00     0.066 H 
ATOM     55  H   LIG d   1       6.713  -4.430  -5.525  0.00  0.00     0.062 H 
ATOM     56  C   LIG d   1       3.584  -0.644  -2.901  0.00  0.00     0.233 C 
ATOM     57  H   LIG d   1       3.551   0.152  -3.643  0.00  0.00     0.117 H 
ATOM     58  H   LIG d   1       2.844  -0.473  -2.119  0.00  0.00     0.117 H 
ENDBRANCH   1  45
TORSDOF 11
ENDMDL
MODEL 8
REMARK VINA RESULT:      -5.3      3.185      4.646
REMARK  11 active torsions:
REMARK  status: ('A' for Active; 'I' for Inactive)
REMARK    1  A    between atoms: C_1  and  O_2 
REMARK    2  A    between atoms: O_2  and  C_3 
REMARK    3  A    between atoms: C_6  and  C_9 
REMARK    4  A    between atoms: C_9  and  N_56 
REMARK    5  A    between atoms: C_10  and  C_11 
REMARK    6  A    between atoms: C_10  and  N_56 
REMARK    7  A    between atoms: C_11  and  C_12 
REMARK    8  A    between atoms: C_12  and  C_14 
REMARK    9  A    between atoms: C_12  and  C_22 
REMARK   10  A    between atoms: C_17  and  O_20 
REMARK   11  A    between atoms: O_20  and  C_21 
ROOT
ATOM      1  C   LIG d   1       8.064  -2.520  -4.837  0.00  0.00     0.014 C 
ATOM      2  H   LIG d   1       8.839  -1.762  -4.941  0.00  0.00     0.040 H 
ENDROOT
BRANCH   1   3
ATOM      3  C   LIG d   1       7.611  -2.980  -6.224  0.00  0.00    -0.002 C 
ATOM      4  H   LIG d   1       6.538  -3.166  -6.213  0.00  0.00     0.033 H 
ATOM      5  H   LIG d   1       8.136  -3.896  -6.493  0.00  0.00     0.033 H 
BRANCH   3   6
ATOM      6  C   LIG d   1       7.928  -1.890  -7.251  0.00  0.00    -0.033 C 
ATOM      7  H   LIG d   1       7.232  -1.061  -7.125  0.00  0.00     0.081 H 
ATOM      8  H   LIG d   1       7.831  -2.298  -8.256  0.00  0.00     0.081 H 
BRANCH   6   9
ATOM      9  N   LIG d   1       9.308  -1.414  -7.040  0.00  0.00     0.230 N 
ATOM     10  H   LIG d   1       9.548  -1.500  -6.045  0.00  0.00     0.202 HD
ATOM     11  H   LIG d   1       9.953  -1.987  -7.597  0.00  0.00     0.202 HD
BRANCH   9  12
ATOM     12  C   LIG d   1       9.432  -0.003  -7.450  0.00  0.00    -0.008 C 
ATOM     13  H   LIG d   1       8.604   0.261  -8.108  0.00  0.00     0.087 H 
ATOM     14  H   LIG d   1      10.376   0.144  -7.976  0.00  0.00     0.087 H 
BRANCH  12  15
ATOM     15  C   LIG d   1       9.398   0.873  -6.224  0.00  0.00    -0.003 A 
ATOM     16  C   LIG d   1      10.422   0.803  -5.297  0.00  0.00    -0.050 A 
ATOM     17  C   LIG d   1      10.392   1.605  -4.173  0.00  0.00    -0.019 A 
ATOM     18  H   LIG d   1      11.244   0.121  -5.453  0.00  0.00     0.062 H 
ATOM     19  C   LIG d   1       9.335   2.481  -3.974  0.00  0.00     0.120 A 
ATOM     20  H   LIG d   1      11.190   1.546  -3.448  0.00  0.00     0.065 H 
ATOM     21  C   LIG d   1       8.310   2.550  -4.907  0.00  0.00    -0.019 A 
ATOM     22  C   LIG d   1       8.343   1.746  -6.029  0.00  0.00    -0.050 A 
ATOM     23  H   LIG d   1       7.487   3.232  -4.754  0.00  0.00     0.065 H 
ATOM     24  H   LIG d   1       7.545   1.798  -6.754  0.00  0.00     0.062 H 
BRANCH  19  25
ATOM     25  O   LIG d   1       9.305   3.271  -2.869  0.00  0.00    -0.495 OA
BRANCH  25  26
ATOM     26  C   LIG d   1      10.438   4.110  -2.640  0.00  0.00     0.079 C 
ATOM     27  H   LIG d   1      10.602   4.216  -1.568  0.00  0.00     0.066 H 
ATOM     28  H   LIG d   1      11.320   3.664  -3.100  0.00  0.00     0.066 H 
ATOM     29  H   LIG d   1      10.257   5.091  -3.079  0.00  0.00     0.066 H 
ENDBRANCH  25  26
ENDBRANCH  19  25
ENDBRANCH  12  15
ENDBRANCH   9  12
ENDBRANCH   6   9
ENDBRANCH   3   6
ENDBRANCH   1   3
BRANCH   1  30
ATOM     30  C   LIG d   1       8.612  -3.697  -4.072  0.00  0.00    -0.040 A 
ATOM     31  C   LIG d   1       9.187  -3.505  -2.829  0.00  0.00    -0.054 A 
ATOM     32  C   LIG d   1       9.690  -4.582  -2.127  0.00  0.00    -0.020 A 
ATOM     33  H   LIG d   1       9.243  -2.513  -2.408  0.00  0.00     0.062 H 
ATOM     34  C   LIG d   1       9.619  -5.858  -2.668  0.00  0.00     0.120 A 
ATOM     35  H   LIG d   1      10.139  -4.432  -1.155  0.00  0.00     0.065 H 
ATOM     36  C   LIG d   1       9.042  -6.047  -3.915  0.00  0.00    -0.020 A 
ATOM     37  C   LIG d   1       8.535  -4.968  -4.611  0.00  0.00    -0.054 A 
ATOM     38  H   LIG d   1       8.985  -7.039  -4.338  0.00  0.00     0.065 H 
ATOM     39  H   LIG d   1       8.081  -5.116  -5.580  0.00  0.00     0.062 H 
BRANCH  34  40
ATOM     40  O   LIG d   1      10.113  -6.919  -1.978  0.00  0.00    -0.495 OA
BRANCH  40  41
ATOM     41  C   LIG d   1       9.370  -8.137  -2.041  0.00  0.00     0.079 C 
ATOM     42  H   LIG d   1       8.380  -7.981  -1.613  0.00  0.00     0.066 H 
ATOM     43  H   LIG d   1       9.270  -8.450  -3.080  0.00  0.00     0.066 H 
ATOM     44  H   LIG d   1       9.891  -8.911  -1.477  0.00  0.00     0.066 H 
ENDBRANCH  40  41
ENDBRANCH  34  40
ENDBRANCH   1  30
BRANCH   1  45
ATOM     45  C   LIG d   1       6.889  -1.940  -4.091  0.00  0.00    -0.036 A 
ATOM     46  C   LIG d   1       6.949  -0.645  -3.611  0.00  0.00    -0.012 A 
ATOM     47  C   LIG d   1       5.869  -0.109  -2.928  0.00  0.00     0.167 A 
ATOM     48  H   LIG d   1       7.836  -0.052  -3.769  0.00  0.00     0.066 H 
ATOM     49  C   LIG d   1       4.728  -0.880  -2.722  0.00  0.00     0.166 A 
ATOM     50  O   LIG d   1       5.673   1.119  -2.365  0.00  0.00    -0.453 OA
ATOM     51  C   LIG d   1       4.677  -2.179  -3.203  0.00  0.00    -0.016 A 
ATOM     52  O   LIG d   1       3.817  -0.136  -2.029  0.00  0.00    -0.453 OA
ATOM     53  C   LIG d   1       5.756  -2.706  -3.886  0.00  0.00    -0.054 A 
ATOM     54  H   LIG d   1       3.793  -2.779  -3.043  0.00  0.00     0.066 H 
ATOM     55  H   LIG d   1       5.716  -3.719  -4.260  0.00  0.00     0.062 H 
ATOM     56  C   LIG d   1       4.251   1.231  -2.170  0.00  0.00     0.233 C 
ATOM     57  H   LIG d   1       3.781   1.694  -3.036  0.00  0.00     0.117 H 
ATOM     58  H   LIG d   1       4.032   1.798  -1.265  0.00  0.00     0.117 H 
ENDBRANCH   1  45
TORSDOF 11
ENDMDL
MODEL 9
REMARK VINA RESULT:      -5.3      6.953      9.544
REMARK  11 active torsions:
REMARK  status: ('A' for Active; 'I' for Inactive)
REMARK    1  A    between atoms: C_1  and  O_2 
REMARK    2  A    between atoms: O_2  and  C_3 
REMARK    3  A    between atoms: C_6  and  C_9 
REMARK    4  A    between atoms: C_9  and  N_56 
REMARK    5  A    between atoms: C_10  and  C_11 
REMARK    6  A    between atoms: C_10  and  N_56 
REMARK    7  A    between atoms: C_11  and  C_12 
REMARK    8  A    between atoms: C_12  and  C_14 
REMARK    9  A    between atoms: C_12  and  C_22 
REMARK   10  A    between atoms: C_17  and  O_20 
REMARK   11  A    between atoms: O_20  and  C_21 
ROOT
ATOM      1  C   LIG d   1       9.313   5.770  -4.812  0.00  0.00     0.014 C 
ATOM      2  H   LIG d   1       8.257   5.799  -4.541  0.00  0.00     0.040 H 
ENDROOT
BRANCH   1   3
ATOM      3  C   LIG d   1       9.684   4.356  -5.263  0.00  0.00    -0.002 C 
ATOM      4  H   LIG d   1      10.768   4.270  -5.335  0.00  0.00     0.033 H 
ATOM      5  H   LIG d   1       9.239   4.156  -6.237  0.00  0.00     0.033 H 
BRANCH   3   6
ATOM      6  C   LIG d   1       9.159   3.342  -4.244  0.00  0.00    -0.033 C 
ATOM      7  H   LIG d   1       8.546   3.856  -3.504  0.00  0.00     0.081 H 
ATOM      8  H   LIG d   1       9.999   2.857  -3.748  0.00  0.00     0.081 H 
BRANCH   6   9
ATOM      9  N   LIG d   1       8.346   2.330  -4.945  0.00  0.00     0.230 N 
ATOM     10  H   LIG d   1       7.351   2.558  -4.834  0.00  0.00     0.202 HD
ATOM     11  H   LIG d   1       8.587   2.333  -5.942  0.00  0.00     0.202 HD
BRANCH   9  12
ATOM     12  C   LIG d   1       8.603   0.989  -4.386  0.00  0.00    -0.008 C 
ATOM     13  H   LIG d   1       9.364   1.056  -3.608  0.00  0.00     0.087 H 
ATOM     14  H   LIG d   1       8.948   0.322  -5.176  0.00  0.00     0.087 H 
BRANCH  12  15
ATOM     15  C   LIG d   1       7.327   0.448  -3.794  0.00  0.00    -0.003 A 
ATOM     16  C   LIG d   1       7.106  -0.917  -3.762  0.00  0.00    -0.050 A 
ATOM     17  C   LIG d   1       5.938  -1.416  -3.220  0.00  0.00    -0.019 A 
ATOM     18  H   LIG d   1       7.849  -1.593  -4.161  0.00  0.00     0.062 H 
ATOM     19  C   LIG d   1       4.986  -0.547  -2.708  0.00  0.00     0.120 A 
ATOM     20  H   LIG d   1       5.765  -2.482  -3.200  0.00  0.00     0.065 H 
ATOM     21  C   LIG d   1       5.210   0.821  -2.740  0.00  0.00    -0.019 A 
ATOM     22  C   LIG d   1       6.380   1.316  -3.283  0.00  0.00    -0.050 A 
ATOM     23  H   LIG d   1       4.470   1.499  -2.341  0.00  0.00     0.065 H 
ATOM     24  H   LIG d   1       6.555   2.381  -3.310  0.00  0.00     0.062 H 
BRANCH  19  25
ATOM     25  O   LIG d   1       3.835  -1.037  -2.175  0.00  0.00    -0.495 OA
BRANCH  25  26
ATOM     26  C   LIG d   1       2.644  -0.876  -2.947  0.00  0.00     0.079 C 
ATOM     27  H   LIG d   1       1.773  -1.012  -2.305  0.00  0.00     0.066 H 
ATOM     28  H   LIG d   1       2.623   0.124  -3.379  0.00  0.00     0.066 H 
ATOM     29  H   LIG d   1       2.626  -1.617  -3.745  0.00  0.00     0.066 H 
ENDBRANCH  25  26
ENDBRANCH  19  25
ENDBRANCH  12  15
ENDBRANCH   9  12
ENDBRANCH   6   9
ENDBRANCH   3   6
ENDBRANCH   1   3
BRANCH   1  30
ATOM     30  C   LIG d   1       9.569   6.739  -5.937  0.00  0.00    -0.040 A 
ATOM     31  C   LIG d   1      10.155   6.298  -7.108  0.00  0.00    -0.054 A 
ATOM     32  C   LIG d   1      10.390   7.185  -8.141  0.00  0.00    -0.020 A 
ATOM     33  H   LIG d   1      10.428   5.259  -7.217  0.00  0.00     0.062 H 
ATOM     34  C   LIG d   1      10.039   8.520  -8.002  0.00  0.00     0.120 A 
ATOM     35  H   LIG d   1      10.847   6.839  -9.057  0.00  0.00     0.065 H 
ATOM     36  C   LIG d   1       9.452   8.960  -6.825  0.00  0.00    -0.020 A 
ATOM     37  C   LIG d   1       9.213   8.068  -5.798  0.00  0.00    -0.054 A 
ATOM     38  H   LIG d   1       9.176   9.999  -6.714  0.00  0.00     0.065 H 
ATOM     39  H   LIG d   1       8.751   8.410  -4.883  0.00  0.00     0.062 H 
BRANCH  34  40
ATOM     40  O   LIG d   1      10.269   9.394  -9.016  0.00  0.00    -0.495 OA
BRANCH  40  41
ATOM     41  C   LIG d   1      11.106   8.945 -10.082  0.00  0.00     0.079 C 
ATOM     42  H   LIG d   1      11.817   9.730 -10.342  0.00  0.00     0.066 H 
ATOM     43  H   LIG d   1      11.648   8.053  -9.769  0.00  0.00     0.066 H 
ATOM     44  H   LIG d   1      10.492   8.710 -10.952  0.00  0.00     0.066 H 
ENDBRANCH  40  41
ENDBRANCH  34  40
ENDBRANCH   1  30
BRANCH   1  45
ATOM     45  C   LIG d   1      10.149   6.153  -3.618  0.00  0.00    -0.036 A 
ATOM     46  C   LIG d   1       9.536   6.506  -2.431  0.00  0.00    -0.012 A 
ATOM     47  C   LIG d   1      10.303   6.855  -1.331  0.00  0.00     0.167 A 
ATOM     48  H   LIG d   1       8.459   6.508  -2.360  0.00  0.00     0.066 H 
ATOM     49  C   LIG d   1      11.692   6.856  -1.429  0.00  0.00     0.166 A 
ATOM     50  O   LIG d   1       9.954   7.233  -0.067  0.00  0.00    -0.453 OA
ATOM     51  C   LIG d   1      12.300   6.505  -2.623  0.00  0.00    -0.016 A 
ATOM     52  O   LIG d   1      12.214   7.236  -0.226  0.00  0.00    -0.453 OA
ATOM     53  C   LIG d   1      11.529   6.155  -3.715  0.00  0.00    -0.054 A 
ATOM     54  H   LIG d   1      13.378   6.506  -2.702  0.00  0.00     0.066 H 
ATOM     55  H   LIG d   1      12.004   5.882  -4.646  0.00  0.00     0.062 H 
ATOM     56  C   LIG d   1      11.145   7.071   0.726  0.00  0.00     0.233 C 
ATOM     57  H   LIG d   1      11.177   6.077   1.169  0.00  0.00     0.117 H 
ATOM     58  H   LIG d   1      11.198   7.838   1.498  0.00  0.00     0.117 H 
ENDBRANCH   1  45
TORSDOF 11
ENDMDL
MODEL 10
REMARK VINA RESULT:      -5.3      8.877     12.335
REMARK  11 active torsions:
REMARK  status: ('A' for Active; 'I' for Inactive)
REMARK    1  A    between atoms: C_1  and  O_2 
REMARK    2  A    between atoms: O_2  and  C_3 
REMARK    3  A    between atoms: C_6  and  C_9 
REMARK    4  A    between atoms: C_9  and  N_56 
REMARK    5  A    between atoms: C_10  and  C_11 
REMARK    6  A    between atoms: C_10  and  N_56 
REMARK    7  A    between atoms: C_11  and  C_12 
REMARK    8  A    between atoms: C_12  and  C_14 
REMARK    9  A    between atoms: C_12  and  C_22 
REMARK   10  A    between atoms: C_17  and  O_20 
REMARK   11  A    between atoms: O_20  and  C_21 
ROOT
ATOM      1  C   LIG d   1       9.575   8.684  -6.297  0.00  0.00     0.014 C 
ATOM      2  H   LIG d   1       8.509   8.837  -6.130  0.00  0.00     0.040 H 
ENDROOT
BRANCH   1   3
ATOM      3  C   LIG d   1      10.333   9.969  -5.958  0.00  0.00    -0.002 C 
ATOM      4  H   LIG d   1      10.784  10.375  -6.864  0.00  0.00     0.033 H 
ATOM      5  H   LIG d   1      11.115   9.749  -5.231  0.00  0.00     0.033 H 
BRANCH   3   6
ATOM      6  C   LIG d   1       9.362  10.994  -5.369  0.00  0.00    -0.033 C 
ATOM      7  H   LIG d   1       8.414  10.946  -5.907  0.00  0.00     0.081 H 
ATOM      8  H   LIG d   1       9.785  11.994  -5.466  0.00  0.00     0.081 H 
BRANCH   6   9
ATOM      9  N   LIG d   1       9.139  10.685  -3.944  0.00  0.00     0.230 N 
ATOM     10  H   LIG d   1       8.537  11.408  -3.531  0.00  0.00     0.202 HD
ATOM     11  H   LIG d   1       8.679   9.772  -3.864  0.00  0.00     0.202 HD
BRANCH   9  12
ATOM     12  C   LIG d   1      10.423  10.649  -3.221  0.00  0.00    -0.008 C 
ATOM     13  H   LIG d   1      10.551  11.571  -2.654  0.00  0.00     0.087 H 
ATOM     14  H   LIG d   1      11.242  10.542  -3.933  0.00  0.00     0.087 H 
BRANCH  12  15
ATOM     15  C   LIG d   1      10.425   9.475  -2.275  0.00  0.00    -0.003 A 
ATOM     16  C   LIG d   1      11.624   8.922  -1.864  0.00  0.00    -0.050 A 
ATOM     17  C   LIG d   1      11.628   7.847  -0.997  0.00  0.00    -0.019 A 
ATOM     18  H   LIG d   1      12.557   9.331  -2.221  0.00  0.00     0.062 H 
ATOM     19  C   LIG d   1      10.428   7.322  -0.539  0.00  0.00     0.120 A 
ATOM     20  H   LIG d   1      12.564   7.412  -0.681  0.00  0.00     0.065 H 
ATOM     21  C   LIG d   1       9.227   7.880  -0.951  0.00  0.00    -0.019 A 
ATOM     22  C   LIG d   1       9.228   8.954  -1.819  0.00  0.00    -0.050 A 
ATOM     23  H   LIG d   1       8.292   7.473  -0.595  0.00  0.00     0.065 H 
ATOM     24  H   LIG d   1       8.293   9.389  -2.142  0.00  0.00     0.062 H 
BRANCH  19  25
ATOM     25  O   LIG d   1      10.430   6.264   0.314  0.00  0.00    -0.495 OA
BRANCH  25  26
ATOM     26  C   LIG d   1      11.628   5.487   0.380  0.00  0.00     0.079 C 
ATOM     27  H   LIG d   1      11.740   4.911  -0.539  0.00  0.00     0.066 H 
ATOM     28  H   LIG d   1      12.485   6.150   0.500  0.00  0.00     0.066 H 
ATOM     29  H   LIG d   1      11.573   4.807   1.230  0.00  0.00     0.066 H 
ENDBRANCH  25  26
ENDBRANCH  19  25
ENDBRANCH  12  15
ENDBRANCH   9  12
ENDBRANCH   6   9
ENDBRANCH   3   6
ENDBRANCH   1   3
BRANCH   1  30
ATOM     30  C   LIG d   1      10.066   7.564  -5.416  0.00  0.00    -0.040 A 
ATOM     31  C   LIG d   1       9.158   6.750  -4.765  0.00  0.00    -0.054 A 
ATOM     32  C   LIG d   1       9.606   5.723  -3.957  0.00  0.00    -0.020 A 
ATOM     33  H   LIG d   1       8.099   6.917  -4.887  0.00  0.00     0.062 H 
ATOM     34  C   LIG d   1      10.967   5.508  -3.800  0.00  0.00     0.120 A 
ATOM     35  H   LIG d   1       8.896   5.087  -3.449  0.00  0.00     0.065 H 
ATOM     36  C   LIG d   1      11.876   6.327  -4.454  0.00  0.00    -0.020 A 
ATOM     37  C   LIG d   1      11.423   7.349  -5.265  0.00  0.00    -0.054 A 
ATOM     38  H   LIG d   1      12.937   6.161  -4.334  0.00  0.00     0.065 H 
ATOM     39  H   LIG d   1      12.130   7.983  -5.779  0.00  0.00     0.062 H 
BRANCH  34  40
ATOM     40  O   LIG d   1      11.410   4.498  -3.006  0.00  0.00    -0.495 OA
BRANCH  40  41
ATOM     41  C   LIG d   1      10.482   3.456  -2.703  0.00  0.00     0.079 C 
ATOM     42  H   LIG d   1       9.778   3.804  -1.947  0.00  0.00     0.066 H 
ATOM     43  H   LIG d   1       9.938   3.179  -3.606  0.00  0.00     0.066 H 
ATOM     44  H   LIG d   1      11.022   2.587  -2.324  0.00  0.00     0.066 H 
ENDBRANCH  40  41
ENDBRANCH  34  40
ENDBRANCH   1  30
BRANCH   1  45
ATOM     45  C   LIG d   1       9.812   8.327  -7.742  0.00  0.00    -0.036 A 
ATOM     46  C   LIG d   1       9.136   7.262  -8.309  0.00  0.00    -0.012 A 
ATOM     47  C   LIG d   1       9.349   6.934  -9.638  0.00  0.00     0.167 A 
ATOM     48  H   LIG d   1       8.441   6.687  -7.716  0.00  0.00     0.066 H 
ATOM     49  C   LIG d   1      10.251   7.676 -10.398  0.00  0.00     0.166 A 
ATOM     50  O   LIG d   1       8.819   5.953 -10.425  0.00  0.00    -0.453 OA
ATOM     51  C   LIG d   1      10.927   8.739  -9.822  0.00  0.00    -0.016 A 
ATOM     52  O   LIG d   1      10.286   7.158 -11.661  0.00  0.00    -0.453 OA
ATOM     53  C   LIG d   1      10.707   9.062  -8.497  0.00  0.00    -0.054 A 
ATOM     54  H   LIG d   1      11.628   9.315 -10.410  0.00  0.00     0.066 H 
ATOM     55  H   LIG d   1      11.235   9.891  -8.049  0.00  0.00     0.062 H 
ATOM     56  C   LIG d   1       9.098   6.353 -11.779  0.00  0.00     0.233 C 
ATOM     57  H   LIG d   1       8.274   6.942 -12.181  0.00  0.00     0.117 H 
ATOM     58  H   LIG d   1       9.287   5.480 -12.405  0.00  0.00     0.117 H 
ENDBRANCH   1  45
TORSDOF 11
ENDMDL
