MODEL 1
REMARK VINA RESULT:      -7.6      0.000      0.000
REMARK  7 active torsions:
REMARK  status: ('A' for Active; 'I' for Inactive)
REMARK    1  A    between atoms: C_3  and  C_10 
REMARK    2  A    between atoms: C_5  and  N_7 
REMARK    3  A    between atoms: C_12  and  C_15 
REMARK    4  A    between atoms: C_25  and  C_26 
REMARK    5  A    between atoms: C_25  and  N_49 
REMARK    6  A    between atoms: C_29  and  C_31 
REMARK    7  A    between atoms: C_31  and  O_32 
ROOT
ATOM      1  C   LIG d   1      10.778   2.345  -4.508  0.00  0.00     0.066 C 
ATOM      2  H   LIG d   1      11.103   2.746  -5.467  0.00  0.00     0.096 H 
ATOM      3  C   LIG d   1      11.637   1.124  -4.148  0.00  0.00     0.043 C 
ATOM      4  C   LIG d   1      13.017   1.617  -3.797  0.00  0.00     0.073 A 
ATOM      5  C   LIG d   1      13.300   2.910  -3.518  0.00  0.00     0.084 A 
ATOM      6  N   LIG d   1      14.604   2.999  -3.255  0.00  0.00    -0.344 N 
ATOM      7  C   LIG d   1      15.144   1.812  -3.358  0.00  0.00     0.094 A 
ATOM      8  N   LIG d   1      14.180   0.922  -3.696  0.00  0.00    -0.240 NA
ATOM      9  H   LIG d   1      15.093   3.839  -3.017  0.00  0.00     0.167 HD
ATOM     10  C   LIG d   1      12.260   4.003  -3.521  0.00  0.00     0.012 C 
ATOM     11  H   LIG d   1      11.202   0.606  -3.293  0.00  0.00     0.039 H 
ATOM     12  H   LIG d   1      11.692   0.448  -5.000  0.00  0.00     0.039 H 
ATOM     13  H   LIG d   1      16.186   1.579  -3.201  0.00  0.00     0.103 H 
ATOM     14  H   LIG d   1      12.353   4.595  -4.432  0.00  0.00     0.088 H 
ATOM     15  H   LIG d   1      12.398   4.643  -2.649  0.00  0.00     0.088 H 
ATOM     16  N   LIG d   1      10.924   3.362  -3.441  0.00  0.00     0.254 N 
ATOM     17  H   LIG d   1      10.831   2.901  -2.528  0.00  0.00     0.205 HD
ENDROOT
BRANCH   1  18
ATOM     18  C   LIG d   1       9.333   1.932  -4.598  0.00  0.00     0.276 A 
ATOM     19  N   LIG d   1       8.596   1.459  -3.623  0.00  0.00    -0.186 NA
ATOM     20  C   LIG d   1       7.378   1.233  -4.165  0.00  0.00     0.203 A 
ATOM     21  N   LIG d   1       7.448   1.572  -5.425  0.00  0.00    -0.056 NA
ATOM     22  O   LIG d   1       8.561   1.975  -5.688  0.00  0.00    -0.332 OA
BRANCH  20  23
ATOM     23  C   LIG d   1       6.187   0.695  -3.460  0.00  0.00     0.029 A 
ATOM     24  C   LIG d   1       5.471   1.503  -2.581  0.00  0.00    -0.051 A 
ATOM     25  C   LIG d   1       4.365   0.997  -1.928  0.00  0.00    -0.055 A 
ATOM     26  H   LIG d   1       5.780   2.524  -2.409  0.00  0.00     0.062 H 
ATOM     27  C   LIG d   1       3.968  -0.310  -2.147  0.00  0.00     0.016 A 
ATOM     28  H   LIG d   1       3.808   1.622  -1.246  0.00  0.00     0.062 H 
ATOM     29  C   LIG d   1       4.676  -1.117  -3.019  0.00  0.00     0.274 A 
ATOM     30  H   LIG d   1       3.101  -0.702  -1.634  0.00  0.00     0.069 H 
ATOM     31  C   LIG d   1       5.780  -0.619  -3.681  0.00  0.00     0.026 A 
ATOM     32  H   LIG d   1       6.329  -1.248  -4.366  0.00  0.00     0.069 H 
BRANCH  29  33
ATOM     33  N   LIG d   1       4.245  -2.515  -3.247  0.00  0.00     0.080 N 
ATOM     34  O   LIG d   1       4.553  -3.086  -4.279  0.00  0.00     0.041 OA
ATOM     35  O   LIG d   1       3.584  -3.094  -2.405  0.00  0.00    -0.576 OA
ENDBRANCH  29  33
ENDBRANCH  20  23
ENDBRANCH   1  18
BRANCH  16  36
ATOM     36  C   LIG d   1       9.866   4.384  -3.573  0.00  0.00     0.029 C 
ATOM     37  H   LIG d   1       8.893   3.902  -3.484  0.00  0.00     0.090 H 
ATOM     38  H   LIG d   1       9.936   4.888  -4.537  0.00  0.00     0.090 H 
BRANCH  36  39
ATOM     39  C   LIG d   1      10.029   5.394  -2.466  0.00  0.00     0.150 A 
ATOM     40  O   LIG d   1      10.527   5.146  -1.244  0.00  0.00    -0.457 OA
ATOM     41  C   LIG d   1      10.523   6.277  -0.520  0.00  0.00     0.131 A 
ATOM     42  C   LIG d   1      10.018   7.266  -1.280  0.00  0.00    -0.018 A 
ATOM     43  C   LIG d   1       9.700   6.696  -2.534  0.00  0.00    -0.015 A 
ATOM     44  H   LIG d   1       9.883   8.297  -0.988  0.00  0.00     0.065 H 
ATOM     45  H   LIG d   1       9.274   7.210  -3.385  0.00  0.00     0.065 H 
BRANCH  41  46
ATOM     46  C   LIG d   1      11.003   6.416   0.902  0.00  0.00     0.102 C 
ATOM     47  H   LIG d   1      12.091   6.477   0.914  0.00  0.00     0.064 H 
ATOM     48  H   LIG d   1      10.584   7.321   1.340  0.00  0.00     0.064 H 
BRANCH  46  49
ATOM     49  O   LIG d   1      10.582   5.281   1.659  0.00  0.00    -0.387 OA
ATOM     50  H   LIG d   1      10.470   4.476   1.134  0.00  0.00     0.210 HD
ENDBRANCH  46  49
ENDBRANCH  41  46
ENDBRANCH  36  39
ENDBRANCH  16  36
TORSDOF 7
ENDMDL
MODEL 2
REMARK VINA RESULT:      -7.6      2.299      8.184
REMARK  7 active torsions:
REMARK  status: ('A' for Active; 'I' for Inactive)
REMARK    1  A    between atoms: C_3  and  C_10 
REMARK    2  A    between atoms: C_5  and  N_7 
REMARK    3  A    between atoms: C_12  and  C_15 
REMARK    4  A    between atoms: C_25  and  C_26 
REMARK    5  A    between atoms: C_25  and  N_49 
REMARK    6  A    between atoms: C_29  and  C_31 
REMARK    7  A    between atoms: C_31  and  O_32 
ROOT
ATOM      1  C   LIG d   1       8.954   1.752  -5.317  0.00  0.00     0.066 C 
ATOM      2  H   LIG d   1       9.562   0.868  -5.502  0.00  0.00     0.096 H 
ATOM      3  C   LIG d   1       8.854   2.583  -6.605  0.00  0.00     0.043 C 
ATOM      4  C   LIG d   1       7.976   1.831  -7.572  0.00  0.00     0.073 A 
ATOM      5  C   LIG d   1       7.167   0.811  -7.208  0.00  0.00     0.084 A 
ATOM      6  N   LIG d   1       6.540   0.373  -8.301  0.00  0.00    -0.344 N 
ATOM      7  C   LIG d   1       6.925   1.084  -9.329  0.00  0.00     0.094 A 
ATOM      8  N   LIG d   1       7.824   2.006  -8.910  0.00  0.00    -0.240 NA
ATOM      9  H   LIG d   1       5.879  -0.377  -8.330  0.00  0.00     0.167 HD
ATOM     10  C   LIG d   1       7.050   0.314  -5.789  0.00  0.00     0.012 C 
ATOM     11  H   LIG d   1       8.412   3.554  -6.384  0.00  0.00     0.039 H 
ATOM     12  H   LIG d   1       9.846   2.717  -7.034  0.00  0.00     0.039 H 
ATOM     13  H   LIG d   1       6.584   0.955 -10.346  0.00  0.00     0.103 H 
ATOM     14  H   LIG d   1       7.608  -0.615  -5.677  0.00  0.00     0.088 H 
ATOM     15  H   LIG d   1       6.000   0.145  -5.545  0.00  0.00     0.088 H 
ATOM     16  N   LIG d   1       7.589   1.365  -4.891  0.00  0.00     0.254 N 
ATOM     17  H   LIG d   1       6.980   2.190  -4.942  0.00  0.00     0.205 HD
ENDROOT
BRANCH   1  18
ATOM     18  C   LIG d   1       9.590   2.582  -4.233  0.00  0.00     0.276 A 
ATOM     19  N   LIG d   1       9.266   3.808  -3.900  0.00  0.00    -0.186 NA
ATOM     20  C   LIG d   1      10.095   4.140  -2.885  0.00  0.00     0.203 A 
ATOM     21  N   LIG d   1      10.871   3.110  -2.668  0.00  0.00    -0.056 NA
ATOM     22  O   LIG d   1      10.592   2.210  -3.432  0.00  0.00    -0.332 OA
BRANCH  20  23
ATOM     23  C   LIG d   1      10.123   5.434  -2.159  0.00  0.00     0.029 A 
ATOM     24  C   LIG d   1       9.614   6.584  -2.758  0.00  0.00    -0.051 A 
ATOM     25  C   LIG d   1       9.643   7.784  -2.078  0.00  0.00    -0.055 A 
ATOM     26  H   LIG d   1       9.197   6.536  -3.753  0.00  0.00     0.062 H 
ATOM     27  C   LIG d   1      10.176   7.846  -0.803  0.00  0.00     0.016 A 
ATOM     28  H   LIG d   1       9.248   8.676  -2.541  0.00  0.00     0.062 H 
ATOM     29  C   LIG d   1      10.684   6.708  -0.204  0.00  0.00     0.274 A 
ATOM     30  H   LIG d   1      10.197   8.788  -0.274  0.00  0.00     0.069 H 
ATOM     31  C   LIG d   1      10.655   5.501  -0.872  0.00  0.00     0.026 A 
ATOM     32  H   LIG d   1      11.047   4.612  -0.402  0.00  0.00     0.069 H 
BRANCH  29  33
ATOM     33  N   LIG d   1      11.255   6.783   1.161  0.00  0.00     0.080 N 
ATOM     34  O   LIG d   1      11.151   5.833   1.917  0.00  0.00     0.041 OA
ATOM     35  O   LIG d   1      11.828   7.793   1.527  0.00  0.00    -0.576 OA
ENDBRANCH  29  33
ENDBRANCH  20  23
ENDBRANCH   1  18
BRANCH  16  36
ATOM     36  C   LIG d   1       7.616   0.874  -3.499  0.00  0.00     0.029 C 
ATOM     37  H   LIG d   1       7.946   1.680  -2.844  0.00  0.00     0.090 H 
ATOM     38  H   LIG d   1       8.296   0.027  -3.403  0.00  0.00     0.090 H 
BRANCH  36  39
ATOM     39  C   LIG d   1       6.225   0.448  -3.108  0.00  0.00     0.150 A 
ATOM     40  O   LIG d   1       5.789  -0.819  -3.014  0.00  0.00    -0.457 OA
ATOM     41  C   LIG d   1       4.498  -0.823  -2.643  0.00  0.00     0.131 A 
ATOM     42  C   LIG d   1       4.095   0.452  -2.495  0.00  0.00    -0.018 A 
ATOM     43  C   LIG d   1       5.208   1.270  -2.795  0.00  0.00    -0.015 A 
ATOM     44  H   LIG d   1       3.111   0.786  -2.203  0.00  0.00     0.065 H 
ATOM     45  H   LIG d   1       5.236   2.351  -2.776  0.00  0.00     0.065 H 
BRANCH  41  46
ATOM     46  C   LIG d   1       3.646  -2.047  -2.427  0.00  0.00     0.102 C 
ATOM     47  H   LIG d   1       3.788  -2.414  -1.411  0.00  0.00     0.064 H 
ATOM     48  H   LIG d   1       2.598  -1.792  -2.578  0.00  0.00     0.064 H 
BRANCH  46  49
ATOM     49  O   LIG d   1       4.028  -3.062  -3.357  0.00  0.00    -0.387 OA
ATOM     50  H   LIG d   1       4.310  -3.890  -2.942  0.00  0.00     0.210 HD
ENDBRANCH  46  49
ENDBRANCH  41  46
ENDBRANCH  36  39
ENDBRANCH  16  36
TORSDOF 7
ENDMDL
MODEL 3
REMARK VINA RESULT:      -7.3      6.317     11.980
REMARK  7 active torsions:
REMARK  status: ('A' for Active; 'I' for Inactive)
REMARK    1  A    between atoms: C_3  and  C_10 
REMARK    2  A    between atoms: C_5  and  N_7 
REMARK    3  A    between atoms: C_12  and  C_15 
REMARK    4  A    between atoms: C_25  and  C_26 
REMARK    5  A    between atoms: C_25  and  N_49 
REMARK    6  A    between atoms: C_29  and  C_31 
REMARK    7  A    between atoms: C_31  and  O_32 
ROOT
ATOM      1  C   LIG d   1       4.765  -5.645  -7.434  0.00  0.00     0.066 C 
ATOM      2  H   LIG d   1       5.632  -5.506  -8.078  0.00  0.00     0.096 H 
ATOM      3  C   LIG d   1       3.482  -5.423  -8.249  0.00  0.00     0.043 C 
ATOM      4  C   LIG d   1       3.326  -6.590  -9.189  0.00  0.00     0.073 A 
ATOM      5  C   LIG d   1       4.004  -7.752  -9.057  0.00  0.00     0.084 A 
ATOM      6  N   LIG d   1       3.634  -8.561 -10.050  0.00  0.00    -0.344 N 
ATOM      7  C   LIG d   1       2.750  -7.948 -10.794  0.00  0.00     0.094 A 
ATOM      8  N   LIG d   1       2.532  -6.713 -10.285  0.00  0.00    -0.240 NA
ATOM      9  H   LIG d   1       3.977  -9.489 -10.202  0.00  0.00     0.167 HD
ATOM     10  C   LIG d   1       4.992  -8.011  -7.946  0.00  0.00     0.012 C 
ATOM     11  H   LIG d   1       2.624  -5.372  -7.579  0.00  0.00     0.039 H 
ATOM     12  H   LIG d   1       3.562  -4.498  -8.818  0.00  0.00     0.039 H 
ATOM     13  H   LIG d   1       2.272  -8.359 -11.671  0.00  0.00     0.103 H 
ATOM     14  H   LIG d   1       6.008  -7.924  -8.330  0.00  0.00     0.088 H 
ATOM     15  H   LIG d   1       4.835  -9.012  -7.542  0.00  0.00     0.088 H 
ATOM     16  N   LIG d   1       4.744  -7.016  -6.874  0.00  0.00     0.254 N 
ATOM     17  H   LIG d   1       3.820  -7.192  -6.463  0.00  0.00     0.205 HD
ENDROOT
BRANCH   1  18
ATOM     18  C   LIG d   1       4.816  -4.653  -6.301  0.00  0.00     0.276 A 
ATOM     19  N   LIG d   1       5.535  -3.558  -6.258  0.00  0.00    -0.186 NA
ATOM     20  C   LIG d   1       5.261  -2.990  -5.062  0.00  0.00     0.203 A 
ATOM     21  N   LIG d   1       4.407  -3.769  -4.452  0.00  0.00    -0.056 NA
ATOM     22  O   LIG d   1       4.142  -4.725  -5.150  0.00  0.00    -0.332 OA
BRANCH  20  23
ATOM     23  C   LIG d   1       5.830  -1.723  -4.538  0.00  0.00     0.029 A 
ATOM     24  C   LIG d   1       7.166  -1.408  -4.769  0.00  0.00    -0.051 A 
ATOM     25  C   LIG d   1       7.689  -0.228  -4.279  0.00  0.00    -0.055 A 
ATOM     26  H   LIG d   1       7.793  -2.085  -5.331  0.00  0.00     0.062 H 
ATOM     27  C   LIG d   1       6.888   0.640  -3.559  0.00  0.00     0.016 A 
ATOM     28  H   LIG d   1       8.725   0.018  -4.458  0.00  0.00     0.062 H 
ATOM     29  C   LIG d   1       5.560   0.331  -3.326  0.00  0.00     0.274 A 
ATOM     30  H   LIG d   1       7.301   1.562  -3.178  0.00  0.00     0.069 H 
ATOM     31  C   LIG d   1       5.025  -0.843  -3.816  0.00  0.00     0.026 A 
ATOM     32  H   LIG d   1       3.987  -1.081  -3.638  0.00  0.00     0.069 H 
BRANCH  29  33
ATOM     33  N   LIG d   1       4.709   1.265  -2.554  0.00  0.00     0.080 N 
ATOM     34  O   LIG d   1       4.738   1.250  -1.336  0.00  0.00     0.041 OA
ATOM     35  O   LIG d   1       3.980   2.048  -3.136  0.00  0.00    -0.576 OA
ENDBRANCH  29  33
ENDBRANCH  20  23
ENDBRANCH   1  18
BRANCH  16  36
ATOM     36  C   LIG d   1       5.771  -7.144  -5.820  0.00  0.00     0.029 C 
ATOM     37  H   LIG d   1       5.758  -6.248  -5.201  0.00  0.00     0.090 H 
ATOM     38  H   LIG d   1       6.760  -7.268  -6.260  0.00  0.00     0.090 H 
BRANCH  36  39
ATOM     39  C   LIG d   1       5.445  -8.346  -4.971  0.00  0.00     0.150 A 
ATOM     40  O   LIG d   1       4.212  -8.805  -4.701  0.00  0.00    -0.457 OA
ATOM     41  C   LIG d   1       4.300  -9.891  -3.916  0.00  0.00     0.131 A 
ATOM     42  C   LIG d   1       5.601 -10.137  -3.675  0.00  0.00    -0.018 A 
ATOM     43  C   LIG d   1       6.338  -9.141  -4.356  0.00  0.00    -0.015 A 
ATOM     44  H   LIG d   1       6.004 -10.940  -3.078  0.00  0.00     0.065 H 
ATOM     45  H   LIG d   1       7.414  -9.038  -4.378  0.00  0.00     0.065 H 
BRANCH  41  46
ATOM     46  C   LIG d   1       3.140 -10.698  -3.393  0.00  0.00     0.102 C 
ATOM     47  H   LIG d   1       2.752 -11.334  -4.188  0.00  0.00     0.064 H 
ATOM     48  H   LIG d   1       3.474 -11.318  -2.562  0.00  0.00     0.064 H 
BRANCH  46  49
ATOM     49  O   LIG d   1       2.110  -9.815  -2.944  0.00  0.00    -0.387 OA
ATOM     50  H   LIG d   1       2.439  -9.008  -2.522  0.00  0.00     0.210 HD
ENDBRANCH  46  49
ENDBRANCH  41  46
ENDBRANCH  36  39
ENDBRANCH  16  36
TORSDOF 7
ENDMDL
MODEL 4
REMARK VINA RESULT:      -7.2      2.097      2.867
REMARK  7 active torsions:
REMARK  status: ('A' for Active; 'I' for Inactive)
REMARK    1  A    between atoms: C_3  and  C_10 
REMARK    2  A    between atoms: C_5  and  N_7 
REMARK    3  A    between atoms: C_12  and  C_15 
REMARK    4  A    between atoms: C_25  and  C_26 
REMARK    5  A    between atoms: C_25  and  N_49 
REMARK    6  A    between atoms: C_29  and  C_31 
REMARK    7  A    between atoms: C_31  and  O_32 
ROOT
ATOM      1  C   LIG d   1       9.520   3.998  -4.949  0.00  0.00     0.066 C 
ATOM      2  H   LIG d   1       8.884   4.853  -4.722  0.00  0.00     0.096 H 
ATOM      3  C   LIG d   1       9.854   3.994  -6.448  0.00  0.00     0.043 C 
ATOM      4  C   LIG d   1      10.804   5.133  -6.713  0.00  0.00     0.073 A 
ATOM      5  C   LIG d   1      11.483   5.781  -5.739  0.00  0.00     0.084 A 
ATOM      6  N   LIG d   1      12.225   6.728  -6.315  0.00  0.00    -0.344 N 
ATOM      7  C   LIG d   1      12.035   6.694  -7.608  0.00  0.00     0.094 A 
ATOM      8  N   LIG d   1      11.152   5.707  -7.894  0.00  0.00    -0.240 NA
ATOM      9  H   LIG d   1      12.830   7.364  -5.834  0.00  0.00     0.167 HD
ATOM     10  C   LIG d   1      11.369   5.429  -4.277  0.00  0.00     0.012 C 
ATOM     11  H   LIG d   1      10.326   3.049  -6.718  0.00  0.00     0.039 H 
ATOM     12  H   LIG d   1       8.943   4.130  -7.029  0.00  0.00     0.039 H 
ATOM     13  H   LIG d   1      12.505   7.345  -8.331  0.00  0.00     0.103 H 
ATOM     14  H   LIG d   1      10.738   6.161  -3.771  0.00  0.00     0.088 H 
ATOM     15  H   LIG d   1      12.360   5.421  -3.823  0.00  0.00     0.088 H 
ATOM     16  N   LIG d   1      10.783   4.070  -4.179  0.00  0.00     0.254 N 
ATOM     17  H   LIG d   1      11.449   3.392  -4.570  0.00  0.00     0.205 HD
ENDROOT
BRANCH   1  18
ATOM     18  C   LIG d   1       8.799   2.725  -4.592  0.00  0.00     0.276 A 
ATOM     19  N   LIG d   1       7.602   2.630  -4.067  0.00  0.00    -0.186 NA
ATOM     20  C   LIG d   1       7.371   1.306  -3.925  0.00  0.00     0.203 A 
ATOM     21  N   LIG d   1       8.433   0.681  -4.361  0.00  0.00    -0.056 NA
ATOM     22  O   LIG d   1       9.259   1.481  -4.747  0.00  0.00    -0.332 OA
BRANCH  20  23
ATOM     23  C   LIG d   1       6.144   0.680  -3.372  0.00  0.00     0.029 A 
ATOM     24  C   LIG d   1       5.354   1.376  -2.461  0.00  0.00    -0.051 A 
ATOM     25  C   LIG d   1       4.214   0.789  -1.950  0.00  0.00    -0.055 A 
ATOM     26  H   LIG d   1       5.632   2.374  -2.155  0.00  0.00     0.062 H 
ATOM     27  C   LIG d   1       3.857  -0.489  -2.342  0.00  0.00     0.016 A 
ATOM     28  H   LIG d   1       3.600   1.328  -1.244  0.00  0.00     0.062 H 
ATOM     29  C   LIG d   1       4.638  -1.185  -3.245  0.00  0.00     0.274 A 
ATOM     30  H   LIG d   1       2.964  -0.945  -1.939  0.00  0.00     0.069 H 
ATOM     31  C   LIG d   1       5.777  -0.605  -3.767  0.00  0.00     0.026 A 
ATOM     32  H   LIG d   1       6.384  -1.147  -4.477  0.00  0.00     0.069 H 
BRANCH  29  33
ATOM     33  N   LIG d   1       4.250  -2.553  -3.659  0.00  0.00     0.080 N 
ATOM     34  O   LIG d   1       4.347  -2.886  -4.827  0.00  0.00     0.041 OA
ATOM     35  O   LIG d   1       3.834  -3.344  -2.832  0.00  0.00    -0.576 OA
ENDBRANCH  29  33
ENDBRANCH  20  23
ENDBRANCH   1  18
BRANCH  16  36
ATOM     36  C   LIG d   1      10.529   3.730  -2.764  0.00  0.00     0.029 C 
ATOM     37  H   LIG d   1      11.323   3.075  -2.408  0.00  0.00     0.090 H 
ATOM     38  H   LIG d   1       9.567   3.229  -2.655  0.00  0.00     0.090 H 
BRANCH  36  39
ATOM     39  C   LIG d   1      10.527   5.002  -1.955  0.00  0.00     0.150 A 
ATOM     40  O   LIG d   1       9.645   6.007  -2.074  0.00  0.00    -0.457 OA
ATOM     41  C   LIG d   1       9.947   6.976  -1.195  0.00  0.00     0.131 A 
ATOM     42  C   LIG d   1      11.035   6.595  -0.500  0.00  0.00    -0.018 A 
ATOM     43  C   LIG d   1      11.408   5.322  -0.990  0.00  0.00    -0.015 A 
ATOM     44  H   LIG d   1      11.527   7.154   0.282  0.00  0.00     0.065 H 
ATOM     45  H   LIG d   1      12.241   4.722  -0.653  0.00  0.00     0.065 H 
BRANCH  41  46
ATOM     46  C   LIG d   1       9.197   8.270  -1.016  0.00  0.00     0.102 C 
ATOM     47  H   LIG d   1       9.497   8.738  -0.078  0.00  0.00     0.064 H 
ATOM     48  H   LIG d   1       9.424   8.940  -1.844  0.00  0.00     0.064 H 
BRANCH  46  49
ATOM     49  O   LIG d   1       7.793   8.006  -0.988  0.00  0.00    -0.387 OA
ATOM     50  H   LIG d   1       7.563   7.129  -0.649  0.00  0.00     0.210 HD
ENDBRANCH  46  49
ENDBRANCH  41  46
ENDBRANCH  36  39
ENDBRANCH  16  36
TORSDOF 7
ENDMDL
MODEL 5
REMARK VINA RESULT:      -7.2      7.089     10.520
REMARK  7 active torsions:
REMARK  status: ('A' for Active; 'I' for Inactive)
REMARK    1  A    between atoms: C_3  and  C_10 
REMARK    2  A    between atoms: C_5  and  N_7 
REMARK    3  A    between atoms: C_12  and  C_15 
REMARK    4  A    between atoms: C_25  and  C_26 
REMARK    5  A    between atoms: C_25  and  N_49 
REMARK    6  A    between atoms: C_29  and  C_31 
REMARK    7  A    between atoms: C_31  and  O_32 
ROOT
ATOM      1  C   LIG d   1       5.021  -2.764  -4.829  0.00  0.00     0.066 C 
ATOM      2  H   LIG d   1       6.100  -2.659  -4.722  0.00  0.00     0.096 H 
ATOM      3  C   LIG d   1       4.349  -2.550  -3.464  0.00  0.00     0.043 C 
ATOM      4  C   LIG d   1       4.459  -1.087  -3.119  0.00  0.00     0.073 A 
ATOM      5  C   LIG d   1       4.773  -0.129  -4.020  0.00  0.00     0.084 A 
ATOM      6  N   LIG d   1       4.789   1.044  -3.386  0.00  0.00    -0.344 N 
ATOM      7  C   LIG d   1       4.495   0.853  -2.126  0.00  0.00     0.094 A 
ATOM      8  N   LIG d   1       4.282  -0.469  -1.923  0.00  0.00    -0.240 NA
ATOM      9  H   LIG d   1       4.992   1.929  -3.806  0.00  0.00     0.167 HD
ATOM     10  C   LIG d   1       5.043  -0.419  -5.476  0.00  0.00     0.012 C 
ATOM     11  H   LIG d   1       3.299  -2.837  -3.521  0.00  0.00     0.039 H 
ATOM     12  H   LIG d   1       4.855  -3.148  -2.707  0.00  0.00     0.039 H 
ATOM     13  H   LIG d   1       4.432   1.622  -1.371  0.00  0.00     0.103 H 
ATOM     14  H   LIG d   1       6.116  -0.387  -5.665  0.00  0.00     0.088 H 
ATOM     15  H   LIG d   1       4.537   0.321  -6.097  0.00  0.00     0.088 H 
ATOM     16  N   LIG d   1       4.492  -1.762  -5.783  0.00  0.00     0.254 N 
ATOM     17  H   LIG d   1       3.469  -1.730  -5.697  0.00  0.00     0.205 HD
ENDROOT
BRANCH   1  18
ATOM     18  C   LIG d   1       4.697  -4.145  -5.336  0.00  0.00     0.276 A 
ATOM     19  N   LIG d   1       5.489  -5.188  -5.311  0.00  0.00    -0.186 NA
ATOM     20  C   LIG d   1       4.780  -6.197  -5.866  0.00  0.00     0.203 A 
ATOM     21  N   LIG d   1       3.613  -5.709  -6.199  0.00  0.00    -0.056 NA
ATOM     22  O   LIG d   1       3.551  -4.535  -5.901  0.00  0.00    -0.332 OA
BRANCH  20  23
ATOM     23  C   LIG d   1       5.242  -7.593  -6.064  0.00  0.00     0.029 A 
ATOM     24  C   LIG d   1       6.253  -7.872  -6.981  0.00  0.00    -0.051 A 
ATOM     25  C   LIG d   1       6.678  -9.172  -7.161  0.00  0.00    -0.055 A 
ATOM     26  H   LIG d   1       6.704  -7.071  -7.549  0.00  0.00     0.062 H 
ATOM     27  C   LIG d   1       6.102 -10.198  -6.434  0.00  0.00     0.016 A 
ATOM     28  H   LIG d   1       7.463  -9.389  -7.871  0.00  0.00     0.062 H 
ATOM     29  C   LIG d   1       5.097  -9.927  -5.523  0.00  0.00     0.274 A 
ATOM     30  H   LIG d   1       6.438 -11.214  -6.578  0.00  0.00     0.069 H 
ATOM     31  C   LIG d   1       4.668  -8.629  -5.330  0.00  0.00     0.026 A 
ATOM     32  H   LIG d   1       3.887  -8.418  -4.616  0.00  0.00     0.069 H 
BRANCH  29  33
ATOM     33  N   LIG d   1       4.484 -11.030  -4.749  0.00  0.00     0.080 N 
ATOM     34  O   LIG d   1       5.105 -12.062  -4.563  0.00  0.00     0.041 OA
ATOM     35  O   LIG d   1       3.360 -10.906  -4.298  0.00  0.00    -0.576 OA
ENDBRANCH  29  33
ENDBRANCH  20  23
ENDBRANCH   1  18
BRANCH  16  36
ATOM     36  C   LIG d   1       4.845  -2.148  -7.164  0.00  0.00     0.029 C 
ATOM     37  H   LIG d   1       5.010  -3.225  -7.201  0.00  0.00     0.090 H 
ATOM     38  H   LIG d   1       5.748  -1.631  -7.489  0.00  0.00     0.090 H 
BRANCH  36  39
ATOM     39  C   LIG d   1       3.702  -1.783  -8.076  0.00  0.00     0.150 A 
ATOM     40  O   LIG d   1       3.150  -2.584  -9.002  0.00  0.00    -0.457 OA
ATOM     41  C   LIG d   1       2.157  -1.929  -9.626  0.00  0.00     0.131 A 
ATOM     42  C   LIG d   1       2.066  -0.694  -9.101  0.00  0.00    -0.018 A 
ATOM     43  C   LIG d   1       3.062  -0.601  -8.101  0.00  0.00    -0.015 A 
ATOM     44  H   LIG d   1       1.367   0.077  -9.387  0.00  0.00     0.065 H 
ATOM     45  H   LIG d   1       3.269   0.257  -7.477  0.00  0.00     0.065 H 
BRANCH  41  46
ATOM     46  C   LIG d   1       1.292  -2.483 -10.728  0.00  0.00     0.102 C 
ATOM     47  H   LIG d   1       0.715  -1.675 -11.178  0.00  0.00     0.064 H 
ATOM     48  H   LIG d   1       1.921  -2.946 -11.487  0.00  0.00     0.064 H 
BRANCH  46  49
ATOM     49  O   LIG d   1       0.400  -3.460 -10.187  0.00  0.00    -0.387 OA
ATOM     50  H   LIG d   1       0.587  -3.698  -9.268  0.00  0.00     0.210 HD
ENDBRANCH  46  49
ENDBRANCH  41  46
ENDBRANCH  36  39
ENDBRANCH  16  36
TORSDOF 7
ENDMDL
MODEL 6
REMARK VINA RESULT:      -7.1      6.668      9.530
REMARK  7 active torsions:
REMARK  status: ('A' for Active; 'I' for Inactive)
REMARK    1  A    between atoms: C_3  and  C_10 
REMARK    2  A    between atoms: C_5  and  N_7 
REMARK    3  A    between atoms: C_12  and  C_15 
REMARK    4  A    between atoms: C_25  and  C_26 
REMARK    5  A    between atoms: C_25  and  N_49 
REMARK    6  A    between atoms: C_29  and  C_31 
REMARK    7  A    between atoms: C_31  and  O_32 
ROOT
ATOM      1  C   LIG d   1       4.394  -3.231  -6.750  0.00  0.00     0.066 C 
ATOM      2  H   LIG d   1       3.557  -3.202  -6.053  0.00  0.00     0.096 H 
ATOM      3  C   LIG d   1       3.867  -3.091  -8.186  0.00  0.00     0.043 C 
ATOM      4  C   LIG d   1       3.394  -1.672  -8.368  0.00  0.00     0.073 A 
ATOM      5  C   LIG d   1       3.719  -0.663  -7.528  0.00  0.00     0.084 A 
ATOM      6  N   LIG d   1       3.136   0.449  -7.976  0.00  0.00    -0.344 N 
ATOM      7  C   LIG d   1       2.463   0.173  -9.063  0.00  0.00     0.094 A 
ATOM      8  N   LIG d   1       2.602  -1.146  -9.338  0.00  0.00    -0.240 NA
ATOM      9  H   LIG d   1       3.204   1.352  -7.551  0.00  0.00     0.167 HD
ATOM     10  C   LIG d   1       4.599  -0.846  -6.317  0.00  0.00     0.012 C 
ATOM     11  H   LIG d   1       4.665  -3.308  -8.895  0.00  0.00     0.039 H 
ATOM     12  H   LIG d   1       3.037  -3.780  -8.342  0.00  0.00     0.039 H 
ATOM     13  H   LIG d   1       1.890   0.879  -9.645  0.00  0.00     0.103 H 
ATOM     14  H   LIG d   1       3.985  -0.865  -5.416  0.00  0.00     0.088 H 
ATOM     15  H   LIG d   1       5.317  -0.028  -6.257  0.00  0.00     0.088 H 
ATOM     16  N   LIG d   1       5.338  -2.123  -6.478  0.00  0.00     0.254 N 
ATOM     17  H   LIG d   1       5.983  -2.036  -7.272  0.00  0.00     0.205 HD
ENDROOT
BRANCH   1  18
ATOM     18  C   LIG d   1       5.121  -4.542  -6.608  0.00  0.00     0.276 A 
ATOM     19  N   LIG d   1       4.861  -5.487  -5.738  0.00  0.00    -0.186 NA
ATOM     20  C   LIG d   1       5.760  -6.466  -5.984  0.00  0.00     0.203 A 
ATOM     21  N   LIG d   1       6.511  -6.060  -6.975  0.00  0.00    -0.056 NA
ATOM     22  O   LIG d   1       6.156  -4.960  -7.343  0.00  0.00    -0.332 OA
BRANCH  20  23
ATOM     23  C   LIG d   1       5.877  -7.757  -5.261  0.00  0.00     0.029 A 
ATOM     24  C   LIG d   1       7.127  -8.338  -5.063  0.00  0.00    -0.051 A 
ATOM     25  C   LIG d   1       7.228  -9.539  -4.391  0.00  0.00    -0.055 A 
ATOM     26  H   LIG d   1       8.015  -7.850  -5.436  0.00  0.00     0.062 H 
ATOM     27  C   LIG d   1       6.091 -10.164  -3.912  0.00  0.00     0.016 A 
ATOM     28  H   LIG d   1       8.197  -9.990  -4.236  0.00  0.00     0.062 H 
ATOM     29  C   LIG d   1       4.847  -9.592  -4.106  0.00  0.00     0.274 A 
ATOM     30  H   LIG d   1       6.175 -11.104  -3.386  0.00  0.00     0.069 H 
ATOM     31  C   LIG d   1       4.734  -8.388  -4.773  0.00  0.00     0.026 A 
ATOM     32  H   LIG d   1       3.763  -7.940  -4.919  0.00  0.00     0.069 H 
BRANCH  29  33
ATOM     33  N   LIG d   1       3.634 -10.268  -3.592  0.00  0.00     0.080 N 
ATOM     34  O   LIG d   1       3.552 -11.483  -3.630  0.00  0.00     0.041 OA
ATOM     35  O   LIG d   1       2.719  -9.610  -3.132  0.00  0.00    -0.576 OA
ENDBRANCH  29  33
ENDBRANCH  20  23
ENDBRANCH   1  18
BRANCH  16  36
ATOM     36  C   LIG d   1       6.116  -2.413  -5.257  0.00  0.00     0.029 C 
ATOM     37  H   LIG d   1       7.090  -1.933  -5.334  0.00  0.00     0.090 H 
ATOM     38  H   LIG d   1       6.249  -3.488  -5.132  0.00  0.00     0.090 H 
BRANCH  36  39
ATOM     39  C   LIG d   1       5.375  -1.858  -4.068  0.00  0.00     0.150 A 
ATOM     40  O   LIG d   1       5.522  -0.625  -3.557  0.00  0.00    -0.457 OA
ATOM     41  C   LIG d   1       4.704  -0.476  -2.502  0.00  0.00     0.131 A 
ATOM     42  C   LIG d   1       4.021  -1.623  -2.328  0.00  0.00    -0.018 A 
ATOM     43  C   LIG d   1       4.454  -2.513  -3.338  0.00  0.00    -0.015 A 
ATOM     44  H   LIG d   1       3.285  -1.824  -1.565  0.00  0.00     0.065 H 
ATOM     45  H   LIG d   1       4.110  -3.526  -3.493  0.00  0.00     0.065 H 
BRANCH  41  46
ATOM     46  C   LIG d   1       4.572   0.764  -1.656  0.00  0.00     0.102 C 
ATOM     47  H   LIG d   1       4.506   0.482  -0.605  0.00  0.00     0.064 H 
ATOM     48  H   LIG d   1       5.442   1.401  -1.807  0.00  0.00     0.064 H 
BRANCH  46  49
ATOM     49  O   LIG d   1       3.391   1.474  -2.034  0.00  0.00    -0.387 OA
ATOM     50  H   LIG d   1       3.555   2.374  -2.346  0.00  0.00     0.210 HD
ENDBRANCH  46  49
ENDBRANCH  41  46
ENDBRANCH  36  39
ENDBRANCH  16  36
TORSDOF 7
ENDMDL
MODEL 7
REMARK VINA RESULT:      -7.1      2.700      7.898
REMARK  7 active torsions:
REMARK  status: ('A' for Active; 'I' for Inactive)
REMARK    1  A    between atoms: C_3  and  C_10 
REMARK    2  A    between atoms: C_5  and  N_7 
REMARK    3  A    between atoms: C_12  and  C_15 
REMARK    4  A    between atoms: C_25  and  C_26 
REMARK    5  A    between atoms: C_25  and  N_49 
REMARK    6  A    between atoms: C_29  and  C_31 
REMARK    7  A    between atoms: C_31  and  O_32 
ROOT
ATOM      1  C   LIG d   1       8.678  -0.490  -4.732  0.00  0.00     0.066 C 
ATOM      2  H   LIG d   1       9.413  -0.833  -4.005  0.00  0.00     0.096 H 
ATOM      3  C   LIG d   1       8.910  -1.207  -6.070  0.00  0.00     0.043 C 
ATOM      4  C   LIG d   1       8.495  -2.645  -5.902  0.00  0.00     0.073 A 
ATOM      5  C   LIG d   1       7.738  -3.089  -4.873  0.00  0.00     0.084 A 
ATOM      6  N   LIG d   1       7.561  -4.401  -5.028  0.00  0.00    -0.344 N 
ATOM      7  C   LIG d   1       8.177  -4.792  -6.114  0.00  0.00     0.094 A 
ATOM      8  N   LIG d   1       8.772  -3.719  -6.687  0.00  0.00    -0.240 NA
ATOM      9  H   LIG d   1       7.040  -4.994  -4.413  0.00  0.00     0.167 HD
ATOM     10  C   LIG d   1       7.219  -2.188  -3.780  0.00  0.00     0.012 C 
ATOM     11  H   LIG d   1       8.309  -0.737  -6.849  0.00  0.00     0.039 H 
ATOM     12  H   LIG d   1       9.966  -1.155  -6.337  0.00  0.00     0.039 H 
ATOM     13  H   LIG d   1       8.207  -5.803  -6.491  0.00  0.00     0.103 H 
ATOM     14  H   LIG d   1       7.815  -2.324  -2.878  0.00  0.00     0.088 H 
ATOM     15  H   LIG d   1       6.175  -2.427  -3.572  0.00  0.00     0.088 H 
ATOM     16  N   LIG d   1       7.305  -0.788  -4.263  0.00  0.00     0.254 N 
ATOM     17  H   LIG d   1       6.653  -0.666  -5.048  0.00  0.00     0.205 HD
ENDROOT
BRANCH   1  18
ATOM     18  C   LIG d   1       8.819   0.997  -4.927  0.00  0.00     0.276 A 
ATOM     19  N   LIG d   1       9.150   1.874  -4.012  0.00  0.00    -0.186 NA
ATOM     20  C   LIG d   1       9.152   3.071  -4.640  0.00  0.00     0.203 A 
ATOM     21  N   LIG d   1       8.818   2.854  -5.885  0.00  0.00    -0.056 NA
ATOM     22  O   LIG d   1       8.625   1.670  -6.065  0.00  0.00    -0.332 OA
BRANCH  20  23
ATOM     23  C   LIG d   1       9.469   4.386  -4.029  0.00  0.00     0.029 A 
ATOM     24  C   LIG d   1       9.302   5.558  -4.763  0.00  0.00    -0.051 A 
ATOM     25  C   LIG d   1       9.599   6.777  -4.188  0.00  0.00    -0.055 A 
ATOM     26  H   LIG d   1       8.941   5.512  -5.780  0.00  0.00     0.062 H 
ATOM     27  C   LIG d   1      10.060   6.836  -2.886  0.00  0.00     0.016 A 
ATOM     28  H   LIG d   1       9.469   7.686  -4.756  0.00  0.00     0.062 H 
ATOM     29  C   LIG d   1      10.228   5.676  -2.152  0.00  0.00     0.274 A 
ATOM     30  H   LIG d   1      10.291   7.793  -2.440  0.00  0.00     0.069 H 
ATOM     31  C   LIG d   1       9.930   4.451  -2.715  0.00  0.00     0.026 A 
ATOM     32  H   LIG d   1      10.056   3.547  -2.140  0.00  0.00     0.069 H 
BRANCH  29  33
ATOM     33  N   LIG d   1      10.724   5.748  -0.759  0.00  0.00     0.080 N 
ATOM     34  O   LIG d   1      11.675   5.069  -0.416  0.00  0.00     0.041 OA
ATOM     35  O   LIG d   1      10.181   6.485   0.044  0.00  0.00    -0.576 OA
ENDBRANCH  29  33
ENDBRANCH  20  23
ENDBRANCH   1  18
BRANCH  16  36
ATOM     36  C   LIG d   1       6.930   0.143  -3.180  0.00  0.00     0.029 C 
ATOM     37  H   LIG d   1       7.408   1.106  -3.358  0.00  0.00     0.090 H 
ATOM     38  H   LIG d   1       7.245  -0.246  -2.212  0.00  0.00     0.090 H 
BRANCH  36  39
ATOM     39  C   LIG d   1       5.433   0.317  -3.187  0.00  0.00     0.150 A 
ATOM     40  O   LIG d   1       4.644   0.284  -4.274  0.00  0.00    -0.457 OA
ATOM     41  C   LIG d   1       3.367   0.476  -3.907  0.00  0.00     0.131 A 
ATOM     42  C   LIG d   1       3.328   0.634  -2.571  0.00  0.00    -0.018 A 
ATOM     43  C   LIG d   1       4.660   0.531  -2.108  0.00  0.00    -0.015 A 
ATOM     44  H   LIG d   1       2.448   0.805  -1.969  0.00  0.00     0.065 H 
ATOM     45  H   LIG d   1       4.992   0.610  -1.083  0.00  0.00     0.065 H 
BRANCH  41  46
ATOM     46  C   LIG d   1       2.178   0.507  -4.832  0.00  0.00     0.102 C 
ATOM     47  H   LIG d   1       1.335   0.004  -4.359  0.00  0.00     0.064 H 
ATOM     48  H   LIG d   1       1.911   1.542  -5.046  0.00  0.00     0.064 H 
BRANCH  46  49
ATOM     49  O   LIG d   1       2.507  -0.161  -6.052  0.00  0.00    -0.387 OA
ATOM     50  H   LIG d   1       2.787  -1.080  -5.935  0.00  0.00     0.210 HD
ENDBRANCH  46  49
ENDBRANCH  41  46
ENDBRANCH  36  39
ENDBRANCH  16  36
TORSDOF 7
ENDMDL
MODEL 8
REMARK VINA RESULT:      -7.0      6.797      9.788
REMARK  7 active torsions:
REMARK  status: ('A' for Active; 'I' for Inactive)
REMARK    1  A    between atoms: C_3  and  C_10 
REMARK    2  A    between atoms: C_5  and  N_7 
REMARK    3  A    between atoms: C_12  and  C_15 
REMARK    4  A    between atoms: C_25  and  C_26 
REMARK    5  A    between atoms: C_25  and  N_49 
REMARK    6  A    between atoms: C_29  and  C_31 
REMARK    7  A    between atoms: C_31  and  O_32 
ROOT
ATOM      1  C   LIG d   1       4.982  -2.692  -4.783  0.00  0.00     0.066 C 
ATOM      2  H   LIG d   1       6.060  -2.538  -4.750  0.00  0.00     0.096 H 
ATOM      3  C   LIG d   1       4.402  -2.546  -3.369  0.00  0.00     0.043 C 
ATOM      4  C   LIG d   1       4.469  -1.089  -2.991  0.00  0.00     0.073 A 
ATOM      5  C   LIG d   1       4.671  -0.094  -3.885  0.00  0.00     0.084 A 
ATOM      6  N   LIG d   1       4.678   1.062  -3.220  0.00  0.00    -0.344 N 
ATOM      7  C   LIG d   1       4.485   0.826  -1.948  0.00  0.00     0.094 A 
ATOM      8  N   LIG d   1       4.350  -0.510  -1.768  0.00  0.00    -0.240 NA
ATOM      9  H   LIG d   1       4.808   1.966  -3.628  0.00  0.00     0.167 HD
ATOM     10  C   LIG d   1       4.848  -0.334  -5.363  0.00  0.00     0.012 C 
ATOM     11  H   LIG d   1       3.365  -2.883  -3.359  0.00  0.00     0.039 H 
ATOM     12  H   LIG d   1       4.989  -3.137  -2.666  0.00  0.00     0.039 H 
ATOM     13  H   LIG d   1       4.441   1.572  -1.169  0.00  0.00     0.103 H 
ATOM     14  H   LIG d   1       5.901  -0.245  -5.627  0.00  0.00     0.088 H 
ATOM     15  H   LIG d   1       4.264   0.395  -5.926  0.00  0.00     0.088 H 
ATOM     16  N   LIG d   1       4.340  -1.694  -5.669  0.00  0.00     0.254 N 
ATOM     17  H   LIG d   1       3.325  -1.714  -5.509  0.00  0.00     0.205 HD
ENDROOT
BRANCH   1  18
ATOM     18  C   LIG d   1       4.688  -4.074  -5.305  0.00  0.00     0.276 A 
ATOM     19  N   LIG d   1       5.482  -5.115  -5.244  0.00  0.00    -0.186 NA
ATOM     20  C   LIG d   1       4.803  -6.126  -5.831  0.00  0.00     0.203 A 
ATOM     21  N   LIG d   1       3.651  -5.643  -6.217  0.00  0.00    -0.056 NA
ATOM     22  O   LIG d   1       3.571  -4.469  -5.922  0.00  0.00    -0.332 OA
BRANCH  20  23
ATOM     23  C   LIG d   1       5.279  -7.520  -6.009  0.00  0.00     0.029 A 
ATOM     24  C   LIG d   1       6.139  -7.838  -7.057  0.00  0.00    -0.051 A 
ATOM     25  C   LIG d   1       6.578  -9.136  -7.217  0.00  0.00    -0.055 A 
ATOM     26  H   LIG d   1       6.462  -7.069  -7.744  0.00  0.00     0.062 H 
ATOM     27  C   LIG d   1       6.166 -10.121  -6.338  0.00  0.00     0.016 A 
ATOM     28  H   LIG d   1       7.245  -9.383  -8.030  0.00  0.00     0.062 H 
ATOM     29  C   LIG d   1       5.312  -9.812  -5.296  0.00  0.00     0.274 A 
ATOM     30  H   LIG d   1       6.512 -11.136  -6.468  0.00  0.00     0.069 H 
ATOM     31  C   LIG d   1       4.870  -8.515  -5.123  0.00  0.00     0.026 A 
ATOM     32  H   LIG d   1       4.208  -8.274  -4.305  0.00  0.00     0.069 H 
BRANCH  29  33
ATOM     33  N   LIG d   1       4.874 -10.872  -4.359  0.00  0.00     0.080 N 
ATOM     34  O   LIG d   1       5.673 -11.700  -3.960  0.00  0.00     0.041 OA
ATOM     35  O   LIG d   1       3.715 -10.916  -3.988  0.00  0.00    -0.576 OA
ENDBRANCH  29  33
ENDBRANCH  20  23
ENDBRANCH   1  18
BRANCH  16  36
ATOM     36  C   LIG d   1       4.610  -2.028  -7.082  0.00  0.00     0.029 C 
ATOM     37  H   LIG d   1       4.177  -3.003  -7.305  0.00  0.00     0.090 H 
ATOM     38  H   LIG d   1       5.683  -2.054  -7.273  0.00  0.00     0.090 H 
BRANCH  36  39
ATOM     39  C   LIG d   1       3.969  -0.982  -7.957  0.00  0.00     0.150 A 
ATOM     40  O   LIG d   1       4.567   0.130  -8.417  0.00  0.00    -0.457 OA
ATOM     41  C   LIG d   1       3.698   0.830  -9.164  0.00  0.00     0.131 A 
ATOM     42  C   LIG d   1       2.527   0.166  -9.188  0.00  0.00    -0.018 A 
ATOM     43  C   LIG d   1       2.704  -1.002  -8.410  0.00  0.00    -0.015 A 
ATOM     44  H   LIG d   1       1.628   0.467  -9.703  0.00  0.00     0.065 H 
ATOM     45  H   LIG d   1       1.962  -1.764  -8.217  0.00  0.00     0.065 H 
BRANCH  41  46
ATOM     46  C   LIG d   1       3.984   2.136  -9.858  0.00  0.00     0.102 C 
ATOM     47  H   LIG d   1       4.130   1.957 -10.924  0.00  0.00     0.064 H 
ATOM     48  H   LIG d   1       3.144   2.815  -9.716  0.00  0.00     0.064 H 
BRANCH  46  49
ATOM     49  O   LIG d   1       5.167   2.718  -9.308  0.00  0.00    -0.387 OA
ATOM     50  H   LIG d   1       5.009   3.528  -8.803  0.00  0.00     0.210 HD
ENDBRANCH  46  49
ENDBRANCH  41  46
ENDBRANCH  36  39
ENDBRANCH  16  36
TORSDOF 7
ENDMDL
MODEL 9
REMARK VINA RESULT:      -7.0      2.770      3.544
REMARK  7 active torsions:
REMARK  status: ('A' for Active; 'I' for Inactive)
REMARK    1  A    between atoms: C_3  and  C_10 
REMARK    2  A    between atoms: C_5  and  N_7 
REMARK    3  A    between atoms: C_12  and  C_15 
REMARK    4  A    between atoms: C_25  and  C_26 
REMARK    5  A    between atoms: C_25  and  N_49 
REMARK    6  A    between atoms: C_29  and  C_31 
REMARK    7  A    between atoms: C_31  and  O_32 
ROOT
ATOM      1  C   LIG d   1       9.610   4.682  -5.767  0.00  0.00     0.066 C 
ATOM      2  H   LIG d   1       8.782   4.909  -6.437  0.00  0.00     0.096 H 
ATOM      3  C   LIG d   1      10.857   4.337  -6.596  0.00  0.00     0.043 C 
ATOM      4  C   LIG d   1      11.350   5.608  -7.238  0.00  0.00     0.073 A 
ATOM      5  C   LIG d   1      10.960   6.842  -6.848  0.00  0.00     0.084 A 
ATOM      6  N   LIG d   1      11.579   7.734  -7.623  0.00  0.00    -0.344 N 
ATOM      7  C   LIG d   1      12.341   7.103  -8.478  0.00  0.00     0.094 A 
ATOM      8  N   LIG d   1      12.223   5.770  -8.266  0.00  0.00    -0.240 NA
ATOM      9  H   LIG d   1      11.478   8.727  -7.560  0.00  0.00     0.167 HD
ATOM     10  C   LIG d   1       9.988   7.085  -5.720  0.00  0.00     0.012 C 
ATOM     11  H   LIG d   1      11.630   3.928  -5.946  0.00  0.00     0.039 H 
ATOM     12  H   LIG d   1      10.598   3.611  -7.365  0.00  0.00     0.039 H 
ATOM     13  H   LIG d   1      12.962   7.567  -9.229  0.00  0.00     0.103 H 
ATOM     14  H   LIG d   1       9.009   7.339  -6.126  0.00  0.00     0.088 H 
ATOM     15  H   LIG d   1      10.350   7.900  -5.093  0.00  0.00     0.088 H 
ATOM     16  N   LIG d   1       9.917   5.847  -4.905  0.00  0.00     0.254 N 
ATOM     17  H   LIG d   1      10.827   5.693  -4.453  0.00  0.00     0.205 HD
ENDROOT
BRANCH   1  18
ATOM     18  C   LIG d   1       9.247   3.509  -4.896  0.00  0.00     0.276 A 
ATOM     19  N   LIG d   1       8.157   2.785  -4.981  0.00  0.00    -0.186 NA
ATOM     20  C   LIG d   1       8.264   1.852  -4.008  0.00  0.00     0.203 A 
ATOM     21  N   LIG d   1       9.396   2.067  -3.391  0.00  0.00    -0.056 NA
ATOM     22  O   LIG d   1       9.970   3.012  -3.889  0.00  0.00    -0.332 OA
BRANCH  20  23
ATOM     23  C   LIG d   1       7.277   0.789  -3.696  0.00  0.00     0.029 A 
ATOM     24  C   LIG d   1       7.627  -0.552  -3.829  0.00  0.00    -0.051 A 
ATOM     25  C   LIG d   1       6.705  -1.536  -3.538  0.00  0.00    -0.055 A 
ATOM     26  H   LIG d   1       8.620  -0.822  -4.160  0.00  0.00     0.062 H 
ATOM     27  C   LIG d   1       5.434  -1.193  -3.113  0.00  0.00     0.016 A 
ATOM     28  H   LIG d   1       6.976  -2.577  -3.640  0.00  0.00     0.062 H 
ATOM     29  C   LIG d   1       5.080   0.137  -2.980  0.00  0.00     0.274 A 
ATOM     30  H   LIG d   1       4.716  -1.967  -2.886  0.00  0.00     0.069 H 
ATOM     31  C   LIG d   1       5.997   1.130  -3.263  0.00  0.00     0.026 A 
ATOM     32  H   LIG d   1       5.721   2.168  -3.153  0.00  0.00     0.069 H 
BRANCH  29  33
ATOM     33  N   LIG d   1       3.718   0.498  -2.526  0.00  0.00     0.080 N 
ATOM     34  O   LIG d   1       3.527   1.556  -1.954  0.00  0.00     0.041 OA
ATOM     35  O   LIG d   1       2.788  -0.263  -2.725  0.00  0.00    -0.576 OA
ENDBRANCH  29  33
ENDBRANCH  20  23
ENDBRANCH   1  18
BRANCH  16  36
ATOM     36  C   LIG d   1       8.881   5.988  -3.862  0.00  0.00     0.029 C 
ATOM     37  H   LIG d   1       8.352   5.041  -3.757  0.00  0.00     0.090 H 
ATOM     38  H   LIG d   1       8.172   6.773  -4.128  0.00  0.00     0.090 H 
BRANCH  36  39
ATOM     39  C   LIG d   1       9.551   6.337  -2.559  0.00  0.00     0.150 A 
ATOM     40  O   LIG d   1      10.218   5.483  -1.765  0.00  0.00    -0.457 OA
ATOM     41  C   LIG d   1      10.681   6.140  -0.689  0.00  0.00     0.131 A 
ATOM     42  C   LIG d   1      10.311   7.430  -0.787  0.00  0.00    -0.018 A 
ATOM     43  C   LIG d   1       9.584   7.557  -1.992  0.00  0.00    -0.015 A 
ATOM     44  H   LIG d   1      10.529   8.217  -0.081  0.00  0.00     0.065 H 
ATOM     45  H   LIG d   1       9.138   8.460  -2.383  0.00  0.00     0.065 H 
BRANCH  41  46
ATOM     46  C   LIG d   1      11.480   5.536   0.437  0.00  0.00     0.102 C 
ATOM     47  H   LIG d   1      11.877   4.571   0.123  0.00  0.00     0.064 H 
ATOM     48  H   LIG d   1      12.303   6.200   0.696  0.00  0.00     0.064 H 
BRANCH  46  49
ATOM     49  O   LIG d   1      10.636   5.355   1.575  0.00  0.00    -0.387 OA
ATOM     50  H   LIG d   1      10.092   4.556   1.540  0.00  0.00     0.210 HD
ENDBRANCH  46  49
ENDBRANCH  41  46
ENDBRANCH  36  39
ENDBRANCH  16  36
TORSDOF 7
ENDMDL
MODEL 10
REMARK VINA RESULT:      -6.8      2.393      2.818
REMARK  7 active torsions:
REMARK  status: ('A' for Active; 'I' for Inactive)
REMARK    1  A    between atoms: C_3  and  C_10 
REMARK    2  A    between atoms: C_5  and  N_7 
REMARK    3  A    between atoms: C_12  and  C_15 
REMARK    4  A    between atoms: C_25  and  C_26 
REMARK    5  A    between atoms: C_25  and  N_49 
REMARK    6  A    between atoms: C_29  and  C_31 
REMARK    7  A    between atoms: C_31  and  O_32 
ROOT
ATOM      1  C   LIG d   1       9.556   3.625  -6.119  0.00  0.00     0.066 C 
ATOM      2  H   LIG d   1       8.817   3.839  -6.890  0.00  0.00     0.096 H 
ATOM      3  C   LIG d   1      10.736   2.863  -6.741  0.00  0.00     0.043 C 
ATOM      4  C   LIG d   1      11.502   3.826  -7.610  0.00  0.00     0.073 A 
ATOM      5  C   LIG d   1      11.358   5.169  -7.543  0.00  0.00     0.084 A 
ATOM      6  N   LIG d   1      12.175   5.716  -8.444  0.00  0.00    -0.344 N 
ATOM      7  C   LIG d   1      12.823   4.766  -9.067  0.00  0.00     0.094 A 
ATOM      8  N   LIG d   1      12.427   3.570  -8.571  0.00  0.00    -0.240 NA
ATOM      9  H   LIG d   1      12.277   6.696  -8.616  0.00  0.00     0.167 HD
ATOM     10  C   LIG d   1      10.415   5.853  -6.584  0.00  0.00     0.012 C 
ATOM     11  H   LIG d   1      11.384   2.480  -5.953  0.00  0.00     0.039 H 
ATOM     12  H   LIG d   1      10.363   2.036  -7.345  0.00  0.00     0.039 H 
ATOM     13  H   LIG d   1      13.553   4.911  -9.849  0.00  0.00     0.103 H 
ATOM     14  H   LIG d   1       9.525   6.184  -7.118  0.00  0.00     0.088 H 
ATOM     15  H   LIG d   1      10.913   6.710  -6.130  0.00  0.00     0.088 H 
ATOM     16  N   LIG d   1      10.063   4.881  -5.520  0.00  0.00     0.254 N 
ATOM     17  H   LIG d   1      10.904   4.670  -4.970  0.00  0.00     0.205 HD
ENDROOT
BRANCH   1  18
ATOM     18  C   LIG d   1       8.928   2.784  -5.039  0.00  0.00     0.276 A 
ATOM     19  N   LIG d   1       7.723   2.269  -5.056  0.00  0.00    -0.186 NA
ATOM     20  C   LIG d   1       7.599   1.598  -3.889  0.00  0.00     0.203 A 
ATOM     21  N   LIG d   1       8.720   1.749  -3.235  0.00  0.00    -0.056 NA
ATOM     22  O   LIG d   1       9.492   2.426  -3.882  0.00  0.00    -0.332 OA
BRANCH  20  23
ATOM     23  C   LIG d   1       6.408   0.837  -3.434  0.00  0.00     0.029 A 
ATOM     24  C   LIG d   1       5.449   1.453  -2.633  0.00  0.00    -0.051 A 
ATOM     25  C   LIG d   1       4.345   0.740  -2.212  0.00  0.00    -0.055 A 
ATOM     26  H   LIG d   1       5.570   2.486  -2.341  0.00  0.00     0.062 H 
ATOM     27  C   LIG d   1       4.189  -0.583  -2.585  0.00  0.00     0.016 A 
ATOM     28  H   LIG d   1       3.600   1.216  -1.591  0.00  0.00     0.062 H 
ATOM     29  C   LIG d   1       5.138  -1.199  -3.379  0.00  0.00     0.274 A 
ATOM     30  H   LIG d   1       3.322  -1.136  -2.254  0.00  0.00     0.069 H 
ATOM     31  C   LIG d   1       6.244  -0.494  -3.811  0.00  0.00     0.026 A 
ATOM     32  H   LIG d   1       6.982  -0.975  -4.435  0.00  0.00     0.069 H 
BRANCH  29  33
ATOM     33  N   LIG d   1       4.966  -2.616  -3.774  0.00  0.00     0.080 N 
ATOM     34  O   LIG d   1       4.035  -3.263  -3.328  0.00  0.00     0.041 OA
ATOM     35  O   LIG d   1       5.754  -3.134  -4.544  0.00  0.00    -0.576 OA
ENDBRANCH  29  33
ENDBRANCH  20  23
ENDBRANCH   1  18
BRANCH  16  36
ATOM     36  C   LIG d   1       9.039   5.461  -4.627  0.00  0.00     0.029 C 
ATOM     37  H   LIG d   1       8.309   4.692  -4.377  0.00  0.00     0.090 H 
ATOM     38  H   LIG d   1       8.535   6.297  -5.112  0.00  0.00     0.090 H 
BRANCH  36  39
ATOM     39  C   LIG d   1       9.712   5.942  -3.367  0.00  0.00     0.150 A 
ATOM     40  O   LIG d   1      10.253   5.160  -2.419  0.00  0.00    -0.457 OA
ATOM     41  C   LIG d   1      10.763   5.929  -1.442  0.00  0.00     0.131 A 
ATOM     42  C   LIG d   1      10.551   7.219  -1.761  0.00  0.00    -0.018 A 
ATOM     43  C   LIG d   1       9.874   7.226  -3.003  0.00  0.00    -0.015 A 
ATOM     44  H   LIG d   1      10.843   8.081  -1.182  0.00  0.00     0.065 H 
ATOM     45  H   LIG d   1       9.549   8.098  -3.553  0.00  0.00     0.065 H 
BRANCH  41  46
ATOM     46  C   LIG d   1      11.456   5.431  -0.200  0.00  0.00     0.102 C 
ATOM     47  H   LIG d   1      11.747   4.390  -0.338  0.00  0.00     0.064 H 
ATOM     48  H   LIG d   1      12.343   6.035  -0.012  0.00  0.00     0.064 H 
BRANCH  46  49
ATOM     49  O   LIG d   1      10.567   5.533   0.914  0.00  0.00    -0.387 OA
ATOM     50  H   LIG d   1      10.338   4.682   1.314  0.00  0.00     0.210 HD
ENDBRANCH  46  49
ENDBRANCH  41  46
ENDBRANCH  36  39
ENDBRANCH  16  36
TORSDOF 7
ENDMDL
