MODEL 1
REMARK VINA RESULT:      -5.6      0.000      0.000
REMARK  11 active torsions:
REMARK  status: ('A' for Active; 'I' for Inactive)
REMARK    1  A    between atoms: C_1  and  C_2 
REMARK    2  A    between atoms: C_5  and  N_7 
REMARK       I    between atoms: N_7  and  C_8 
REMARK    3  A    between atoms: C_8  and  C_10 
REMARK    4  A    between atoms: C_10  and  C_12 
REMARK    5  A    between atoms: C_10  and  N_13 
REMARK       I    between atoms: N_13  and  C_14 
REMARK    6  A    between atoms: C_14  and  C_16 
REMARK    7  A    between atoms: C_16  and  N_17 
REMARK    8  A    between atoms: C_22  and  O_30 
REMARK    9  A    between atoms: C_23  and  O_28 
REMARK   10  A    between atoms: O_28  and  C_29 
REMARK   11  A    between atoms: O_30  and  C_31 
ROOT
ATOM      1  C   LIG d   1      11.706   2.563  -6.005  0.00  0.00     0.104 C 
ATOM      2  H   LIG d   1      12.474   2.056  -5.421  0.00  0.00     0.059 H 
ATOM      3  H   LIG d   1      12.156   3.000  -6.896  0.00  0.00     0.059 H 
ENDROOT
BRANCH   1   4
ATOM      4  C   LIG d   1      10.647   1.571  -6.411  0.00  0.00     0.234 C 
ATOM      5  N   LIG d   1      10.064   0.790  -5.480  0.00  0.00    -0.303 N 
ATOM      6  H   LIG d   1      10.326   0.864  -4.550  0.00  0.00     0.149 HD
ATOM      7  O   LIG d   1      10.318   1.477  -7.574  0.00  0.00    -0.274 OA
BRANCH   5   8
ATOM      8  C   LIG d   1       9.034  -0.175  -5.876  0.00  0.00     0.097 C 
ATOM      9  H   LIG d   1       9.029  -0.277  -6.961  0.00  0.00     0.059 H 
BRANCH   8  10
ATOM     10  C   LIG d   1       7.685   0.312  -5.410  0.00  0.00     0.239 C 
ATOM     11  N   LIG d   1       7.001  -0.386  -4.481  0.00  0.00    -0.263 N 
ATOM     12  H   LIG d   1       7.377  -1.200  -4.112  0.00  0.00     0.157 HD
ATOM     13  O   LIG d   1       7.215   1.330  -5.871  0.00  0.00    -0.273 OA
BRANCH  11  14
ATOM     14  C   LIG d   1       5.758   0.063  -4.051  0.00  0.00     0.165 A 
ATOM     15  S   LIG d   1       5.373   0.873  -2.627  0.00  0.00    -0.060 SA
ATOM     16  C   LIG d   1       3.618   1.046  -2.909  0.00  0.00    -0.000 A 
ATOM     17  C   LIG d   1       3.495   0.442  -4.117  0.00  0.00     0.048 A 
ATOM     18  H   LIG d   1       2.863   1.506  -2.289  0.00  0.00     0.071 H 
ATOM     19  N   LIG d   1       4.596  -0.046  -4.658  0.00  0.00    -0.230 NA
BRANCH  17  20
ATOM     20  C   LIG d   1       2.160   0.326  -4.806  0.00  0.00    -0.022 C 
ATOM     21  H   LIG d   1       2.167   0.928  -5.714  0.00  0.00     0.029 H 
ATOM     22  H   LIG d   1       1.973  -0.717  -5.063  0.00  0.00     0.029 H 
ATOM     23  H   LIG d   1       1.375   0.683  -4.139  0.00  0.00     0.029 H 
ENDBRANCH  17  20
ENDBRANCH  11  14
ENDBRANCH   8  10
BRANCH   8  24
ATOM     24  C   LIG d   1       9.334  -1.532  -5.237  0.00  0.00    -0.038 C 
ATOM     25  H   LIG d   1       9.830  -2.175  -5.965  0.00  0.00     0.025 H 
ATOM     26  H   LIG d   1       9.985  -1.392  -4.374  0.00  0.00     0.025 H 
ATOM     27  H   LIG d   1       8.402  -1.999  -4.917  0.00  0.00     0.025 H 
ENDBRANCH   8  24
ENDBRANCH   5   8
ENDBRANCH   1   4
BRANCH   1  28
ATOM     28  N   LIG d   1      11.098   3.622  -5.195  0.00  0.00    -0.290 N 
ATOM     29  C   LIG d   1      11.326   3.662  -3.862  0.00  0.00     0.262 A 
ATOM     30  C   LIG d   1      10.696   4.748  -3.100  0.00  0.00     0.069 A 
ATOM     31  O   LIG d   1      12.029   2.830  -3.316  0.00  0.00    -0.267 OA
ATOM     32  C   LIG d   1       9.888   5.671  -3.803  0.00  0.00     0.082 A 
ATOM     33  C   LIG d   1      10.872   4.877  -1.721  0.00  0.00    -0.002 A 
ATOM     34  N   LIG d   1       9.733   5.522  -5.143  0.00  0.00    -0.237 NA
ATOM     35  C   LIG d   1       9.272   6.711  -3.107  0.00  0.00     0.010 A 
ATOM     36  C   LIG d   1      10.307   4.554  -5.791  0.00  0.00     0.100 A 
ATOM     37  H   LIG d   1      10.148   4.486  -6.856  0.00  0.00     0.103 H 
ATOM     38  C   LIG d   1       9.454   6.827  -1.744  0.00  0.00     0.164 A 
ATOM     39  H   LIG d   1       8.653   7.423  -3.634  0.00  0.00     0.068 H 
ATOM     40  C   LIG d   1      10.255   5.912  -1.051  0.00  0.00     0.162 A 
ATOM     41  H   LIG d   1      11.489   4.172  -1.184  0.00  0.00     0.066 H 
BRANCH  38  42
ATOM     42  O   LIG d   1       8.853   7.840  -1.068  0.00  0.00    -0.491 OA
BRANCH  42  43
ATOM     43  C   LIG d   1       9.450   9.134  -1.173  0.00  0.00     0.079 C 
ATOM     44  H   LIG d   1       9.949   9.381  -0.236  0.00  0.00     0.066 H 
ATOM     45  H   LIG d   1      10.178   9.133  -1.984  0.00  0.00     0.066 H 
ATOM     46  H   LIG d   1       8.677   9.874  -1.380  0.00  0.00     0.066 H 
ENDBRANCH  42  43
ENDBRANCH  38  42
BRANCH  40  47
ATOM     47  O   LIG d   1      10.424   6.042   0.292  0.00  0.00    -0.491 OA
BRANCH  47  48
ATOM     48  C   LIG d   1      11.665   6.590   0.740  0.00  0.00     0.079 C 
ATOM     49  H   LIG d   1      12.343   5.780   1.010  0.00  0.00     0.066 H 
ATOM     50  H   LIG d   1      12.109   7.185  -0.058  0.00  0.00     0.066 H 
ATOM     51  H   LIG d   1      11.490   7.222   1.611  0.00  0.00     0.066 H 
ENDBRANCH  47  48
ENDBRANCH  40  47
ENDBRANCH   1  28
TORSDOF 11
ENDMDL
MODEL 2
REMARK VINA RESULT:      -5.6      1.801      2.647
REMARK  11 active torsions:
REMARK  status: ('A' for Active; 'I' for Inactive)
REMARK    1  A    between atoms: C_1  and  C_2 
REMARK    2  A    between atoms: C_5  and  N_7 
REMARK       I    between atoms: N_7  and  C_8 
REMARK    3  A    between atoms: C_8  and  C_10 
REMARK    4  A    between atoms: C_10  and  C_12 
REMARK    5  A    between atoms: C_10  and  N_13 
REMARK       I    between atoms: N_13  and  C_14 
REMARK    6  A    between atoms: C_14  and  C_16 
REMARK    7  A    between atoms: C_16  and  N_17 
REMARK    8  A    between atoms: C_22  and  O_30 
REMARK    9  A    between atoms: C_23  and  O_28 
REMARK   10  A    between atoms: O_28  and  C_29 
REMARK   11  A    between atoms: O_30  and  C_31 
ROOT
ATOM      1  C   LIG d   1      11.337   4.447  -6.769  0.00  0.00     0.104 C 
ATOM      2  H   LIG d   1      12.276   3.938  -6.988  0.00  0.00     0.059 H 
ATOM      3  H   LIG d   1      11.296   5.385  -7.324  0.00  0.00     0.059 H 
ENDROOT
BRANCH   1   4
ATOM      4  C   LIG d   1      10.182   3.570  -7.178  0.00  0.00     0.234 C 
ATOM      5  N   LIG d   1      10.068   2.327  -6.671  0.00  0.00    -0.303 N 
ATOM      6  H   LIG d   1      10.730   1.995  -6.044  0.00  0.00     0.149 HD
ATOM      7  O   LIG d   1       9.355   3.983  -7.962  0.00  0.00    -0.274 OA
BRANCH   5   8
ATOM      8  C   LIG d   1       8.944   1.474  -7.069  0.00  0.00     0.097 C 
ATOM      9  H   LIG d   1       8.231   2.060  -7.649  0.00  0.00     0.059 H 
BRANCH   8  10
ATOM     10  C   LIG d   1       8.265   0.932  -5.837  0.00  0.00     0.239 C 
ATOM     11  N   LIG d   1       6.963   0.586  -5.882  0.00  0.00    -0.263 N 
ATOM     12  H   LIG d   1       6.464   0.685  -6.707  0.00  0.00     0.157 HD
ATOM     13  O   LIG d   1       8.890   0.809  -4.805  0.00  0.00    -0.273 OA
BRANCH  11  14
ATOM     14  C   LIG d   1       6.337   0.087  -4.746  0.00  0.00     0.165 A 
ATOM     15  S   LIG d   1       6.159  -1.517  -4.269  0.00  0.00    -0.060 SA
ATOM     16  C   LIG d   1       5.266  -1.226  -2.751  0.00  0.00    -0.000 A 
ATOM     17  C   LIG d   1       5.190   0.128  -2.758  0.00  0.00     0.048 A 
ATOM     18  H   LIG d   1       4.892  -1.933  -2.026  0.00  0.00     0.071 H 
ATOM     19  N   LIG d   1       5.737   0.754  -3.784  0.00  0.00    -0.230 NA
BRANCH  17  20
ATOM     20  C   LIG d   1       4.504   0.883  -1.649  0.00  0.00    -0.022 C 
ATOM     21  H   LIG d   1       5.198   1.604  -1.218  0.00  0.00     0.029 H 
ATOM     22  H   LIG d   1       3.637   1.408  -2.049  0.00  0.00     0.029 H 
ATOM     23  H   LIG d   1       4.182   0.183  -0.878  0.00  0.00     0.029 H 
ENDBRANCH  17  20
ENDBRANCH  11  14
ENDBRANCH   8  10
BRANCH   8  24
ATOM     24  C   LIG d   1       9.461   0.312  -7.918  0.00  0.00    -0.038 C 
ATOM     25  H   LIG d   1      10.350  -0.112  -7.451  0.00  0.00     0.025 H 
ATOM     26  H   LIG d   1       8.690  -0.454  -7.995  0.00  0.00     0.025 H 
ATOM     27  H   LIG d   1       9.714   0.674  -8.916  0.00  0.00     0.025 H 
ENDBRANCH   8  24
ENDBRANCH   5   8
ENDBRANCH   1   4
BRANCH   1  28
ATOM     28  N   LIG d   1      11.256   4.724  -5.333  0.00  0.00    -0.290 N 
ATOM     29  C   LIG d   1      10.405   5.675  -4.881  0.00  0.00     0.262 A 
ATOM     30  C   LIG d   1      10.361   5.908  -3.432  0.00  0.00     0.069 A 
ATOM     31  O   LIG d   1       9.703   6.310  -5.646  0.00  0.00    -0.267 OA
ATOM     32  C   LIG d   1      11.211   5.135  -2.608  0.00  0.00     0.082 A 
ATOM     33  C   LIG d   1       9.515   6.864  -2.866  0.00  0.00    -0.002 A 
ATOM     34  N   LIG d   1      12.023   4.213  -3.183  0.00  0.00    -0.237 NA
ATOM     35  C   LIG d   1      11.195   5.336  -1.228  0.00  0.00     0.010 A 
ATOM     36  C   LIG d   1      12.038   4.026  -4.468  0.00  0.00     0.100 A 
ATOM     37  H   LIG d   1      12.705   3.278  -4.869  0.00  0.00     0.103 H 
ATOM     38  C   LIG d   1      10.354   6.285  -0.681  0.00  0.00     0.164 A 
ATOM     39  H   LIG d   1      11.840   4.750  -0.588  0.00  0.00     0.068 H 
ATOM     40  C   LIG d   1       9.513   7.047  -1.500  0.00  0.00     0.162 A 
ATOM     41  H   LIG d   1       8.865   7.454  -3.495  0.00  0.00     0.066 H 
BRANCH  38  42
ATOM     42  O   LIG d   1      10.341   6.479   0.662  0.00  0.00    -0.491 OA
BRANCH  42  43
ATOM     43  C   LIG d   1      11.136   5.593   1.454  0.00  0.00     0.079 C 
ATOM     44  H   LIG d   1      11.618   6.154   2.253  0.00  0.00     0.066 H 
ATOM     45  H   LIG d   1      10.499   4.821   1.885  0.00  0.00     0.066 H 
ATOM     46  H   LIG d   1      11.896   5.128   0.826  0.00  0.00     0.066 H 
ENDBRANCH  42  43
ENDBRANCH  38  42
BRANCH  40  47
ATOM     47  O   LIG d   1       8.691   7.977  -0.944  0.00  0.00    -0.491 OA
BRANCH  47  48
ATOM     48  C   LIG d   1       9.119   9.339  -0.999  0.00  0.00     0.079 C 
ATOM     49  H   LIG d   1       8.526   9.935  -0.307  0.00  0.00     0.066 H 
ATOM     50  H   LIG d   1      10.172   9.400  -0.722  0.00  0.00     0.066 H 
ATOM     51  H   LIG d   1       8.988   9.721  -2.012  0.00  0.00     0.066 H 
ENDBRANCH  47  48
ENDBRANCH  40  47
ENDBRANCH   1  28
TORSDOF 11
ENDMDL
MODEL 3
REMARK VINA RESULT:      -5.5      2.829      4.342
REMARK  11 active torsions:
REMARK  status: ('A' for Active; 'I' for Inactive)
REMARK    1  A    between atoms: C_1  and  C_2 
REMARK    2  A    between atoms: C_5  and  N_7 
REMARK       I    between atoms: N_7  and  C_8 
REMARK    3  A    between atoms: C_8  and  C_10 
REMARK    4  A    between atoms: C_10  and  C_12 
REMARK    5  A    between atoms: C_10  and  N_13 
REMARK       I    between atoms: N_13  and  C_14 
REMARK    6  A    between atoms: C_14  and  C_16 
REMARK    7  A    between atoms: C_16  and  N_17 
REMARK    8  A    between atoms: C_22  and  O_30 
REMARK    9  A    between atoms: C_23  and  O_28 
REMARK   10  A    between atoms: O_28  and  C_29 
REMARK   11  A    between atoms: O_30  and  C_31 
ROOT
ATOM      1  C   LIG d   1      11.300   4.910  -1.104  0.00  0.00     0.104 C 
ATOM      2  H   LIG d   1      10.733   4.236  -0.462  0.00  0.00     0.059 H 
ATOM      3  H   LIG d   1      12.366   4.778  -0.918  0.00  0.00     0.059 H 
ENDROOT
BRANCH   1   4
ATOM      4  C   LIG d   1      11.000   4.600  -2.548  0.00  0.00     0.234 C 
ATOM      5  N   LIG d   1      10.393   3.441  -2.876  0.00  0.00    -0.303 N 
ATOM      6  H   LIG d   1      10.151   2.807  -2.184  0.00  0.00     0.149 HD
ATOM      7  O   LIG d   1      11.303   5.392  -3.414  0.00  0.00    -0.274 OA
BRANCH   5   8
ATOM      8  C   LIG d   1      10.102   3.140  -4.281  0.00  0.00     0.097 C 
ATOM      9  H   LIG d   1      10.125   4.061  -4.862  0.00  0.00     0.059 H 
BRANCH   8  10
ATOM     10  C   LIG d   1       8.736   2.513  -4.386  0.00  0.00     0.239 C 
ATOM     11  N   LIG d   1       8.358   1.569  -3.501  0.00  0.00    -0.263 N 
ATOM     12  H   LIG d   1       8.965   1.294  -2.796  0.00  0.00     0.157 HD
ATOM     13  O   LIG d   1       7.977   2.856  -5.267  0.00  0.00    -0.273 OA
BRANCH  11  14
ATOM     14  C   LIG d   1       7.098   0.990  -3.598  0.00  0.00     0.165 A 
ATOM     15  S   LIG d   1       6.626  -0.341  -4.514  0.00  0.00    -0.060 SA
ATOM     16  C   LIG d   1       4.904  -0.367  -4.041  0.00  0.00    -0.000 A 
ATOM     17  C   LIG d   1       4.859   0.690  -3.192  0.00  0.00     0.048 A 
ATOM     18  H   LIG d   1       4.117  -1.040  -4.346  0.00  0.00     0.071 H 
ATOM     19  N   LIG d   1       5.985   1.352  -2.999  0.00  0.00    -0.230 NA
BRANCH  17  20
ATOM     20  C   LIG d   1       3.579   1.094  -2.507  0.00  0.00    -0.022 C 
ATOM     21  H   LIG d   1       2.907   0.238  -2.458  0.00  0.00     0.029 H 
ATOM     22  H   LIG d   1       3.801   1.440  -1.498  0.00  0.00     0.029 H 
ATOM     23  H   LIG d   1       3.104   1.897  -3.071  0.00  0.00     0.029 H 
ENDBRANCH  17  20
ENDBRANCH  11  14
ENDBRANCH   8  10
BRANCH   8  24
ATOM     24  C   LIG d   1      11.152   2.168  -4.822  0.00  0.00    -0.038 C 
ATOM     25  H   LIG d   1      10.812   1.144  -4.667  0.00  0.00     0.025 H 
ATOM     26  H   LIG d   1      11.297   2.346  -5.887  0.00  0.00     0.025 H 
ATOM     27  H   LIG d   1      12.095   2.320  -4.296  0.00  0.00     0.025 H 
ENDBRANCH   8  24
ENDBRANCH   5   8
ENDBRANCH   1   4
BRANCH   1  28
ATOM     28  N   LIG d   1      10.920   6.295  -0.814  0.00  0.00    -0.290 N 
ATOM     29  C   LIG d   1      11.635   7.012   0.085  0.00  0.00     0.262 A 
ATOM     30  C   LIG d   1      11.213   8.396   0.334  0.00  0.00     0.069 A 
ATOM     31  O   LIG d   1      12.591   6.527   0.662  0.00  0.00    -0.267 OA
ATOM     32  C   LIG d   1      10.089   8.886  -0.370  0.00  0.00     0.082 A 
ATOM     33  C   LIG d   1      11.886   9.218   1.239  0.00  0.00    -0.002 A 
ATOM     34  N   LIG d   1       9.453   8.066  -1.245  0.00  0.00    -0.237 NA
ATOM     35  C   LIG d   1       9.661  10.195  -0.153  0.00  0.00     0.010 A 
ATOM     36  C   LIG d   1       9.851   6.847  -1.448  0.00  0.00     0.100 A 
ATOM     37  H   LIG d   1       9.306   6.241  -2.156  0.00  0.00     0.103 H 
ATOM     38  C   LIG d   1      10.335  10.997   0.746  0.00  0.00     0.164 A 
ATOM     39  H   LIG d   1       8.804  10.580  -0.686  0.00  0.00     0.068 H 
ATOM     40  C   LIG d   1      11.448  10.510   1.441  0.00  0.00     0.162 A 
ATOM     41  H   LIG d   1      12.745   8.845   1.777  0.00  0.00     0.066 H 
BRANCH  38  42
ATOM     42  O   LIG d   1       9.917  12.271   0.957  0.00  0.00    -0.491 OA
BRANCH  42  43
ATOM     43  C   LIG d   1      10.393  13.270   0.052  0.00  0.00     0.079 C 
ATOM     44  H   LIG d   1      11.130  13.895   0.556  0.00  0.00     0.066 H 
ATOM     45  H   LIG d   1      10.854  12.787  -0.810  0.00  0.00     0.066 H 
ATOM     46  H   LIG d   1       9.558  13.886  -0.281  0.00  0.00     0.066 H 
ENDBRANCH  42  43
ENDBRANCH  38  42
BRANCH  40  47
ATOM     47  O   LIG d   1      12.101  11.315   2.321  0.00  0.00    -0.491 OA
BRANCH  47  48
ATOM     48  C   LIG d   1      12.699  10.685   3.456  0.00  0.00     0.079 C 
ATOM     49  H   LIG d   1      11.921  10.252   4.084  0.00  0.00     0.066 H 
ATOM     50  H   LIG d   1      13.375   9.899   3.121  0.00  0.00     0.066 H 
ATOM     51  H   LIG d   1      13.258  11.425   4.030  0.00  0.00     0.066 H 
ENDBRANCH  47  48
ENDBRANCH  40  47
ENDBRANCH   1  28
TORSDOF 11
ENDMDL
MODEL 4
REMARK VINA RESULT:      -5.5      4.904      7.866
REMARK  11 active torsions:
REMARK  status: ('A' for Active; 'I' for Inactive)
REMARK    1  A    between atoms: C_1  and  C_2 
REMARK    2  A    between atoms: C_5  and  N_7 
REMARK       I    between atoms: N_7  and  C_8 
REMARK    3  A    between atoms: C_8  and  C_10 
REMARK    4  A    between atoms: C_10  and  C_12 
REMARK    5  A    between atoms: C_10  and  N_13 
REMARK       I    between atoms: N_13  and  C_14 
REMARK    6  A    between atoms: C_14  and  C_16 
REMARK    7  A    between atoms: C_16  and  N_17 
REMARK    8  A    between atoms: C_22  and  O_30 
REMARK    9  A    between atoms: C_23  and  O_28 
REMARK   10  A    between atoms: O_28  and  C_29 
REMARK   11  A    between atoms: O_30  and  C_31 
ROOT
ATOM      1  C   LIG d   1       5.583  -5.285  -5.541  0.00  0.00     0.104 C 
ATOM      2  H   LIG d   1       4.671  -5.473  -4.974  0.00  0.00     0.059 H 
ATOM      3  H   LIG d   1       6.328  -6.042  -5.291  0.00  0.00     0.059 H 
ENDROOT
BRANCH   1   4
ATOM      4  C   LIG d   1       5.280  -5.346  -7.015  0.00  0.00     0.234 C 
ATOM      5  N   LIG d   1       4.226  -4.671  -7.515  0.00  0.00    -0.303 N 
ATOM      6  H   LIG d   1       3.662  -4.146  -6.926  0.00  0.00     0.149 HD
ATOM      7  O   LIG d   1       5.984  -6.002  -7.753  0.00  0.00    -0.274 OA
BRANCH   5   8
ATOM      8  C   LIG d   1       3.932  -4.730  -8.950  0.00  0.00     0.097 C 
ATOM      9  H   LIG d   1       4.792  -5.137  -9.480  0.00  0.00     0.059 H 
BRANCH   8  10
ATOM     10  C   LIG d   1       3.636  -3.343  -9.459  0.00  0.00     0.239 C 
ATOM     11  N   LIG d   1       4.576  -2.381  -9.378  0.00  0.00    -0.263 N 
ATOM     12  H   LIG d   1       5.444  -2.582  -8.993  0.00  0.00     0.157 HD
ATOM     13  O   LIG d   1       2.551  -3.092  -9.940  0.00  0.00    -0.273 OA
BRANCH  11  14
ATOM     14  C   LIG d   1       4.303  -1.101  -9.847  0.00  0.00     0.165 A 
ATOM     15  S   LIG d   1       4.495  -0.495 -11.405  0.00  0.00    -0.060 SA
ATOM     16  C   LIG d   1       3.919   1.166 -11.097  0.00  0.00    -0.000 A 
ATOM     17  C   LIG d   1       3.623   1.090  -9.776  0.00  0.00     0.048 A 
ATOM     18  H   LIG d   1       3.829   2.001 -11.776  0.00  0.00     0.071 H 
ATOM     19  N   LIG d   1       3.836  -0.069  -9.180  0.00  0.00    -0.230 NA
BRANCH  17  20
ATOM     20  C   LIG d   1       3.083   2.277  -9.020  0.00  0.00    -0.022 C 
ATOM     21  H   LIG d   1       3.812   2.598  -8.278  0.00  0.00     0.029 H 
ATOM     22  H   LIG d   1       2.889   3.093  -9.716  0.00  0.00     0.029 H 
ATOM     23  H   LIG d   1       2.155   1.997  -8.521  0.00  0.00     0.029 H 
ENDBRANCH  17  20
ENDBRANCH  11  14
ENDBRANCH   8  10
BRANCH   8  24
ATOM     24  C   LIG d   1       2.716  -5.629  -9.183  0.00  0.00    -0.038 C 
ATOM     25  H   LIG d   1       2.604  -5.818 -10.251  0.00  0.00     0.025 H 
ATOM     26  H   LIG d   1       2.856  -6.574  -8.659  0.00  0.00     0.025 H 
ATOM     27  H   LIG d   1       1.820  -5.135  -8.807  0.00  0.00     0.025 H 
ENDBRANCH   8  24
ENDBRANCH   5   8
ENDBRANCH   1   4
BRANCH   1  28
ATOM     28  N   LIG d   1       6.103  -3.957  -5.204  0.00  0.00    -0.290 N 
ATOM     29  C   LIG d   1       5.385  -3.142  -4.396  0.00  0.00     0.262 A 
ATOM     30  C   LIG d   1       5.956  -1.824  -4.087  0.00  0.00     0.069 A 
ATOM     31  O   LIG d   1       4.311  -3.490  -3.941  0.00  0.00    -0.267 OA
ATOM     32  C   LIG d   1       7.205  -1.491  -4.658  0.00  0.00     0.082 A 
ATOM     33  C   LIG d   1       5.296  -0.913  -3.262  0.00  0.00    -0.002 A 
ATOM     34  N   LIG d   1       7.826  -2.395  -5.458  0.00  0.00    -0.237 NA
ATOM     35  C   LIG d   1       7.771  -0.245  -4.389  0.00  0.00     0.010 A 
ATOM     36  C   LIG d   1       7.299  -3.555  -5.709  0.00  0.00     0.100 A 
ATOM     37  H   LIG d   1       7.838  -4.234  -6.352  0.00  0.00     0.103 H 
ATOM     38  C   LIG d   1       7.108   0.648  -3.570  0.00  0.00     0.164 A 
ATOM     39  H   LIG d   1       8.726   0.020  -4.819  0.00  0.00     0.068 H 
ATOM     40  C   LIG d   1       5.871   0.314  -3.006  0.00  0.00     0.162 A 
ATOM     41  H   LIG d   1       4.341  -1.168  -2.825  0.00  0.00     0.066 H 
BRANCH  38  42
ATOM     42  O   LIG d   1       7.660   1.860  -3.309  0.00  0.00    -0.491 OA
BRANCH  42  43
ATOM     43  C   LIG d   1       8.992   2.081  -3.780  0.00  0.00     0.079 C 
ATOM     44  H   LIG d   1       8.976   2.825  -4.577  0.00  0.00     0.066 H 
ATOM     45  H   LIG d   1       9.611   2.441  -2.959  0.00  0.00     0.066 H 
ATOM     46  H   LIG d   1       9.402   1.147  -4.162  0.00  0.00     0.066 H 
ENDBRANCH  42  43
ENDBRANCH  38  42
BRANCH  40  47
ATOM     47  O   LIG d   1       5.233   1.205  -2.202  0.00  0.00    -0.491 OA
BRANCH  47  48
ATOM     48  C   LIG d   1       3.805   1.236  -2.271  0.00  0.00     0.079 C 
ATOM     49  H   LIG d   1       3.495   1.881  -3.093  0.00  0.00     0.066 H 
ATOM     50  H   LIG d   1       3.428   0.227  -2.439  0.00  0.00     0.066 H 
ATOM     51  H   LIG d   1       3.405   1.622  -1.334  0.00  0.00     0.066 H 
ENDBRANCH  47  48
ENDBRANCH  40  47
ENDBRANCH   1  28
TORSDOF 11
ENDMDL
MODEL 5
REMARK VINA RESULT:      -5.5      7.324     10.863
REMARK  11 active torsions:
REMARK  status: ('A' for Active; 'I' for Inactive)
REMARK    1  A    between atoms: C_1  and  C_2 
REMARK    2  A    between atoms: C_5  and  N_7 
REMARK       I    between atoms: N_7  and  C_8 
REMARK    3  A    between atoms: C_8  and  C_10 
REMARK    4  A    between atoms: C_10  and  C_12 
REMARK    5  A    between atoms: C_10  and  N_13 
REMARK       I    between atoms: N_13  and  C_14 
REMARK    6  A    between atoms: C_14  and  C_16 
REMARK    7  A    between atoms: C_16  and  N_17 
REMARK    8  A    between atoms: C_22  and  O_30 
REMARK    9  A    between atoms: C_23  and  O_28 
REMARK   10  A    between atoms: O_28  and  C_29 
REMARK   11  A    between atoms: O_30  and  C_31 
ROOT
ATOM      1  C   LIG d   1       5.576  -7.352  -6.231  0.00  0.00     0.104 C 
ATOM      2  H   LIG d   1       6.353  -7.713  -6.905  0.00  0.00     0.059 H 
ATOM      3  H   LIG d   1       4.641  -7.244  -6.781  0.00  0.00     0.059 H 
ENDROOT
BRANCH   1   4
ATOM      4  C   LIG d   1       5.387  -8.337  -5.107  0.00  0.00     0.234 C 
ATOM      5  N   LIG d   1       6.461  -8.904  -4.520  0.00  0.00    -0.303 N 
ATOM      6  H   LIG d   1       7.354  -8.678  -4.822  0.00  0.00     0.149 HD
ATOM      7  O   LIG d   1       4.271  -8.621  -4.730  0.00  0.00    -0.274 OA
BRANCH   5   8
ATOM      8  C   LIG d   1       6.276  -9.862  -3.427  0.00  0.00     0.097 C 
ATOM      9  H   LIG d   1       5.258  -9.788  -3.047  0.00  0.00     0.059 H 
BRANCH   8  10
ATOM     10  C   LIG d   1       7.251  -9.554  -2.320  0.00  0.00     0.239 C 
ATOM     11  N   LIG d   1       8.560  -9.397  -2.599  0.00  0.00    -0.263 N 
ATOM     12  H   LIG d   1       8.875  -9.481  -3.513  0.00  0.00     0.157 HD
ATOM     13  O   LIG d   1       6.858  -9.448  -1.177  0.00  0.00    -0.273 OA
BRANCH  11  14
ATOM     14  C   LIG d   1       9.459  -9.113  -1.578  0.00  0.00     0.165 A 
ATOM     15  S   LIG d   1      10.451  -7.765  -1.403  0.00  0.00    -0.060 SA
ATOM     16  C   LIG d   1      11.229  -8.229   0.136  0.00  0.00    -0.000 A 
ATOM     17  C   LIG d   1      10.627  -9.420   0.374  0.00  0.00     0.048 A 
ATOM     18  H   LIG d   1      11.973  -7.705   0.717  0.00  0.00     0.071 H 
ATOM     19  N   LIG d   1       9.744  -9.834  -0.516  0.00  0.00    -0.230 NA
BRANCH  17  20
ATOM     20  C   LIG d   1      10.956 -10.238   1.597  0.00  0.00    -0.022 C 
ATOM     21  H   LIG d   1      10.344 -11.140   1.606  0.00  0.00     0.029 H 
ATOM     22  H   LIG d   1      12.010 -10.513   1.577  0.00  0.00     0.029 H 
ATOM     23  H   LIG d   1      10.750  -9.650   2.492  0.00  0.00     0.029 H 
ENDBRANCH  17  20
ENDBRANCH  11  14
ENDBRANCH   8  10
BRANCH   8  24
ATOM     24  C   LIG d   1       6.525 -11.280  -3.945  0.00  0.00    -0.038 C 
ATOM     25  H   LIG d   1       5.836 -11.495  -4.762  0.00  0.00     0.025 H 
ATOM     26  H   LIG d   1       7.551 -11.361  -4.304  0.00  0.00     0.025 H 
ATOM     27  H   LIG d   1       6.366 -11.996  -3.138  0.00  0.00     0.025 H 
ENDBRANCH   8  24
ENDBRANCH   5   8
ENDBRANCH   1   4
BRANCH   1  28
ATOM     28  N   LIG d   1       5.973  -6.054  -5.680  0.00  0.00    -0.290 N 
ATOM     29  C   LIG d   1       5.025  -5.135  -5.379  0.00  0.00     0.262 A 
ATOM     30  C   LIG d   1       5.478  -3.853  -4.825  0.00  0.00     0.069 A 
ATOM     31  O   LIG d   1       3.843  -5.365  -5.558  0.00  0.00    -0.267 OA
ATOM     32  C   LIG d   1       6.867  -3.658  -4.652  0.00  0.00     0.082 A 
ATOM     33  C   LIG d   1       4.579  -2.842  -4.480  0.00  0.00    -0.002 A 
ATOM     34  N   LIG d   1       7.720  -4.656  -4.996  0.00  0.00    -0.237 NA
ATOM     35  C   LIG d   1       7.331  -2.449  -4.133  0.00  0.00     0.010 A 
ATOM     36  C   LIG d   1       7.290  -5.781  -5.480  0.00  0.00     0.100 A 
ATOM     37  H   LIG d   1       8.014  -6.540  -5.735  0.00  0.00     0.103 H 
ATOM     38  C   LIG d   1       6.431  -1.457  -3.795  0.00  0.00     0.164 A 
ATOM     39  H   LIG d   1       8.390  -2.289  -3.995  0.00  0.00     0.068 H 
ATOM     40  C   LIG d   1       5.056  -1.654  -3.968  0.00  0.00     0.162 A 
ATOM     41  H   LIG d   1       3.518  -2.991  -4.612  0.00  0.00     0.066 H 
BRANCH  38  42
ATOM     42  O   LIG d   1       6.883  -0.281  -3.290  0.00  0.00    -0.491 OA
BRANCH  42  43
ATOM     43  C   LIG d   1       7.582   0.584  -4.188  0.00  0.00     0.079 C 
ATOM     44  H   LIG d   1       7.986   0.001  -5.014  0.00  0.00     0.066 H 
ATOM     45  H   LIG d   1       6.895   1.336  -4.575  0.00  0.00     0.066 H 
ATOM     46  H   LIG d   1       8.396   1.076  -3.656  0.00  0.00     0.066 H 
ENDBRANCH  42  43
ENDBRANCH  38  42
BRANCH  40  47
ATOM     47  O   LIG d   1       4.184  -0.667  -3.629  0.00  0.00    -0.491 OA
BRANCH  47  48
ATOM     48  C   LIG d   1       2.999  -1.057  -2.932  0.00  0.00     0.079 C 
ATOM     49  H   LIG d   1       3.236  -1.857  -2.231  0.00  0.00     0.066 H 
ATOM     50  H   LIG d   1       2.600  -0.202  -2.387  0.00  0.00     0.066 H 
ATOM     51  H   LIG d   1       2.256  -1.411  -3.648  0.00  0.00     0.066 H 
ENDBRANCH  47  48
ENDBRANCH  40  47
ENDBRANCH   1  28
TORSDOF 11
ENDMDL
MODEL 6
REMARK VINA RESULT:      -5.5      2.821      3.981
REMARK  11 active torsions:
REMARK  status: ('A' for Active; 'I' for Inactive)
REMARK    1  A    between atoms: C_1  and  C_2 
REMARK    2  A    between atoms: C_5  and  N_7 
REMARK       I    between atoms: N_7  and  C_8 
REMARK    3  A    between atoms: C_8  and  C_10 
REMARK    4  A    between atoms: C_10  and  C_12 
REMARK    5  A    between atoms: C_10  and  N_13 
REMARK       I    between atoms: N_13  and  C_14 
REMARK    6  A    between atoms: C_14  and  C_16 
REMARK    7  A    between atoms: C_16  and  N_17 
REMARK    8  A    between atoms: C_22  and  O_30 
REMARK    9  A    between atoms: C_23  and  O_28 
REMARK   10  A    between atoms: O_28  and  C_29 
REMARK   11  A    between atoms: O_30  and  C_31 
ROOT
ATOM      1  C   LIG d   1       9.272   1.059  -5.577  0.00  0.00     0.104 C 
ATOM      2  H   LIG d   1      10.196   0.480  -5.569  0.00  0.00     0.059 H 
ATOM      3  H   LIG d   1       9.009   1.308  -6.605  0.00  0.00     0.059 H 
ENDROOT
BRANCH   1   4
ATOM      4  C   LIG d   1       8.164   0.248  -4.957  0.00  0.00     0.234 C 
ATOM      5  N   LIG d   1       6.939   0.788  -4.803  0.00  0.00    -0.303 N 
ATOM      6  H   LIG d   1       6.770   1.698  -5.090  0.00  0.00     0.149 HD
ATOM      7  O   LIG d   1       8.374  -0.891  -4.598  0.00  0.00    -0.274 OA
BRANCH   5   8
ATOM      8  C   LIG d   1       5.862  -0.002  -4.200  0.00  0.00     0.097 C 
ATOM      9  H   LIG d   1       6.261  -0.954  -3.850  0.00  0.00     0.059 H 
BRANCH   8  10
ATOM     10  C   LIG d   1       4.789  -0.255  -5.229  0.00  0.00     0.239 C 
ATOM     11  N   LIG d   1       5.059  -0.089  -6.539  0.00  0.00    -0.263 N 
ATOM     12  H   LIG d   1       5.944   0.192  -6.819  0.00  0.00     0.157 HD
ATOM     13  O   LIG d   1       3.682  -0.605  -4.877  0.00  0.00    -0.273 OA
BRANCH  11  14
ATOM     14  C   LIG d   1       4.070  -0.321  -7.487  0.00  0.00     0.165 A 
ATOM     15  S   LIG d   1       2.964   0.770  -8.133  0.00  0.00    -0.060 SA
ATOM     16  C   LIG d   1       2.118  -0.357  -9.230  0.00  0.00    -0.000 A 
ATOM     17  C   LIG d   1       2.795  -1.505  -8.984  0.00  0.00     0.048 A 
ATOM     18  H   LIG d   1       1.295  -0.173  -9.905  0.00  0.00     0.071 H 
ATOM     19  N   LIG d   1       3.769  -1.448  -8.094  0.00  0.00    -0.230 NA
BRANCH  17  20
ATOM     20  C   LIG d   1       2.447  -2.791  -9.689  0.00  0.00    -0.022 C 
ATOM     21  H   LIG d   1       1.367  -2.934  -9.670  0.00  0.00     0.029 H 
ATOM     22  H   LIG d   1       2.790  -2.743 -10.722  0.00  0.00     0.029 H 
ATOM     23  H   LIG d   1       2.933  -3.625  -9.182  0.00  0.00     0.029 H 
ENDBRANCH  17  20
ENDBRANCH  11  14
ENDBRANCH   8  10
BRANCH   8  24
ATOM     24  C   LIG d   1       5.265   0.766  -3.020  0.00  0.00    -0.038 C 
ATOM     25  H   LIG d   1       4.239   0.437  -2.853  0.00  0.00     0.025 H 
ATOM     26  H   LIG d   1       5.858   0.576  -2.125  0.00  0.00     0.025 H 
ATOM     27  H   LIG d   1       5.272   1.834  -3.240  0.00  0.00     0.025 H 
ENDBRANCH   8  24
ENDBRANCH   5   8
ENDBRANCH   1   4
BRANCH   1  28
ATOM     28  N   LIG d   1       9.463   2.292  -4.809  0.00  0.00    -0.290 N 
ATOM     29  C   LIG d   1       9.397   3.490  -5.435  0.00  0.00     0.262 A 
ATOM     30  C   LIG d   1       9.591   4.693  -4.616  0.00  0.00     0.069 A 
ATOM     31  O   LIG d   1       9.183   3.566  -6.632  0.00  0.00    -0.267 OA
ATOM     32  C   LIG d   1       9.842   4.524  -3.235  0.00  0.00     0.082 A 
ATOM     33  C   LIG d   1       9.539   5.974  -5.168  0.00  0.00    -0.002 A 
ATOM     34  N   LIG d   1       9.888   3.267  -2.724  0.00  0.00    -0.237 NA
ATOM     35  C   LIG d   1      10.035   5.646  -2.430  0.00  0.00     0.010 A 
ATOM     36  C   LIG d   1       9.708   2.221  -3.473  0.00  0.00     0.100 A 
ATOM     37  H   LIG d   1       9.755   1.247  -3.012  0.00  0.00     0.103 H 
ATOM     38  C   LIG d   1       9.981   6.908  -2.989  0.00  0.00     0.164 A 
ATOM     39  H   LIG d   1      10.227   5.529  -1.374  0.00  0.00     0.068 H 
ATOM     40  C   LIG d   1       9.732   7.072  -4.356  0.00  0.00     0.162 A 
ATOM     41  H   LIG d   1       9.347   6.104  -6.222  0.00  0.00     0.066 H 
BRANCH  38  42
ATOM     42  O   LIG d   1      10.170   7.999  -2.204  0.00  0.00    -0.491 OA
BRANCH  42  43
ATOM     43  C   LIG d   1       9.247   8.194  -1.130  0.00  0.00     0.079 C 
ATOM     44  H   LIG d   1       8.560   9.002  -1.384  0.00  0.00     0.066 H 
ATOM     45  H   LIG d   1       8.684   7.276  -0.965  0.00  0.00     0.066 H 
ATOM     46  H   LIG d   1       9.794   8.453  -0.224  0.00  0.00     0.066 H 
ENDBRANCH  42  43
ENDBRANCH  38  42
BRANCH  40  47
ATOM     47  O   LIG d   1       9.682   8.322  -4.888  0.00  0.00    -0.491 OA
BRANCH  47  48
ATOM     48  C   LIG d   1       9.277   8.431  -6.255  0.00  0.00     0.079 C 
ATOM     49  H   LIG d   1       9.932   7.823  -6.877  0.00  0.00     0.066 H 
ATOM     50  H   LIG d   1       8.250   8.082  -6.358  0.00  0.00     0.066 H 
ATOM     51  H   LIG d   1       9.340   9.473  -6.571  0.00  0.00     0.066 H 
ENDBRANCH  47  48
ENDBRANCH  40  47
ENDBRANCH   1  28
TORSDOF 11
ENDMDL
MODEL 7
REMARK VINA RESULT:      -5.4      1.978      2.329
REMARK  11 active torsions:
REMARK  status: ('A' for Active; 'I' for Inactive)
REMARK    1  A    between atoms: C_1  and  C_2 
REMARK    2  A    between atoms: C_5  and  N_7 
REMARK       I    between atoms: N_7  and  C_8 
REMARK    3  A    between atoms: C_8  and  C_10 
REMARK    4  A    between atoms: C_10  and  C_12 
REMARK    5  A    between atoms: C_10  and  N_13 
REMARK       I    between atoms: N_13  and  C_14 
REMARK    6  A    between atoms: C_14  and  C_16 
REMARK    7  A    between atoms: C_16  and  N_17 
REMARK    8  A    between atoms: C_22  and  O_30 
REMARK    9  A    between atoms: C_23  and  O_28 
REMARK   10  A    between atoms: O_28  and  C_29 
REMARK   11  A    between atoms: O_30  and  C_31 
ROOT
ATOM      1  C   LIG d   1      11.363   4.589  -6.956  0.00  0.00     0.104 C 
ATOM      2  H   LIG d   1      11.943   3.743  -6.588  0.00  0.00     0.059 H 
ATOM      3  H   LIG d   1      11.943   5.127  -7.707  0.00  0.00     0.059 H 
ENDROOT
BRANCH   1   4
ATOM      4  C   LIG d   1      10.082   4.091  -7.573  0.00  0.00     0.234 C 
ATOM      5  N   LIG d   1       9.607   2.872  -7.248  0.00  0.00    -0.303 N 
ATOM      6  H   LIG d   1      10.090   2.316  -6.618  0.00  0.00     0.149 HD
ATOM      7  O   LIG d   1       9.478   4.787  -8.362  0.00  0.00    -0.274 OA
BRANCH   5   8
ATOM      8  C   LIG d   1       8.361   2.389  -7.849  0.00  0.00     0.097 C 
ATOM      9  H   LIG d   1       7.762   3.238  -8.176  0.00  0.00     0.059 H 
BRANCH   8  10
ATOM     10  C   LIG d   1       7.589   1.592  -6.829  0.00  0.00     0.239 C 
ATOM     11  N   LIG d   1       7.963   1.613  -5.534  0.00  0.00    -0.263 N 
ATOM     12  H   LIG d   1       8.727   2.142  -5.259  0.00  0.00     0.157 HD
ATOM     13  O   LIG d   1       6.633   0.930  -7.173  0.00  0.00    -0.273 OA
BRANCH  11  14
ATOM     14  C   LIG d   1       7.251   0.878  -4.593  0.00  0.00     0.165 A 
ATOM     15  S   LIG d   1       7.360  -0.767  -4.251  0.00  0.00    -0.060 SA
ATOM     16  C   LIG d   1       6.130  -0.831  -2.958  0.00  0.00    -0.000 A 
ATOM     17  C   LIG d   1       5.742   0.468  -2.913  0.00  0.00     0.048 A 
ATOM     18  H   LIG d   1       5.791  -1.672  -2.371  0.00  0.00     0.071 H 
ATOM     19  N   LIG d   1       6.327   1.298  -3.757  0.00  0.00    -0.230 NA
BRANCH  17  20
ATOM     20  C   LIG d   1       4.686   0.941  -1.948  0.00  0.00    -0.022 C 
ATOM     21  H   LIG d   1       4.053   0.101  -1.662  0.00  0.00     0.029 H 
ATOM     22  H   LIG d   1       5.164   1.355  -1.060  0.00  0.00     0.029 H 
ATOM     23  H   LIG d   1       4.077   1.709  -2.425  0.00  0.00     0.029 H 
ENDBRANCH  17  20
ENDBRANCH  11  14
ENDBRANCH   8  10
BRANCH   8  24
ATOM     24  C   LIG d   1       8.686   1.500  -9.050  0.00  0.00    -0.038 C 
ATOM     25  H   LIG d   1       8.734   0.459  -8.729  0.00  0.00     0.025 H 
ATOM     26  H   LIG d   1       7.908   1.611  -9.806  0.00  0.00     0.025 H 
ATOM     27  H   LIG d   1       9.647   1.794  -9.472  0.00  0.00     0.025 H 
ENDBRANCH   8  24
ENDBRANCH   5   8
ENDBRANCH   1   4
BRANCH   1  28
ATOM     28  N   LIG d   1      11.051   5.488  -5.842  0.00  0.00    -0.290 N 
ATOM     29  C   LIG d   1      10.968   4.994  -4.585  0.00  0.00     0.262 A 
ATOM     30  C   LIG d   1      10.657   5.940  -3.506  0.00  0.00     0.069 A 
ATOM     31  O   LIG d   1      11.147   3.811  -4.358  0.00  0.00    -0.267 OA
ATOM     32  C   LIG d   1      10.457   7.297  -3.849  0.00  0.00     0.082 A 
ATOM     33  C   LIG d   1      10.552   5.530  -2.176  0.00  0.00    -0.002 A 
ATOM     34  N   LIG d   1      10.564   7.669  -5.149  0.00  0.00    -0.237 NA
ATOM     35  C   LIG d   1      10.155   8.220  -2.848  0.00  0.00     0.010 A 
ATOM     36  C   LIG d   1      10.845   6.810  -6.082  0.00  0.00     0.100 A 
ATOM     37  H   LIG d   1      10.918   7.164  -7.099  0.00  0.00     0.103 H 
ATOM     38  C   LIG d   1      10.054   7.800  -1.536  0.00  0.00     0.164 A 
ATOM     39  H   LIG d   1      10.001   9.259  -3.098  0.00  0.00     0.068 H 
ATOM     40  C   LIG d   1      10.254   6.457  -1.200  0.00  0.00     0.162 A 
ATOM     41  H   LIG d   1      10.705   4.493  -1.913  0.00  0.00     0.066 H 
BRANCH  38  42
ATOM     42  O   LIG d   1       9.761   8.700  -0.563  0.00  0.00    -0.491 OA
BRANCH  42  43
ATOM     43  C   LIG d   1       8.883   9.773  -0.914  0.00  0.00     0.079 C 
ATOM     44  H   LIG d   1       9.394  10.724  -0.764  0.00  0.00     0.066 H 
ATOM     45  H   LIG d   1       8.593   9.677  -1.960  0.00  0.00     0.066 H 
ATOM     46  H   LIG d   1       7.994   9.734  -0.285  0.00  0.00     0.066 H 
ENDBRANCH  42  43
ENDBRANCH  38  42
BRANCH  40  47
ATOM     47  O   LIG d   1      10.151   6.062   0.097  0.00  0.00    -0.491 OA
BRANCH  47  48
ATOM     48  C   LIG d   1      11.371   5.833   0.805  0.00  0.00     0.079 C 
ATOM     49  H   LIG d   1      11.206   5.086   1.582  0.00  0.00     0.066 H 
ATOM     50  H   LIG d   1      12.132   5.474   0.111  0.00  0.00     0.066 H 
ATOM     51  H   LIG d   1      11.707   6.764   1.262  0.00  0.00     0.066 H 
ENDBRANCH  47  48
ENDBRANCH  40  47
ENDBRANCH   1  28
TORSDOF 11
ENDMDL
MODEL 8
REMARK VINA RESULT:      -5.4      7.286     12.112
REMARK  11 active torsions:
REMARK  status: ('A' for Active; 'I' for Inactive)
REMARK    1  A    between atoms: C_1  and  C_2 
REMARK    2  A    between atoms: C_5  and  N_7 
REMARK       I    between atoms: N_7  and  C_8 
REMARK    3  A    between atoms: C_8  and  C_10 
REMARK    4  A    between atoms: C_10  and  C_12 
REMARK    5  A    between atoms: C_10  and  N_13 
REMARK       I    between atoms: N_13  and  C_14 
REMARK    6  A    between atoms: C_14  and  C_16 
REMARK    7  A    between atoms: C_16  and  N_17 
REMARK    8  A    between atoms: C_22  and  O_30 
REMARK    9  A    between atoms: C_23  and  O_28 
REMARK   10  A    between atoms: O_28  and  C_29 
REMARK   11  A    between atoms: O_30  and  C_31 
ROOT
ATOM      1  C   LIG d   1      10.238  -7.658  -2.732  0.00  0.00     0.104 C 
ATOM      2  H   LIG d   1      10.856  -7.796  -3.619  0.00  0.00     0.059 H 
ATOM      3  H   LIG d   1      10.727  -8.119  -1.873  0.00  0.00     0.059 H 
ENDROOT
BRANCH   1   4
ATOM      4  C   LIG d   1      10.052  -6.185  -2.473  0.00  0.00     0.234 C 
ATOM      5  N   LIG d   1      10.170  -5.303  -3.485  0.00  0.00    -0.303 N 
ATOM      6  H   LIG d   1      10.375  -5.615  -4.379  0.00  0.00     0.149 HD
ATOM      7  O   LIG d   1       9.796  -5.794  -1.354  0.00  0.00    -0.274 OA
BRANCH   5   8
ATOM      8  C   LIG d   1       9.988  -3.871  -3.232  0.00  0.00     0.097 C 
ATOM      9  H   LIG d   1      10.101  -3.673  -2.167  0.00  0.00     0.059 H 
BRANCH   8  10
ATOM     10  C   LIG d   1       8.611  -3.453  -3.679  0.00  0.00     0.239 C 
ATOM     11  N   LIG d   1       8.120  -2.251  -3.316  0.00  0.00    -0.263 N 
ATOM     12  H   LIG d   1       8.654  -1.655  -2.769  0.00  0.00     0.157 HD
ATOM     13  O   LIG d   1       7.943  -4.199  -4.363  0.00  0.00    -0.273 OA
BRANCH  11  14
ATOM     14  C   LIG d   1       6.850  -1.866  -3.727  0.00  0.00     0.165 A 
ATOM     15  S   LIG d   1       6.375  -1.252  -5.221  0.00  0.00    -0.060 SA
ATOM     16  C   LIG d   1       4.637  -1.051  -4.863  0.00  0.00    -0.000 A 
ATOM     17  C   LIG d   1       4.590  -1.493  -3.582  0.00  0.00     0.048 A 
ATOM     18  H   LIG d   1       3.843  -0.680  -5.494  0.00  0.00     0.071 H 
ATOM     19  N   LIG d   1       5.727  -1.891  -3.042  0.00  0.00    -0.230 NA
BRANCH  17  20
ATOM     20  C   LIG d   1       3.297  -1.521  -2.807  0.00  0.00    -0.022 C 
ATOM     21  H   LIG d   1       2.563  -0.888  -3.302  0.00  0.00     0.029 H 
ATOM     22  H   LIG d   1       2.924  -2.544  -2.761  0.00  0.00     0.029 H 
ATOM     23  H   LIG d   1       3.473  -1.153  -1.796  0.00  0.00     0.029 H 
ENDBRANCH  17  20
ENDBRANCH  11  14
ENDBRANCH   8  10
BRANCH   8  24
ATOM     24  C   LIG d   1      11.039  -3.079  -4.013  0.00  0.00    -0.038 C 
ATOM     25  H   LIG d   1      11.804  -2.716  -3.326  0.00  0.00     0.025 H 
ATOM     26  H   LIG d   1      11.498  -3.724  -4.762  0.00  0.00     0.025 H 
ATOM     27  H   LIG d   1      10.563  -2.231  -4.506  0.00  0.00     0.025 H 
ENDBRANCH   8  24
ENDBRANCH   5   8
ENDBRANCH   1   4
BRANCH   1  28
ATOM     28  N   LIG d   1       8.931  -8.285  -2.946  0.00  0.00    -0.290 N 
ATOM     29  C   LIG d   1       8.270  -8.076  -4.108  0.00  0.00     0.262 A 
ATOM     30  C   LIG d   1       6.966  -8.733  -4.271  0.00  0.00     0.069 A 
ATOM     31  O   LIG d   1       8.739  -7.374  -4.985  0.00  0.00    -0.267 OA
ATOM     32  C   LIG d   1       6.485  -9.528  -3.206  0.00  0.00     0.082 A 
ATOM     33  C   LIG d   1       6.208  -8.583  -5.433  0.00  0.00    -0.002 A 
ATOM     34  N   LIG d   1       7.242  -9.657  -2.087  0.00  0.00    -0.237 NA
ATOM     35  C   LIG d   1       5.248 -10.161  -3.327  0.00  0.00     0.010 A 
ATOM     36  C   LIG d   1       8.393  -9.067  -1.973  0.00  0.00     0.100 A 
ATOM     37  H   LIG d   1       8.952  -9.206  -1.059  0.00  0.00     0.103 H 
ATOM     38  C   LIG d   1       4.508 -10.004  -4.482  0.00  0.00     0.164 A 
ATOM     39  H   LIG d   1       4.871 -10.771  -2.520  0.00  0.00     0.068 H 
ATOM     40  C   LIG d   1       4.988  -9.217  -5.535  0.00  0.00     0.162 A 
ATOM     41  H   LIG d   1       6.576  -7.976  -6.247  0.00  0.00     0.066 H 
BRANCH  38  42
ATOM     42  O   LIG d   1       3.304 -10.621  -4.599  0.00  0.00    -0.491 OA
BRANCH  42  43
ATOM     43  C   LIG d   1       3.302 -11.943  -5.143  0.00  0.00     0.079 C 
ATOM     44  H   LIG d   1       4.216 -12.102  -5.714  0.00  0.00     0.066 H 
ATOM     45  H   LIG d   1       3.248 -12.669  -4.332  0.00  0.00     0.066 H 
ATOM     46  H   LIG d   1       2.438 -12.064  -5.796  0.00  0.00     0.066 H 
ENDBRANCH  42  43
ENDBRANCH  38  42
BRANCH  40  47
ATOM     47  O   LIG d   1       4.245  -9.075  -6.665  0.00  0.00    -0.491 OA
BRANCH  47  48
ATOM     48  C   LIG d   1       4.443  -7.882  -7.427  0.00  0.00     0.079 C 
ATOM     49  H   LIG d   1       5.158  -7.238  -6.915  0.00  0.00     0.066 H 
ATOM     50  H   LIG d   1       4.829  -8.140  -8.413  0.00  0.00     0.066 H 
ATOM     51  H   LIG d   1       3.494  -7.357  -7.534  0.00  0.00     0.066 H 
ENDBRANCH  47  48
ENDBRANCH  40  47
ENDBRANCH   1  28
TORSDOF 11
ENDMDL
MODEL 9
REMARK VINA RESULT:      -5.4      4.636      6.982
REMARK  11 active torsions:
REMARK  status: ('A' for Active; 'I' for Inactive)
REMARK    1  A    between atoms: C_1  and  C_2 
REMARK    2  A    between atoms: C_5  and  N_7 
REMARK       I    between atoms: N_7  and  C_8 
REMARK    3  A    between atoms: C_8  and  C_10 
REMARK    4  A    between atoms: C_10  and  C_12 
REMARK    5  A    between atoms: C_10  and  N_13 
REMARK       I    between atoms: N_13  and  C_14 
REMARK    6  A    between atoms: C_14  and  C_16 
REMARK    7  A    between atoms: C_16  and  N_17 
REMARK    8  A    between atoms: C_22  and  O_30 
REMARK    9  A    between atoms: C_23  and  O_28 
REMARK   10  A    between atoms: O_28  and  C_29 
REMARK   11  A    between atoms: O_30  and  C_31 
ROOT
ATOM      1  C   LIG d   1      10.054   3.973  -6.207  0.00  0.00     0.104 C 
ATOM      2  H   LIG d   1       8.992   3.783  -6.357  0.00  0.00     0.059 H 
ATOM      3  H   LIG d   1      10.619   3.068  -6.429  0.00  0.00     0.059 H 
ENDROOT
BRANCH   1   4
ATOM      4  C   LIG d   1      10.501   5.082  -7.123  0.00  0.00     0.234 C 
ATOM      5  N   LIG d   1       9.603   5.712  -7.907  0.00  0.00    -0.303 N 
ATOM      6  H   LIG d   1       8.670   5.450  -7.882  0.00  0.00     0.149 HD
ATOM      7  O   LIG d   1      11.668   5.410  -7.155  0.00  0.00    -0.274 OA
BRANCH   5   8
ATOM      8  C   LIG d   1      10.039   6.791  -8.798  0.00  0.00     0.097 C 
ATOM      9  H   LIG d   1      11.111   6.708  -8.971  0.00  0.00     0.059 H 
BRANCH   8  10
ATOM     10  C   LIG d   1       9.734   8.122  -8.160  0.00  0.00     0.239 C 
ATOM     11  N   LIG d   1      10.370   8.489  -7.029  0.00  0.00    -0.263 N 
ATOM     12  H   LIG d   1      11.024   7.897  -6.627  0.00  0.00     0.157 HD
ATOM     13  O   LIG d   1       8.915   8.862  -8.662  0.00  0.00    -0.273 OA
BRANCH  11  14
ATOM     14  C   LIG d   1      10.088   9.716  -6.440  0.00  0.00     0.165 A 
ATOM     15  S   LIG d   1      10.474  11.256  -6.997  0.00  0.00    -0.060 SA
ATOM     16  C   LIG d   1       9.750  12.191  -5.659  0.00  0.00    -0.000 A 
ATOM     17  C   LIG d   1       9.263  11.189  -4.885  0.00  0.00     0.048 A 
ATOM     18  H   LIG d   1       9.710  13.259  -5.508  0.00  0.00     0.071 H 
ATOM     19  N   LIG d   1       9.458   9.954  -5.311  0.00  0.00    -0.230 NA
BRANCH  17  20
ATOM     20  C   LIG d   1       8.538  11.473  -3.595  0.00  0.00    -0.022 C 
ATOM     21  H   LIG d   1       8.604  12.536  -3.367  0.00  0.00     0.029 H 
ATOM     22  H   LIG d   1       7.491  11.186  -3.696  0.00  0.00     0.029 H 
ATOM     23  H   LIG d   1       8.996  10.899  -2.788  0.00  0.00     0.029 H 
ENDBRANCH  17  20
ENDBRANCH  11  14
ENDBRANCH   8  10
BRANCH   8  24
ATOM     24  C   LIG d   1       9.296   6.683 -10.130  0.00  0.00    -0.038 C 
ATOM     25  H   LIG d   1       9.299   5.645 -10.465  0.00  0.00     0.025 H 
ATOM     26  H   LIG d   1       8.267   7.020 -10.001  0.00  0.00     0.025 H 
ATOM     27  H   LIG d   1       9.791   7.305 -10.876  0.00  0.00     0.025 H 
ENDBRANCH   8  24
ENDBRANCH   5   8
ENDBRANCH   1   4
BRANCH   1  28
ATOM     28  N   LIG d   1      10.288   4.366  -4.815  0.00  0.00    -0.290 N 
ATOM     29  C   LIG d   1       9.713   5.491  -4.330  0.00  0.00     0.262 A 
ATOM     30  C   LIG d   1       9.977   5.835  -2.927  0.00  0.00     0.069 A 
ATOM     31  O   LIG d   1       9.003   6.190  -5.030  0.00  0.00    -0.267 OA
ATOM     32  C   LIG d   1      10.817   4.978  -2.180  0.00  0.00     0.082 A 
ATOM     33  C   LIG d   1       9.429   6.973  -2.333  0.00  0.00    -0.002 A 
ATOM     34  N   LIG d   1      11.337   3.879  -2.781  0.00  0.00    -0.237 NA
ATOM     35  C   LIG d   1      11.091   5.280  -0.846  0.00  0.00     0.010 A 
ATOM     36  C   LIG d   1      11.083   3.598  -4.023  0.00  0.00     0.100 A 
ATOM     37  H   LIG d   1      11.524   2.709  -4.448  0.00  0.00     0.103 H 
ATOM     38  C   LIG d   1      10.543   6.409  -0.271  0.00  0.00     0.164 A 
ATOM     39  H   LIG d   1      11.731   4.632  -0.265  0.00  0.00     0.068 H 
ATOM     40  C   LIG d   1       9.711   7.254  -1.013  0.00  0.00     0.162 A 
ATOM     41  H   LIG d   1       8.787   7.628  -2.904  0.00  0.00     0.066 H 
BRANCH  38  42
ATOM     42  O   LIG d   1      10.811   6.700   1.028  0.00  0.00    -0.491 OA
BRANCH  42  43
ATOM     43  C   LIG d   1      10.928   5.598   1.930  0.00  0.00     0.079 C 
ATOM     44  H   LIG d   1      11.945   5.207   1.896  0.00  0.00     0.066 H 
ATOM     45  H   LIG d   1      10.701   5.932   2.942  0.00  0.00     0.066 H 
ATOM     46  H   LIG d   1      10.227   4.816   1.640  0.00  0.00     0.066 H 
ENDBRANCH  42  43
ENDBRANCH  38  42
BRANCH  40  47
ATOM     47  O   LIG d   1       9.179   8.361  -0.430  0.00  0.00    -0.491 OA
BRANCH  47  48
ATOM     48  C   LIG d   1       9.821   9.610  -0.700  0.00  0.00     0.079 C 
ATOM     49  H   LIG d   1       9.867  10.199   0.215  0.00  0.00     0.066 H 
ATOM     50  H   LIG d   1      10.831   9.427  -1.066  0.00  0.00     0.066 H 
ATOM     51  H   LIG d   1       9.253  10.154  -1.454  0.00  0.00     0.066 H 
ENDBRANCH  47  48
ENDBRANCH  40  47
ENDBRANCH   1  28
TORSDOF 11
ENDMDL
MODEL 10
REMARK VINA RESULT:      -5.3      2.489      3.383
REMARK  11 active torsions:
REMARK  status: ('A' for Active; 'I' for Inactive)
REMARK    1  A    between atoms: C_1  and  C_2 
REMARK    2  A    between atoms: C_5  and  N_7 
REMARK       I    between atoms: N_7  and  C_8 
REMARK    3  A    between atoms: C_8  and  C_10 
REMARK    4  A    between atoms: C_10  and  C_12 
REMARK    5  A    between atoms: C_10  and  N_13 
REMARK       I    between atoms: N_13  and  C_14 
REMARK    6  A    between atoms: C_14  and  C_16 
REMARK    7  A    between atoms: C_16  and  N_17 
REMARK    8  A    between atoms: C_22  and  O_30 
REMARK    9  A    between atoms: C_23  and  O_28 
REMARK   10  A    between atoms: O_28  and  C_29 
REMARK   11  A    between atoms: O_30  and  C_31 
ROOT
ATOM      1  C   LIG d   1       9.262   2.327  -8.447  0.00  0.00     0.104 C 
ATOM      2  H   LIG d   1       9.867   1.433  -8.600  0.00  0.00     0.059 H 
ATOM      3  H   LIG d   1       9.586   3.107  -9.136  0.00  0.00     0.059 H 
ENDROOT
BRANCH   1   4
ATOM      4  C   LIG d   1       7.813   2.003  -8.700  0.00  0.00     0.234 C 
ATOM      5  N   LIG d   1       7.343   0.766  -8.440  0.00  0.00    -0.303 N 
ATOM      6  H   LIG d   1       7.938   0.085  -8.090  0.00  0.00     0.149 HD
ATOM      7  O   LIG d   1       7.068   2.854  -9.137  0.00  0.00    -0.274 OA
BRANCH   5   8
ATOM      8  C   LIG d   1       5.933   0.452  -8.686  0.00  0.00     0.097 C 
ATOM      9  H   LIG d   1       5.461   1.284  -9.207  0.00  0.00     0.059 H 
BRANCH   8  10
ATOM     10  C   LIG d   1       5.234   0.218  -7.372  0.00  0.00     0.239 C 
ATOM     11  N   LIG d   1       5.932  -0.223  -6.306  0.00  0.00    -0.263 N 
ATOM     12  H   LIG d   1       6.885  -0.388  -6.386  0.00  0.00     0.157 HD
ATOM     13  O   LIG d   1       4.043   0.426  -7.273  0.00  0.00    -0.273 OA
BRANCH  11  14
ATOM     14  C   LIG d   1       5.288  -0.438  -5.094  0.00  0.00     0.165 A 
ATOM     15  S   LIG d   1       4.524  -1.836  -4.549  0.00  0.00    -0.060 SA
ATOM     16  C   LIG d   1       4.003  -1.226  -2.954  0.00  0.00    -0.000 A 
ATOM     17  C   LIG d   1       4.485   0.041  -2.998  0.00  0.00     0.048 A 
ATOM     18  H   LIG d   1       3.455  -1.728  -2.171  0.00  0.00     0.071 H 
ATOM     19  N   LIG d   1       5.123   0.402  -4.096  0.00  0.00    -0.230 NA
BRANCH  17  20
ATOM     20  C   LIG d   1       4.296   0.995  -1.846  0.00  0.00    -0.022 C 
ATOM     21  H   LIG d   1       5.133   0.902  -1.156  0.00  0.00     0.029 H 
ATOM     22  H   LIG d   1       4.249   2.016  -2.225  0.00  0.00     0.029 H 
ATOM     23  H   LIG d   1       3.367   0.757  -1.327  0.00  0.00     0.029 H 
ENDBRANCH  17  20
ENDBRANCH  11  14
ENDBRANCH   8  10
BRANCH   8  24
ATOM     24  C   LIG d   1       5.835  -0.809  -9.546  0.00  0.00    -0.038 C 
ATOM     25  H   LIG d   1       6.800  -1.005 -10.015  0.00  0.00     0.025 H 
ATOM     26  H   LIG d   1       5.557  -1.657  -8.919  0.00  0.00     0.025 H 
ATOM     27  H   LIG d   1       5.080  -0.666 -10.319  0.00  0.00     0.025 H 
ENDBRANCH   8  24
ENDBRANCH   5   8
ENDBRANCH   1   4
BRANCH   1  28
ATOM     28  N   LIG d   1       9.424   2.795  -7.068  0.00  0.00    -0.290 N 
ATOM     29  C   LIG d   1       9.564   4.118  -6.821  0.00  0.00     0.262 A 
ATOM     30  C   LIG d   1       9.718   4.531  -5.420  0.00  0.00     0.069 A 
ATOM     31  O   LIG d   1       9.560   4.933  -7.725  0.00  0.00    -0.267 OA
ATOM     32  C   LIG d   1       9.718   3.526  -4.426  0.00  0.00     0.082 A 
ATOM     33  C   LIG d   1       9.866   5.872  -5.061  0.00  0.00    -0.002 A 
ATOM     34  N   LIG d   1       9.573   2.230  -4.802  0.00  0.00    -0.237 NA
ATOM     35  C   LIG d   1       9.867   3.886  -3.087  0.00  0.00     0.010 A 
ATOM     36  C   LIG d   1       9.435   1.894  -6.049  0.00  0.00     0.100 A 
ATOM     37  H   LIG d   1       9.322   0.848  -6.288  0.00  0.00     0.103 H 
ATOM     38  C   LIG d   1      10.013   5.215  -2.746  0.00  0.00     0.164 A 
ATOM     39  H   LIG d   1       9.868   3.126  -2.319  0.00  0.00     0.068 H 
ATOM     40  C   LIG d   1      10.011   6.209  -3.732  0.00  0.00     0.162 A 
ATOM     41  H   LIG d   1       9.865   6.641  -5.820  0.00  0.00     0.066 H 
BRANCH  38  42
ATOM     42  O   LIG d   1      10.158   5.564  -1.442  0.00  0.00    -0.491 OA
BRANCH  42  43
ATOM     43  C   LIG d   1      11.414   5.267  -0.826  0.00  0.00     0.079 C 
ATOM     44  H   LIG d   1      11.974   6.190  -0.682  0.00  0.00     0.066 H 
ATOM     45  H   LIG d   1      11.241   4.792   0.139  0.00  0.00     0.066 H 
ATOM     46  H   LIG d   1      11.981   4.592  -1.467  0.00  0.00     0.066 H 
ENDBRANCH  42  43
ENDBRANCH  38  42
BRANCH  40  47
ATOM     47  O   LIG d   1      10.156   7.513  -3.378  0.00  0.00    -0.491 OA
BRANCH  47  48
ATOM     48  C   LIG d   1      11.437   8.108  -3.595  0.00  0.00     0.079 C 
ATOM     49  H   LIG d   1      11.712   8.705  -2.726  0.00  0.00     0.066 H 
ATOM     50  H   LIG d   1      12.179   7.324  -3.748  0.00  0.00     0.066 H 
ATOM     51  H   LIG d   1      11.396   8.747  -4.477  0.00  0.00     0.066 H 
ENDBRANCH  47  48
ENDBRANCH  40  47
ENDBRANCH   1  28
TORSDOF 11
ENDMDL
