MODEL 1
REMARK VINA RESULT:      -6.2      0.000      0.000
REMARK  6 active torsions:
REMARK  status: ('A' for Active; 'I' for Inactive)
REMARK    1  A    between atoms: C_1  and  C_2 
REMARK    2  A    between atoms: C_10  and  C_11 
REMARK    3  A    between atoms: C_15  and  O_19 
REMARK    4  A    between atoms: C_16  and  O_17 
REMARK    5  A    between atoms: O_17  and  C_18 
REMARK    6  A    between atoms: O_19  and  C_20 
ROOT
ATOM      1  C   LIG d   1       3.700  -0.120  -4.564  0.00  0.00     0.024 A 
ATOM      2  C   LIG d   1       2.792  -0.772  -3.720  0.00  0.00    -0.051 A 
ATOM      3  C   LIG d   1       3.254  -1.549  -2.681  0.00  0.00    -0.058 A 
ATOM      4  C   LIG d   1       4.615  -1.688  -2.462  0.00  0.00    -0.016 A 
ATOM      5  C   LIG d   1       5.526  -1.050  -3.287  0.00  0.00     0.162 A 
ATOM      6  C   LIG d   1       5.078  -0.263  -4.341  0.00  0.00     0.169 A 
ATOM      7  H   LIG d   1       1.730  -0.668  -3.886  0.00  0.00     0.062 H 
ATOM      8  H   LIG d   1       2.551  -2.054  -2.034  0.00  0.00     0.062 H 
ATOM      9  H   LIG d   1       4.967  -2.299  -1.643  0.00  0.00     0.066 H 
ENDROOT
BRANCH   1  10
ATOM     10  C   LIG d   1       3.214   0.708  -5.673  0.00  0.00    -0.005 C 
ATOM     11  C   LIG d   1       3.110   0.180  -6.919  0.00  0.00     0.176 A 
ATOM     12  O   LIG d   1       3.286  -1.120  -7.255  0.00  0.00    -0.451 OA
ATOM     13  C   LIG d   1       2.779   0.914  -8.149  0.00  0.00     0.232 A 
ATOM     14  C   LIG d   1       3.113  -1.325  -8.579  0.00  0.00     0.142 A 
ATOM     15  C   LIG d   1       3.195  -2.480  -9.348  0.00  0.00    -0.015 A 
ATOM     16  C   LIG d   1       2.799  -0.110  -9.209  0.00  0.00     0.068 A 
ATOM     17  C   LIG d   1       2.968  -2.420 -10.713  0.00  0.00    -0.102 A 
ATOM     18  C   LIG d   1       2.657  -1.209 -11.327  0.00  0.00    -0.068 A 
ATOM     19  O   LIG d   1       3.049  -3.551 -11.459  0.00  0.00    -0.873 OA
ATOM     20  C   LIG d   1       2.573  -0.065 -10.584  0.00  0.00    -0.048 A 
ATOM     21  H   LIG d   1       2.482  -1.175 -12.392  0.00  0.00     0.061 H 
ATOM     22  H   LIG d   1       2.331   0.873 -11.062  0.00  0.00     0.063 H 
ATOM     23  O   LIG d   1       2.543   2.104  -8.267  0.00  0.00    -0.283 OA
ATOM     24  H   LIG d   1       2.935   1.757  -5.495  0.00  0.00     0.066 H 
BRANCH  15  25
ATOM     25  C   LIG d   1       3.532  -3.796  -8.696  0.00  0.00    -0.037 C 
ATOM     26  H   LIG d   1       3.118  -4.619  -9.299  0.00  0.00     0.028 H 
ATOM     27  H   LIG d   1       3.098  -3.827  -7.686  0.00  0.00     0.028 H 
ATOM     28  H   LIG d   1       4.624  -3.904  -8.630  0.00  0.00     0.028 H 
ENDBRANCH  15  25
ENDBRANCH   1  10
BRANCH   6  29
ATOM     29  O   LIG d   1       5.970   0.365  -5.151  0.00  0.00    -0.491 OA
BRANCH  29  30
ATOM     30  C   LIG d   1       6.549  -0.410  -6.203  0.00  0.00     0.079 C 
ATOM     31  H   LIG d   1       7.638  -0.469  -6.059  0.00  0.00     0.066 H 
ATOM     32  H   LIG d   1       6.333   0.066  -7.171  0.00  0.00     0.066 H 
ATOM     33  H   LIG d   1       6.122  -1.424  -6.189  0.00  0.00     0.066 H 
ENDBRANCH  29  30
ENDBRANCH   6  29
BRANCH   5  34
ATOM     34  O   LIG d   1       6.861  -1.194  -3.065  0.00  0.00    -0.491 OA
BRANCH  34  35
ATOM     35  C   LIG d   1       7.447  -2.448  -3.423  0.00  0.00     0.079 C 
ATOM     36  H   LIG d   1       8.256  -2.280  -4.149  0.00  0.00     0.066 H 
ATOM     37  H   LIG d   1       6.680  -3.095  -3.871  0.00  0.00     0.066 H 
ATOM     38  H   LIG d   1       7.856  -2.931  -2.523  0.00  0.00     0.066 H 
ENDBRANCH  34  35
ENDBRANCH   5  34
TORSDOF 6
ENDMDL
MODEL 2
REMARK VINA RESULT:      -5.9      1.613      6.508
REMARK  6 active torsions:
REMARK  status: ('A' for Active; 'I' for Inactive)
REMARK    1  A    between atoms: C_1  and  C_2 
REMARK    2  A    between atoms: C_10  and  C_11 
REMARK    3  A    between atoms: C_15  and  O_19 
REMARK    4  A    between atoms: C_16  and  O_17 
REMARK    5  A    between atoms: O_17  and  C_18 
REMARK    6  A    between atoms: O_19  and  C_20 
ROOT
ATOM      1  C   LIG d   1       2.936   1.009  -8.371  0.00  0.00     0.024 A 
ATOM      2  C   LIG d   1       3.521   2.233  -8.720  0.00  0.00    -0.051 A 
ATOM      3  C   LIG d   1       4.006   2.426  -9.994  0.00  0.00    -0.058 A 
ATOM      4  C   LIG d   1       3.918   1.414 -10.937  0.00  0.00    -0.016 A 
ATOM      5  C   LIG d   1       3.343   0.198 -10.609  0.00  0.00     0.162 A 
ATOM      6  C   LIG d   1       2.848  -0.014  -9.327  0.00  0.00     0.169 A 
ATOM      7  H   LIG d   1       3.594   3.025  -7.989  0.00  0.00     0.062 H 
ATOM      8  H   LIG d   1       4.460   3.370 -10.259  0.00  0.00     0.062 H 
ATOM      9  H   LIG d   1       4.300   1.576 -11.934  0.00  0.00     0.066 H 
ENDROOT
BRANCH   1  10
ATOM     10  C   LIG d   1       2.418   0.798  -7.014  0.00  0.00    -0.005 C 
ATOM     11  C   LIG d   1       3.188   0.181  -6.082  0.00  0.00     0.176 A 
ATOM     12  O   LIG d   1       4.489  -0.166  -6.221  0.00  0.00    -0.451 OA
ATOM     13  C   LIG d   1       2.762  -0.227  -4.736  0.00  0.00     0.232 A 
ATOM     14  C   LIG d   1       4.970  -0.767  -5.111  0.00  0.00     0.142 A 
ATOM     15  C   LIG d   1       6.229  -1.278  -4.816  0.00  0.00    -0.015 A 
ATOM     16  C   LIG d   1       3.959  -0.847  -4.141  0.00  0.00     0.068 A 
ATOM     17  C   LIG d   1       6.469  -1.854  -3.579  0.00  0.00    -0.102 A 
ATOM     18  C   LIG d   1       5.458  -1.929  -2.624  0.00  0.00    -0.068 A 
ATOM     19  O   LIG d   1       7.699  -2.351  -3.295  0.00  0.00    -0.873 OA
ATOM     20  C   LIG d   1       4.215  -1.431  -2.900  0.00  0.00    -0.048 A 
ATOM     21  H   LIG d   1       5.657  -2.380  -1.663  0.00  0.00     0.061 H 
ATOM     22  H   LIG d   1       3.433  -1.489  -2.158  0.00  0.00     0.063 H 
ATOM     23  O   LIG d   1       1.664  -0.086  -4.226  0.00  0.00    -0.283 OA
ATOM     24  H   LIG d   1       1.406   1.140  -6.753  0.00  0.00     0.066 H 
BRANCH  15  25
ATOM     25  C   LIG d   1       7.331  -1.204  -5.840  0.00  0.00    -0.037 C 
ATOM     26  H   LIG d   1       6.914  -0.880  -6.805  0.00  0.00     0.028 H 
ATOM     27  H   LIG d   1       7.792  -2.196  -5.954  0.00  0.00     0.028 H 
ATOM     28  H   LIG d   1       8.092  -0.483  -5.508  0.00  0.00     0.028 H 
ENDBRANCH  15  25
ENDBRANCH   1  10
BRANCH   6  29
ATOM     29  O   LIG d   1       2.282  -1.206  -9.002  0.00  0.00    -0.491 OA
BRANCH  29  30
ATOM     30  C   LIG d   1       3.168  -2.304  -8.773  0.00  0.00     0.079 C 
ATOM     31  H   LIG d   1       3.174  -2.553  -7.701  0.00  0.00     0.066 H 
ATOM     32  H   LIG d   1       4.184  -2.028  -9.090  0.00  0.00     0.066 H 
ATOM     33  H   LIG d   1       2.828  -3.176  -9.350  0.00  0.00     0.066 H 
ENDBRANCH  29  30
ENDBRANCH   6  29
BRANCH   5  34
ATOM     34  O   LIG d   1       3.261  -0.790 -11.541  0.00  0.00    -0.491 OA
BRANCH  34  35
ATOM     35  C   LIG d   1       4.198  -0.742 -12.619  0.00  0.00     0.079 C 
ATOM     36  H   LIG d   1       5.117  -0.239 -12.284  0.00  0.00     0.066 H 
ATOM     37  H   LIG d   1       3.761  -0.185 -13.460  0.00  0.00     0.066 H 
ATOM     38  H   LIG d   1       4.437  -1.766 -12.942  0.00  0.00     0.066 H 
ENDBRANCH  34  35
ENDBRANCH   5  34
TORSDOF 6
ENDMDL
MODEL 3
REMARK VINA RESULT:      -5.7      3.112      5.946
REMARK  6 active torsions:
REMARK  status: ('A' for Active; 'I' for Inactive)
REMARK    1  A    between atoms: C_1  and  C_2 
REMARK    2  A    between atoms: C_10  and  C_11 
REMARK    3  A    between atoms: C_15  and  O_19 
REMARK    4  A    between atoms: C_16  and  O_17 
REMARK    5  A    between atoms: O_17  and  C_18 
REMARK    6  A    between atoms: O_19  and  C_20 
ROOT
ATOM      1  C   LIG d   1       5.427  -1.437  -3.574  0.00  0.00     0.024 A 
ATOM      2  C   LIG d   1       4.524  -1.930  -2.623  0.00  0.00    -0.051 A 
ATOM      3  C   LIG d   1       3.224  -1.474  -2.607  0.00  0.00    -0.058 A 
ATOM      4  C   LIG d   1       2.803  -0.529  -3.528  0.00  0.00    -0.016 A 
ATOM      5  C   LIG d   1       3.682  -0.031  -4.475  0.00  0.00     0.162 A 
ATOM      6  C   LIG d   1       4.998  -0.479  -4.506  0.00  0.00     0.169 A 
ATOM      7  H   LIG d   1       4.846  -2.666  -1.902  0.00  0.00     0.062 H 
ATOM      8  H   LIG d   1       2.531  -1.853  -1.870  0.00  0.00     0.062 H 
ATOM      9  H   LIG d   1       1.781  -0.178  -3.508  0.00  0.00     0.066 H 
ENDROOT
BRANCH   1  10
ATOM     10  C   LIG d   1       6.812  -1.919  -3.596  0.00  0.00    -0.005 C 
ATOM     11  C   LIG d   1       7.106  -3.115  -4.168  0.00  0.00     0.176 A 
ATOM     12  O   LIG d   1       6.253  -3.897  -4.870  0.00  0.00    -0.451 OA
ATOM     13  C   LIG d   1       8.410  -3.793  -4.142  0.00  0.00     0.232 A 
ATOM     14  C   LIG d   1       6.851  -5.026  -5.309  0.00  0.00     0.142 A 
ATOM     15  C   LIG d   1       6.365  -6.093  -6.054  0.00  0.00    -0.015 A 
ATOM     16  C   LIG d   1       8.193  -5.041  -4.896  0.00  0.00     0.068 A 
ATOM     17  C   LIG d   1       7.201  -7.149  -6.378  0.00  0.00    -0.102 A 
ATOM     18  C   LIG d   1       8.530  -7.154  -5.963  0.00  0.00    -0.068 A 
ATOM     19  O   LIG d   1       6.721  -8.189  -7.106  0.00  0.00    -0.873 OA
ATOM     20  C   LIG d   1       9.023  -6.111  -5.229  0.00  0.00    -0.048 A 
ATOM     21  H   LIG d   1       9.173  -7.982  -6.221  0.00  0.00     0.061 H 
ATOM     22  H   LIG d   1      10.054  -6.116  -4.908  0.00  0.00     0.063 H 
ATOM     23  O   LIG d   1       9.439  -3.410  -3.614  0.00  0.00    -0.283 OA
ATOM     24  H   LIG d   1       7.613  -1.312  -3.149  0.00  0.00     0.066 H 
BRANCH  15  25
ATOM     25  C   LIG d   1       4.929  -6.102  -6.509  0.00  0.00    -0.037 C 
ATOM     26  H   LIG d   1       4.440  -7.025  -6.163  0.00  0.00     0.028 H 
ATOM     27  H   LIG d   1       4.892  -6.056  -7.608  0.00  0.00     0.028 H 
ATOM     28  H   LIG d   1       4.406  -5.231  -6.089  0.00  0.00     0.028 H 
ENDBRANCH  15  25
ENDBRANCH   1  10
BRANCH   6  29
ATOM     29  O   LIG d   1       5.863   0.007  -5.434  0.00  0.00    -0.491 OA
BRANCH  29  30
ATOM     30  C   LIG d   1       5.942  -0.695  -6.676  0.00  0.00     0.079 C 
ATOM     31  H   LIG d   1       5.630  -1.739  -6.529  0.00  0.00     0.066 H 
ATOM     32  H   LIG d   1       6.978  -0.670  -7.046  0.00  0.00     0.066 H 
ATOM     33  H   LIG d   1       5.280  -0.215  -7.412  0.00  0.00     0.066 H 
ENDBRANCH  29  30
ENDBRANCH   6  29
BRANCH   5  34
ATOM     34  O   LIG d   1       3.259   0.898  -5.375  0.00  0.00    -0.491 OA
BRANCH  34  35
ATOM     35  C   LIG d   1       2.592   0.412  -6.542  0.00  0.00     0.079 C 
ATOM     36  H   LIG d   1       2.933   0.977  -7.421  0.00  0.00     0.066 H 
ATOM     37  H   LIG d   1       1.506   0.539  -6.423  0.00  0.00     0.066 H 
ATOM     38  H   LIG d   1       2.823  -0.655  -6.679  0.00  0.00     0.066 H 
ENDBRANCH  34  35
ENDBRANCH   5  34
TORSDOF 6
ENDMDL
MODEL 4
REMARK VINA RESULT:      -5.5      1.944      6.229
REMARK  6 active torsions:
REMARK  status: ('A' for Active; 'I' for Inactive)
REMARK    1  A    between atoms: C_1  and  C_2 
REMARK    2  A    between atoms: C_10  and  C_11 
REMARK    3  A    between atoms: C_15  and  O_19 
REMARK    4  A    between atoms: C_16  and  O_17 
REMARK    5  A    between atoms: O_17  and  C_18 
REMARK    6  A    between atoms: O_19  and  C_20 
ROOT
ATOM      1  C   LIG d   1       2.459   0.038  -9.038  0.00  0.00     0.024 A 
ATOM      2  C   LIG d   1       1.403  -0.765  -9.488  0.00  0.00    -0.051 A 
ATOM      3  C   LIG d   1       1.385  -1.214 -10.789  0.00  0.00    -0.058 A 
ATOM      4  C   LIG d   1       2.409  -0.876 -11.660  0.00  0.00    -0.016 A 
ATOM      5  C   LIG d   1       3.460  -0.083 -11.232  0.00  0.00     0.162 A 
ATOM      6  C   LIG d   1       3.495   0.379  -9.922  0.00  0.00     0.169 A 
ATOM      7  H   LIG d   1       0.602  -1.031  -8.814  0.00  0.00     0.062 H 
ATOM      8  H   LIG d   1       0.567  -1.829 -11.134  0.00  0.00     0.062 H 
ATOM      9  H   LIG d   1       2.386  -1.234 -12.679  0.00  0.00     0.066 H 
ENDROOT
BRANCH   1  10
ATOM     10  C   LIG d   1       2.483   0.519  -7.652  0.00  0.00    -0.005 C 
ATOM     11  C   LIG d   1       3.285  -0.085  -6.738  0.00  0.00     0.176 A 
ATOM     12  O   LIG d   1       4.208  -1.043  -6.992  0.00  0.00    -0.451 OA
ATOM     13  C   LIG d   1       3.312   0.185  -5.294  0.00  0.00     0.232 A 
ATOM     14  C   LIG d   1       4.841  -1.441  -5.866  0.00  0.00     0.142 A 
ATOM     15  C   LIG d   1       5.842  -2.383  -5.660  0.00  0.00    -0.015 A 
ATOM     16  C   LIG d   1       4.341  -0.728  -4.765  0.00  0.00     0.068 A 
ATOM     17  C   LIG d   1       6.330  -2.606  -4.383  0.00  0.00    -0.102 A 
ATOM     18  C   LIG d   1       5.826  -1.893  -3.297  0.00  0.00    -0.068 A 
ATOM     19  O   LIG d   1       7.308  -3.526  -4.187  0.00  0.00    -0.873 OA
ATOM     20  C   LIG d   1       4.842  -0.964  -3.484  0.00  0.00    -0.048 A 
ATOM     21  H   LIG d   1       6.215  -2.075  -2.307  0.00  0.00     0.061 H 
ATOM     22  H   LIG d   1       4.453  -0.411  -2.642  0.00  0.00     0.063 H 
ATOM     23  O   LIG d   1       2.636   0.986  -4.672  0.00  0.00    -0.283 OA
ATOM     24  H   LIG d   1       1.852   1.368  -7.353  0.00  0.00     0.066 H 
BRANCH  15  25
ATOM     25  C   LIG d   1       6.396  -3.161  -6.825  0.00  0.00    -0.037 C 
ATOM     26  H   LIG d   1       7.446  -2.878  -6.989  0.00  0.00     0.028 H 
ATOM     27  H   LIG d   1       5.809  -2.936  -7.728  0.00  0.00     0.028 H 
ATOM     28  H   LIG d   1       6.336  -4.238  -6.608  0.00  0.00     0.028 H 
ENDBRANCH  15  25
ENDBRANCH   1  10
BRANCH   6  29
ATOM     29  O   LIG d   1       4.526   1.156  -9.498  0.00  0.00    -0.491 OA
BRANCH  29  30
ATOM     30  C   LIG d   1       4.294   2.565  -9.437  0.00  0.00     0.079 C 
ATOM     31  H   LIG d   1       3.679   2.797  -8.555  0.00  0.00     0.066 H 
ATOM     32  H   LIG d   1       3.767   2.890 -10.347  0.00  0.00     0.066 H 
ATOM     33  H   LIG d   1       5.256   3.092  -9.363  0.00  0.00     0.066 H 
ENDBRANCH  29  30
ENDBRANCH   6  29
BRANCH   5  34
ATOM     34  O   LIG d   1       4.461   0.244 -12.094  0.00  0.00    -0.491 OA
BRANCH  34  35
ATOM     35  C   LIG d   1       5.309  -0.819 -12.536  0.00  0.00     0.079 C 
ATOM     36  H   LIG d   1       5.856  -0.502 -13.436  0.00  0.00     0.066 H 
ATOM     37  H   LIG d   1       4.698  -1.702 -12.771  0.00  0.00     0.066 H 
ATOM     38  H   LIG d   1       6.026  -1.070 -11.740  0.00  0.00     0.066 H 
ENDBRANCH  34  35
ENDBRANCH   5  34
TORSDOF 6
ENDMDL
MODEL 5
REMARK VINA RESULT:      -5.5      4.382      6.610
REMARK  6 active torsions:
REMARK  status: ('A' for Active; 'I' for Inactive)
REMARK    1  A    between atoms: C_1  and  C_2 
REMARK    2  A    between atoms: C_10  and  C_11 
REMARK    3  A    between atoms: C_15  and  O_19 
REMARK    4  A    between atoms: C_16  and  O_17 
REMARK    5  A    between atoms: O_17  and  C_18 
REMARK    6  A    between atoms: O_19  and  C_20 
ROOT
ATOM      1  C   LIG d   1       8.764   2.059  -4.893  0.00  0.00     0.024 A 
ATOM      2  C   LIG d   1       8.369   2.055  -6.237  0.00  0.00    -0.051 A 
ATOM      3  C   LIG d   1       9.318   2.119  -7.233  0.00  0.00    -0.058 A 
ATOM      4  C   LIG d   1      10.665   2.186  -6.914  0.00  0.00    -0.016 A 
ATOM      5  C   LIG d   1      11.072   2.191  -5.590  0.00  0.00     0.162 A 
ATOM      6  C   LIG d   1      10.128   2.127  -4.571  0.00  0.00     0.169 A 
ATOM      7  H   LIG d   1       7.321   2.005  -6.492  0.00  0.00     0.062 H 
ATOM      8  H   LIG d   1       9.010   2.120  -8.268  0.00  0.00     0.062 H 
ATOM      9  H   LIG d   1      11.401   2.234  -7.702  0.00  0.00     0.066 H 
ENDROOT
BRANCH   1  10
ATOM     10  C   LIG d   1       7.757   1.992  -3.827  0.00  0.00    -0.005 C 
ATOM     11  C   LIG d   1       6.943   0.910  -3.730  0.00  0.00     0.176 A 
ATOM     12  O   LIG d   1       7.038  -0.231  -4.454  0.00  0.00    -0.451 OA
ATOM     13  C   LIG d   1       5.803   0.760  -2.815  0.00  0.00     0.232 A 
ATOM     14  C   LIG d   1       6.077  -1.119  -4.120  0.00  0.00     0.142 A 
ATOM     15  C   LIG d   1       5.799  -2.395  -4.597  0.00  0.00    -0.015 A 
ATOM     16  C   LIG d   1       5.264  -0.580  -3.110  0.00  0.00     0.068 A 
ATOM     17  C   LIG d   1       4.735  -3.112  -4.076  0.00  0.00    -0.102 A 
ATOM     18  C   LIG d   1       3.935  -2.567  -3.075  0.00  0.00    -0.068 A 
ATOM     19  O   LIG d   1       4.469  -4.357  -4.545  0.00  0.00    -0.873 OA
ATOM     20  C   LIG d   1       4.195  -1.313  -2.596  0.00  0.00    -0.048 A 
ATOM     21  H   LIG d   1       3.108  -3.135  -2.677  0.00  0.00     0.061 H 
ATOM     22  H   LIG d   1       3.574  -0.892  -1.819  0.00  0.00     0.063 H 
ATOM     23  O   LIG d   1       5.393   1.565  -1.997  0.00  0.00    -0.283 OA
ATOM     24  H   LIG d   1       7.662   2.818  -3.108  0.00  0.00     0.066 H 
BRANCH  15  25
ATOM     25  C   LIG d   1       6.657  -2.997  -5.680  0.00  0.00    -0.037 C 
ATOM     26  H   LIG d   1       6.067  -3.735  -6.245  0.00  0.00     0.028 H 
ATOM     27  H   LIG d   1       7.527  -3.492  -5.226  0.00  0.00     0.028 H 
ATOM     28  H   LIG d   1       6.999  -2.204  -6.360  0.00  0.00     0.028 H 
ENDBRANCH  15  25
ENDBRANCH   1  10
BRANCH   6  29
ATOM     29  O   LIG d   1      10.525   2.131  -3.272  0.00  0.00    -0.491 OA
BRANCH  29  30
ATOM     30  C   LIG d   1      10.709   3.405  -2.653  0.00  0.00     0.079 C 
ATOM     31  H   LIG d   1       9.742   3.774  -2.279  0.00  0.00     0.066 H 
ATOM     32  H   LIG d   1      11.112   4.116  -3.390  0.00  0.00     0.066 H 
ATOM     33  H   LIG d   1      11.414   3.308  -1.814  0.00  0.00     0.066 H 
ENDBRANCH  29  30
ENDBRANCH   6  29
BRANCH   5  34
ATOM     34  O   LIG d   1      12.396   2.257  -5.286  0.00  0.00    -0.491 OA
BRANCH  34  35
ATOM     35  C   LIG d   1      13.078   3.469  -5.618  0.00  0.00     0.079 C 
ATOM     36  H   LIG d   1      13.316   3.473  -6.691  0.00  0.00     0.066 H 
ATOM     37  H   LIG d   1      14.007   3.538  -5.035  0.00  0.00     0.066 H 
ATOM     38  H   LIG d   1      12.432   4.328  -5.382  0.00  0.00     0.066 H 
ENDBRANCH  34  35
ENDBRANCH   5  34
TORSDOF 6
ENDMDL
MODEL 6
REMARK VINA RESULT:      -5.5      4.711      7.135
REMARK  6 active torsions:
REMARK  status: ('A' for Active; 'I' for Inactive)
REMARK    1  A    between atoms: C_1  and  C_2 
REMARK    2  A    between atoms: C_10  and  C_11 
REMARK    3  A    between atoms: C_15  and  O_19 
REMARK    4  A    between atoms: C_16  and  O_17 
REMARK    5  A    between atoms: O_17  and  C_18 
REMARK    6  A    between atoms: O_19  and  C_20 
ROOT
ATOM      1  C   LIG d   1       6.966  -5.234  -5.437  0.00  0.00     0.024 A 
ATOM      2  C   LIG d   1       5.592  -5.217  -5.714  0.00  0.00    -0.051 A 
ATOM      3  C   LIG d   1       4.873  -6.390  -5.698  0.00  0.00    -0.058 A 
ATOM      4  C   LIG d   1       5.499  -7.592  -5.409  0.00  0.00    -0.016 A 
ATOM      5  C   LIG d   1       6.856  -7.627  -5.134  0.00  0.00     0.162 A 
ATOM      6  C   LIG d   1       7.599  -6.452  -5.145  0.00  0.00     0.169 A 
ATOM      7  H   LIG d   1       5.099  -4.284  -5.940  0.00  0.00     0.062 H 
ATOM      8  H   LIG d   1       3.815  -6.374  -5.916  0.00  0.00     0.062 H 
ATOM      9  H   LIG d   1       4.925  -8.507  -5.399  0.00  0.00     0.066 H 
ENDROOT
BRANCH   1  10
ATOM     10  C   LIG d   1       7.738  -3.986  -5.452  0.00  0.00    -0.005 C 
ATOM     11  C   LIG d   1       7.248  -2.877  -4.841  0.00  0.00     0.176 A 
ATOM     12  O   LIG d   1       6.137  -2.814  -4.070  0.00  0.00    -0.451 OA
ATOM     13  C   LIG d   1       7.830  -1.529  -4.892  0.00  0.00     0.232 A 
ATOM     14  C   LIG d   1       5.917  -1.563  -3.608  0.00  0.00     0.142 A 
ATOM     15  C   LIG d   1       4.914  -1.047  -2.796  0.00  0.00    -0.015 A 
ATOM     16  C   LIG d   1       6.922  -0.702  -4.076  0.00  0.00     0.068 A 
ATOM     17  C   LIG d   1       4.917   0.297  -2.461  0.00  0.00    -0.102 A 
ATOM     18  C   LIG d   1       5.919   1.142  -2.932  0.00  0.00    -0.068 A 
ATOM     19  O   LIG d   1       3.935   0.795  -1.668  0.00  0.00    -0.873 OA
ATOM     20  C   LIG d   1       6.913   0.649  -3.731  0.00  0.00    -0.048 A 
ATOM     21  H   LIG d   1       5.912   2.187  -2.664  0.00  0.00     0.061 H 
ATOM     22  H   LIG d   1       7.690   1.305  -4.094  0.00  0.00     0.063 H 
ATOM     23  O   LIG d   1       8.837  -1.173  -5.479  0.00  0.00    -0.283 OA
ATOM     24  H   LIG d   1       8.713  -3.949  -5.959  0.00  0.00     0.066 H 
BRANCH  15  25
ATOM     25  C   LIG d   1       3.823  -1.950  -2.281  0.00  0.00    -0.037 C 
ATOM     26  H   LIG d   1       4.062  -2.994  -2.533  0.00  0.00     0.028 H 
ATOM     27  H   LIG d   1       2.865  -1.669  -2.744  0.00  0.00     0.028 H 
ATOM     28  H   LIG d   1       3.746  -1.845  -1.189  0.00  0.00     0.028 H 
ENDBRANCH  15  25
ENDBRANCH   1  10
BRANCH   6  29
ATOM     29  O   LIG d   1       8.929  -6.483  -4.874  0.00  0.00    -0.491 OA
BRANCH  29  30
ATOM     30  C   LIG d   1       9.314  -6.393  -3.501  0.00  0.00     0.079 C 
ATOM     31  H   LIG d   1      10.403  -6.253  -3.433  0.00  0.00     0.066 H 
ATOM     32  H   LIG d   1       9.030  -7.319  -2.979  0.00  0.00     0.066 H 
ATOM     33  H   LIG d   1       8.804  -5.538  -3.033  0.00  0.00     0.066 H 
ENDBRANCH  29  30
ENDBRANCH   6  29
BRANCH   5  34
ATOM     34  O   LIG d   1       7.463  -8.812  -4.852  0.00  0.00    -0.491 OA
BRANCH  34  35
ATOM     35  C   LIG d   1       7.102  -9.448  -3.623  0.00  0.00     0.079 C 
ATOM     36  H   LIG d   1       6.102  -9.110  -3.316  0.00  0.00     0.066 H 
ATOM     37  H   LIG d   1       7.833  -9.185  -2.846  0.00  0.00     0.066 H 
ATOM     38  H   LIG d   1       7.093 -10.539  -3.765  0.00  0.00     0.066 H 
ENDBRANCH  34  35
ENDBRANCH   5  34
TORSDOF 6
ENDMDL
MODEL 7
REMARK VINA RESULT:      -5.4      4.802      7.293
REMARK  6 active torsions:
REMARK  status: ('A' for Active; 'I' for Inactive)
REMARK    1  A    between atoms: C_1  and  C_2 
REMARK    2  A    between atoms: C_10  and  C_11 
REMARK    3  A    between atoms: C_15  and  O_19 
REMARK    4  A    between atoms: C_16  and  O_17 
REMARK    5  A    between atoms: O_17  and  C_18 
REMARK    6  A    between atoms: O_19  and  C_20 
ROOT
ATOM      1  C   LIG d   1       9.566   2.421  -4.457  0.00  0.00     0.024 A 
ATOM      2  C   LIG d   1       9.861   2.749  -3.127  0.00  0.00    -0.051 A 
ATOM      3  C   LIG d   1      10.020   4.067  -2.762  0.00  0.00    -0.058 A 
ATOM      4  C   LIG d   1       9.889   5.075  -3.703  0.00  0.00    -0.016 A 
ATOM      5  C   LIG d   1       9.598   4.769  -5.022  0.00  0.00     0.162 A 
ATOM      6  C   LIG d   1       9.435   3.444  -5.409  0.00  0.00     0.169 A 
ATOM      7  H   LIG d   1       9.965   1.968  -2.389  0.00  0.00     0.062 H 
ATOM      8  H   LIG d   1      10.251   4.316  -1.736  0.00  0.00     0.062 H 
ATOM      9  H   LIG d   1      10.014   6.106  -3.406  0.00  0.00     0.066 H 
ENDROOT
BRANCH   1  10
ATOM     10  C   LIG d   1       9.396   1.018  -4.852  0.00  0.00    -0.005 C 
ATOM     11  C   LIG d   1       8.264   0.350  -4.513  0.00  0.00     0.176 A 
ATOM     12  O   LIG d   1       7.160   0.886  -3.938  0.00  0.00    -0.451 OA
ATOM     13  C   LIG d   1       8.010  -1.084  -4.709  0.00  0.00     0.232 A 
ATOM     14  C   LIG d   1       6.203  -0.044  -3.727  0.00  0.00     0.142 A 
ATOM     15  C   LIG d   1       4.933   0.056  -3.172  0.00  0.00    -0.015 A 
ATOM     16  C   LIG d   1       6.652  -1.296  -4.175  0.00  0.00     0.068 A 
ATOM     17  C   LIG d   1       4.133  -1.070  -3.068  0.00  0.00    -0.102 A 
ATOM     18  C   LIG d   1       4.589  -2.307  -3.515  0.00  0.00    -0.068 A 
ATOM     19  O   LIG d   1       2.893  -0.967  -2.525  0.00  0.00    -0.873 OA
ATOM     20  C   LIG d   1       5.836  -2.421  -4.064  0.00  0.00    -0.048 A 
ATOM     21  H   LIG d   1       3.956  -3.178  -3.430  0.00  0.00     0.061 H 
ATOM     22  H   LIG d   1       6.188  -3.381  -4.411  0.00  0.00     0.063 H 
ATOM     23  O   LIG d   1       8.755  -1.913  -5.202  0.00  0.00    -0.283 OA
ATOM     24  H   LIG d   1      10.186   0.508  -5.421  0.00  0.00     0.066 H 
BRANCH  15  25
ATOM     25  C   LIG d   1       4.427   1.389  -2.683  0.00  0.00    -0.037 C 
ATOM     26  H   LIG d   1       3.698   1.790  -3.402  0.00  0.00     0.028 H 
ATOM     27  H   LIG d   1       5.270   2.088  -2.585  0.00  0.00     0.028 H 
ATOM     28  H   LIG d   1       3.943   1.260  -1.704  0.00  0.00     0.028 H 
ENDBRANCH  15  25
ENDBRANCH   1  10
BRANCH   6  29
ATOM     29  O   LIG d   1       9.148   3.140  -6.702  0.00  0.00    -0.491 OA
BRANCH  29  30
ATOM     30  C   LIG d   1      10.253   3.018  -7.600  0.00  0.00     0.079 C 
ATOM     31  H   LIG d   1      10.858   3.936  -7.564  0.00  0.00     0.066 H 
ATOM     32  H   LIG d   1       9.879   2.866  -8.623  0.00  0.00     0.066 H 
ATOM     33  H   LIG d   1      10.873   2.158  -7.304  0.00  0.00     0.066 H 
ENDBRANCH  29  30
ENDBRANCH   6  29
BRANCH   5  34
ATOM     34  O   LIG d   1       9.472   5.765  -5.940  0.00  0.00    -0.491 OA
BRANCH  34  35
ATOM     35  C   LIG d   1       9.477   7.106  -5.445  0.00  0.00     0.079 C 
ATOM     36  H   LIG d   1       8.469   7.370  -5.092  0.00  0.00     0.066 H 
ATOM     37  H   LIG d   1       9.774   7.793  -6.251  0.00  0.00     0.066 H 
ATOM     38  H   LIG d   1      10.191   7.186  -4.612  0.00  0.00     0.066 H 
ENDBRANCH  34  35
ENDBRANCH   5  34
TORSDOF 6
ENDMDL
MODEL 8
REMARK VINA RESULT:      -5.4      2.143      6.755
REMARK  6 active torsions:
REMARK  status: ('A' for Active; 'I' for Inactive)
REMARK    1  A    between atoms: C_1  and  C_2 
REMARK    2  A    between atoms: C_10  and  C_11 
REMARK    3  A    between atoms: C_15  and  O_19 
REMARK    4  A    between atoms: C_16  and  O_17 
REMARK    5  A    between atoms: O_17  and  C_18 
REMARK    6  A    between atoms: O_19  and  C_20 
ROOT
ATOM      1  C   LIG d   1       4.549  -2.909  -8.435  0.00  0.00     0.024 A 
ATOM      2  C   LIG d   1       3.355  -3.528  -8.826  0.00  0.00    -0.051 A 
ATOM      3  C   LIG d   1       2.724  -3.138  -9.986  0.00  0.00    -0.058 A 
ATOM      4  C   LIG d   1       3.266  -2.134 -10.773  0.00  0.00    -0.016 A 
ATOM      5  C   LIG d   1       4.446  -1.511 -10.401  0.00  0.00     0.162 A 
ATOM      6  C   LIG d   1       5.095  -1.892  -9.233  0.00  0.00     0.169 A 
ATOM      7  H   LIG d   1       2.927  -4.311  -8.216  0.00  0.00     0.062 H 
ATOM      8  H   LIG d   1       1.801  -3.614 -10.282  0.00  0.00     0.062 H 
ATOM      9  H   LIG d   1       2.764  -1.835 -11.682  0.00  0.00     0.066 H 
ENDROOT
BRANCH   1  10
ATOM     10  C   LIG d   1       5.225  -3.321  -7.199  0.00  0.00    -0.005 C 
ATOM     11  C   LIG d   1       5.041  -2.612  -6.057  0.00  0.00     0.176 A 
ATOM     12  O   LIG d   1       4.165  -1.595  -5.878  0.00  0.00    -0.451 OA
ATOM     13  C   LIG d   1       5.754  -2.811  -4.787  0.00  0.00     0.232 A 
ATOM     14  C   LIG d   1       4.225  -1.094  -4.624  0.00  0.00     0.142 A 
ATOM     15  C   LIG d   1       3.521  -0.065  -4.012  0.00  0.00    -0.015 A 
ATOM     16  C   LIG d   1       5.190  -1.793  -3.882  0.00  0.00     0.068 A 
ATOM     17  C   LIG d   1       3.776   0.256  -2.688  0.00  0.00    -0.102 A 
ATOM     18  C   LIG d   1       4.736  -0.443  -1.961  0.00  0.00    -0.068 A 
ATOM     19  O   LIG d   1       3.084   1.262  -2.095  0.00  0.00    -0.873 OA
ATOM     20  C   LIG d   1       5.437  -1.458  -2.550  0.00  0.00    -0.048 A 
ATOM     21  H   LIG d   1       4.925  -0.184  -0.931  0.00  0.00     0.061 H 
ATOM     22  H   LIG d   1       6.180  -2.000  -1.985  0.00  0.00     0.063 H 
ATOM     23  O   LIG d   1       6.617  -3.634  -4.537  0.00  0.00    -0.283 OA
ATOM     24  H   LIG d   1       5.880  -4.204  -7.199  0.00  0.00     0.066 H 
BRANCH  15  25
ATOM     25  C   LIG d   1       2.479   0.701  -4.786  0.00  0.00    -0.037 C 
ATOM     26  H   LIG d   1       2.418   1.728  -4.399  0.00  0.00     0.028 H 
ATOM     27  H   LIG d   1       1.503   0.207  -4.676  0.00  0.00     0.028 H 
ATOM     28  H   LIG d   1       2.759   0.726  -5.850  0.00  0.00     0.028 H 
ENDBRANCH  15  25
ENDBRANCH   1  10
BRANCH   6  29
ATOM     29  O   LIG d   1       6.253  -1.284  -8.866  0.00  0.00    -0.491 OA
BRANCH  29  30
ATOM     30  C   LIG d   1       6.147   0.018  -8.287  0.00  0.00     0.079 C 
ATOM     31  H   LIG d   1       6.787   0.076  -7.394  0.00  0.00     0.066 H 
ATOM     32  H   LIG d   1       5.102   0.209  -8.002  0.00  0.00     0.066 H 
ATOM     33  H   LIG d   1       6.471   0.773  -9.019  0.00  0.00     0.066 H 
ENDBRANCH  29  30
ENDBRANCH   6  29
BRANCH   5  34
ATOM     34  O   LIG d   1       4.969  -0.526 -11.179  0.00  0.00    -0.491 OA
BRANCH  34  35
ATOM     35  C   LIG d   1       4.132   0.601 -11.450  0.00  0.00     0.079 C 
ATOM     36  H   LIG d   1       3.283   0.286 -12.073  0.00  0.00     0.066 H 
ATOM     37  H   LIG d   1       4.712   1.369 -11.981  0.00  0.00     0.066 H 
ATOM     38  H   LIG d   1       3.757   1.014 -10.501  0.00  0.00     0.066 H 
ENDBRANCH  34  35
ENDBRANCH   5  34
TORSDOF 6
ENDMDL
MODEL 9
REMARK VINA RESULT:      -5.3      4.836      7.454
REMARK  6 active torsions:
REMARK  status: ('A' for Active; 'I' for Inactive)
REMARK    1  A    between atoms: C_1  and  C_2 
REMARK    2  A    between atoms: C_10  and  C_11 
REMARK    3  A    between atoms: C_15  and  O_19 
REMARK    4  A    between atoms: C_16  and  O_17 
REMARK    5  A    between atoms: O_17  and  C_18 
REMARK    6  A    between atoms: O_19  and  C_20 
ROOT
ATOM      1  C   LIG d   1       9.445   3.552  -4.552  0.00  0.00     0.024 A 
ATOM      2  C   LIG d   1       8.909   4.730  -5.089  0.00  0.00    -0.051 A 
ATOM      3  C   LIG d   1       9.041   5.919  -4.408  0.00  0.00    -0.058 A 
ATOM      4  C   LIG d   1       9.703   5.959  -3.191  0.00  0.00    -0.016 A 
ATOM      5  C   LIG d   1      10.238   4.805  -2.645  0.00  0.00     0.162 A 
ATOM      6  C   LIG d   1      10.114   3.595  -3.319  0.00  0.00     0.169 A 
ATOM      7  H   LIG d   1       8.392   4.705  -6.036  0.00  0.00     0.062 H 
ATOM      8  H   LIG d   1       8.623   6.825  -4.823  0.00  0.00     0.062 H 
ATOM      9  H   LIG d   1       9.802   6.898  -2.665  0.00  0.00     0.066 H 
ENDROOT
BRANCH   1  10
ATOM     10  C   LIG d   1       9.307   2.282  -5.273  0.00  0.00    -0.005 C 
ATOM     11  C   LIG d   1       8.356   1.388  -4.898  0.00  0.00     0.176 A 
ATOM     12  O   LIG d   1       7.386   1.592  -3.976  0.00  0.00    -0.451 OA
ATOM     13  C   LIG d   1       8.189   0.026  -5.424  0.00  0.00     0.232 A 
ATOM     14  C   LIG d   1       6.596   0.506  -3.830  0.00  0.00     0.142 A 
ATOM     15  C   LIG d   1       5.498   0.272  -3.011  0.00  0.00    -0.015 A 
ATOM     16  C   LIG d   1       7.029  -0.514  -4.692  0.00  0.00     0.068 A 
ATOM     17  C   LIG d   1       4.850  -0.952  -3.054  0.00  0.00    -0.102 A 
ATOM     18  C   LIG d   1       5.289  -1.956  -3.913  0.00  0.00    -0.068 A 
ATOM     19  O   LIG d   1       3.778  -1.174  -2.252  0.00  0.00    -0.873 OA
ATOM     20  C   LIG d   1       6.367  -1.741  -4.724  0.00  0.00    -0.048 A 
ATOM     21  H   LIG d   1       4.776  -2.906  -3.938  0.00  0.00     0.061 H 
ATOM     22  H   LIG d   1       6.706  -2.521  -5.390  0.00  0.00     0.063 H 
ATOM     23  O   LIG d   1       8.860  -0.532  -6.275  0.00  0.00    -0.283 OA
ATOM     24  H   LIG d   1       9.974   2.053  -6.117  0.00  0.00     0.066 H 
BRANCH  15  25
ATOM     25  C   LIG d   1       5.012   1.350  -2.076  0.00  0.00    -0.037 C 
ATOM     26  H   LIG d   1       5.492   1.226  -1.094  0.00  0.00     0.028 H 
ATOM     27  H   LIG d   1       3.921   1.273  -1.964  0.00  0.00     0.028 H 
ATOM     28  H   LIG d   1       5.270   2.336  -2.488  0.00  0.00     0.028 H 
ENDBRANCH  15  25
ENDBRANCH   1  10
BRANCH   6  29
ATOM     29  O   LIG d   1      10.639   2.460  -2.787  0.00  0.00    -0.491 OA
BRANCH  29  30
ATOM     30  C   LIG d   1      11.894   2.019  -3.309  0.00  0.00     0.079 C 
ATOM     31  H   LIG d   1      11.898   0.922  -3.376  0.00  0.00     0.066 H 
ATOM     32  H   LIG d   1      12.704   2.349  -2.642  0.00  0.00     0.066 H 
ATOM     33  H   LIG d   1      12.045   2.449  -4.310  0.00  0.00     0.066 H 
ENDBRANCH  29  30
ENDBRANCH   6  29
BRANCH   5  34
ATOM     34  O   LIG d   1      10.885   4.853  -1.450  0.00  0.00    -0.491 OA
BRANCH  34  35
ATOM     35  C   LIG d   1      10.621   5.984  -0.615  0.00  0.00     0.079 C 
ATOM     36  H   LIG d   1      11.369   6.766  -0.810  0.00  0.00     0.066 H 
ATOM     37  H   LIG d   1      10.674   5.680   0.440  0.00  0.00     0.066 H 
ATOM     38  H   LIG d   1       9.617   6.374  -0.835  0.00  0.00     0.066 H 
ENDBRANCH  34  35
ENDBRANCH   5  34
TORSDOF 6
ENDMDL
