MODEL 1
REMARK VINA RESULT:      -5.9      0.000      0.000
REMARK  15 active torsions:
REMARK  status: ('A' for Active; 'I' for Inactive)
REMARK    1  A    between atoms: C_1  and  C_2 
REMARK    2  A    between atoms: C_2  and  C_37 
REMARK    3  A    between atoms: C_3  and  C_4 
REMARK    4  A    between atoms: C_4  and  C_5 
REMARK    5  A    between atoms: C_7  and  C_9 
REMARK    6  A    between atoms: C_7  and  C_10 
REMARK    7  A    between atoms: C_12  and  O_35 
REMARK    8  A    between atoms: C_14  and  O_21 
REMARK    9  A    between atoms: O_21  and  C_22 
REMARK   10  A    between atoms: C_22  and  C_24 
REMARK   11  A    between atoms: C_25  and  C_26 
REMARK   12  A    between atoms: C_27  and  C_28 
REMARK   13  A    between atoms: C_29  and  C_30 
REMARK   14  A    between atoms: C_31  and  C_32 
REMARK   15  A    between atoms: O_35  and  C_36 
ROOT
ATOM      1  C   LIG d   1       7.204 -10.279  -3.659  0.00  0.00     0.051 C 
ATOM      2  H   LIG d   1       7.956  -9.528  -3.901  0.00  0.00     0.038 H 
ATOM      3  C   LIG d   1       5.820  -9.772  -4.079  0.00  0.00     0.103 C 
ATOM      4  H   LIG d   1       5.620  -8.817  -3.595  0.00  0.00     0.064 H 
ATOM      5  C   LIG d   1       5.784  -9.592  -5.597  0.00  0.00     0.130 C 
ATOM      6  H   LIG d   1       6.576  -8.909  -5.900  0.00  0.00     0.076 H 
ATOM      7  C   LIG d   1       5.987 -10.944  -6.285  0.00  0.00    -0.011 C 
ATOM      8  C   LIG d   1       7.376 -11.488  -5.937  0.00  0.00    -0.018 C 
ATOM      9  C   LIG d   1       7.511 -11.574  -4.414  0.00  0.00     0.101 A 
ATOM     10  C   LIG d   1       8.577 -12.504  -3.838  0.00  0.00     0.078 A 
ATOM     11  O   LIG d   1       7.182 -12.811  -3.783  0.00  0.00    -0.368 OA
ATOM     12  H   LIG d   1       5.226 -11.645  -5.942  0.00  0.00     0.030 H 
ATOM     13  H   LIG d   1       5.906 -10.818  -7.364  0.00  0.00     0.030 H 
ATOM     14  H   LIG d   1       7.498 -12.482  -6.370  0.00  0.00     0.029 H 
ATOM     15  H   LIG d   1       8.140 -10.819  -6.331  0.00  0.00     0.029 H 
ATOM     16  H   LIG d   1       9.194 -13.065  -4.540  0.00  0.00     0.059 H 
ATOM     17  H   LIG d   1       9.069 -12.202  -2.913  0.00  0.00     0.059 H 
ENDROOT
BRANCH   1  18
ATOM     18  C   LIG d   1       7.215 -10.549  -2.153  0.00  0.00     0.102 A 
ATOM     19  C   LIG d   1       8.492 -10.218  -1.378  0.00  0.00     0.092 A 
ATOM     20  H   LIG d   1       9.333  -9.809  -1.938  0.00  0.00     0.063 H 
ATOM     21  O   LIG d   1       7.310  -9.422  -1.275  0.00  0.00    -0.364 OA
BRANCH  19  22
ATOM     22  C   LIG d   1       8.856 -11.111  -0.191  0.00  0.00    -0.005 C 
ATOM     23  H   LIG d   1       9.214 -12.074  -0.556  0.00  0.00     0.033 H 
ATOM     24  H   LIG d   1       7.975 -11.264   0.432  0.00  0.00     0.033 H 
BRANCH  22  25
ATOM     25  C   LIG d   1       9.939 -10.449   0.622  0.00  0.00    -0.083 C 
ATOM     26  C   LIG d   1      10.837 -11.179   1.235  0.00  0.00    -0.080 C 
ATOM     27  H   LIG d   1       9.974  -9.373   0.700  0.00  0.00     0.057 H 
BRANCH  26  28
ATOM     28  C   LIG d   1      10.860 -12.673   1.032  0.00  0.00    -0.044 C 
ATOM     29  H   LIG d   1      10.005 -12.970   0.425  0.00  0.00     0.027 H 
ATOM     30  H   LIG d   1      11.781 -12.956   0.524  0.00  0.00     0.027 H 
ATOM     31  H   LIG d   1      10.810 -13.171   1.999  0.00  0.00     0.027 H 
ENDBRANCH  26  28
BRANCH  26  32
ATOM     32  C   LIG d   1      11.848 -10.527   2.143  0.00  0.00    -0.044 C 
ATOM     33  H   LIG d   1      12.759 -10.318   1.582  0.00  0.00     0.027 H 
ATOM     34  H   LIG d   1      11.438  -9.595   2.532  0.00  0.00     0.027 H 
ATOM     35  H   LIG d   1      12.077 -11.197   2.972  0.00  0.00     0.027 H 
ENDBRANCH  26  32
ENDBRANCH  22  25
ENDBRANCH  19  22
BRANCH  18  36
ATOM     36  C   LIG d   1       6.388 -11.748  -1.686  0.00  0.00    -0.033 C 
ATOM     37  H   LIG d   1       6.003 -12.284  -2.554  0.00  0.00     0.026 H 
ATOM     38  H   LIG d   1       7.015 -12.415  -1.096  0.00  0.00     0.026 H 
ATOM     39  H   LIG d   1       5.554 -11.399  -1.076  0.00  0.00     0.026 H 
ENDBRANCH  18  36
ENDBRANCH   1  18
BRANCH   3  40
ATOM     40  O   LIG d   1       4.826 -10.722  -3.687  0.00  0.00    -0.376 OA
BRANCH  40  41
ATOM     41  C   LIG d   1       3.619 -10.132  -3.199  0.00  0.00     0.037 C 
ATOM     42  H   LIG d   1       2.780 -10.792  -3.415  0.00  0.00     0.052 H 
ATOM     43  H   LIG d   1       3.697  -9.983  -2.122  0.00  0.00     0.052 H 
ATOM     44  H   LIG d   1       3.461  -9.170  -3.688  0.00  0.00     0.052 H 
ENDBRANCH  40  41
ENDBRANCH   3  40
BRANCH   5  45
ATOM     45  O   LIG d   1       4.517  -9.053  -5.981  0.00  0.00    -0.456 OA
BRANCH  45  46
ATOM     46  C   LIG d   1       4.528  -7.881  -6.651  0.00  0.00     0.332 C 
ATOM     47  O   LIG d   1       4.426  -7.872  -7.863  0.00  0.00    -0.246 OA
BRANCH  46  48
ATOM     48  C   LIG d   1       4.663  -6.623  -5.919  0.00  0.00     0.022 C 
ATOM     49  C   LIG d   1       5.763  -5.848  -6.100  0.00  0.00    -0.055 C 
ATOM     50  H   LIG d   1       6.539  -6.162  -6.783  0.00  0.00     0.062 H 
ATOM     51  H   LIG d   1       3.888  -6.310  -5.236  0.00  0.00     0.069 H 
BRANCH  49  52
ATOM     52  C   LIG d   1       5.894  -4.634  -5.393  0.00  0.00    -0.061 C 
ATOM     53  C   LIG d   1       4.798  -4.044  -4.845  0.00  0.00    -0.062 C 
ATOM     54  H   LIG d   1       3.827  -4.505  -4.951  0.00  0.00     0.062 H 
ATOM     55  H   LIG d   1       6.866  -4.173  -5.287  0.00  0.00     0.062 H 
BRANCH  53  56
ATOM     56  C   LIG d   1       4.930  -2.831  -4.139  0.00  0.00    -0.062 C 
ATOM     57  C   LIG d   1       4.190  -2.613  -3.017  0.00  0.00    -0.062 C 
ATOM     58  H   LIG d   1       3.502  -3.370  -2.669  0.00  0.00     0.062 H 
ATOM     59  H   LIG d   1       5.616  -2.075  -4.488  0.00  0.00     0.062 H 
BRANCH  57  60
ATOM     60  C   LIG d   1       4.321  -1.401  -2.311  0.00  0.00    -0.060 C 
ATOM     61  C   LIG d   1       4.077  -0.219  -2.939  0.00  0.00    -0.039 C 
ATOM     62  H   LIG d   1       3.783  -0.210  -3.979  0.00  0.00     0.064 H 
ATOM     63  H   LIG d   1       4.616  -1.410  -1.273  0.00  0.00     0.062 H 
BRANCH  61  64
ATOM     64  C   LIG d   1       4.209   0.997  -2.231  0.00  0.00     0.065 C 
ATOM     65  O   LIG d   1       5.316   1.382  -1.876  0.00  0.00    -0.545 OA
ATOM     66  O   LIG d   1       3.215   1.666  -1.972  0.00  0.00    -0.545 OA
ENDBRANCH  61  64
ENDBRANCH  57  60
ENDBRANCH  53  56
ENDBRANCH  49  52
ENDBRANCH  46  48
ENDBRANCH  45  46
ENDBRANCH   5  45
TORSDOF 15
ENDMDL
MODEL 2
REMARK VINA RESULT:      -5.8      7.905     11.719
REMARK  15 active torsions:
REMARK  status: ('A' for Active; 'I' for Inactive)
REMARK    1  A    between atoms: C_1  and  C_2 
REMARK    2  A    between atoms: C_2  and  C_37 
REMARK    3  A    between atoms: C_3  and  C_4 
REMARK    4  A    between atoms: C_4  and  C_5 
REMARK    5  A    between atoms: C_7  and  C_9 
REMARK    6  A    between atoms: C_7  and  C_10 
REMARK    7  A    between atoms: C_12  and  O_35 
REMARK    8  A    between atoms: C_14  and  O_21 
REMARK    9  A    between atoms: O_21  and  C_22 
REMARK   10  A    between atoms: C_22  and  C_24 
REMARK   11  A    between atoms: C_25  and  C_26 
REMARK   12  A    between atoms: C_27  and  C_28 
REMARK   13  A    between atoms: C_29  and  C_30 
REMARK   14  A    between atoms: C_31  and  C_32 
REMARK   15  A    between atoms: O_35  and  C_36 
ROOT
ATOM      1  C   LIG d   1       4.907  -0.197  -4.662  0.00  0.00     0.051 C 
ATOM      2  H   LIG d   1       4.982   0.768  -4.162  0.00  0.00     0.038 H 
ATOM      3  C   LIG d   1       6.209  -0.487  -5.416  0.00  0.00     0.103 C 
ATOM      4  H   LIG d   1       6.414   0.325  -6.114  0.00  0.00     0.064 H 
ATOM      5  C   LIG d   1       7.360  -0.603  -4.417  0.00  0.00     0.130 C 
ATOM      6  H   LIG d   1       7.425   0.313  -3.830  0.00  0.00     0.076 H 
ATOM      7  C   LIG d   1       7.117  -1.790  -3.481  0.00  0.00    -0.011 C 
ATOM      8  C   LIG d   1       5.845  -1.542  -2.665  0.00  0.00    -0.018 C 
ATOM      9  C   LIG d   1       4.677  -1.297  -3.624  0.00  0.00     0.101 A 
ATOM     10  C   LIG d   1       3.259  -1.498  -3.094  0.00  0.00     0.078 A 
ATOM     11  O   LIG d   1       3.875  -2.416  -3.999  0.00  0.00    -0.368 OA
ATOM     12  H   LIG d   1       7.000  -2.699  -4.071  0.00  0.00     0.030 H 
ATOM     13  H   LIG d   1       7.966  -1.900  -2.807  0.00  0.00     0.030 H 
ATOM     14  H   LIG d   1       5.633  -2.415  -2.046  0.00  0.00     0.029 H 
ATOM     15  H   LIG d   1       5.983  -0.667  -2.030  0.00  0.00     0.029 H 
ATOM     16  H   LIG d   1       3.143  -1.807  -2.056  0.00  0.00     0.059 H 
ATOM     17  H   LIG d   1       2.474  -0.848  -3.484  0.00  0.00     0.059 H 
ENDROOT
BRANCH   1  18
ATOM     18  C   LIG d   1       3.738  -0.173  -5.650  0.00  0.00     0.102 A 
ATOM     19  C   LIG d   1       4.059   0.054  -7.129  0.00  0.00     0.092 A 
ATOM     20  H   LIG d   1       5.104   0.189  -7.406  0.00  0.00     0.063 H 
ATOM     21  O   LIG d   1       3.664  -1.222  -6.621  0.00  0.00    -0.364 OA
BRANCH  19  22
ATOM     22  C   LIG d   1       3.044   0.833  -7.967  0.00  0.00    -0.005 C 
ATOM     23  H   LIG d   1       3.536   1.683  -8.437  0.00  0.00     0.033 H 
ATOM     24  H   LIG d   1       2.239   1.188  -7.324  0.00  0.00     0.033 H 
BRANCH  22  25
ATOM     25  C   LIG d   1       2.475  -0.069  -9.032  0.00  0.00    -0.083 C 
ATOM     26  C   LIG d   1       2.788   0.123 -10.290  0.00  0.00    -0.080 C 
ATOM     27  H   LIG d   1       1.809  -0.874  -8.760  0.00  0.00     0.057 H 
BRANCH  26  28
ATOM     28  C   LIG d   1       3.808   1.169 -10.660  0.00  0.00    -0.044 C 
ATOM     29  H   LIG d   1       4.594   1.195  -9.904  0.00  0.00     0.027 H 
ATOM     30  H   LIG d   1       4.245   0.925 -11.628  0.00  0.00     0.027 H 
ATOM     31  H   LIG d   1       3.326   2.144 -10.715  0.00  0.00     0.027 H 
ENDBRANCH  26  28
BRANCH  26  32
ATOM     32  C   LIG d   1       2.130  -0.700 -11.366  0.00  0.00    -0.044 C 
ATOM     33  H   LIG d   1       2.836  -0.868 -12.178  0.00  0.00     0.027 H 
ATOM     34  H   LIG d   1       1.818  -1.658 -10.950  0.00  0.00     0.027 H 
ATOM     35  H   LIG d   1       1.257  -0.169 -11.747  0.00  0.00     0.027 H 
ENDBRANCH  26  32
ENDBRANCH  22  25
ENDBRANCH  19  22
BRANCH  18  36
ATOM     36  C   LIG d   1       2.424   0.393  -5.111  0.00  0.00    -0.033 C 
ATOM     37  H   LIG d   1       1.987   1.065  -5.850  0.00  0.00     0.026 H 
ATOM     38  H   LIG d   1       1.732  -0.424  -4.909  0.00  0.00     0.026 H 
ATOM     39  H   LIG d   1       2.616   0.943  -4.189  0.00  0.00     0.026 H 
ENDBRANCH  18  36
ENDBRANCH   1  18
BRANCH   3  40
ATOM     40  O   LIG d   1       6.078  -1.713  -6.139  0.00  0.00    -0.376 OA
BRANCH  40  41
ATOM     41  C   LIG d   1       6.894  -1.788  -7.310  0.00  0.00     0.037 C 
ATOM     42  H   LIG d   1       6.263  -1.731  -8.196  0.00  0.00     0.052 H 
ATOM     43  H   LIG d   1       7.600  -0.957  -7.314  0.00  0.00     0.052 H 
ATOM     44  H   LIG d   1       7.441  -2.730  -7.313  0.00  0.00     0.052 H 
ENDBRANCH  40  41
ENDBRANCH   3  40
BRANCH   5  45
ATOM     45  O   LIG d   1       8.586  -0.803  -5.125  0.00  0.00    -0.456 OA
BRANCH  45  46
ATOM     46  C   LIG d   1       9.280   0.303  -5.471  0.00  0.00     0.332 C 
ATOM     47  O   LIG d   1       9.698   0.429  -6.606  0.00  0.00    -0.246 OA
BRANCH  46  48
ATOM     48  C   LIG d   1       9.527   1.349  -4.481  0.00  0.00     0.022 C 
ATOM     49  C   LIG d   1       9.237   2.642  -4.773  0.00  0.00    -0.055 C 
ATOM     50  H   LIG d   1       8.823   2.898  -5.738  0.00  0.00     0.062 H 
ATOM     51  H   LIG d   1       9.941   1.093  -3.517  0.00  0.00     0.069 H 
BRANCH  49  52
ATOM     52  C   LIG d   1       9.476   3.652  -3.818  0.00  0.00    -0.061 C 
ATOM     53  C   LIG d   1      10.460   3.494  -2.892  0.00  0.00    -0.062 C 
ATOM     54  H   LIG d   1      11.058   2.595  -2.888  0.00  0.00     0.062 H 
ATOM     55  H   LIG d   1       8.878   4.552  -3.823  0.00  0.00     0.062 H 
BRANCH  53  56
ATOM     56  C   LIG d   1      10.699   4.504  -1.938  0.00  0.00    -0.062 C 
ATOM     57  C   LIG d   1      10.059   5.701  -2.042  0.00  0.00    -0.062 C 
ATOM     58  H   LIG d   1       9.368   5.876  -2.854  0.00  0.00     0.062 H 
ATOM     59  H   LIG d   1      11.389   4.329  -1.127  0.00  0.00     0.062 H 
BRANCH  57  60
ATOM     60  C   LIG d   1      10.297   6.712  -1.089  0.00  0.00    -0.060 C 
ATOM     61  C   LIG d   1      10.909   6.406   0.087  0.00  0.00    -0.039 C 
ATOM     62  H   LIG d   1      11.212   5.389   0.291  0.00  0.00     0.064 H 
ATOM     63  H   LIG d   1       9.995   7.728  -1.292  0.00  0.00     0.062 H 
BRANCH  61  64
ATOM     64  C   LIG d   1      11.149   7.419   1.042  0.00  0.00     0.065 C 
ATOM     65  O   LIG d   1      11.109   8.598   0.709  0.00  0.00    -0.545 OA
ATOM     66  O   LIG d   1      11.396   7.119   2.205  0.00  0.00    -0.545 OA
ENDBRANCH  61  64
ENDBRANCH  57  60
ENDBRANCH  53  56
ENDBRANCH  49  52
ENDBRANCH  46  48
ENDBRANCH  45  46
ENDBRANCH   5  45
TORSDOF 15
ENDMDL
MODEL 3
REMARK VINA RESULT:      -5.8      1.884      2.744
REMARK  15 active torsions:
REMARK  status: ('A' for Active; 'I' for Inactive)
REMARK    1  A    between atoms: C_1  and  C_2 
REMARK    2  A    between atoms: C_2  and  C_37 
REMARK    3  A    between atoms: C_3  and  C_4 
REMARK    4  A    between atoms: C_4  and  C_5 
REMARK    5  A    between atoms: C_7  and  C_9 
REMARK    6  A    between atoms: C_7  and  C_10 
REMARK    7  A    between atoms: C_12  and  O_35 
REMARK    8  A    between atoms: C_14  and  O_21 
REMARK    9  A    between atoms: O_21  and  C_22 
REMARK   10  A    between atoms: C_22  and  C_24 
REMARK   11  A    between atoms: C_25  and  C_26 
REMARK   12  A    between atoms: C_27  and  C_28 
REMARK   13  A    between atoms: C_29  and  C_30 
REMARK   14  A    between atoms: C_31  and  C_32 
REMARK   15  A    between atoms: O_35  and  C_36 
ROOT
ATOM      1  C   LIG d   1       8.451  -8.913  -2.635  0.00  0.00     0.051 C 
ATOM      2  H   LIG d   1       7.741  -8.418  -1.973  0.00  0.00     0.038 H 
ATOM      3  C   LIG d   1       7.708  -9.501  -3.838  0.00  0.00     0.103 C 
ATOM      4  H   LIG d   1       6.928 -10.176  -3.489  0.00  0.00     0.064 H 
ATOM      5  C   LIG d   1       7.076  -8.368  -4.648  0.00  0.00     0.130 C 
ATOM      6  H   LIG d   1       6.415  -7.787  -4.005  0.00  0.00     0.076 H 
ATOM      7  C   LIG d   1       8.172  -7.457  -5.206  0.00  0.00    -0.011 C 
ATOM      8  C   LIG d   1       8.930  -6.803  -4.047  0.00  0.00    -0.018 C 
ATOM      9  C   LIG d   1       9.483  -7.899  -3.132  0.00  0.00     0.101 A 
ATOM     10  C   LIG d   1      10.644  -7.543  -2.205  0.00  0.00     0.078 A 
ATOM     11  O   LIG d   1      10.813  -8.357  -3.368  0.00  0.00    -0.368 OA
ATOM     12  H   LIG d   1       8.864  -8.047  -5.807  0.00  0.00     0.030 H 
ATOM     13  H   LIG d   1       7.720  -6.683  -5.826  0.00  0.00     0.030 H 
ATOM     14  H   LIG d   1       9.754  -6.206  -4.440  0.00  0.00     0.029 H 
ATOM     15  H   LIG d   1       8.252  -6.165  -3.480  0.00  0.00     0.029 H 
ATOM     16  H   LIG d   1      11.026  -6.523  -2.239  0.00  0.00     0.059 H 
ATOM     17  H   LIG d   1      10.684  -8.031  -1.231  0.00  0.00     0.059 H 
ENDROOT
BRANCH   1  18
ATOM     18  C   LIG d   1       9.162 -10.036  -1.874  0.00  0.00     0.102 A 
ATOM     19  C   LIG d   1       9.135  -9.990  -0.345  0.00  0.00     0.092 A 
ATOM     20  H   LIG d   1       8.613  -9.159   0.128  0.00  0.00     0.063 H 
ATOM     21  O   LIG d   1       8.356 -10.926  -1.094  0.00  0.00    -0.364 OA
BRANCH  19  22
ATOM     22  C   LIG d   1      10.358 -10.520   0.405  0.00  0.00    -0.005 C 
ATOM     23  H   LIG d   1      11.113 -10.843  -0.312  0.00  0.00     0.033 H 
ATOM     24  H   LIG d   1      10.064 -11.363   1.029  0.00  0.00     0.033 H 
BRANCH  22  25
ATOM     25  C   LIG d   1      10.927  -9.426   1.273  0.00  0.00    -0.083 C 
ATOM     26  C   LIG d   1      11.090  -9.628   2.557  0.00  0.00    -0.080 C 
ATOM     27  H   LIG d   1      11.199  -8.477   0.837  0.00  0.00     0.057 H 
BRANCH  26  28
ATOM     28  C   LIG d   1      10.822 -10.989   3.146  0.00  0.00    -0.044 C 
ATOM     29  H   LIG d   1      10.669 -10.896   4.222  0.00  0.00     0.027 H 
ATOM     30  H   LIG d   1       9.929 -11.414   2.688  0.00  0.00     0.027 H 
ATOM     31  H   LIG d   1      11.674 -11.641   2.956  0.00  0.00     0.027 H 
ENDBRANCH  26  28
BRANCH  26  32
ATOM     32  C   LIG d   1      11.547  -8.500   3.446  0.00  0.00    -0.044 C 
ATOM     33  H   LIG d   1      12.015  -8.908   4.340  0.00  0.00     0.027 H 
ATOM     34  H   LIG d   1      12.266  -7.882   2.907  0.00  0.00     0.027 H 
ATOM     35  H   LIG d   1      10.687  -7.891   3.731  0.00  0.00     0.027 H 
ENDBRANCH  26  32
ENDBRANCH  22  25
ENDBRANCH  19  22
BRANCH  18  36
ATOM     36  C   LIG d   1      10.409 -10.609  -2.549  0.00  0.00    -0.033 C 
ATOM     37  H   LIG d   1      11.229  -9.896  -2.463  0.00  0.00     0.026 H 
ATOM     38  H   LIG d   1      10.689 -11.544  -2.062  0.00  0.00     0.026 H 
ATOM     39  H   LIG d   1      10.199 -10.797  -3.602  0.00  0.00     0.026 H 
ENDBRANCH  18  36
ENDBRANCH   1  18
BRANCH   3  40
ATOM     40  O   LIG d   1       8.628 -10.221  -4.661  0.00  0.00    -0.376 OA
BRANCH  40  41
ATOM     41  C   LIG d   1       8.123 -11.467  -5.145  0.00  0.00     0.037 C 
ATOM     42  H   LIG d   1       8.034 -11.427  -6.230  0.00  0.00     0.052 H 
ATOM     43  H   LIG d   1       8.807 -12.269  -4.866  0.00  0.00     0.052 H 
ATOM     44  H   LIG d   1       7.143 -11.657  -4.706  0.00  0.00     0.052 H 
ENDBRANCH  40  41
ENDBRANCH   3  40
BRANCH   5  45
ATOM     45  O   LIG d   1       6.324  -8.920  -5.730  0.00  0.00    -0.456 OA
BRANCH  45  46
ATOM     46  C   LIG d   1       5.103  -8.390  -5.961  0.00  0.00     0.332 C 
ATOM     47  O   LIG d   1       4.306  -8.982  -6.662  0.00  0.00    -0.246 OA
BRANCH  46  48
ATOM     48  C   LIG d   1       4.742  -7.105  -5.366  0.00  0.00     0.022 C 
ATOM     49  C   LIG d   1       4.894  -5.961  -6.079  0.00  0.00    -0.055 C 
ATOM     50  H   LIG d   1       5.283  -6.000  -7.087  0.00  0.00     0.062 H 
ATOM     51  H   LIG d   1       4.354  -7.067  -4.359  0.00  0.00     0.069 H 
BRANCH  49  52
ATOM     52  C   LIG d   1       4.546  -4.720  -5.505  0.00  0.00    -0.061 C 
ATOM     53  C   LIG d   1       5.519  -3.874  -5.070  0.00  0.00    -0.062 C 
ATOM     54  H   LIG d   1       6.558  -4.153  -5.165  0.00  0.00     0.062 H 
ATOM     55  H   LIG d   1       3.506  -4.441  -5.412  0.00  0.00     0.062 H 
BRANCH  53  56
ATOM     56  C   LIG d   1       5.170  -2.635  -4.498  0.00  0.00    -0.062 C 
ATOM     57  C   LIG d   1       4.373  -2.595  -3.394  0.00  0.00    -0.062 C 
ATOM     58  H   LIG d   1       4.010  -3.515  -2.958  0.00  0.00     0.062 H 
ATOM     59  H   LIG d   1       5.533  -1.716  -4.934  0.00  0.00     0.062 H 
BRANCH  57  60
ATOM     60  C   LIG d   1       4.024  -1.357  -2.822  0.00  0.00    -0.060 C 
ATOM     61  C   LIG d   1       4.851  -0.285  -2.962  0.00  0.00    -0.039 C 
ATOM     62  H   LIG d   1       5.776  -0.385  -3.512  0.00  0.00     0.064 H 
ATOM     63  H   LIG d   1       3.100  -1.257  -2.272  0.00  0.00     0.062 H 
BRANCH  61  64
ATOM     64  C   LIG d   1       4.500   0.957  -2.388  0.00  0.00     0.065 C 
ATOM     65  O   LIG d   1       4.788   1.197  -1.222  0.00  0.00    -0.545 OA
ATOM     66  O   LIG d   1       3.907   1.796  -3.058  0.00  0.00    -0.545 OA
ENDBRANCH  61  64
ENDBRANCH  57  60
ENDBRANCH  53  56
ENDBRANCH  49  52
ENDBRANCH  46  48
ENDBRANCH  45  46
ENDBRANCH   5  45
TORSDOF 15
ENDMDL
MODEL 4
REMARK VINA RESULT:      -5.7      7.016     12.048
REMARK  15 active torsions:
REMARK  status: ('A' for Active; 'I' for Inactive)
REMARK    1  A    between atoms: C_1  and  C_2 
REMARK    2  A    between atoms: C_2  and  C_37 
REMARK    3  A    between atoms: C_3  and  C_4 
REMARK    4  A    between atoms: C_4  and  C_5 
REMARK    5  A    between atoms: C_7  and  C_9 
REMARK    6  A    between atoms: C_7  and  C_10 
REMARK    7  A    between atoms: C_12  and  O_35 
REMARK    8  A    between atoms: C_14  and  O_21 
REMARK    9  A    between atoms: O_21  and  C_22 
REMARK   10  A    between atoms: C_22  and  C_24 
REMARK   11  A    between atoms: C_25  and  C_26 
REMARK   12  A    between atoms: C_27  and  C_28 
REMARK   13  A    between atoms: C_29  and  C_30 
REMARK   14  A    between atoms: C_31  and  C_32 
REMARK   15  A    between atoms: O_35  and  C_36 
ROOT
ATOM      1  C   LIG d   1       7.147  -0.521  -4.932  0.00  0.00     0.051 C 
ATOM      2  H   LIG d   1       8.017  -1.177  -4.893  0.00  0.00     0.038 H 
ATOM      3  C   LIG d   1       7.293   0.588  -3.885  0.00  0.00     0.103 C 
ATOM      4  H   LIG d   1       7.432   0.144  -2.901  0.00  0.00     0.064 H 
ATOM      5  C   LIG d   1       8.506   1.455  -4.229  0.00  0.00     0.130 C 
ATOM      6  H   LIG d   1       9.395   0.828  -4.284  0.00  0.00     0.076 H 
ATOM      7  C   LIG d   1       8.285   2.144  -5.578  0.00  0.00    -0.011 C 
ATOM      8  C   LIG d   1       8.172   1.085  -6.678  0.00  0.00    -0.018 C 
ATOM      9  C   LIG d   1       7.044   0.113  -6.321  0.00  0.00     0.101 A 
ATOM     10  C   LIG d   1       6.428  -0.718  -7.444  0.00  0.00     0.078 A 
ATOM     11  O   LIG d   1       5.742   0.381  -6.839  0.00  0.00    -0.368 OA
ATOM     12  H   LIG d   1       7.367   2.730  -5.540  0.00  0.00     0.030 H 
ATOM     13  H   LIG d   1       9.128   2.801  -5.791  0.00  0.00     0.030 H 
ATOM     14  H   LIG d   1       7.948   1.569  -7.629  0.00  0.00     0.029 H 
ATOM     15  H   LIG d   1       9.110   0.537  -6.757  0.00  0.00     0.029 H 
ATOM     16  H   LIG d   1       6.821  -0.580  -8.451  0.00  0.00     0.059 H 
ATOM     17  H   LIG d   1       6.088  -1.725  -7.203  0.00  0.00     0.059 H 
ENDROOT
BRANCH   1  18
ATOM     18  C   LIG d   1       5.881  -1.333  -4.643  0.00  0.00     0.102 A 
ATOM     19  C   LIG d   1       5.985  -2.858  -4.693  0.00  0.00     0.092 A 
ATOM     20  H   LIG d   1       6.956  -3.293  -4.934  0.00  0.00     0.063 H 
ATOM     21  O   LIG d   1       5.863  -2.142  -3.463  0.00  0.00    -0.364 OA
BRANCH  19  22
ATOM     22  C   LIG d   1       4.767  -3.639  -5.187  0.00  0.00    -0.005 C 
ATOM     23  H   LIG d   1       4.495  -3.296  -6.185  0.00  0.00     0.033 H 
ATOM     24  H   LIG d   1       3.932  -3.478  -4.506  0.00  0.00     0.033 H 
BRANCH  22  25
ATOM     25  C   LIG d   1       5.099  -5.109  -5.236  0.00  0.00    -0.083 C 
ATOM     26  C   LIG d   1       4.626  -5.855  -6.203  0.00  0.00    -0.080 C 
ATOM     27  H   LIG d   1       5.726  -5.547  -4.474  0.00  0.00     0.057 H 
BRANCH  26  28
ATOM     28  C   LIG d   1       3.849  -5.225  -7.331  0.00  0.00    -0.044 C 
ATOM     29  H   LIG d   1       3.937  -5.845  -8.224  0.00  0.00     0.027 H 
ATOM     30  H   LIG d   1       2.800  -5.143  -7.048  0.00  0.00     0.027 H 
ATOM     31  H   LIG d   1       4.249  -4.233  -7.537  0.00  0.00     0.027 H 
ENDBRANCH  26  28
BRANCH  26  32
ATOM     32  C   LIG d   1       4.858  -7.344  -6.189  0.00  0.00    -0.044 C 
ATOM     33  H   LIG d   1       5.141  -7.677  -7.188  0.00  0.00     0.027 H 
ATOM     34  H   LIG d   1       5.658  -7.580  -5.487  0.00  0.00     0.027 H 
ATOM     35  H   LIG d   1       3.944  -7.852  -5.882  0.00  0.00     0.027 H 
ENDBRANCH  26  32
ENDBRANCH  22  25
ENDBRANCH  19  22
BRANCH  18  36
ATOM     36  C   LIG d   1       4.566  -0.693  -5.089  0.00  0.00    -0.033 C 
ATOM     37  H   LIG d   1       4.012  -0.352  -4.214  0.00  0.00     0.026 H 
ATOM     38  H   LIG d   1       4.776   0.157  -5.739  0.00  0.00     0.026 H 
ATOM     39  H   LIG d   1       3.971  -1.427  -5.633  0.00  0.00     0.026 H 
ENDBRANCH  18  36
ENDBRANCH   1  18
BRANCH   3  40
ATOM     40  O   LIG d   1       6.115   1.397  -3.881  0.00  0.00    -0.376 OA
BRANCH  40  41
ATOM     41  C   LIG d   1       5.417   1.401  -2.634  0.00  0.00     0.037 C 
ATOM     42  H   LIG d   1       4.356   1.228  -2.811  0.00  0.00     0.052 H 
ATOM     43  H   LIG d   1       5.812   0.611  -1.995  0.00  0.00     0.052 H 
ATOM     44  H   LIG d   1       5.551   2.365  -2.145  0.00  0.00     0.052 H 
ENDBRANCH  40  41
ENDBRANCH   3  40
BRANCH   5  45
ATOM     45  O   LIG d   1       8.684   2.446  -3.215  0.00  0.00    -0.456 OA
BRANCH  45  46
ATOM     46  C   LIG d   1       9.743   3.272  -3.346  0.00  0.00     0.332 C 
ATOM     47  O   LIG d   1      10.873   2.827  -3.289  0.00  0.00    -0.246 OA
BRANCH  46  48
ATOM     48  C   LIG d   1       9.531   4.703  -3.558  0.00  0.00     0.022 C 
ATOM     49  C   LIG d   1      10.023   5.304  -4.671  0.00  0.00    -0.055 C 
ATOM     50  H   LIG d   1      10.573   4.725  -5.400  0.00  0.00     0.062 H 
ATOM     51  H   LIG d   1       8.982   5.281  -2.829  0.00  0.00     0.069 H 
BRANCH  49  52
ATOM     52  C   LIG d   1       9.819   6.685  -4.876  0.00  0.00    -0.061 C 
ATOM     53  C   LIG d   1       9.390   7.137  -6.086  0.00  0.00    -0.062 C 
ATOM     54  H   LIG d   1       9.206   6.439  -6.888  0.00  0.00     0.062 H 
ATOM     55  H   LIG d   1      10.003   7.383  -4.072  0.00  0.00     0.062 H 
BRANCH  53  56
ATOM     56  C   LIG d   1       9.186   8.517  -6.289  0.00  0.00    -0.062 C 
ATOM     57  C   LIG d   1       9.758   9.420  -5.447  0.00  0.00    -0.062 C 
ATOM     58  H   LIG d   1      10.369   9.079  -4.623  0.00  0.00     0.062 H 
ATOM     59  H   LIG d   1       8.575   8.857  -7.111  0.00  0.00     0.062 H 
BRANCH  57  60
ATOM     60  C   LIG d   1       9.554  10.799  -5.649  0.00  0.00    -0.060 C 
ATOM     61  C   LIG d   1       9.880  11.367  -6.843  0.00  0.00    -0.039 C 
ATOM     62  H   LIG d   1      10.296  10.760  -7.634  0.00  0.00     0.064 H 
ATOM     63  H   LIG d   1       9.139  11.406  -4.859  0.00  0.00     0.062 H 
BRANCH  61  64
ATOM     64  C   LIG d   1       9.675  12.750  -7.046  0.00  0.00     0.065 C 
ATOM     65  O   LIG d   1      10.085  13.559  -6.221  0.00  0.00    -0.545 OA
ATOM     66  O   LIG d   1       9.086  13.142  -8.047  0.00  0.00    -0.545 OA
ENDBRANCH  61  64
ENDBRANCH  57  60
ENDBRANCH  53  56
ENDBRANCH  49  52
ENDBRANCH  46  48
ENDBRANCH  45  46
ENDBRANCH   5  45
TORSDOF 15
ENDMDL
MODEL 5
REMARK VINA RESULT:      -5.6      8.207     15.109
REMARK  15 active torsions:
REMARK  status: ('A' for Active; 'I' for Inactive)
REMARK    1  A    between atoms: C_1  and  C_2 
REMARK    2  A    between atoms: C_2  and  C_37 
REMARK    3  A    between atoms: C_3  and  C_4 
REMARK    4  A    between atoms: C_4  and  C_5 
REMARK    5  A    between atoms: C_7  and  C_9 
REMARK    6  A    between atoms: C_7  and  C_10 
REMARK    7  A    between atoms: C_12  and  O_35 
REMARK    8  A    between atoms: C_14  and  O_21 
REMARK    9  A    between atoms: O_21  and  C_22 
REMARK   10  A    between atoms: C_22  and  C_24 
REMARK   11  A    between atoms: C_25  and  C_26 
REMARK   12  A    between atoms: C_27  and  C_28 
REMARK   13  A    between atoms: C_29  and  C_30 
REMARK   14  A    between atoms: C_31  and  C_32 
REMARK   15  A    between atoms: O_35  and  C_36 
ROOT
ATOM      1  C   LIG d   1       9.679   6.912  -5.477  0.00  0.00     0.051 C 
ATOM      2  H   LIG d   1       8.648   6.615  -5.285  0.00  0.00     0.038 H 
ATOM      3  C   LIG d   1      10.341   5.893  -6.411  0.00  0.00     0.103 C 
ATOM      4  H   LIG d   1      10.271   4.899  -5.972  0.00  0.00     0.064 H 
ATOM      5  C   LIG d   1       9.627   5.905  -7.763  0.00  0.00     0.130 C 
ATOM      6  H   LIG d   1       8.568   5.694  -7.616  0.00  0.00     0.076 H 
ATOM      7  C   LIG d   1       9.785   7.278  -8.421  0.00  0.00    -0.011 C 
ATOM      8  C   LIG d   1       9.105   8.340  -7.553  0.00  0.00    -0.018 C 
ATOM      9  C   LIG d   1       9.702   8.289  -6.144  0.00  0.00     0.101 A 
ATOM     10  C   LIG d   1       9.548   9.519  -5.252  0.00  0.00     0.078 A 
ATOM     11  O   LIG d   1      10.795   9.157  -5.849  0.00  0.00    -0.368 OA
ATOM     12  H   LIG d   1      10.845   7.513  -8.521  0.00  0.00     0.030 H 
ATOM     13  H   LIG d   1       9.321   7.263  -9.407  0.00  0.00     0.030 H 
ATOM     14  H   LIG d   1       9.274   9.328  -7.984  0.00  0.00     0.029 H 
ATOM     15  H   LIG d   1       8.036   8.141  -7.500  0.00  0.00     0.029 H 
ATOM     16  H   LIG d   1       9.019  10.380  -5.662  0.00  0.00     0.059 H 
ATOM     17  H   LIG d   1       9.431   9.359  -4.180  0.00  0.00     0.059 H 
ENDROOT
BRANCH   1  18
ATOM     18  C   LIG d   1      10.449   6.969  -4.155  0.00  0.00     0.102 A 
ATOM     19  C   LIG d   1       9.641   7.122  -2.865  0.00  0.00     0.092 A 
ATOM     20  H   LIG d   1       8.556   7.185  -2.951  0.00  0.00     0.063 H 
ATOM     21  O   LIG d   1      10.268   5.891  -3.231  0.00  0.00    -0.364 OA
BRANCH  19  22
ATOM     22  C   LIG d   1      10.265   7.928  -1.725  0.00  0.00    -0.005 C 
ATOM     23  H   LIG d   1       9.750   8.884  -1.631  0.00  0.00     0.033 H 
ATOM     24  H   LIG d   1      11.320   8.103  -1.939  0.00  0.00     0.033 H 
BRANCH  22  25
ATOM     25  C   LIG d   1      10.135   7.158  -0.436  0.00  0.00    -0.083 C 
ATOM     26  C   LIG d   1      11.200   6.656   0.138  0.00  0.00    -0.080 C 
ATOM     27  H   LIG d   1       9.164   7.020   0.015  0.00  0.00     0.057 H 
BRANCH  26  28
ATOM     28  C   LIG d   1      12.568   6.948  -0.425  0.00  0.00    -0.044 C 
ATOM     29  H   LIG d   1      13.329   6.654   0.298  0.00  0.00     0.027 H 
ATOM     30  H   LIG d   1      12.708   6.385  -1.348  0.00  0.00     0.027 H 
ATOM     31  H   LIG d   1      12.656   8.014  -0.632  0.00  0.00     0.027 H 
ENDBRANCH  26  28
BRANCH  26  32
ATOM     32  C   LIG d   1      11.059   5.788   1.362  0.00  0.00    -0.044 C 
ATOM     33  H   LIG d   1      11.992   5.799   1.924  0.00  0.00     0.027 H 
ATOM     34  H   LIG d   1      10.252   6.169   1.987  0.00  0.00     0.027 H 
ATOM     35  H   LIG d   1      10.831   4.766   1.057  0.00  0.00     0.027 H 
ENDBRANCH  26  32
ENDBRANCH  22  25
ENDBRANCH  19  22
BRANCH  18  36
ATOM     36  C   LIG d   1      11.827   7.631  -4.217  0.00  0.00    -0.033 C 
ATOM     37  H   LIG d   1      11.782   8.502  -4.870  0.00  0.00     0.026 H 
ATOM     38  H   LIG d   1      12.125   7.943  -3.216  0.00  0.00     0.026 H 
ATOM     39  H   LIG d   1      12.554   6.919  -4.608  0.00  0.00     0.026 H 
ENDBRANCH  18  36
ENDBRANCH   1  18
BRANCH   3  40
ATOM     40  O   LIG d   1      11.715   6.238  -6.594  0.00  0.00    -0.376 OA
BRANCH  40  41
ATOM     41  C   LIG d   1      12.604   5.119  -6.565  0.00  0.00     0.037 C 
ATOM     42  H   LIG d   1      12.442   4.503  -7.449  0.00  0.00     0.052 H 
ATOM     43  H   LIG d   1      13.634   5.474  -6.554  0.00  0.00     0.052 H 
ATOM     44  H   LIG d   1      12.414   4.527  -5.670  0.00  0.00     0.052 H 
ENDBRANCH  40  41
ENDBRANCH   3  40
BRANCH   5  45
ATOM     45  O   LIG d   1      10.198   4.906  -8.611  0.00  0.00    -0.456 OA
BRANCH  45  46
ATOM     46  C   LIG d   1       9.376   3.924  -9.039  0.00  0.00     0.332 C 
ATOM     47  O   LIG d   1       9.251   3.712 -10.230  0.00  0.00    -0.246 OA
BRANCH  46  48
ATOM     48  C   LIG d   1       8.637   3.116  -8.071  0.00  0.00     0.022 C 
ATOM     49  C   LIG d   1       9.308   2.382  -7.148  0.00  0.00    -0.055 C 
ATOM     50  H   LIG d   1      10.389   2.394  -7.129  0.00  0.00     0.062 H 
ATOM     51  H   LIG d   1       7.557   3.104  -8.091  0.00  0.00     0.069 H 
BRANCH  49  52
ATOM     52  C   LIG d   1       8.596   1.601  -6.214  0.00  0.00    -0.061 C 
ATOM     53  C   LIG d   1       8.247   2.131  -5.009  0.00  0.00    -0.062 C 
ATOM     54  H   LIG d   1       8.516   3.149  -4.769  0.00  0.00     0.062 H 
ATOM     55  H   LIG d   1       8.326   0.583  -6.455  0.00  0.00     0.062 H 
BRANCH  53  56
ATOM     56  C   LIG d   1       7.534   1.351  -4.077  0.00  0.00    -0.062 C 
ATOM     57  C   LIG d   1       7.259   0.046  -4.352  0.00  0.00    -0.062 C 
ATOM     58  H   LIG d   1       7.587  -0.390  -5.284  0.00  0.00     0.062 H 
ATOM     59  H   LIG d   1       7.206   1.787  -3.146  0.00  0.00     0.062 H 
BRANCH  57  60
ATOM     60  C   LIG d   1       6.546  -0.735  -3.420  0.00  0.00    -0.060 C 
ATOM     61  C   LIG d   1       5.225  -0.993  -3.620  0.00  0.00    -0.039 C 
ATOM     62  H   LIG d   1       4.722  -0.599  -4.491  0.00  0.00     0.064 H 
ATOM     63  H   LIG d   1       7.047  -1.128  -2.549  0.00  0.00     0.062 H 
BRANCH  61  64
ATOM     64  C   LIG d   1       4.510  -1.775  -2.685  0.00  0.00     0.065 C 
ATOM     65  O   LIG d   1       4.023  -2.846  -3.027  0.00  0.00    -0.545 OA
ATOM     66  O   LIG d   1       4.376  -1.382  -1.531  0.00  0.00    -0.545 OA
ENDBRANCH  61  64
ENDBRANCH  57  60
ENDBRANCH  53  56
ENDBRANCH  49  52
ENDBRANCH  46  48
ENDBRANCH  45  46
ENDBRANCH   5  45
TORSDOF 15
ENDMDL
MODEL 6
REMARK VINA RESULT:      -5.6      3.976     10.974
REMARK  15 active torsions:
REMARK  status: ('A' for Active; 'I' for Inactive)
REMARK    1  A    between atoms: C_1  and  C_2 
REMARK    2  A    between atoms: C_2  and  C_37 
REMARK    3  A    between atoms: C_3  and  C_4 
REMARK    4  A    between atoms: C_4  and  C_5 
REMARK    5  A    between atoms: C_7  and  C_9 
REMARK    6  A    between atoms: C_7  and  C_10 
REMARK    7  A    between atoms: C_12  and  O_35 
REMARK    8  A    between atoms: C_14  and  O_21 
REMARK    9  A    between atoms: O_21  and  C_22 
REMARK   10  A    between atoms: C_22  and  C_24 
REMARK   11  A    between atoms: C_25  and  C_26 
REMARK   12  A    between atoms: C_27  and  C_28 
REMARK   13  A    between atoms: C_29  and  C_30 
REMARK   14  A    between atoms: C_31  and  C_32 
REMARK   15  A    between atoms: O_35  and  C_36 
ROOT
ATOM      1  C   LIG d   1       3.204  -0.514  -8.653  0.00  0.00     0.051 C 
ATOM      2  H   LIG d   1       2.166  -0.720  -8.915  0.00  0.00     0.038 H 
ATOM      3  C   LIG d   1       3.893  -1.814  -8.224  0.00  0.00     0.103 C 
ATOM      4  H   LIG d   1       3.340  -2.263  -7.400  0.00  0.00     0.064 H 
ATOM      5  C   LIG d   1       3.927  -2.785  -9.405  0.00  0.00     0.130 C 
ATOM      6  H   LIG d   1       2.912  -2.961  -9.759  0.00  0.00     0.076 H 
ATOM      7  C   LIG d   1       4.767  -2.193 -10.539  0.00  0.00    -0.011 C 
ATOM      8  C   LIG d   1       4.106  -0.906 -11.043  0.00  0.00    -0.018 C 
ATOM      9  C   LIG d   1       3.936   0.061  -9.868  0.00  0.00     0.101 A 
ATOM     10  C   LIG d   1       3.753   1.545 -10.179  0.00  0.00     0.078 A 
ATOM     11  O   LIG d   1       4.967   1.019  -9.637  0.00  0.00    -0.368 OA
ATOM     12  H   LIG d   1       5.768  -1.968 -10.171  0.00  0.00     0.030 H 
ATOM     13  H   LIG d   1       4.832  -2.911 -11.355  0.00  0.00     0.030 H 
ATOM     14  H   LIG d   1       4.737  -0.447 -11.805  0.00  0.00     0.029 H 
ATOM     15  H   LIG d   1       3.129  -1.138 -11.466  0.00  0.00     0.029 H 
ATOM     16  H   LIG d   1       3.753   1.848 -11.226  0.00  0.00     0.059 H 
ATOM     17  H   LIG d   1       3.111   2.127  -9.518  0.00  0.00     0.059 H 
ENDROOT
BRANCH   1  18
ATOM     18  C   LIG d   1       3.251   0.494  -7.502  0.00  0.00     0.102 A 
ATOM     19  C   LIG d   1       3.172  -0.049  -6.074  0.00  0.00     0.092 A 
ATOM     20  H   LIG d   1       3.084  -1.128  -5.947  0.00  0.00     0.063 H 
ATOM     21  O   LIG d   1       4.386   0.458  -6.631  0.00  0.00    -0.364 OA
BRANCH  19  22
ATOM     22  C   LIG d   1       2.457   0.804  -5.026  0.00  0.00    -0.005 C 
ATOM     23  H   LIG d   1       1.630   0.237  -4.598  0.00  0.00     0.033 H 
ATOM     24  H   LIG d   1       2.073   1.709  -5.496  0.00  0.00     0.033 H 
BRANCH  22  25
ATOM     25  C   LIG d   1       3.428   1.177  -3.935  0.00  0.00    -0.083 C 
ATOM     26  C   LIG d   1       3.528   0.429  -2.864  0.00  0.00    -0.080 C 
ATOM     27  H   LIG d   1       4.041   2.060  -4.035  0.00  0.00     0.057 H 
BRANCH  26  28
ATOM     28  C   LIG d   1       2.761  -0.866  -2.774  0.00  0.00    -0.044 C 
ATOM     29  H   LIG d   1       1.799  -0.686  -2.293  0.00  0.00     0.027 H 
ATOM     30  H   LIG d   1       2.597  -1.261  -3.777  0.00  0.00     0.027 H 
ATOM     31  H   LIG d   1       3.331  -1.586  -2.188  0.00  0.00     0.027 H 
ENDBRANCH  26  28
BRANCH  26  32
ATOM     32  C   LIG d   1       4.410   0.862  -1.721  0.00  0.00    -0.044 C 
ATOM     33  H   LIG d   1       4.424   0.085  -0.958  0.00  0.00     0.027 H 
ATOM     34  H   LIG d   1       5.422   1.031  -2.088  0.00  0.00     0.027 H 
ATOM     35  H   LIG d   1       4.021   1.786  -1.292  0.00  0.00     0.027 H 
ENDBRANCH  26  32
ENDBRANCH  22  25
ENDBRANCH  19  22
BRANCH  18  36
ATOM     36  C   LIG d   1       2.611   1.854  -7.784  0.00  0.00    -0.033 C 
ATOM     37  H   LIG d   1       3.171   2.364  -8.569  0.00  0.00     0.026 H 
ATOM     38  H   LIG d   1       1.580   1.711  -8.109  0.00  0.00     0.026 H 
ATOM     39  H   LIG d   1       2.626   2.458  -6.876  0.00  0.00     0.026 H 
ENDBRANCH  18  36
ENDBRANCH   1  18
BRANCH   3  40
ATOM     40  O   LIG d   1       5.228  -1.528  -7.802  0.00  0.00    -0.376 OA
BRANCH  40  41
ATOM     41  C   LIG d   1       5.721  -2.413  -6.793  0.00  0.00     0.037 C 
ATOM     42  H   LIG d   1       6.809  -2.364  -6.768  0.00  0.00     0.052 H 
ATOM     43  H   LIG d   1       5.321  -2.116  -5.824  0.00  0.00     0.052 H 
ATOM     44  H   LIG d   1       5.408  -3.432  -7.020  0.00  0.00     0.052 H 
ENDBRANCH  40  41
ENDBRANCH   3  40
BRANCH   5  45
ATOM     45  O   LIG d   1       4.506  -4.023  -8.984  0.00  0.00    -0.456 OA
BRANCH  45  46
ATOM     46  C   LIG d   1       3.660  -5.055  -8.780  0.00  0.00     0.332 C 
ATOM     47  O   LIG d   1       2.637  -5.142  -9.432  0.00  0.00    -0.246 OA
BRANCH  46  48
ATOM     48  C   LIG d   1       3.975  -6.069  -7.775  0.00  0.00     0.022 C 
ATOM     49  C   LIG d   1       4.373  -5.692  -6.533  0.00  0.00    -0.055 C 
ATOM     50  H   LIG d   1       4.457  -4.643  -6.288  0.00  0.00     0.062 H 
ATOM     51  H   LIG d   1       3.892  -7.117  -8.021  0.00  0.00     0.069 H 
BRANCH  49  52
ATOM     52  C   LIG d   1       4.678  -6.670  -5.563  0.00  0.00    -0.061 C 
ATOM     53  C   LIG d   1       5.225  -7.857  -5.942  0.00  0.00    -0.062 C 
ATOM     54  H   LIG d   1       5.426  -8.050  -6.985  0.00  0.00     0.062 H 
ATOM     55  H   LIG d   1       4.477  -6.476  -4.519  0.00  0.00     0.062 H 
BRANCH  53  56
ATOM     56  C   LIG d   1       5.530  -8.833  -4.972  0.00  0.00    -0.062 C 
ATOM     57  C   LIG d   1       4.541  -9.348  -4.192  0.00  0.00    -0.062 C 
ATOM     58  H   LIG d   1       3.523  -9.009  -4.317  0.00  0.00     0.062 H 
ATOM     59  H   LIG d   1       6.548  -9.171  -4.847  0.00  0.00     0.062 H 
BRANCH  57  60
ATOM     60  C   LIG d   1       4.845 -10.323  -3.222  0.00  0.00    -0.060 C 
ATOM     61  C   LIG d   1       6.038 -10.283  -2.568  0.00  0.00    -0.039 C 
ATOM     62  H   LIG d   1       6.752  -9.503  -2.793  0.00  0.00     0.064 H 
ATOM     63  H   LIG d   1       4.133 -11.103  -2.997  0.00  0.00     0.062 H 
BRANCH  61  64
ATOM     64  C   LIG d   1       6.343 -11.261  -1.595  0.00  0.00     0.065 C 
ATOM     65  O   LIG d   1       6.856 -12.322  -1.931  0.00  0.00    -0.545 OA
ATOM     66  O   LIG d   1       6.095 -11.048  -0.413  0.00  0.00    -0.545 OA
ENDBRANCH  61  64
ENDBRANCH  57  60
ENDBRANCH  53  56
ENDBRANCH  49  52
ENDBRANCH  46  48
ENDBRANCH  45  46
ENDBRANCH   5  45
TORSDOF 15
ENDMDL
MODEL 7
REMARK VINA RESULT:      -5.6      6.688     11.903
REMARK  15 active torsions:
REMARK  status: ('A' for Active; 'I' for Inactive)
REMARK    1  A    between atoms: C_1  and  C_2 
REMARK    2  A    between atoms: C_2  and  C_37 
REMARK    3  A    between atoms: C_3  and  C_4 
REMARK    4  A    between atoms: C_4  and  C_5 
REMARK    5  A    between atoms: C_7  and  C_9 
REMARK    6  A    between atoms: C_7  and  C_10 
REMARK    7  A    between atoms: C_12  and  O_35 
REMARK    8  A    between atoms: C_14  and  O_21 
REMARK    9  A    between atoms: O_21  and  C_22 
REMARK   10  A    between atoms: C_22  and  C_24 
REMARK   11  A    between atoms: C_25  and  C_26 
REMARK   12  A    between atoms: C_27  and  C_28 
REMARK   13  A    between atoms: C_29  and  C_30 
REMARK   14  A    between atoms: C_31  and  C_32 
REMARK   15  A    between atoms: O_35  and  C_36 
ROOT
ATOM      1  C   LIG d   1       7.090  -0.624  -4.962  0.00  0.00     0.051 C 
ATOM      2  H   LIG d   1       7.952  -1.291  -4.930  0.00  0.00     0.038 H 
ATOM      3  C   LIG d   1       7.258   0.481  -3.914  0.00  0.00     0.103 C 
ATOM      4  H   LIG d   1       7.398   0.032  -2.931  0.00  0.00     0.064 H 
ATOM      5  C   LIG d   1       8.480   1.331  -4.264  0.00  0.00     0.130 C 
ATOM      6  H   LIG d   1       9.361   0.693  -4.326  0.00  0.00     0.076 H 
ATOM      7  C   LIG d   1       8.259   2.027  -5.609  0.00  0.00    -0.011 C 
ATOM      8  C   LIG d   1       8.124   0.972  -6.711  0.00  0.00    -0.018 C 
ATOM      9  C   LIG d   1       6.986   0.015  -6.348  0.00  0.00     0.101 A 
ATOM     10  C   LIG d   1       6.351  -0.805  -7.470  0.00  0.00     0.078 A 
ATOM     11  O   LIG d   1       5.684   0.301  -6.857  0.00  0.00    -0.368 OA
ATOM     12  H   LIG d   1       7.349   2.625  -5.564  0.00  0.00     0.030 H 
ATOM     13  H   LIG d   1       9.109   2.673  -5.827  0.00  0.00     0.030 H 
ATOM     14  H   LIG d   1       7.900   1.462  -7.660  0.00  0.00     0.029 H 
ATOM     15  H   LIG d   1       9.054   0.412  -6.798  0.00  0.00     0.029 H 
ATOM     16  H   LIG d   1       6.738  -0.670  -8.479  0.00  0.00     0.059 H 
ATOM     17  H   LIG d   1       5.999  -1.809  -7.229  0.00  0.00     0.059 H 
ENDROOT
BRANCH   1  18
ATOM     18  C   LIG d   1       5.816  -1.420  -4.666  0.00  0.00     0.102 A 
ATOM     19  C   LIG d   1       5.909  -2.946  -4.678  0.00  0.00     0.092 A 
ATOM     20  H   LIG d   1       6.879  -3.393  -4.898  0.00  0.00     0.063 H 
ATOM     21  O   LIG d   1       5.780  -2.199  -3.466  0.00  0.00    -0.364 OA
BRANCH  19  22
ATOM     22  C   LIG d   1       4.690  -3.731  -5.165  0.00  0.00    -0.005 C 
ATOM     23  H   LIG d   1       4.366  -3.338  -6.128  0.00  0.00     0.033 H 
ATOM     24  H   LIG d   1       3.882  -3.633  -4.441  0.00  0.00     0.033 H 
BRANCH  22  25
ATOM     25  C   LIG d   1       5.057  -5.186  -5.315  0.00  0.00    -0.083 C 
ATOM     26  C   LIG d   1       4.572  -5.883  -6.312  0.00  0.00    -0.080 C 
ATOM     27  H   LIG d   1       5.718  -5.653  -4.601  0.00  0.00     0.057 H 
BRANCH  26  28
ATOM     28  C   LIG d   1       3.746  -5.205  -7.375  0.00  0.00    -0.044 C 
ATOM     29  H   LIG d   1       3.967  -5.649  -8.346  0.00  0.00     0.027 H 
ATOM     30  H   LIG d   1       2.687  -5.335  -7.150  0.00  0.00     0.027 H 
ATOM     31  H   LIG d   1       3.985  -4.143  -7.398  0.00  0.00     0.027 H 
ENDBRANCH  26  28
BRANCH  26  32
ATOM     32  C   LIG d   1       4.841  -7.364  -6.398  0.00  0.00    -0.044 C 
ATOM     33  H   LIG d   1       5.789  -7.532  -6.909  0.00  0.00     0.027 H 
ATOM     34  H   LIG d   1       4.891  -7.782  -5.393  0.00  0.00     0.027 H 
ATOM     35  H   LIG d   1       4.037  -7.848  -6.954  0.00  0.00     0.027 H 
ENDBRANCH  26  32
ENDBRANCH  22  25
ENDBRANCH  19  22
BRANCH  18  36
ATOM     36  C   LIG d   1       4.509  -0.781  -5.141  0.00  0.00    -0.033 C 
ATOM     37  H   LIG d   1       4.207  -1.232  -6.086  0.00  0.00     0.026 H 
ATOM     38  H   LIG d   1       3.732  -0.947  -4.395  0.00  0.00     0.026 H 
ATOM     39  H   LIG d   1       4.658   0.290  -5.280  0.00  0.00     0.026 H 
ENDBRANCH  18  36
ENDBRANCH   1  18
BRANCH   3  40
ATOM     40  O   LIG d   1       6.091   1.305  -3.899  0.00  0.00    -0.376 OA
BRANCH  40  41
ATOM     41  C   LIG d   1       5.400   1.312  -2.648  0.00  0.00     0.037 C 
ATOM     42  H   LIG d   1       4.549   1.990  -2.707  0.00  0.00     0.052 H 
ATOM     43  H   LIG d   1       5.048   0.306  -2.422  0.00  0.00     0.052 H 
ATOM     44  H   LIG d   1       6.077   1.646  -1.861  0.00  0.00     0.052 H 
ENDBRANCH  40  41
ENDBRANCH   3  40
BRANCH   5  45
ATOM     45  O   LIG d   1       8.678   2.318  -3.248  0.00  0.00    -0.456 OA
BRANCH  45  46
ATOM     46  C   LIG d   1       9.931   2.799  -3.099  0.00  0.00     0.332 C 
ATOM     47  O   LIG d   1      10.888   2.067  -3.265  0.00  0.00    -0.246 OA
BRANCH  46  48
ATOM     48  C   LIG d   1      10.136   4.200  -2.737  0.00  0.00     0.022 C 
ATOM     49  C   LIG d   1       9.674   5.184  -3.549  0.00  0.00    -0.055 C 
ATOM     50  H   LIG d   1       9.154   4.932  -4.462  0.00  0.00     0.062 H 
ATOM     51  H   LIG d   1      10.656   4.451  -1.825  0.00  0.00     0.069 H 
BRANCH  49  52
ATOM     52  C   LIG d   1       9.872   6.537  -3.201  0.00  0.00    -0.061 C 
ATOM     53  C   LIG d   1       9.458   6.995  -1.988  0.00  0.00    -0.062 C 
ATOM     54  H   LIG d   1       8.979   6.324  -1.292  0.00  0.00     0.062 H 
ATOM     55  H   LIG d   1      10.353   7.209  -3.897  0.00  0.00     0.062 H 
BRANCH  53  56
ATOM     56  C   LIG d   1       9.658   8.347  -1.641  0.00  0.00    -0.062 C 
ATOM     57  C   LIG d   1      10.086   8.672  -0.390  0.00  0.00    -0.062 C 
ATOM     58  H   LIG d   1      10.273   7.893   0.335  0.00  0.00     0.062 H 
ATOM     59  H   LIG d   1       9.470   9.124  -2.366  0.00  0.00     0.062 H 
BRANCH  57  60
ATOM     60  C   LIG d   1      10.285  10.022  -0.042  0.00  0.00    -0.060 C 
ATOM     61  C   LIG d   1      11.165  10.348   0.944  0.00  0.00    -0.039 C 
ATOM     62  H   LIG d   1      11.710   9.571   1.460  0.00  0.00     0.064 H 
ATOM     63  H   LIG d   1       9.740  10.799  -0.558  0.00  0.00     0.062 H 
BRANCH  61  64
ATOM     64  C   LIG d   1      11.364  11.703   1.292  0.00  0.00     0.065 C 
ATOM     65  O   LIG d   1      10.883  12.592   0.599  0.00  0.00    -0.545 OA
ATOM     66  O   LIG d   1      12.018  11.990   2.288  0.00  0.00    -0.545 OA
ENDBRANCH  61  64
ENDBRANCH  57  60
ENDBRANCH  53  56
ENDBRANCH  49  52
ENDBRANCH  46  48
ENDBRANCH  45  46
ENDBRANCH   5  45
TORSDOF 15
ENDMDL
MODEL 8
REMARK VINA RESULT:      -5.5      2.548      9.803
REMARK  15 active torsions:
REMARK  status: ('A' for Active; 'I' for Inactive)
REMARK    1  A    between atoms: C_1  and  C_2 
REMARK    2  A    between atoms: C_2  and  C_37 
REMARK    3  A    between atoms: C_3  and  C_4 
REMARK    4  A    between atoms: C_4  and  C_5 
REMARK    5  A    between atoms: C_7  and  C_9 
REMARK    6  A    between atoms: C_7  and  C_10 
REMARK    7  A    between atoms: C_12  and  O_35 
REMARK    8  A    between atoms: C_14  and  O_21 
REMARK    9  A    between atoms: O_21  and  C_22 
REMARK   10  A    between atoms: C_22  and  C_24 
REMARK   11  A    between atoms: C_25  and  C_26 
REMARK   12  A    between atoms: C_27  and  C_28 
REMARK   13  A    between atoms: C_29  and  C_30 
REMARK   14  A    between atoms: C_31  and  C_32 
REMARK   15  A    between atoms: O_35  and  C_36 
ROOT
ATOM      1  C   LIG d   1       4.596  -4.753  -5.900  0.00  0.00     0.051 C 
ATOM      2  H   LIG d   1       3.619  -4.851  -5.425  0.00  0.00     0.038 H 
ATOM      3  C   LIG d   1       5.497  -5.913  -5.466  0.00  0.00     0.103 C 
ATOM      4  H   LIG d   1       5.566  -5.933  -4.379  0.00  0.00     0.064 H 
ATOM      5  C   LIG d   1       4.902  -7.232  -5.963  0.00  0.00     0.130 C 
ATOM      6  H   LIG d   1       3.888  -7.339  -5.581  0.00  0.00     0.076 H 
ATOM      7  C   LIG d   1       4.873  -7.242  -7.493  0.00  0.00    -0.011 C 
ATOM      8  C   LIG d   1       3.951  -6.125  -7.993  0.00  0.00    -0.018 C 
ATOM      9  C   LIG d   1       4.433  -4.789  -7.421  0.00  0.00     0.101 A 
ATOM     10  C   LIG d   1       3.996  -3.507  -8.126  0.00  0.00     0.078 A 
ATOM     11  O   LIG d   1       5.332  -4.010  -8.209  0.00  0.00    -0.368 OA
ATOM     12  H   LIG d   1       5.880  -7.082  -7.878  0.00  0.00     0.030 H 
ATOM     13  H   LIG d   1       4.499  -8.204  -7.842  0.00  0.00     0.030 H 
ATOM     14  H   LIG d   1       3.981  -6.088  -9.082  0.00  0.00     0.029 H 
ATOM     15  H   LIG d   1       2.932  -6.316  -7.659  0.00  0.00     0.029 H 
ATOM     16  H   LIG d   1       3.361  -3.602  -9.006  0.00  0.00     0.059 H 
ATOM     17  H   LIG d   1       3.823  -2.623  -7.512  0.00  0.00     0.059 H 
ENDROOT
BRANCH   1  18
ATOM     18  C   LIG d   1       5.235  -3.425  -5.484  0.00  0.00     0.102 A 
ATOM     19  C   LIG d   1       4.347  -2.393  -4.787  0.00  0.00     0.092 A 
ATOM     20  H   LIG d   1       3.301  -2.653  -4.622  0.00  0.00     0.063 H 
ATOM     21  O   LIG d   1       5.339  -3.146  -4.084  0.00  0.00    -0.364 OA
BRANCH  19  22
ATOM     22  C   LIG d   1       4.630  -0.914  -5.053  0.00  0.00    -0.005 C 
ATOM     23  H   LIG d   1       4.097  -0.598  -5.949  0.00  0.00     0.033 H 
ATOM     24  H   LIG d   1       5.700  -0.769  -5.196  0.00  0.00     0.033 H 
BRANCH  22  25
ATOM     25  C   LIG d   1       4.165  -0.094  -3.876  0.00  0.00    -0.083 C 
ATOM     26  C   LIG d   1       5.032   0.336  -2.994  0.00  0.00    -0.080 C 
ATOM     27  H   LIG d   1       3.117   0.138  -3.760  0.00  0.00     0.057 H 
BRANCH  26  28
ATOM     28  C   LIG d   1       6.507   0.114  -3.217  0.00  0.00    -0.044 C 
ATOM     29  H   LIG d   1       7.076   0.831  -2.624  0.00  0.00     0.027 H 
ATOM     30  H   LIG d   1       6.772  -0.898  -2.913  0.00  0.00     0.027 H 
ATOM     31  H   LIG d   1       6.739   0.250  -4.272  0.00  0.00     0.027 H 
ENDBRANCH  26  28
BRANCH  26  32
ATOM     32  C   LIG d   1       4.557   1.054  -1.757  0.00  0.00    -0.044 C 
ATOM     33  H   LIG d   1       4.006   0.360  -1.124  0.00  0.00     0.027 H 
ATOM     34  H   LIG d   1       5.417   1.443  -1.211  0.00  0.00     0.027 H 
ATOM     35  H   LIG d   1       3.906   1.880  -2.044  0.00  0.00     0.027 H 
ENDBRANCH  26  32
ENDBRANCH  22  25
ENDBRANCH  19  22
BRANCH  18  36
ATOM     36  C   LIG d   1       6.346  -2.908  -6.399  0.00  0.00    -0.033 C 
ATOM     37  H   LIG d   1       5.927  -2.206  -7.120  0.00  0.00     0.026 H 
ATOM     38  H   LIG d   1       7.105  -2.404  -5.800  0.00  0.00     0.026 H 
ATOM     39  H   LIG d   1       6.800  -3.746  -6.929  0.00  0.00     0.026 H 
ENDBRANCH  18  36
ENDBRANCH   1  18
BRANCH   3  40
ATOM     40  O   LIG d   1       6.801  -5.737  -6.023  0.00  0.00    -0.376 OA
BRANCH  40  41
ATOM     41  C   LIG d   1       7.864  -5.957  -5.093  0.00  0.00     0.037 C 
ATOM     42  H   LIG d   1       7.456  -6.028  -4.085  0.00  0.00     0.052 H 
ATOM     43  H   LIG d   1       8.379  -6.884  -5.343  0.00  0.00     0.052 H 
ATOM     44  H   LIG d   1       8.568  -5.126  -5.143  0.00  0.00     0.052 H 
ENDBRANCH  40  41
ENDBRANCH   3  40
BRANCH   5  45
ATOM     45  O   LIG d   1       5.705  -8.319  -5.498  0.00  0.00    -0.456 OA
BRANCH  45  46
ATOM     46  C   LIG d   1       5.120  -9.193  -4.651  0.00  0.00     0.332 C 
ATOM     47  O   LIG d   1       3.931  -9.430  -4.747  0.00  0.00    -0.246 OA
BRANCH  46  48
ATOM     48  C   LIG d   1       5.916  -9.854  -3.619  0.00  0.00     0.022 C 
ATOM     49  C   LIG d   1       5.305 -10.403  -2.539  0.00  0.00    -0.055 C 
ATOM     50  H   LIG d   1       4.230 -10.352  -2.442  0.00  0.00     0.062 H 
ATOM     51  H   LIG d   1       6.991  -9.904  -3.716  0.00  0.00     0.069 H 
BRANCH  49  52
ATOM     52  C   LIG d   1       6.073 -11.041  -1.542  0.00  0.00    -0.061 C 
ATOM     53  C   LIG d   1       7.397 -10.753  -1.415  0.00  0.00    -0.062 C 
ATOM     54  H   LIG d   1       7.859 -10.035  -2.077  0.00  0.00     0.062 H 
ATOM     55  H   LIG d   1       5.610 -11.758  -0.880  0.00  0.00     0.062 H 
BRANCH  53  56
ATOM     56  C   LIG d   1       8.164 -11.390  -0.418  0.00  0.00    -0.062 C 
ATOM     57  C   LIG d   1       9.442 -10.985  -0.181  0.00  0.00    -0.062 C 
ATOM     58  H   LIG d   1       9.868 -10.176  -0.757  0.00  0.00     0.062 H 
ATOM     59  H   LIG d   1       7.738 -12.198   0.157  0.00  0.00     0.062 H 
BRANCH  57  60
ATOM     60  C   LIG d   1      10.209 -11.622   0.814  0.00  0.00    -0.060 C 
ATOM     61  C   LIG d   1      10.687 -10.904   1.867  0.00  0.00    -0.039 C 
ATOM     62  H   LIG d   1      10.480  -9.846   1.938  0.00  0.00     0.064 H 
ATOM     63  H   LIG d   1      10.417 -12.679   0.742  0.00  0.00     0.062 H 
BRANCH  61  64
ATOM     64  C   LIG d   1      11.456 -11.543   2.865  0.00  0.00     0.065 C 
ATOM     65  O   LIG d   1      12.622 -11.212   3.048  0.00  0.00    -0.545 OA
ATOM     66  O   LIG d   1      10.958 -12.430   3.549  0.00  0.00    -0.545 OA
ENDBRANCH  61  64
ENDBRANCH  57  60
ENDBRANCH  53  56
ENDBRANCH  49  52
ENDBRANCH  46  48
ENDBRANCH  45  46
ENDBRANCH   5  45
TORSDOF 15
ENDMDL
MODEL 9
REMARK VINA RESULT:      -5.5      7.970     11.920
REMARK  15 active torsions:
REMARK  status: ('A' for Active; 'I' for Inactive)
REMARK    1  A    between atoms: C_1  and  C_2 
REMARK    2  A    between atoms: C_2  and  C_37 
REMARK    3  A    between atoms: C_3  and  C_4 
REMARK    4  A    between atoms: C_4  and  C_5 
REMARK    5  A    between atoms: C_7  and  C_9 
REMARK    6  A    between atoms: C_7  and  C_10 
REMARK    7  A    between atoms: C_12  and  O_35 
REMARK    8  A    between atoms: C_14  and  O_21 
REMARK    9  A    between atoms: O_21  and  C_22 
REMARK   10  A    between atoms: C_22  and  C_24 
REMARK   11  A    between atoms: C_25  and  C_26 
REMARK   12  A    between atoms: C_27  and  C_28 
REMARK   13  A    between atoms: C_29  and  C_30 
REMARK   14  A    between atoms: C_31  and  C_32 
REMARK   15  A    between atoms: O_35  and  C_36 
ROOT
ATOM      1  C   LIG d   1       8.578   0.845  -7.216  0.00  0.00     0.051 C 
ATOM      2  H   LIG d   1       9.257   1.325  -6.511  0.00  0.00     0.038 H 
ATOM      3  C   LIG d   1       7.922   1.909  -8.101  0.00  0.00     0.103 C 
ATOM      4  H   LIG d   1       7.415   2.642  -7.474  0.00  0.00     0.064 H 
ATOM      5  C   LIG d   1       8.995   2.608  -8.937  0.00  0.00     0.130 C 
ATOM      6  H   LIG d   1       9.747   3.037  -8.276  0.00  0.00     0.076 H 
ATOM      7  C   LIG d   1       9.659   1.598  -9.877  0.00  0.00    -0.011 C 
ATOM      8  C   LIG d   1      10.372   0.525  -9.049  0.00  0.00    -0.018 C 
ATOM      9  C   LIG d   1       9.361  -0.127  -8.102  0.00  0.00     0.101 A 
ATOM     10  C   LIG d   1       9.694  -1.505  -7.533  0.00  0.00     0.078 A 
ATOM     11  O   LIG d   1       8.700  -1.312  -8.543  0.00  0.00    -0.368 OA
ATOM     12  H   LIG d   1       8.899   1.130 -10.503  0.00  0.00     0.030 H 
ATOM     13  H   LIG d   1      10.384   2.112 -10.507  0.00  0.00     0.030 H 
ATOM     14  H   LIG d   1      10.789  -0.232  -9.715  0.00  0.00     0.029 H 
ATOM     15  H   LIG d   1      11.171   0.983  -8.467  0.00  0.00     0.029 H 
ATOM     16  H   LIG d   1      10.637  -1.962  -7.830  0.00  0.00     0.059 H 
ATOM     17  H   LIG d   1       9.355  -1.733  -6.523  0.00  0.00     0.059 H 
ENDROOT
BRANCH   1  18
ATOM     18  C   LIG d   1       7.497   0.081  -6.447  0.00  0.00     0.102 A 
ATOM     19  C   LIG d   1       7.761  -0.241  -4.975  0.00  0.00     0.092 A 
ATOM     20  H   LIG d   1       8.708   0.088  -4.547  0.00  0.00     0.063 H 
ATOM     21  O   LIG d   1       6.830   0.764  -5.381  0.00  0.00    -0.364 OA
BRANCH  19  22
ATOM     22  C   LIG d   1       7.201  -1.551  -4.421  0.00  0.00    -0.005 C 
ATOM     23  H   LIG d   1       8.023  -2.204  -4.130  0.00  0.00     0.033 H 
ATOM     24  H   LIG d   1       6.600  -2.042  -5.187  0.00  0.00     0.033 H 
BRANCH  22  25
ATOM     25  C   LIG d   1       6.341  -1.260  -3.218  0.00  0.00    -0.083 C 
ATOM     26  C   LIG d   1       5.181  -1.854  -3.082  0.00  0.00    -0.080 C 
ATOM     27  H   LIG d   1       6.680  -0.561  -2.468  0.00  0.00     0.057 H 
BRANCH  26  28
ATOM     28  C   LIG d   1       4.759  -2.916  -4.065  0.00  0.00    -0.044 C 
ATOM     29  H   LIG d   1       5.643  -3.406  -4.473  0.00  0.00     0.027 H 
ATOM     30  H   LIG d   1       4.137  -3.654  -3.559  0.00  0.00     0.027 H 
ATOM     31  H   LIG d   1       4.192  -2.457  -4.874  0.00  0.00     0.027 H 
ENDBRANCH  26  28
BRANCH  26  32
ATOM     32  C   LIG d   1       4.269  -1.477  -1.943  0.00  0.00    -0.044 C 
ATOM     33  H   LIG d   1       3.986  -2.373  -1.392  0.00  0.00     0.027 H 
ATOM     34  H   LIG d   1       4.787  -0.787  -1.277  0.00  0.00     0.027 H 
ATOM     35  H   LIG d   1       3.373  -0.996  -2.339  0.00  0.00     0.027 H 
ENDBRANCH  26  32
ENDBRANCH  22  25
ENDBRANCH  19  22
BRANCH  18  36
ATOM     36  C   LIG d   1       6.689  -0.928  -7.264  0.00  0.00    -0.033 C 
ATOM     37  H   LIG d   1       5.657  -0.939  -6.911  0.00  0.00     0.026 H 
ATOM     38  H   LIG d   1       6.709  -0.644  -8.316  0.00  0.00     0.026 H 
ATOM     39  H   LIG d   1       7.123  -1.921  -7.147  0.00  0.00     0.026 H 
ENDBRANCH  18  36
ENDBRANCH   1  18
BRANCH   3  40
ATOM     40  O   LIG d   1       6.971   1.287  -8.969  0.00  0.00    -0.376 OA
BRANCH  40  41
ATOM     41  C   LIG d   1       5.713   1.963  -9.032  0.00  0.00     0.037 C 
ATOM     42  H   LIG d   1       5.845   2.930  -9.516  0.00  0.00     0.052 H 
ATOM     43  H   LIG d   1       5.008   1.362  -9.606  0.00  0.00     0.052 H 
ATOM     44  H   LIG d   1       5.329   2.110  -8.023  0.00  0.00     0.052 H 
ENDBRANCH  40  41
ENDBRANCH   3  40
BRANCH   5  45
ATOM     45  O   LIG d   1       8.392   3.648  -9.711  0.00  0.00    -0.456 OA
BRANCH  45  46
ATOM     46  C   LIG d   1       8.788   4.912  -9.450  0.00  0.00     0.332 C 
ATOM     47  O   LIG d   1       8.574   5.795 -10.258  0.00  0.00    -0.246 OA
BRANCH  46  48
ATOM     48  C   LIG d   1       9.475   5.218  -8.197  0.00  0.00     0.022 C 
ATOM     49  C   LIG d   1       9.398   6.466  -7.669  0.00  0.00    -0.055 C 
ATOM     50  H   LIG d   1       8.830   7.233  -8.176  0.00  0.00     0.062 H 
ATOM     51  H   LIG d   1      10.043   4.452  -7.691  0.00  0.00     0.069 H 
BRANCH  49  52
ATOM     52  C   LIG d   1      10.061   6.763  -6.460  0.00  0.00    -0.061 C 
ATOM     53  C   LIG d   1       9.356   6.835  -5.297  0.00  0.00    -0.062 C 
ATOM     54  H   LIG d   1       8.290   6.665  -5.301  0.00  0.00     0.062 H 
ATOM     55  H   LIG d   1      11.128   6.932  -6.456  0.00  0.00     0.062 H 
BRANCH  53  56
ATOM     56  C   LIG d   1      10.019   7.130  -4.090  0.00  0.00    -0.062 C 
ATOM     57  C   LIG d   1       9.812   6.351  -2.992  0.00  0.00    -0.062 C 
ATOM     58  H   LIG d   1       9.140   5.507  -3.048  0.00  0.00     0.062 H 
ATOM     59  H   LIG d   1      10.690   7.974  -4.033  0.00  0.00     0.062 H 
BRANCH  57  60
ATOM     60  C   LIG d   1      10.475   6.647  -1.784  0.00  0.00    -0.060 C 
ATOM     61  C   LIG d   1      10.665   5.669  -0.857  0.00  0.00    -0.039 C 
ATOM     62  H   LIG d   1      10.308   4.667  -1.046  0.00  0.00     0.064 H 
ATOM     63  H   LIG d   1      10.831   7.648  -1.594  0.00  0.00     0.062 H 
BRANCH  61  64
ATOM     64  C   LIG d   1      11.330   5.966   0.355  0.00  0.00     0.065 C 
ATOM     65  O   LIG d   1      12.529   6.217   0.351  0.00  0.00    -0.545 OA
ATOM     66  O   LIG d   1      10.706   5.971   1.410  0.00  0.00    -0.545 OA
ENDBRANCH  61  64
ENDBRANCH  57  60
ENDBRANCH  53  56
ENDBRANCH  49  52
ENDBRANCH  46  48
ENDBRANCH  45  46
ENDBRANCH   5  45
TORSDOF 15
ENDMDL
