MODEL 1
REMARK VINA RESULT:      -5.8      0.000      0.000
REMARK  8 active torsions:
REMARK  status: ('A' for Active; 'I' for Inactive)
REMARK    1  A    between atoms: C_1  and  C_2 
REMARK    2  A    between atoms: C_2  and  C_3 
REMARK    3  A    between atoms: C_3  and  O_5 
REMARK    4  A    between atoms: O_5  and  C_6 
REMARK    5  A    between atoms: C_6  and  C_7 
REMARK    6  A    between atoms: C_11  and  C_15 
REMARK    7  A    between atoms: C_16  and  C_21 
REMARK    8  A    between atoms: C_18  and  C_20 
ROOT
ATOM      1  C   LIG d   1       5.282  -2.283  -4.353  0.00  0.00     0.035 C 
ATOM      2  C   LIG d   1       4.040  -2.358  -3.433  0.00  0.00    -0.033 C 
ATOM      3  C   LIG d   1       3.625  -0.911  -3.125  0.00  0.00     0.007 C 
ATOM      4  H   LIG d   1       2.780  -0.890  -2.435  0.00  0.00     0.037 H 
ATOM      5  C   LIG d   1       3.256  -0.239  -4.460  0.00  0.00     0.062 C 
ATOM      6  H   LIG d   1       2.486  -0.822  -4.966  0.00  0.00     0.060 H 
ATOM      7  O   LIG d   1       4.438  -0.193  -5.265  0.00  0.00    -0.376 OA
ATOM      8  C   LIG d   1       4.967  -1.474  -5.603  0.00  0.00     0.057 C 
ATOM      9  C   LIG d   1       4.801  -0.163  -2.551  0.00  0.00    -0.071 C 
ATOM     10  C   LIG d   1       5.993  -0.501  -2.756  0.00  0.00    -0.081 C 
ATOM     11  C   LIG d   1       6.442  -1.676  -3.572  0.00  0.00    -0.015 C 
ATOM     12  H   LIG d   1       6.861  -2.431  -2.908  0.00  0.00     0.035 H 
ATOM     13  H   LIG d   1       4.299  -2.872  -2.508  0.00  0.00     0.028 H 
ATOM     14  H   LIG d   1       3.222  -2.879  -3.930  0.00  0.00     0.028 H 
ATOM     15  H   LIG d   1       4.236  -2.016  -6.204  0.00  0.00     0.057 H 
ATOM     16  H   LIG d   1       5.880  -1.343  -6.184  0.00  0.00     0.057 H 
ATOM     17  H   LIG d   1       6.756   0.117  -2.309  0.00  0.00     0.058 H 
ENDROOT
BRANCH   1  18
ATOM     18  C   LIG d   1       5.663  -3.705  -4.770  0.00  0.00     0.101 C 
ATOM     19  H   LIG d   1       6.080  -3.689  -5.777  0.00  0.00     0.070 H 
ATOM     20  H   LIG d   1       6.405  -4.101  -4.076  0.00  0.00     0.070 H 
BRANCH  18  21
ATOM     21  O   LIG d   1       4.481  -4.550  -4.748  0.00  0.00    -0.464 OA
BRANCH  21  22
ATOM     22  C   LIG d   1       4.340  -5.425  -5.756  0.00  0.00     0.307 C 
ATOM     23  O   LIG d   1       3.336  -5.415  -6.429  0.00  0.00    -0.251 OA
BRANCH  22  24
ATOM     24  C   LIG d   1       5.433  -6.420  -6.049  0.00  0.00     0.042 C 
ATOM     25  H   LIG d   1       5.498  -6.583  -7.125  0.00  0.00     0.037 H 
ATOM     26  H   LIG d   1       6.384  -6.033  -5.682  0.00  0.00     0.037 H 
BRANCH  24  27
ATOM     27  C   LIG d   1       5.118  -7.744  -5.351  0.00  0.00    -0.055 C 
ATOM     28  H   LIG d   1       5.943  -8.013  -4.692  0.00  0.00     0.024 H 
ATOM     29  H   LIG d   1       4.205  -7.636  -4.762  0.00  0.00     0.024 H 
ATOM     30  H   LIG d   1       4.979  -8.525  -6.097  0.00  0.00     0.024 H 
ENDBRANCH  24  27
ENDBRANCH  22  24
ENDBRANCH  21  22
ENDBRANCH  18  21
ENDBRANCH   1  18
BRANCH  11  31
ATOM     31  C   LIG d   1       7.521  -1.219  -4.555  0.00  0.00    -0.058 C 
ATOM     32  H   LIG d   1       7.102  -1.170  -5.560  0.00  0.00     0.024 H 
ATOM     33  H   LIG d   1       7.883  -0.233  -4.264  0.00  0.00     0.024 H 
ATOM     34  H   LIG d   1       8.349  -1.928  -4.541  0.00  0.00     0.024 H 
ENDBRANCH  11  31
BRANCH   5  35
ATOM     35  C   LIG d   1       2.745   1.180  -4.203  0.00  0.00    -0.038 C 
ATOM     36  H   LIG d   1       1.939   1.148  -3.472  0.00  0.00     0.025 H 
ATOM     37  H   LIG d   1       3.559   1.795  -3.821  0.00  0.00     0.025 H 
ATOM     38  H   LIG d   1       2.374   1.606  -5.135  0.00  0.00     0.025 H 
ENDBRANCH   5  35
BRANCH   9  39
ATOM     39  C   LIG d   1       4.533   1.040  -1.686  0.00  0.00    -0.043 C 
ATOM     40  H   LIG d   1       3.705   1.613  -2.106  0.00  0.00     0.027 H 
ATOM     41  H   LIG d   1       4.274   0.714  -0.678  0.00  0.00     0.027 H 
ATOM     42  H   LIG d   1       5.425   1.666  -1.648  0.00  0.00     0.027 H 
ENDBRANCH   9  39
TORSDOF 8
ENDMDL
MODEL 2
REMARK VINA RESULT:      -5.6      2.933      4.910
REMARK  8 active torsions:
REMARK  status: ('A' for Active; 'I' for Inactive)
REMARK    1  A    between atoms: C_1  and  C_2 
REMARK    2  A    between atoms: C_2  and  C_3 
REMARK    3  A    between atoms: C_3  and  O_5 
REMARK    4  A    between atoms: O_5  and  C_6 
REMARK    5  A    between atoms: C_6  and  C_7 
REMARK    6  A    between atoms: C_11  and  C_15 
REMARK    7  A    between atoms: C_16  and  C_21 
REMARK    8  A    between atoms: C_18  and  C_20 
ROOT
ATOM      1  C   LIG d   1       5.308  -0.700  -5.829  0.00  0.00     0.035 C 
ATOM      2  C   LIG d   1       3.865  -0.291  -5.450  0.00  0.00    -0.033 C 
ATOM      3  C   LIG d   1       3.757  -0.398  -3.921  0.00  0.00     0.007 C 
ATOM      4  H   LIG d   1       2.744  -0.171  -3.588  0.00  0.00     0.037 H 
ATOM      5  C   LIG d   1       4.767   0.593  -3.314  0.00  0.00     0.062 C 
ATOM      6  H   LIG d   1       4.580   1.594  -3.701  0.00  0.00     0.060 H 
ATOM      7  O   LIG d   1       6.079   0.164  -3.691  0.00  0.00    -0.376 OA
ATOM      8  C   LIG d   1       6.316   0.174  -5.098  0.00  0.00     0.057 C 
ATOM      9  C   LIG d   1       4.163  -1.783  -3.486  0.00  0.00    -0.071 C 
ATOM     10  C   LIG d   1       4.912  -2.524  -4.170  0.00  0.00    -0.081 C 
ATOM     11  C   LIG d   1       5.506  -2.176  -5.502  0.00  0.00    -0.015 C 
ATOM     12  H   LIG d   1       5.030  -2.781  -6.273  0.00  0.00     0.035 H 
ATOM     13  H   LIG d   1       3.155  -0.972  -5.918  0.00  0.00     0.028 H 
ATOM     14  H   LIG d   1       3.660   0.732  -5.763  0.00  0.00     0.028 H 
ATOM     15  H   LIG d   1       6.236   1.196  -5.466  0.00  0.00     0.057 H 
ATOM     16  H   LIG d   1       7.322  -0.199  -5.293  0.00  0.00     0.057 H 
ATOM     17  H   LIG d   1       5.150  -3.490  -3.753  0.00  0.00     0.058 H 
ENDROOT
BRANCH   1  18
ATOM     18  C   LIG d   1       5.488  -0.504  -7.336  0.00  0.00     0.101 C 
ATOM     19  H   LIG d   1       6.327  -1.107  -7.683  0.00  0.00     0.070 H 
ATOM     20  H   LIG d   1       4.580  -0.814  -7.853  0.00  0.00     0.070 H 
BRANCH  18  21
ATOM     21  O   LIG d   1       5.749   0.897  -7.614  0.00  0.00    -0.464 OA
BRANCH  21  22
ATOM     22  C   LIG d   1       5.258   1.392  -8.761  0.00  0.00     0.307 C 
ATOM     23  O   LIG d   1       5.956   2.075  -9.472  0.00  0.00    -0.251 OA
BRANCH  22  24
ATOM     24  C   LIG d   1       3.836   1.095  -9.161  0.00  0.00     0.042 C 
ATOM     25  H   LIG d   1       3.734   1.196 -10.242  0.00  0.00     0.037 H 
ATOM     26  H   LIG d   1       3.580   0.078  -8.864  0.00  0.00     0.037 H 
BRANCH  24  27
ATOM     27  C   LIG d   1       2.894   2.081  -8.467  0.00  0.00    -0.055 C 
ATOM     28  H   LIG d   1       2.463   2.755  -9.206  0.00  0.00     0.024 H 
ATOM     29  H   LIG d   1       2.095   1.530  -7.968  0.00  0.00     0.024 H 
ATOM     30  H   LIG d   1       3.451   2.658  -7.729  0.00  0.00     0.024 H 
ENDBRANCH  24  27
ENDBRANCH  22  24
ENDBRANCH  21  22
ENDBRANCH  18  21
ENDBRANCH   1  18
BRANCH  11  31
ATOM     31  C   LIG d   1       7.004  -2.486  -5.476  0.00  0.00    -0.058 C 
ATOM     32  H   LIG d   1       7.487  -2.023  -6.337  0.00  0.00     0.024 H 
ATOM     33  H   LIG d   1       7.441  -2.091  -4.559  0.00  0.00     0.024 H 
ATOM     34  H   LIG d   1       7.152  -3.565  -5.514  0.00  0.00     0.024 H 
ENDBRANCH  11  31
BRANCH   5  35
ATOM     35  C   LIG d   1       4.638   0.595  -1.789  0.00  0.00    -0.038 C 
ATOM     36  H   LIG d   1       3.587   0.518  -1.513  0.00  0.00     0.025 H 
ATOM     37  H   LIG d   1       5.185  -0.253  -1.377  0.00  0.00     0.025 H 
ATOM     38  H   LIG d   1       5.051   1.522  -1.391  0.00  0.00     0.025 H 
ENDBRANCH   5  35
BRANCH   9  39
ATOM     39  C   LIG d   1       3.640  -2.305  -2.173  0.00  0.00    -0.043 C 
ATOM     40  H   LIG d   1       3.111  -3.245  -2.341  0.00  0.00     0.027 H 
ATOM     41  H   LIG d   1       4.472  -2.474  -1.491  0.00  0.00     0.027 H 
ATOM     42  H   LIG d   1       2.955  -1.577  -1.739  0.00  0.00     0.027 H 
ENDBRANCH   9  39
TORSDOF 8
ENDMDL
MODEL 3
REMARK VINA RESULT:      -5.5      3.131      5.220
REMARK  8 active torsions:
REMARK  status: ('A' for Active; 'I' for Inactive)
REMARK    1  A    between atoms: C_1  and  C_2 
REMARK    2  A    between atoms: C_2  and  C_3 
REMARK    3  A    between atoms: C_3  and  O_5 
REMARK    4  A    between atoms: O_5  and  C_6 
REMARK    5  A    between atoms: C_6  and  C_7 
REMARK    6  A    between atoms: C_11  and  C_15 
REMARK    7  A    between atoms: C_16  and  C_21 
REMARK    8  A    between atoms: C_18  and  C_20 
ROOT
ATOM      1  C   LIG d   1       4.477  -0.763  -6.725  0.00  0.00     0.035 C 
ATOM      2  C   LIG d   1       3.258   0.168  -6.526  0.00  0.00    -0.033 C 
ATOM      3  C   LIG d   1       2.773   0.575  -7.926  0.00  0.00     0.007 C 
ATOM      4  H   LIG d   1       1.941   1.276  -7.857  0.00  0.00     0.037 H 
ATOM      5  C   LIG d   1       2.346  -0.709  -8.661  0.00  0.00     0.062 C 
ATOM      6  H   LIG d   1       1.599  -1.241  -8.072  0.00  0.00     0.060 H 
ATOM      7  O   LIG d   1       3.510  -1.526  -8.822  0.00  0.00    -0.376 OA
ATOM      8  C   LIG d   1       4.099  -1.954  -7.595  0.00  0.00     0.057 C 
ATOM      9  C   LIG d   1       3.919   1.179  -8.697  0.00  0.00    -0.071 C 
ATOM     10  C   LIG d   1       5.124   0.936  -8.436  0.00  0.00    -0.081 C 
ATOM     11  C   LIG d   1       5.618   0.039  -7.342  0.00  0.00    -0.015 C 
ATOM     12  H   LIG d   1       6.087   0.646  -6.569  0.00  0.00     0.035 H 
ATOM     13  H   LIG d   1       3.560   1.054  -5.968  0.00  0.00     0.028 H 
ATOM     14  H   LIG d   1       2.460  -0.351  -5.995  0.00  0.00     0.028 H 
ATOM     15  H   LIG d   1       3.387  -2.578  -7.055  0.00  0.00     0.057 H 
ATOM     16  H   LIG d   1       4.993  -2.538  -7.812  0.00  0.00     0.057 H 
ATOM     17  H   LIG d   1       5.861   1.411  -9.065  0.00  0.00     0.058 H 
ENDROOT
BRANCH   1  18
ATOM     18  C   LIG d   1       4.925  -1.277  -5.356  0.00  0.00     0.101 C 
ATOM     19  H   LIG d   1       5.165  -2.338  -5.426  0.00  0.00     0.070 H 
ATOM     20  H   LIG d   1       5.808  -0.726  -5.031  0.00  0.00     0.070 H 
BRANCH  18  21
ATOM     21  O   LIG d   1       3.854  -1.086  -4.393  0.00  0.00    -0.464 OA
BRANCH  21  22
ATOM     22  C   LIG d   1       4.011  -1.653  -3.186  0.00  0.00     0.307 C 
ATOM     23  O   LIG d   1       3.926  -2.852  -3.067  0.00  0.00    -0.251 OA
BRANCH  22  24
ATOM     24  C   LIG d   1       4.295  -0.793  -1.981  0.00  0.00     0.042 C 
ATOM     25  H   LIG d   1       3.747  -1.181  -1.121  0.00  0.00     0.037 H 
ATOM     26  H   LIG d   1       5.363  -0.807  -1.768  0.00  0.00     0.037 H 
BRANCH  24  27
ATOM     27  C   LIG d   1       3.850   0.643  -2.263  0.00  0.00    -0.055 C 
ATOM     28  H   LIG d   1       4.441   1.332  -1.660  0.00  0.00     0.024 H 
ATOM     29  H   LIG d   1       3.998   0.868  -3.320  0.00  0.00     0.024 H 
ATOM     30  H   LIG d   1       2.795   0.753  -2.013  0.00  0.00     0.024 H 
ENDBRANCH  24  27
ENDBRANCH  22  24
ENDBRANCH  21  22
ENDBRANCH  18  21
ENDBRANCH   1  18
BRANCH  11  31
ATOM     31  C   LIG d   1       6.655  -0.928  -7.918  0.00  0.00    -0.058 C 
ATOM     32  H   LIG d   1       6.577  -1.890  -7.412  0.00  0.00     0.024 H 
ATOM     33  H   LIG d   1       6.473  -1.062  -8.984  0.00  0.00     0.024 H 
ATOM     34  H   LIG d   1       7.654  -0.519  -7.769  0.00  0.00     0.024 H 
ENDBRANCH  11  31
BRANCH   5  35
ATOM     35  C   LIG d   1       1.767  -0.353 -10.032  0.00  0.00    -0.038 C 
ATOM     36  H   LIG d   1       2.296   0.509 -10.437  0.00  0.00     0.025 H 
ATOM     37  H   LIG d   1       1.883  -1.201 -10.706  0.00  0.00     0.025 H 
ATOM     38  H   LIG d   1       0.709  -0.114  -9.928  0.00  0.00     0.025 H 
ENDBRANCH   5  35
BRANCH   9  39
ATOM     39  C   LIG d   1       3.604   2.125  -9.827  0.00  0.00    -0.043 C 
ATOM     40  H   LIG d   1       4.435   2.135 -10.534  0.00  0.00     0.027 H 
ATOM     41  H   LIG d   1       2.698   1.796 -10.336  0.00  0.00     0.027 H 
ATOM     42  H   LIG d   1       3.454   3.128  -9.429  0.00  0.00     0.027 H 
ENDBRANCH   9  39
TORSDOF 8
ENDMDL
MODEL 4
REMARK VINA RESULT:      -5.1      3.836      6.611
REMARK  8 active torsions:
REMARK  status: ('A' for Active; 'I' for Inactive)
REMARK    1  A    between atoms: C_1  and  C_2 
REMARK    2  A    between atoms: C_2  and  C_3 
REMARK    3  A    between atoms: C_3  and  O_5 
REMARK    4  A    between atoms: O_5  and  C_6 
REMARK    5  A    between atoms: C_6  and  C_7 
REMARK    6  A    between atoms: C_11  and  C_15 
REMARK    7  A    between atoms: C_16  and  C_21 
REMARK    8  A    between atoms: C_18  and  C_20 
ROOT
ATOM      1  C   LIG d   1       3.399   0.005  -7.895  0.00  0.00     0.035 C 
ATOM      2  C   LIG d   1       3.164  -1.455  -8.348  0.00  0.00    -0.033 C 
ATOM      3  C   LIG d   1       3.880  -1.627  -9.696  0.00  0.00     0.007 C 
ATOM      4  H   LIG d   1       3.711  -2.626 -10.098  0.00  0.00     0.037 H 
ATOM      5  C   LIG d   1       5.381  -1.380  -9.459  0.00  0.00     0.062 C 
ATOM      6  H   LIG d   1       5.746  -2.046  -8.676  0.00  0.00     0.060 H 
ATOM      7  O   LIG d   1       5.539  -0.018  -9.050  0.00  0.00    -0.376 OA
ATOM      8  C   LIG d   1       4.889   0.303  -7.820  0.00  0.00     0.057 C 
ATOM      9  C   LIG d   1       3.394  -0.574 -10.659  0.00  0.00    -0.071 C 
ATOM     10  C   LIG d   1       2.894   0.516 -10.286  0.00  0.00    -0.081 C 
ATOM     11  C   LIG d   1       2.689   0.944  -8.864  0.00  0.00    -0.015 C 
ATOM     12  H   LIG d   1       1.622   0.947  -8.644  0.00  0.00     0.035 H 
ATOM     13  H   LIG d   1       2.096  -1.634  -8.472  0.00  0.00     0.028 H 
ATOM     14  H   LIG d   1       3.574  -2.155  -7.620  0.00  0.00     0.028 H 
ATOM     15  H   LIG d   1       5.332  -0.287  -7.018  0.00  0.00     0.057 H 
ATOM     16  H   LIG d   1       5.032   1.362  -7.606  0.00  0.00     0.057 H 
ATOM     17  H   LIG d   1       2.595   1.203 -11.063  0.00  0.00     0.058 H 
ENDROOT
BRANCH   1  18
ATOM     18  C   LIG d   1       2.790   0.186  -6.503  0.00  0.00     0.101 C 
ATOM     19  H   LIG d   1       2.315   1.165  -6.439  0.00  0.00     0.070 H 
ATOM     20  H   LIG d   1       2.046  -0.591  -6.328  0.00  0.00     0.070 H 
BRANCH  18  21
ATOM     21  O   LIG d   1       3.837   0.089  -5.501  0.00  0.00    -0.464 OA
BRANCH  21  22
ATOM     22  C   LIG d   1       3.482   0.315  -4.226  0.00  0.00     0.307 C 
ATOM     23  O   LIG d   1       3.839   1.326  -3.670  0.00  0.00    -0.251 OA
BRANCH  22  24
ATOM     24  C   LIG d   1       2.638  -0.693  -3.489  0.00  0.00     0.042 C 
ATOM     25  H   LIG d   1       1.945  -0.172  -2.828  0.00  0.00     0.037 H 
ATOM     26  H   LIG d   1       2.077  -1.291  -4.207  0.00  0.00     0.037 H 
BRANCH  24  27
ATOM     27  C   LIG d   1       3.543  -1.607  -2.661  0.00  0.00    -0.055 C 
ATOM     28  H   LIG d   1       3.203  -1.614  -1.626  0.00  0.00     0.024 H 
ATOM     29  H   LIG d   1       3.501  -2.621  -3.063  0.00  0.00     0.024 H 
ATOM     30  H   LIG d   1       4.568  -1.241  -2.705  0.00  0.00     0.024 H 
ENDBRANCH  24  27
ENDBRANCH  22  24
ENDBRANCH  21  22
ENDBRANCH  18  21
ENDBRANCH   1  18
BRANCH  11  31
ATOM     31  C   LIG d   1       3.242   2.360  -8.684  0.00  0.00    -0.058 C 
ATOM     32  H   LIG d   1       4.331   2.328  -8.683  0.00  0.00     0.024 H 
ATOM     33  H   LIG d   1       2.897   2.991  -9.503  0.00  0.00     0.024 H 
ATOM     34  H   LIG d   1       2.889   2.769  -7.738  0.00  0.00     0.024 H 
ENDBRANCH  11  31
BRANCH   5  35
ATOM     35  C   LIG d   1       6.158  -1.628 -10.753  0.00  0.00    -0.038 C 
ATOM     36  H   LIG d   1       5.534  -1.367 -11.607  0.00  0.00     0.025 H 
ATOM     37  H   LIG d   1       7.058  -1.013 -10.760  0.00  0.00     0.025 H 
ATOM     38  H   LIG d   1       6.436  -2.680 -10.814  0.00  0.00     0.025 H 
ENDBRANCH   5  35
BRANCH   9  39
ATOM     39  C   LIG d   1       3.506  -0.846 -12.136  0.00  0.00    -0.043 C 
ATOM     40  H   LIG d   1       4.454  -1.346 -12.343  0.00  0.00     0.027 H 
ATOM     41  H   LIG d   1       2.683  -1.487 -12.452  0.00  0.00     0.027 H 
ATOM     42  H   LIG d   1       3.466   0.095 -12.683  0.00  0.00     0.027 H 
ENDBRANCH   9  39
TORSDOF 8
ENDMDL
MODEL 5
REMARK VINA RESULT:      -5.0      2.474      3.094
REMARK  8 active torsions:
REMARK  status: ('A' for Active; 'I' for Inactive)
REMARK    1  A    between atoms: C_1  and  C_2 
REMARK    2  A    between atoms: C_2  and  C_3 
REMARK    3  A    between atoms: C_3  and  O_5 
REMARK    4  A    between atoms: O_5  and  C_6 
REMARK    5  A    between atoms: C_6  and  C_7 
REMARK    6  A    between atoms: C_11  and  C_15 
REMARK    7  A    between atoms: C_16  and  C_21 
REMARK    8  A    between atoms: C_18  and  C_20 
ROOT
ATOM      1  C   LIG d   1       6.388  -1.726  -4.363  0.00  0.00     0.035 C 
ATOM      2  C   LIG d   1       5.847  -2.272  -3.021  0.00  0.00    -0.033 C 
ATOM      3  C   LIG d   1       4.706  -1.340  -2.586  0.00  0.00     0.007 C 
ATOM      4  H   LIG d   1       4.310  -1.640  -1.616  0.00  0.00     0.037 H 
ATOM      5  C   LIG d   1       3.612  -1.409  -3.667  0.00  0.00     0.062 C 
ATOM      6  H   LIG d   1       3.304  -2.444  -3.816  0.00  0.00     0.060 H 
ATOM      7  O   LIG d   1       4.164  -0.888  -4.880  0.00  0.00    -0.376 OA
ATOM      8  C   LIG d   1       5.268  -1.636  -5.389  0.00  0.00     0.057 C 
ATOM      9  C   LIG d   1       5.209   0.080  -2.541  0.00  0.00    -0.071 C 
ATOM     10  C   LIG d   1       6.200   0.477  -3.204  0.00  0.00    -0.081 C 
ATOM     11  C   LIG d   1       7.034  -0.366  -4.120  0.00  0.00    -0.015 C 
ATOM     12  H   LIG d   1       8.017  -0.512  -3.673  0.00  0.00     0.035 H 
ATOM     13  H   LIG d   1       6.639  -2.259  -2.273  0.00  0.00     0.028 H 
ATOM     14  H   LIG d   1       5.468  -3.287  -3.143  0.00  0.00     0.028 H 
ATOM     15  H   LIG d   1       4.932  -2.642  -5.640  0.00  0.00     0.057 H 
ATOM     16  H   LIG d   1       5.645  -1.150  -6.289  0.00  0.00     0.057 H 
ATOM     17  H   LIG d   1       6.461   1.520  -3.107  0.00  0.00     0.058 H 
ENDROOT
BRANCH   1  18
ATOM     18  C   LIG d   1       7.456  -2.689  -4.884  0.00  0.00     0.101 C 
ATOM     19  H   LIG d   1       7.025  -3.684  -4.998  0.00  0.00     0.070 H 
ATOM     20  H   LIG d   1       7.821  -2.340  -5.850  0.00  0.00     0.070 H 
BRANCH  18  21
ATOM     21  O   LIG d   1       8.560  -2.745  -3.942  0.00  0.00    -0.464 OA
BRANCH  21  22
ATOM     22  C   LIG d   1       9.057  -3.959  -3.656  0.00  0.00     0.307 C 
ATOM     23  O   LIG d   1       9.864  -4.087  -2.767  0.00  0.00    -0.251 OA
BRANCH  22  24
ATOM     24  C   LIG d   1       8.608  -5.161  -4.447  0.00  0.00     0.042 C 
ATOM     25  H   LIG d   1       8.080  -5.852  -3.789  0.00  0.00     0.037 H 
ATOM     26  H   LIG d   1       7.942  -4.841  -5.248  0.00  0.00     0.037 H 
BRANCH  24  27
ATOM     27  C   LIG d   1       9.828  -5.861  -5.048  0.00  0.00    -0.055 C 
ATOM     28  H   LIG d   1      10.666  -5.790  -4.355  0.00  0.00     0.024 H 
ATOM     29  H   LIG d   1       9.593  -6.911  -5.226  0.00  0.00     0.024 H 
ATOM     30  H   LIG d   1      10.094  -5.383  -5.990  0.00  0.00     0.024 H 
ENDBRANCH  24  27
ENDBRANCH  22  24
ENDBRANCH  21  22
ENDBRANCH  18  21
ENDBRANCH   1  18
BRANCH  11  31
ATOM     31  C   LIG d   1       7.194   0.358  -5.459  0.00  0.00    -0.058 C 
ATOM     32  H   LIG d   1       8.250   0.556  -5.641  0.00  0.00     0.024 H 
ATOM     33  H   LIG d   1       6.799  -0.267  -6.259  0.00  0.00     0.024 H 
ATOM     34  H   LIG d   1       6.647   1.299  -5.430  0.00  0.00     0.024 H 
ENDBRANCH  11  31
BRANCH   5  35
ATOM     35  C   LIG d   1       2.407  -0.567  -3.241  0.00  0.00    -0.038 C 
ATOM     36  H   LIG d   1       2.115   0.089  -4.060  0.00  0.00     0.025 H 
ATOM     37  H   LIG d   1       1.576  -1.225  -2.988  0.00  0.00     0.025 H 
ATOM     38  H   LIG d   1       2.674   0.033  -2.371  0.00  0.00     0.025 H 
ENDBRANCH   5  35
BRANCH   9  39
ATOM     39  C   LIG d   1       4.497   1.067  -1.653  0.00  0.00    -0.043 C 
ATOM     40  H   LIG d   1       4.566   2.064  -2.089  0.00  0.00     0.027 H 
ATOM     41  H   LIG d   1       3.448   0.783  -1.561  0.00  0.00     0.027 H 
ATOM     42  H   LIG d   1       4.961   1.069  -0.667  0.00  0.00     0.027 H 
ENDBRANCH   9  39
TORSDOF 8
ENDMDL
MODEL 6
REMARK VINA RESULT:      -4.8      3.181      5.125
REMARK  8 active torsions:
REMARK  status: ('A' for Active; 'I' for Inactive)
REMARK    1  A    between atoms: C_1  and  C_2 
REMARK    2  A    between atoms: C_2  and  C_3 
REMARK    3  A    between atoms: C_3  and  O_5 
REMARK    4  A    between atoms: O_5  and  C_6 
REMARK    5  A    between atoms: C_6  and  C_7 
REMARK    6  A    between atoms: C_11  and  C_15 
REMARK    7  A    between atoms: C_16  and  C_21 
REMARK    8  A    between atoms: C_18  and  C_20 
ROOT
ATOM      1  C   LIG d   1       6.454  -0.683  -5.248  0.00  0.00     0.035 C 
ATOM      2  C   LIG d   1       4.961  -0.294  -5.365  0.00  0.00    -0.033 C 
ATOM      3  C   LIG d   1       4.378  -0.324  -3.944  0.00  0.00     0.007 C 
ATOM      4  H   LIG d   1       3.310  -0.107  -3.960  0.00  0.00     0.037 H 
ATOM      5  C   LIG d   1       5.137   0.724  -3.109  0.00  0.00     0.062 C 
ATOM      6  H   LIG d   1       5.072   1.699  -3.593  0.00  0.00     0.060 H 
ATOM      7  O   LIG d   1       6.504   0.312  -3.030  0.00  0.00    -0.376 OA
ATOM      8  C   LIG d   1       7.173   0.255  -4.289  0.00  0.00     0.057 C 
ATOM      9  C   LIG d   1       4.640  -1.672  -3.324  0.00  0.00    -0.071 C 
ATOM     10  C   LIG d   1       5.573  -2.428  -3.694  0.00  0.00    -0.081 C 
ATOM     11  C   LIG d   1       6.553  -2.134  -4.790  0.00  0.00    -0.015 C 
ATOM     12  H   LIG d   1       6.349  -2.791  -5.635  0.00  0.00     0.035 H 
ATOM     13  H   LIG d   1       4.441  -1.018  -5.992  0.00  0.00     0.028 H 
ATOM     14  H   LIG d   1       4.856   0.706  -5.786  0.00  0.00     0.028 H 
ATOM     15  H   LIG d   1       7.203   1.254  -4.723  0.00  0.00     0.057 H 
ATOM     16  H   LIG d   1       8.192  -0.100  -4.138  0.00  0.00     0.057 H 
ATOM     17  H   LIG d   1       5.677  -3.364  -3.168  0.00  0.00     0.058 H 
ENDROOT
BRANCH   1  18
ATOM     18  C   LIG d   1       7.097  -0.561  -6.631  0.00  0.00     0.101 C 
ATOM     19  H   LIG d   1       7.777  -1.398  -6.791  0.00  0.00     0.070 H 
ATOM     20  H   LIG d   1       6.320  -0.574  -7.396  0.00  0.00     0.070 H 
BRANCH  18  21
ATOM     21  O   LIG d   1       7.836   0.686  -6.713  0.00  0.00    -0.464 OA
BRANCH  21  22
ATOM     22  C   LIG d   1       7.475   1.546  -7.678  0.00  0.00     0.307 C 
ATOM     23  O   LIG d   1       6.324   1.595  -8.044  0.00  0.00    -0.251 OA
BRANCH  22  24
ATOM     24  C   LIG d   1       8.505   2.450  -8.306  0.00  0.00     0.042 C 
ATOM     25  H   LIG d   1       8.104   3.461  -8.380  0.00  0.00     0.037 H 
ATOM     26  H   LIG d   1       9.403   2.459  -7.690  0.00  0.00     0.037 H 
BRANCH  24  27
ATOM     27  C   LIG d   1       8.851   1.935  -9.704  0.00  0.00    -0.055 C 
ATOM     28  H   LIG d   1       8.987   2.779 -10.379  0.00  0.00     0.024 H 
ATOM     29  H   LIG d   1       9.773   1.354  -9.659  0.00  0.00     0.024 H 
ATOM     30  H   LIG d   1       8.042   1.304 -10.070  0.00  0.00     0.024 H 
ENDBRANCH  24  27
ENDBRANCH  22  24
ENDBRANCH  21  22
ENDBRANCH  18  21
ENDBRANCH   1  18
BRANCH  11  31
ATOM     31  C   LIG d   1       7.970  -2.401  -4.278  0.00  0.00    -0.058 C 
ATOM     32  H   LIG d   1       8.406  -3.234  -4.830  0.00  0.00     0.024 H 
ATOM     33  H   LIG d   1       8.581  -1.511  -4.421  0.00  0.00     0.024 H 
ATOM     34  H   LIG d   1       7.931  -2.649  -3.218  0.00  0.00     0.024 H 
ENDBRANCH  11  31
BRANCH   5  35
ATOM     35  C   LIG d   1       4.535   0.803  -1.705  0.00  0.00    -0.038 C 
ATOM     36  H   LIG d   1       4.592   1.829  -1.342  0.00  0.00     0.025 H 
ATOM     37  H   LIG d   1       3.492   0.487  -1.738  0.00  0.00     0.025 H 
ATOM     38  H   LIG d   1       5.091   0.149  -1.034  0.00  0.00     0.025 H 
ENDBRANCH   5  35
BRANCH   9  39
ATOM     39  C   LIG d   1       3.735  -2.140  -2.214  0.00  0.00    -0.043 C 
ATOM     40  H   LIG d   1       4.339  -2.514  -1.386  0.00  0.00     0.027 H 
ATOM     41  H   LIG d   1       3.123  -1.306  -1.868  0.00  0.00     0.027 H 
ATOM     42  H   LIG d   1       3.090  -2.937  -2.582  0.00  0.00     0.027 H 
ENDBRANCH   9  39
TORSDOF 8
ENDMDL
MODEL 7
REMARK VINA RESULT:      -4.7      1.280      2.203
REMARK  8 active torsions:
REMARK  status: ('A' for Active; 'I' for Inactive)
REMARK    1  A    between atoms: C_1  and  C_2 
REMARK    2  A    between atoms: C_2  and  C_3 
REMARK    3  A    between atoms: C_3  and  O_5 
REMARK    4  A    between atoms: O_5  and  C_6 
REMARK    5  A    between atoms: C_6  and  C_7 
REMARK    6  A    between atoms: C_11  and  C_15 
REMARK    7  A    between atoms: C_16  and  C_21 
REMARK    8  A    between atoms: C_18  and  C_20 
ROOT
ATOM      1  C   LIG d   1       5.149  -1.557  -5.524  0.00  0.00     0.035 C 
ATOM      2  C   LIG d   1       5.816  -1.954  -4.186  0.00  0.00    -0.033 C 
ATOM      3  C   LIG d   1       6.113  -0.650  -3.430  0.00  0.00     0.007 C 
ATOM      4  H   LIG d   1       6.632  -0.855  -2.494  0.00  0.00     0.037 H 
ATOM      5  C   LIG d   1       4.766   0.050  -3.165  0.00  0.00     0.062 C 
ATOM      6  H   LIG d   1       4.097  -0.627  -2.634  0.00  0.00     0.060 H 
ATOM      7  O   LIG d   1       4.200   0.397  -4.432  0.00  0.00    -0.376 OA
ATOM      8  C   LIG d   1       3.904  -0.721  -5.268  0.00  0.00     0.057 C 
ATOM      9  C   LIG d   1       6.932   0.262  -4.306  0.00  0.00    -0.071 C 
ATOM     10  C   LIG d   1       6.937   0.184  -5.560  0.00  0.00    -0.081 C 
ATOM     11  C   LIG d   1       6.162  -0.804  -6.378  0.00  0.00    -0.015 C 
ATOM     12  H   LIG d   1       6.854  -1.517  -6.825  0.00  0.00     0.035 H 
ATOM     13  H   LIG d   1       6.747  -2.485  -4.383  0.00  0.00     0.028 H 
ATOM     14  H   LIG d   1       5.149  -2.580  -3.593  0.00  0.00     0.028 H 
ATOM     15  H   LIG d   1       3.151  -1.341  -4.781  0.00  0.00     0.057 H 
ATOM     16  H   LIG d   1       3.511  -0.363  -6.219  0.00  0.00     0.057 H 
ATOM     17  H   LIG d   1       7.549   0.900  -6.088  0.00  0.00     0.058 H 
ENDROOT
BRANCH   1  18
ATOM     18  C   LIG d   1       4.741  -2.835  -6.260  0.00  0.00     0.101 C 
ATOM     19  H   LIG d   1       3.829  -2.651  -6.829  0.00  0.00     0.070 H 
ATOM     20  H   LIG d   1       5.539  -3.133  -6.940  0.00  0.00     0.070 H 
BRANCH  18  21
ATOM     21  O   LIG d   1       4.504  -3.895  -5.296  0.00  0.00    -0.464 OA
BRANCH  21  22
ATOM     22  C   LIG d   1       4.402  -5.144  -5.777  0.00  0.00     0.307 C 
ATOM     23  O   LIG d   1       3.378  -5.505  -6.309  0.00  0.00    -0.251 OA
BRANCH  22  24
ATOM     24  C   LIG d   1       5.563  -6.096  -5.654  0.00  0.00     0.042 C 
ATOM     25  H   LIG d   1       6.159  -6.062  -6.567  0.00  0.00     0.037 H 
ATOM     26  H   LIG d   1       6.182  -5.807  -4.805  0.00  0.00     0.037 H 
BRANCH  24  27
ATOM     27  C   LIG d   1       5.038  -7.517  -5.441  0.00  0.00    -0.055 C 
ATOM     28  H   LIG d   1       5.143  -7.790  -4.391  0.00  0.00     0.024 H 
ATOM     29  H   LIG d   1       3.985  -7.561  -5.723  0.00  0.00     0.024 H 
ATOM     30  H   LIG d   1       5.609  -8.212  -6.056  0.00  0.00     0.024 H 
ENDBRANCH  24  27
ENDBRANCH  22  24
ENDBRANCH  21  22
ENDBRANCH  18  21
ENDBRANCH   1  18
BRANCH  11  31
ATOM     31  C   LIG d   1       5.422  -0.060  -7.492  0.00  0.00    -0.058 C 
ATOM     32  H   LIG d   1       4.376  -0.366  -7.502  0.00  0.00     0.024 H 
ATOM     33  H   LIG d   1       5.484   1.014  -7.315  0.00  0.00     0.024 H 
ATOM     34  H   LIG d   1       5.879  -0.296  -8.452  0.00  0.00     0.024 H 
ENDBRANCH  11  31
BRANCH   5  35
ATOM     35  C   LIG d   1       4.993   1.313  -2.332  0.00  0.00    -0.038 C 
ATOM     36  H   LIG d   1       4.907   1.070  -1.274  0.00  0.00     0.025 H 
ATOM     37  H   LIG d   1       5.989   1.707  -2.534  0.00  0.00     0.025 H 
ATOM     38  H   LIG d   1       4.246   2.061  -2.596  0.00  0.00     0.025 H 
ENDBRANCH   5  35
BRANCH   9  39
ATOM     39  C   LIG d   1       7.791   1.310  -3.648  0.00  0.00    -0.043 C 
ATOM     40  H   LIG d   1       7.167   1.951  -3.023  0.00  0.00     0.027 H 
ATOM     41  H   LIG d   1       8.546   0.826  -3.029  0.00  0.00     0.027 H 
ATOM     42  H   LIG d   1       8.279   1.914  -4.413  0.00  0.00     0.027 H 
ENDBRANCH   9  39
TORSDOF 8
ENDMDL
MODEL 8
REMARK VINA RESULT:      -4.7      3.156      6.229
REMARK  8 active torsions:
REMARK  status: ('A' for Active; 'I' for Inactive)
REMARK    1  A    between atoms: C_1  and  C_2 
REMARK    2  A    between atoms: C_2  and  C_3 
REMARK    3  A    between atoms: C_3  and  O_5 
REMARK    4  A    between atoms: O_5  and  C_6 
REMARK    5  A    between atoms: C_6  and  C_7 
REMARK    6  A    between atoms: C_11  and  C_15 
REMARK    7  A    between atoms: C_16  and  C_21 
REMARK    8  A    between atoms: C_18  and  C_20 
ROOT
ATOM      1  C   LIG d   1       6.656   0.007  -4.143  0.00  0.00     0.035 C 
ATOM      2  C   LIG d   1       5.828   0.759  -3.074  0.00  0.00    -0.033 C 
ATOM      3  C   LIG d   1       4.525  -0.032  -2.880  0.00  0.00     0.007 C 
ATOM      4  H   LIG d   1       3.869   0.474  -2.172  0.00  0.00     0.037 H 
ATOM      5  C   LIG d   1       4.905  -1.433  -2.368  0.00  0.00     0.062 C 
ATOM      6  H   LIG d   1       5.507  -1.345  -1.464  0.00  0.00     0.060 H 
ATOM      7  O   LIG d   1       5.661  -2.082  -3.395  0.00  0.00    -0.376 OA
ATOM      8  C   LIG d   1       6.892  -1.434  -3.713  0.00  0.00     0.057 C 
ATOM      9  C   LIG d   1       3.842  -0.206  -4.212  0.00  0.00    -0.071 C 
ATOM     10  C   LIG d   1       4.455  -0.159  -5.308  0.00  0.00    -0.081 C 
ATOM     11  C   LIG d   1       5.925   0.079  -5.478  0.00  0.00    -0.015 C 
ATOM     12  H   LIG d   1       6.076   1.065  -5.917  0.00  0.00     0.035 H 
ATOM     13  H   LIG d   1       5.600   1.765  -3.427  0.00  0.00     0.028 H 
ATOM     14  H   LIG d   1       6.373   0.811  -2.131  0.00  0.00     0.028 H 
ATOM     15  H   LIG d   1       7.539  -1.444  -2.836  0.00  0.00     0.057 H 
ATOM     16  H   LIG d   1       7.381  -1.974  -4.524  0.00  0.00     0.057 H 
ATOM     17  H   LIG d   1       3.866  -0.314  -6.199  0.00  0.00     0.058 H 
ENDROOT
BRANCH   1  18
ATOM     18  C   LIG d   1       8.010   0.704  -4.288  0.00  0.00     0.101 C 
ATOM     19  H   LIG d   1       8.535   0.681  -3.333  0.00  0.00     0.070 H 
ATOM     20  H   LIG d   1       8.606   0.189  -5.042  0.00  0.00     0.070 H 
BRANCH  18  21
ATOM     21  O   LIG d   1       7.804   2.084  -4.693  0.00  0.00    -0.464 OA
BRANCH  21  22
ATOM     22  C   LIG d   1       8.753   2.968  -4.351  0.00  0.00     0.307 C 
ATOM     23  O   LIG d   1       9.092   3.075  -3.197  0.00  0.00    -0.251 OA
BRANCH  22  24
ATOM     24  C   LIG d   1       9.397   3.828  -5.408  0.00  0.00     0.042 C 
ATOM     25  H   LIG d   1      10.401   3.456  -5.618  0.00  0.00     0.037 H 
ATOM     26  H   LIG d   1       8.799   3.794  -6.318  0.00  0.00     0.037 H 
BRANCH  24  27
ATOM     27  C   LIG d   1       9.483   5.271  -4.909  0.00  0.00    -0.055 C 
ATOM     28  H   LIG d   1       9.405   5.285  -3.822  0.00  0.00     0.024 H 
ATOM     29  H   LIG d   1      10.439   5.703  -5.209  0.00  0.00     0.024 H 
ATOM     30  H   LIG d   1       8.670   5.855  -5.339  0.00  0.00     0.024 H 
ENDBRANCH  24  27
ENDBRANCH  22  24
ENDBRANCH  21  22
ENDBRANCH  18  21
ENDBRANCH   1  18
BRANCH  11  31
ATOM     31  C   LIG d   1       6.497  -0.982  -6.420  0.00  0.00    -0.058 C 
ATOM     32  H   LIG d   1       5.981  -1.928  -6.260  0.00  0.00     0.024 H 
ATOM     33  H   LIG d   1       6.358  -0.663  -7.453  0.00  0.00     0.024 H 
ATOM     34  H   LIG d   1       7.560  -1.109  -6.220  0.00  0.00     0.024 H 
ENDBRANCH  11  31
BRANCH   5  35
ATOM     35  C   LIG d   1       3.637  -2.237  -2.069  0.00  0.00    -0.038 C 
ATOM     36  H   LIG d   1       2.764  -1.671  -2.393  0.00  0.00     0.025 H 
ATOM     37  H   LIG d   1       3.675  -3.186  -2.603  0.00  0.00     0.025 H 
ATOM     38  H   LIG d   1       3.571  -2.425  -0.998  0.00  0.00     0.025 H 
ENDBRANCH   5  35
BRANCH   9  39
ATOM     39  C   LIG d   1       2.353  -0.437  -4.230  0.00  0.00    -0.043 C 
ATOM     40  H   LIG d   1       2.041  -0.711  -5.238  0.00  0.00     0.027 H 
ATOM     41  H   LIG d   1       2.102  -1.244  -3.541  0.00  0.00     0.027 H 
ATOM     42  H   LIG d   1       1.840   0.475  -3.926  0.00  0.00     0.027 H 
ENDBRANCH   9  39
TORSDOF 8
ENDMDL
MODEL 9
REMARK VINA RESULT:      -4.5      2.459      5.258
REMARK  8 active torsions:
REMARK  status: ('A' for Active; 'I' for Inactive)
REMARK    1  A    between atoms: C_1  and  C_2 
REMARK    2  A    between atoms: C_2  and  C_3 
REMARK    3  A    between atoms: C_3  and  O_5 
REMARK    4  A    between atoms: O_5  and  C_6 
REMARK    5  A    between atoms: C_6  and  C_7 
REMARK    6  A    between atoms: C_11  and  C_15 
REMARK    7  A    between atoms: C_16  and  C_21 
REMARK    8  A    between atoms: C_18  and  C_20 
ROOT
ATOM      1  C   LIG d   1       5.992  -1.432  -5.742  0.00  0.00     0.035 C 
ATOM      2  C   LIG d   1       6.963  -0.854  -4.686  0.00  0.00    -0.033 C 
ATOM      3  C   LIG d   1       8.196  -1.770  -4.663  0.00  0.00     0.007 C 
ATOM      4  H   LIG d   1       8.904  -1.447  -3.900  0.00  0.00     0.037 H 
ATOM      5  C   LIG d   1       8.840  -1.718  -6.061  0.00  0.00     0.062 C 
ATOM      6  H   LIG d   1       9.062  -0.685  -6.327  0.00  0.00     0.060 H 
ATOM      7  O   LIG d   1       7.903  -2.268  -6.992  0.00  0.00    -0.376 OA
ATOM      8  C   LIG d   1       6.681  -1.538  -7.095  0.00  0.00     0.057 C 
ATOM      9  C   LIG d   1       7.760  -3.192  -4.418  0.00  0.00    -0.071 C 
ATOM     10  C   LIG d   1       6.605  -3.609  -4.684  0.00  0.00    -0.081 C 
ATOM     11  C   LIG d   1       5.491  -2.790  -5.263  0.00  0.00    -0.015 C 
ATOM     12  H   LIG d   1       4.726  -2.641  -4.501  0.00  0.00     0.035 H 
ATOM     13  H   LIG d   1       6.485  -0.855  -3.707  0.00  0.00     0.028 H 
ATOM     14  H   LIG d   1       7.262   0.160  -4.952  0.00  0.00     0.028 H 
ATOM     15  H   LIG d   1       6.894  -0.536  -7.466  0.00  0.00     0.057 H 
ATOM     16  H   LIG d   1       6.018  -2.046  -7.796  0.00  0.00     0.057 H 
ATOM     17  H   LIG d   1       6.408  -4.651  -4.482  0.00  0.00     0.058 H 
ENDROOT
BRANCH   1  18
ATOM     18  C   LIG d   1       4.796  -0.487  -5.872  0.00  0.00     0.101 C 
ATOM     19  H   LIG d   1       5.001   0.254  -6.644  0.00  0.00     0.070 H 
ATOM     20  H   LIG d   1       3.909  -1.059  -6.143  0.00  0.00     0.070 H 
BRANCH  18  21
ATOM     21  O   LIG d   1       4.570   0.185  -4.604  0.00  0.00    -0.464 OA
BRANCH  21  22
ATOM     22  C   LIG d   1       3.296   0.307  -4.198  0.00  0.00     0.307 C 
ATOM     23  O   LIG d   1       2.599   1.182  -4.653  0.00  0.00    -0.251 OA
BRANCH  22  24
ATOM     24  C   LIG d   1       2.737  -0.648  -3.175  0.00  0.00     0.042 C 
ATOM     25  H   LIG d   1       2.040  -0.117  -2.525  0.00  0.00     0.037 H 
ATOM     26  H   LIG d   1       2.216  -1.460  -3.682  0.00  0.00     0.037 H 
BRANCH  24  27
ATOM     27  C   LIG d   1       3.879  -1.222  -2.335  0.00  0.00    -0.055 C 
ATOM     28  H   LIG d   1       3.631  -1.139  -1.277  0.00  0.00     0.024 H 
ATOM     29  H   LIG d   1       4.026  -2.273  -2.591  0.00  0.00     0.024 H 
ATOM     30  H   LIG d   1       4.795  -0.668  -2.539  0.00  0.00     0.024 H 
ENDBRANCH  24  27
ENDBRANCH  22  24
ENDBRANCH  21  22
ENDBRANCH  18  21
ENDBRANCH   1  18
BRANCH  11  31
ATOM     31  C   LIG d   1       4.880  -3.544  -6.446  0.00  0.00    -0.058 C 
ATOM     32  H   LIG d   1       3.850  -3.816  -6.212  0.00  0.00     0.024 H 
ATOM     33  H   LIG d   1       4.895  -2.906  -7.330  0.00  0.00     0.024 H 
ATOM     34  H   LIG d   1       5.459  -4.446  -6.640  0.00  0.00     0.024 H 
ENDBRANCH  11  31
BRANCH   5  35
ATOM     35  C   LIG d   1      10.128  -2.543  -6.070  0.00  0.00    -0.038 C 
ATOM     36  H   LIG d   1      10.853  -2.076  -6.736  0.00  0.00     0.025 H 
ATOM     37  H   LIG d   1      10.537  -2.588  -5.061  0.00  0.00     0.025 H 
ATOM     38  H   LIG d   1       9.910  -3.552  -6.420  0.00  0.00     0.025 H 
ENDBRANCH   5  35
BRANCH   9  39
ATOM     39  C   LIG d   1       8.752  -4.154  -3.819  0.00  0.00    -0.043 C 
ATOM     40  H   LIG d   1       9.316  -4.638  -4.618  0.00  0.00     0.027 H 
ATOM     41  H   LIG d   1       9.437  -3.612  -3.167  0.00  0.00     0.027 H 
ATOM     42  H   LIG d   1       8.221  -4.911  -3.241  0.00  0.00     0.027 H 
ENDBRANCH   9  39
TORSDOF 8
ENDMDL
MODEL 10
REMARK VINA RESULT:      -4.4      2.840      5.409
REMARK  8 active torsions:
REMARK  status: ('A' for Active; 'I' for Inactive)
REMARK    1  A    between atoms: C_1  and  C_2 
REMARK    2  A    between atoms: C_2  and  C_3 
REMARK    3  A    between atoms: C_3  and  O_5 
REMARK    4  A    between atoms: O_5  and  C_6 
REMARK    5  A    between atoms: C_6  and  C_7 
REMARK    6  A    between atoms: C_11  and  C_15 
REMARK    7  A    between atoms: C_16  and  C_21 
REMARK    8  A    between atoms: C_18  and  C_20 
ROOT
ATOM      1  C   LIG d   1       6.341  -0.436  -5.236  0.00  0.00     0.035 C 
ATOM      2  C   LIG d   1       5.986   0.435  -4.008  0.00  0.00    -0.033 C 
ATOM      3  C   LIG d   1       4.735  -0.185  -3.366  0.00  0.00     0.007 C 
ATOM      4  H   LIG d   1       4.399   0.413  -2.519  0.00  0.00     0.037 H 
ATOM      5  C   LIG d   1       5.103  -1.611  -2.917  0.00  0.00     0.062 C 
ATOM      6  H   LIG d   1       5.969  -1.578  -2.256  0.00  0.00     0.060 H 
ATOM      7  O   LIG d   1       5.415  -2.370  -4.089  0.00  0.00    -0.376 OA
ATOM      8  C   LIG d   1       6.542  -1.885  -4.817  0.00  0.00     0.057 C 
ATOM      9  C   LIG d   1       3.647  -0.303  -4.402  0.00  0.00    -0.071 C 
ATOM     10  C   LIG d   1       3.878  -0.356  -5.636  0.00  0.00    -0.081 C 
ATOM     11  C   LIG d   1       5.233  -0.304  -6.275  0.00  0.00    -0.015 C 
ATOM     12  H   LIG d   1       5.343   0.646  -6.797  0.00  0.00     0.035 H 
ATOM     13  H   LIG d   1       5.768   1.453  -4.331  0.00  0.00     0.028 H 
ATOM     14  H   LIG d   1       6.805   0.441  -3.290  0.00  0.00     0.028 H 
ATOM     15  H   LIG d   1       7.431  -1.955  -4.189  0.00  0.00     0.057 H 
ATOM     16  H   LIG d   1       6.685  -2.499  -5.707  0.00  0.00     0.057 H 
ATOM     17  H   LIG d   1       3.022  -0.457  -6.285  0.00  0.00     0.058 H 
ENDROOT
BRANCH   1  18
ATOM     18  C   LIG d   1       7.645   0.087  -5.842  0.00  0.00     0.101 C 
ATOM     19  H   LIG d   1       8.383   0.225  -5.052  0.00  0.00     0.070 H 
ATOM     20  H   LIG d   1       8.022  -0.632  -6.569  0.00  0.00     0.070 H 
BRANCH  18  21
ATOM     21  O   LIG d   1       7.398   1.358  -6.501  0.00  0.00    -0.464 OA
BRANCH  21  22
ATOM     22  C   LIG d   1       8.273   1.734  -7.446  0.00  0.00     0.307 C 
ATOM     23  O   LIG d   1       9.460   1.685  -7.224  0.00  0.00    -0.251 OA
BRANCH  22  24
ATOM     24  C   LIG d   1       7.776   2.218  -8.784  0.00  0.00     0.042 C 
ATOM     25  H   LIG d   1       7.963   3.288  -8.875  0.00  0.00     0.037 H 
ATOM     26  H   LIG d   1       8.299   1.687  -9.579  0.00  0.00     0.037 H 
BRANCH  24  27
ATOM     27  C   LIG d   1       6.274   1.952  -8.896  0.00  0.00    -0.055 C 
ATOM     28  H   LIG d   1       6.088   1.250  -9.708  0.00  0.00     0.024 H 
ATOM     29  H   LIG d   1       5.909   1.527  -7.960  0.00  0.00     0.024 H 
ATOM     30  H   LIG d   1       5.752   2.887  -9.097  0.00  0.00     0.024 H 
ENDBRANCH  24  27
ENDBRANCH  22  24
ENDBRANCH  21  22
ENDBRANCH  18  21
ENDBRANCH   1  18
BRANCH  11  31
ATOM     31  C   LIG d   1       5.354  -1.447  -7.284  0.00  0.00    -0.058 C 
ATOM     32  H   LIG d   1       4.696  -2.265  -6.989  0.00  0.00     0.024 H 
ATOM     33  H   LIG d   1       5.068  -1.090  -8.273  0.00  0.00     0.024 H 
ATOM     34  H   LIG d   1       6.384  -1.801  -7.310  0.00  0.00     0.024 H 
ENDBRANCH  11  31
BRANCH   5  35
ATOM     35  C   LIG d   1       3.918  -2.246  -2.186  0.00  0.00    -0.038 C 
ATOM     36  H   LIG d   1       4.032  -2.098  -1.113  0.00  0.00     0.025 H 
ATOM     37  H   LIG d   1       2.992  -1.779  -2.521  0.00  0.00     0.025 H 
ATOM     38  H   LIG d   1       3.887  -3.313  -2.405  0.00  0.00     0.025 H 
ENDBRANCH   5  35
BRANCH   9  39
ATOM     39  C   LIG d   1       2.215  -0.351  -3.936  0.00  0.00    -0.043 C 
ATOM     40  H   LIG d   1       1.962  -1.370  -3.643  0.00  0.00     0.027 H 
ATOM     41  H   LIG d   1       2.087   0.314  -3.082  0.00  0.00     0.027 H 
ATOM     42  H   LIG d   1       1.558  -0.033  -4.746  0.00  0.00     0.027 H 
ENDBRANCH   9  39
TORSDOF 8
ENDMDL
