MODEL 1
REMARK VINA RESULT:      -5.4      0.000      0.000
REMARK  3 active torsions:
REMARK  status: ('A' for Active; 'I' for Inactive)
REMARK    1  A    between atoms: C3_3  and  C5_6 
REMARK    2  A    between atoms: C7_8  and  O4_17 
REMARK    3  A    between atoms: C8_9  and  C11_14 
ROOT
ATOM      1  C5  <1> d           4.732  -2.583  -4.738  0.00  0.00     0.057 A 
ATOM      2  C6  <1> d           4.614  -2.502  -3.347  0.00  0.00    -0.005 A 
ATOM      3  C7  <1> d           4.537  -1.245  -2.764  0.00  0.00     0.145 A 
ATOM      4  C8  <1> d           4.582  -0.102  -3.582  0.00  0.00     0.129 A 
ATOM      5  N1  <1> d           4.696  -0.211  -4.898  0.00  0.00    -0.231 NA
ATOM      6  C9  <1> d           4.778  -1.388  -5.494  0.00  0.00     0.152 A 
ATOM      7  C10 <1> d           4.906  -1.455  -6.918  0.00  0.00     0.120 C 
ATOM      8  N2  <1> d           5.007  -1.508  -8.049  0.00  0.00    -0.189 NA
ATOM      9  H4  <1> d           4.581  -3.397  -2.742  0.00  0.00     0.066 H 
ENDROOT
BRANCH   1  10
ATOM     10  C3  <1> d           4.817  -3.893  -5.405  0.00  0.00     0.138 A 
ATOM     11  C2  <1> d           5.943  -4.649  -5.542  0.00  0.00    -0.016 A 
ATOM     12  C1  <1> d           5.566  -5.812  -6.237  0.00  0.00    -0.023 A 
ATOM     13  H2  <1> d           6.933  -4.403  -5.187  0.00  0.00     0.066 H 
ATOM     14  C4  <1> d           4.245  -5.714  -6.489  0.00  0.00     0.093 A 
ATOM     15  H1  <1> d           6.214  -6.629  -6.521  0.00  0.00     0.065 H 
ATOM     16  O1  <1> d           3.796  -4.554  -5.985  0.00  0.00    -0.463 OA
ATOM     17  H3  <1> d           3.647  -6.446  -7.011  0.00  0.00     0.103 H 
ENDBRANCH   1  10
BRANCH   4  18
ATOM     18  C11 <1> d           4.501   1.235  -2.968  0.00  0.00     0.093 C 
ATOM     19  O2  <1> d           5.254   1.534  -2.052  0.00  0.00    -0.543 OA
ATOM     20  O3  <1> d           3.679   2.045  -3.374  0.00  0.00    -0.543 OA
ENDBRANCH   4  18
BRANCH   3  21
ATOM     21  O4  <1> d           4.420  -1.120  -1.419  0.00  0.00    -0.505 OA
ATOM     22  H5  <1> d           5.023  -0.472  -1.031  0.00  0.00     0.292 HD
ENDBRANCH   3  21
TORSDOF 3
ENDMDL
MODEL 2
REMARK VINA RESULT:      -5.2      2.637      5.867
REMARK  3 active torsions:
REMARK  status: ('A' for Active; 'I' for Inactive)
REMARK    1  A    between atoms: C3_3  and  C5_6 
REMARK    2  A    between atoms: C7_8  and  O4_17 
REMARK    3  A    between atoms: C8_9  and  C11_14 
ROOT
ATOM      1  C5  <1> d           3.926  -0.463  -5.603  0.00  0.00     0.057 A 
ATOM      2  C6  <1> d           3.106   0.155  -6.552  0.00  0.00    -0.005 A 
ATOM      3  C7  <1> d           2.960  -0.450  -7.792  0.00  0.00     0.145 A 
ATOM      4  C8  <1> d           3.638  -1.654  -8.055  0.00  0.00     0.129 A 
ATOM      5  N1  <1> d           4.410  -2.216  -7.135  0.00  0.00    -0.231 NA
ATOM      6  C9  <1> d           4.580  -1.671  -5.944  0.00  0.00     0.152 A 
ATOM      7  C10 <1> d           5.429  -2.311  -4.985  0.00  0.00     0.120 C 
ATOM      8  N2  <1> d           6.103  -2.820  -4.224  0.00  0.00    -0.189 NA
ATOM      9  H4  <1> d           2.597   1.080  -6.323  0.00  0.00     0.066 H 
ENDROOT
BRANCH   1  10
ATOM     10  C3  <1> d           4.114   0.139  -4.273  0.00  0.00     0.138 A 
ATOM     11  C2  <1> d           3.226   0.088  -3.240  0.00  0.00    -0.016 A 
ATOM     12  C1  <1> d           3.810   0.788  -2.169  0.00  0.00    -0.023 A 
ATOM     13  H2  <1> d           2.260  -0.396  -3.242  0.00  0.00     0.066 H 
ATOM     14  C4  <1> d           5.013   1.229  -2.593  0.00  0.00     0.093 A 
ATOM     15  H1  <1> d           3.376   0.948  -1.193  0.00  0.00     0.065 H 
ATOM     16  O1  <1> d           5.192   0.835  -3.863  0.00  0.00    -0.463 OA
ATOM     17  H3  <1> d           5.714   1.805  -2.008  0.00  0.00     0.103 H 
ENDBRANCH   1  10
BRANCH   4  18
ATOM     18  C11 <1> d           3.487  -2.301  -9.370  0.00  0.00     0.093 C 
ATOM     19  O2  <1> d           4.459  -2.441 -10.099  0.00  0.00    -0.543 OA
ATOM     20  O3  <1> d           2.388  -2.698  -9.733  0.00  0.00    -0.543 OA
ENDBRANCH   4  18
BRANCH   3  21
ATOM     21  O4  <1> d           2.174   0.113  -8.741  0.00  0.00    -0.505 OA
ATOM     22  H5  <1> d           2.665   0.551  -9.450  0.00  0.00     0.292 HD
ENDBRANCH   3  21
TORSDOF 3
ENDMDL
MODEL 3
REMARK VINA RESULT:      -5.1      3.211      5.160
REMARK  3 active torsions:
REMARK  status: ('A' for Active; 'I' for Inactive)
REMARK    1  A    between atoms: C3_3  and  C5_6 
REMARK    2  A    between atoms: C7_8  and  O4_17 
REMARK    3  A    between atoms: C8_9  and  C11_14 
ROOT
ATOM      1  C5  <1> d           4.484  -0.376  -5.519  0.00  0.00     0.057 A 
ATOM      2  C6  <1> d           3.358  -0.148  -6.315  0.00  0.00    -0.005 A 
ATOM      3  C7  <1> d           3.550   0.283  -7.621  0.00  0.00     0.145 A 
ATOM      4  C8  <1> d           4.859   0.476  -8.097  0.00  0.00     0.129 A 
ATOM      5  N1  <1> d           5.908   0.251  -7.317  0.00  0.00    -0.231 NA
ATOM      6  C9  <1> d           5.770  -0.154  -6.067  0.00  0.00     0.152 A 
ATOM      7  C10 <1> d           6.932  -0.379  -5.261  0.00  0.00     0.120 C 
ATOM      8  N2  <1> d           7.855  -0.556  -4.622  0.00  0.00    -0.189 NA
ATOM      9  H4  <1> d           2.363  -0.303  -5.924  0.00  0.00     0.066 H 
ENDROOT
BRANCH   1  10
ATOM     10  C3  <1> d           4.334  -0.834  -4.128  0.00  0.00     0.138 A 
ATOM     11  C2  <1> d           4.056  -2.107  -3.731  0.00  0.00    -0.016 A 
ATOM     12  C1  <1> d           4.004  -2.091  -2.325  0.00  0.00    -0.023 A 
ATOM     13  H2  <1> d           3.904  -2.965  -4.370  0.00  0.00     0.066 H 
ATOM     14  C4  <1> d           4.250  -0.823  -1.934  0.00  0.00     0.093 A 
ATOM     15  H1  <1> d           3.800  -2.933  -1.680  0.00  0.00     0.065 H 
ATOM     16  O1  <1> d           4.449  -0.068  -3.025  0.00  0.00    -0.463 OA
ATOM     17  H3  <1> d           4.281  -0.474  -0.913  0.00  0.00     0.103 H 
ENDBRANCH   1  10
BRANCH   4  18
ATOM     18  C11 <1> d           5.069   0.933  -9.482  0.00  0.00     0.093 C 
ATOM     19  O2  <1> d           4.664   0.256 -10.417  0.00  0.00    -0.543 OA
ATOM     20  O3  <1> d           5.648   1.989  -9.696  0.00  0.00    -0.543 OA
ENDBRANCH   4  18
BRANCH   3  21
ATOM     21  O4  <1> d           2.487   0.517  -8.428  0.00  0.00    -0.505 OA
ATOM     22  H5  <1> d           2.600   1.275  -9.018  0.00  0.00     0.292 HD
ENDBRANCH   3  21
TORSDOF 3
ENDMDL
MODEL 4
REMARK VINA RESULT:      -5.1      2.477      2.996
REMARK  3 active torsions:
REMARK  status: ('A' for Active; 'I' for Inactive)
REMARK    1  A    between atoms: C3_3  and  C5_6 
REMARK    2  A    between atoms: C7_8  and  O4_17 
REMARK    3  A    between atoms: C8_9  and  C11_14 
ROOT
ATOM      1  C5  <1> d           6.334  -1.934  -3.897  0.00  0.00     0.057 A 
ATOM      2  C6  <1> d           5.078  -2.245  -3.368  0.00  0.00    -0.005 A 
ATOM      3  C7  <1> d           4.189  -1.207  -3.126  0.00  0.00     0.145 A 
ATOM      4  C8  <1> d           4.576   0.113  -3.417  0.00  0.00     0.129 A 
ATOM      5  N1  <1> d           5.775   0.376  -3.918  0.00  0.00    -0.231 NA
ATOM      6  C9  <1> d           6.653  -0.581  -4.158  0.00  0.00     0.152 A 
ATOM      7  C10 <1> d           7.938  -0.247  -4.694  0.00  0.00     0.120 C 
ATOM      8  N2  <1> d           8.958   0.019  -5.119  0.00  0.00    -0.189 NA
ATOM      9  H4  <1> d           4.806  -3.269  -3.153  0.00  0.00     0.066 H 
ENDROOT
BRANCH   1  10
ATOM     10  C3  <1> d           7.313  -2.999  -4.171  0.00  0.00     0.138 A 
ATOM     11  C2  <1> d           7.281  -3.863  -5.225  0.00  0.00    -0.016 A 
ATOM     12  C1  <1> d           8.401  -4.703  -5.094  0.00  0.00    -0.023 A 
ATOM     13  H2  <1> d           6.540  -3.896  -6.010  0.00  0.00     0.066 H 
ATOM     14  C4  <1> d           9.057  -4.318  -3.979  0.00  0.00     0.093 A 
ATOM     15  H1  <1> d           8.681  -5.508  -5.757  0.00  0.00     0.065 H 
ATOM     16  O1  <1> d           8.397  -3.290  -3.425  0.00  0.00    -0.463 OA
ATOM     17  H3  <1> d           9.962  -4.765  -3.595  0.00  0.00     0.103 H 
ENDBRANCH   1  10
BRANCH   4  18
ATOM     18  C11 <1> d           3.636   1.219  -3.163  0.00  0.00     0.093 C 
ATOM     19  O2  <1> d           3.155   1.840  -4.100  0.00  0.00    -0.543 OA
ATOM     20  O3  <1> d           3.337   1.515  -2.014  0.00  0.00    -0.543 OA
ENDBRANCH   4  18
BRANCH   3  21
ATOM     21  O4  <1> d           2.960  -1.463  -2.615  0.00  0.00    -0.505 OA
ATOM     22  H5  <1> d           2.390  -0.685  -2.553  0.00  0.00     0.292 HD
ENDBRANCH   3  21
TORSDOF 3
ENDMDL
MODEL 5
REMARK VINA RESULT:      -5.0      3.019      4.783
REMARK  3 active torsions:
REMARK  status: ('A' for Active; 'I' for Inactive)
REMARK    1  A    between atoms: C3_3  and  C5_6 
REMARK    2  A    between atoms: C7_8  and  O4_17 
REMARK    3  A    between atoms: C8_9  and  C11_14 
ROOT
ATOM      1  C5  <1> d           4.006   0.180  -7.206  0.00  0.00     0.057 A 
ATOM      2  C6  <1> d           2.922   0.176  -6.323  0.00  0.00    -0.005 A 
ATOM      3  C7  <1> d           3.093  -0.403  -5.073  0.00  0.00     0.145 A 
ATOM      4  C8  <1> d           4.338  -0.964  -4.738  0.00  0.00     0.129 A 
ATOM      5  N1  <1> d           5.347  -0.945  -5.598  0.00  0.00    -0.231 NA
ATOM      6  C9  <1> d           5.226  -0.410  -6.799  0.00  0.00     0.152 A 
ATOM      7  C10 <1> d           6.342  -0.419  -7.696  0.00  0.00     0.120 C 
ATOM      8  N2  <1> d           7.229  -0.427  -8.407  0.00  0.00    -0.189 NA
ATOM      9  H4  <1> d           1.977   0.615  -6.607  0.00  0.00     0.066 H 
ENDROOT
BRANCH   1  10
ATOM     10  C3  <1> d           3.877   0.782  -8.544  0.00  0.00     0.138 A 
ATOM     11  C2  <1> d           3.784   2.114  -8.816  0.00  0.00    -0.016 A 
ATOM     12  C1  <1> d           3.678   2.235 -10.214  0.00  0.00    -0.023 A 
ATOM     13  H2  <1> d           3.791   2.921  -8.098  0.00  0.00     0.066 H 
ATOM     14  C4  <1> d           3.710   0.986 -10.723  0.00  0.00     0.093 A 
ATOM     15  H1  <1> d           3.583   3.154 -10.773  0.00  0.00     0.065 H 
ATOM     16  O1  <1> d           3.830   0.112  -9.713  0.00  0.00    -0.463 OA
ATOM     17  H3  <1> d           3.648   0.732 -11.771  0.00  0.00     0.103 H 
ENDBRANCH   1  10
BRANCH   4  18
ATOM     18  C11 <1> d           4.524  -1.579  -3.412  0.00  0.00     0.093 C 
ATOM     19  O2  <1> d           3.953  -2.626  -3.138  0.00  0.00    -0.543 OA
ATOM     20  O3  <1> d           5.249  -1.043  -2.586  0.00  0.00    -0.543 OA
ENDBRANCH   4  18
BRANCH   3  21
ATOM     21  O4  <1> d           2.069  -0.427  -4.185  0.00  0.00    -0.505 OA
ATOM     22  H5  <1> d           2.288  -0.852  -3.344  0.00  0.00     0.292 HD
ENDBRANCH   3  21
TORSDOF 3
ENDMDL
MODEL 6
REMARK VINA RESULT:      -5.0      3.388      4.611
REMARK  3 active torsions:
REMARK  status: ('A' for Active; 'I' for Inactive)
REMARK    1  A    between atoms: C3_3  and  C5_6 
REMARK    2  A    between atoms: C7_8  and  O4_17 
REMARK    3  A    between atoms: C8_9  and  C11_14 
ROOT
ATOM      1  C5  <1> d           6.087   0.187  -4.176  0.00  0.00     0.057 A 
ATOM      2  C6  <1> d           6.891   1.040  -3.414  0.00  0.00    -0.005 A 
ATOM      3  C7  <1> d           7.918   1.723  -4.051  0.00  0.00     0.145 A 
ATOM      4  C8  <1> d           8.117   1.535  -5.431  0.00  0.00     0.129 A 
ATOM      5  N1  <1> d           7.338   0.719  -6.126  0.00  0.00    -0.231 NA
ATOM      6  C9  <1> d           6.353   0.046  -5.558  0.00  0.00     0.152 A 
ATOM      7  C10 <1> d           5.542  -0.829  -6.349  0.00  0.00     0.120 C 
ATOM      8  N2  <1> d           4.899  -1.523  -6.979  0.00  0.00    -0.189 NA
ATOM      9  H4  <1> d           6.717   1.166  -2.355  0.00  0.00     0.066 H 
ENDROOT
BRANCH   1  10
ATOM     10  C3  <1> d           4.985  -0.559  -3.547  0.00  0.00     0.138 A 
ATOM     11  C2  <1> d           5.112  -1.682  -2.785  0.00  0.00    -0.016 A 
ATOM     12  C1  <1> d           3.814  -2.053  -2.392  0.00  0.00    -0.023 A 
ATOM     13  H2  <1> d           6.032  -2.189  -2.531  0.00  0.00     0.066 H 
ATOM     14  C4  <1> d           2.965  -1.151  -2.926  0.00  0.00     0.093 A 
ATOM     15  H1  <1> d           3.546  -2.904  -1.783  0.00  0.00     0.065 H 
ATOM     16  O1  <1> d           3.675  -0.251  -3.622  0.00  0.00    -0.463 OA
ATOM     17  H3  <1> d           1.891  -1.154  -2.814  0.00  0.00     0.103 H 
ENDBRANCH   1  10
BRANCH   4  18
ATOM     18  C11 <1> d           9.206   2.258  -6.112  0.00  0.00     0.093 C 
ATOM     19  O2  <1> d          10.044   1.638  -6.752  0.00  0.00    -0.543 OA
ATOM     20  O3  <1> d           9.270   3.477  -6.038  0.00  0.00    -0.543 OA
ENDBRANCH   4  18
BRANCH   3  21
ATOM     21  O4  <1> d           8.722   2.561  -3.351  0.00  0.00    -0.505 OA
ATOM     22  H5  <1> d           8.302   2.946  -2.570  0.00  0.00     0.292 HD
ENDBRANCH   3  21
TORSDOF 3
ENDMDL
MODEL 7
REMARK VINA RESULT:      -5.0      3.347      5.773
REMARK  3 active torsions:
REMARK  status: ('A' for Active; 'I' for Inactive)
REMARK    1  A    between atoms: C3_3  and  C5_6 
REMARK    2  A    between atoms: C7_8  and  O4_17 
REMARK    3  A    between atoms: C8_9  and  C11_14 
ROOT
ATOM      1  C5  <1> d           7.119   0.784  -3.780  0.00  0.00     0.057 A 
ATOM      2  C6  <1> d           5.920   1.042  -3.108  0.00  0.00    -0.005 A 
ATOM      3  C7  <1> d           5.008   0.005  -2.965  0.00  0.00     0.145 A 
ATOM      4  C8  <1> d           5.315  -1.261  -3.496  0.00  0.00     0.129 A 
ATOM      5  N1  <1> d           6.461  -1.474  -4.128  0.00  0.00    -0.231 NA
ATOM      6  C9  <1> d           7.354  -0.514  -4.292  0.00  0.00     0.152 A 
ATOM      7  C10 <1> d           8.574  -0.790  -4.988  0.00  0.00     0.120 C 
ATOM      8  N2  <1> d           9.543  -1.011  -5.541  0.00  0.00    -0.189 NA
ATOM      9  H4  <1> d           5.709   2.023  -2.710  0.00  0.00     0.066 H 
ENDROOT
BRANCH   1  10
ATOM     10  C3  <1> d           8.118   1.850  -3.958  0.00  0.00     0.138 A 
ATOM     11  C2  <1> d           8.270   2.627  -5.068  0.00  0.00    -0.016 A 
ATOM     12  C1  <1> d           9.334   3.507  -4.804  0.00  0.00    -0.023 A 
ATOM     13  H2  <1> d           7.685   2.577  -5.975  0.00  0.00     0.066 H 
ATOM     14  C4  <1> d           9.778   3.230  -3.560  0.00  0.00     0.093 A 
ATOM     15  H1  <1> d           9.727   4.259  -5.472  0.00  0.00     0.065 H 
ATOM     16  O1  <1> d           9.042   2.230  -3.054  0.00  0.00    -0.463 OA
ATOM     17  H3  <1> d          10.593   3.729  -3.057  0.00  0.00     0.103 H 
ENDBRANCH   1  10
BRANCH   4  18
ATOM     18  C11 <1> d           4.352  -2.365  -3.346  0.00  0.00     0.093 C 
ATOM     19  O2  <1> d           3.717  -2.486  -2.308  0.00  0.00    -0.543 OA
ATOM     20  O3  <1> d           4.188  -3.161  -4.261  0.00  0.00    -0.543 OA
ENDBRANCH   4  18
BRANCH   3  21
ATOM     21  O4  <1> d           3.834   0.209  -2.320  0.00  0.00    -0.505 OA
ATOM     22  H5  <1> d           3.074  -0.214  -2.743  0.00  0.00     0.292 HD
ENDBRANCH   3  21
TORSDOF 3
ENDMDL
MODEL 8
REMARK VINA RESULT:      -4.9      8.201     11.477
REMARK  3 active torsions:
REMARK  status: ('A' for Active; 'I' for Inactive)
REMARK    1  A    between atoms: C3_3  and  C5_6 
REMARK    2  A    between atoms: C7_8  and  O4_17 
REMARK    3  A    between atoms: C8_9  and  C11_14 
ROOT
ATOM      1  C5  <1> d           9.894   6.584  -2.017  0.00  0.00     0.057 A 
ATOM      2  C6  <1> d           9.464   6.195  -3.290  0.00  0.00    -0.005 A 
ATOM      3  C7  <1> d           9.728   4.898  -3.707  0.00  0.00     0.145 A 
ATOM      4  C8  <1> d          10.414   4.023  -2.846  0.00  0.00     0.129 A 
ATOM      5  N1  <1> d          10.809   4.422  -1.644  0.00  0.00    -0.231 NA
ATOM      6  C9  <1> d          10.584   5.649  -1.210  0.00  0.00     0.152 A 
ATOM      7  C10 <1> d          11.035   6.035   0.093  0.00  0.00     0.120 C 
ATOM      8  N2  <1> d          11.394   6.340   1.127  0.00  0.00    -0.189 NA
ATOM      9  H4  <1> d           8.939   6.888  -3.931  0.00  0.00     0.066 H 
ENDROOT
BRANCH   1  10
ATOM     10  C3  <1> d           9.639   7.949  -1.528  0.00  0.00     0.138 A 
ATOM     11  C2  <1> d          10.427   9.038  -1.749  0.00  0.00    -0.016 A 
ATOM     12  C1  <1> d           9.807  10.124  -1.104  0.00  0.00    -0.023 A 
ATOM     13  H2  <1> d          11.349   9.064  -2.310  0.00  0.00     0.066 H 
ATOM     14  C4  <1> d           8.683   9.652  -0.526  0.00  0.00     0.093 A 
ATOM     15  H1  <1> d          10.166  11.142  -1.073  0.00  0.00     0.065 H 
ATOM     16  O1  <1> d           8.585   8.340  -0.784  0.00  0.00    -0.463 OA
ATOM     17  H3  <1> d           7.979  10.235   0.049  0.00  0.00     0.103 H 
ENDBRANCH   1  10
BRANCH   4  18
ATOM     18  C11 <1> d          10.696   2.645  -3.283  0.00  0.00     0.093 C 
ATOM     19  O2  <1> d           9.776   1.902  -3.594  0.00  0.00    -0.543 OA
ATOM     20  O3  <1> d          11.851   2.245  -3.336  0.00  0.00    -0.543 OA
ENDBRANCH   4  18
BRANCH   3  21
ATOM     21  O4  <1> d           9.329   4.479  -4.933  0.00  0.00    -0.505 OA
ATOM     22  H5  <1> d           8.523   3.944  -4.922  0.00  0.00     0.292 HD
ENDBRANCH   3  21
TORSDOF 3
ENDMDL
MODEL 9
REMARK VINA RESULT:      -4.9     10.734     11.756
REMARK  3 active torsions:
REMARK  status: ('A' for Active; 'I' for Inactive)
REMARK    1  A    between atoms: C3_3  and  C5_6 
REMARK    2  A    between atoms: C7_8  and  O4_17 
REMARK    3  A    between atoms: C8_9  and  C11_14 
ROOT
ATOM      1  C5  <1> d          10.490   7.136  -2.704  0.00  0.00     0.057 A 
ATOM      2  C6  <1> d          10.891   5.864  -2.286  0.00  0.00    -0.005 A 
ATOM      3  C7  <1> d          11.064   5.640  -0.927  0.00  0.00     0.145 A 
ATOM      4  C8  <1> d          10.833   6.691  -0.021  0.00  0.00     0.129 A 
ATOM      5  N1  <1> d          10.454   7.887  -0.448  0.00  0.00    -0.231 NA
ATOM      6  C9  <1> d          10.283   8.144  -1.733  0.00  0.00     0.152 A 
ATOM      7  C10 <1> d           9.879   9.454  -2.147  0.00  0.00     0.120 C 
ATOM      8  N2  <1> d           9.558  10.494  -2.475  0.00  0.00    -0.189 NA
ATOM      9  H4  <1> d          11.061   5.074  -3.004  0.00  0.00     0.066 H 
ENDROOT
BRANCH   1  10
ATOM     10  C3  <1> d          10.293   7.424  -4.134  0.00  0.00     0.138 A 
ATOM     11  C2  <1> d           9.221   7.046  -4.886  0.00  0.00    -0.016 A 
ATOM     12  C1  <1> d           9.447   7.532  -6.187  0.00  0.00    -0.023 A 
ATOM     13  H2  <1> d           8.363   6.482  -4.549  0.00  0.00     0.066 H 
ATOM     14  C4  <1> d          10.632   8.176  -6.169  0.00  0.00     0.093 A 
ATOM     15  H1  <1> d           8.797   7.407  -7.040  0.00  0.00     0.065 H 
ATOM     16  O1  <1> d          11.139   8.109  -4.929  0.00  0.00    -0.463 OA
ATOM     17  H3  <1> d          11.097   8.664  -7.013  0.00  0.00     0.103 H 
ENDBRANCH   1  10
BRANCH   4  18
ATOM     18  C11 <1> d          11.015   6.459   1.422  0.00  0.00     0.093 C 
ATOM     19  O2  <1> d          10.662   5.399   1.920  0.00  0.00    -0.543 OA
ATOM     20  O3  <1> d          11.518   7.326   2.122  0.00  0.00    -0.543 OA
ENDBRANCH   4  18
BRANCH   3  21
ATOM     21  O4  <1> d          11.451   4.421  -0.478  0.00  0.00    -0.505 OA
ATOM     22  H5  <1> d          11.295   4.283   0.467  0.00  0.00     0.292 HD
ENDBRANCH   3  21
TORSDOF 3
ENDMDL
MODEL 10
REMARK VINA RESULT:      -4.6      8.324     10.430
REMARK  3 active torsions:
REMARK  status: ('A' for Active; 'I' for Inactive)
REMARK    1  A    between atoms: C3_3  and  C5_6 
REMARK    2  A    between atoms: C7_8  and  O4_17 
REMARK    3  A    between atoms: C8_9  and  C11_14 
ROOT
ATOM      1  C5  <1> d          10.472   5.611  -1.768  0.00  0.00     0.057 A 
ATOM      2  C6  <1> d          10.929   5.710  -0.450  0.00  0.00    -0.005 A 
ATOM      3  C7  <1> d          10.882   6.950   0.172  0.00  0.00     0.145 A 
ATOM      4  C8  <1> d          10.382   8.058  -0.536  0.00  0.00     0.129 A 
ATOM      5  N1  <1> d           9.956   7.932  -1.785  0.00  0.00    -0.231 NA
ATOM      6  C9  <1> d           9.989   6.772  -2.417  0.00  0.00     0.152 A 
ATOM      7  C10 <1> d           9.523   6.686  -3.768  0.00  0.00     0.120 C 
ATOM      8  N2  <1> d           9.154   6.619  -4.841  0.00  0.00    -0.189 NA
ATOM      9  H4  <1> d          11.308   4.843   0.070  0.00  0.00     0.066 H 
ENDROOT
BRANCH   1  10
ATOM     10  C3  <1> d          10.501   4.318  -2.472  0.00  0.00     0.138 A 
ATOM     11  C2  <1> d          11.614   3.691  -2.946  0.00  0.00    -0.016 A 
ATOM     12  C1  <1> d          11.180   2.493  -3.542  0.00  0.00    -0.023 A 
ATOM     13  H2  <1> d          12.632   4.044  -2.878  0.00  0.00     0.066 H 
ATOM     14  C4  <1> d           9.838   2.446  -3.406  0.00  0.00     0.093 A 
ATOM     15  H1  <1> d          11.802   1.753  -4.023  0.00  0.00     0.065 H 
ATOM     16  O1  <1> d           9.433   3.549  -2.760  0.00  0.00    -0.463 OA
ATOM     17  H3  <1> d           9.197   1.652  -3.760  0.00  0.00     0.103 H 
ENDBRANCH   1  10
BRANCH   4  18
ATOM     18  C11 <1> d          10.329   9.376   0.120  0.00  0.00     0.093 C 
ATOM     19  O2  <1> d           9.368  10.111  -0.059  0.00  0.00    -0.543 OA
ATOM     20  O3  <1> d          11.248   9.735   0.844  0.00  0.00    -0.543 OA
ENDBRANCH   4  18
BRANCH   3  21
ATOM     21  O4  <1> d          11.314   7.092   1.449  0.00  0.00    -0.505 OA
ATOM     22  H5  <1> d          11.784   7.920   1.615  0.00  0.00     0.292 HD
ENDBRANCH   3  21
TORSDOF 3
ENDMDL
