MODEL 1
REMARK VINA RESULT:      -7.9      0.000      0.000
REMARK  5 active torsions:
REMARK  status: ('A' for Active; 'I' for Inactive)
REMARK    1  A    between atoms: C_5  and  C_7 
REMARK    2  A    between atoms: C_7  and  N_8 
REMARK    3  A    between atoms: C_13  and  C_30 
REMARK    4  A    between atoms: C_30  and  C_31 
REMARK    5  A    between atoms: C_31  and  C_32 
ROOT
ATOM      1  N   LIG d   1       5.217  -0.884  -6.789  0.00  0.00    -0.237 N 
ATOM      2  C   LIG d   1       4.401  -0.929  -5.730  0.00  0.00     0.228 A 
ATOM      3  O   LIG d   1       3.365  -0.311  -5.617  0.00  0.00    -0.275 OA
ATOM      4  C   LIG d   1       4.973  -1.873  -4.696  0.00  0.00     0.065 A 
ATOM      5  H   LIG d   1       4.287  -2.681  -4.439  0.00  0.00     0.042 H 
ATOM      6  C   LIG d   1       5.423  -1.060  -3.463  0.00  0.00     0.021 C 
ATOM      7  H   LIG d   1       5.484  -0.000  -3.709  0.00  0.00     0.047 H 
ATOM      8  N   LIG d   1       6.771  -1.592  -3.128  0.00  0.00    -0.295 N 
ATOM      9  C   LIG d   1       7.402  -1.829  -4.440  0.00  0.00     0.136 A 
ATOM     10  C   LIG d   1       6.284  -2.380  -5.359  0.00  0.00     0.080 A 
ATOM     11  H   LIG d   1       6.312  -3.464  -5.463  0.00  0.00     0.043 H 
ATOM     12  C   LIG d   1       6.302  -1.661  -6.689  0.00  0.00     0.229 A 
ATOM     13  O   LIG d   1       7.166  -1.770  -7.532  0.00  0.00    -0.275 OA
ATOM     14  C   LIG d   1       8.013  -0.572  -4.992  0.00  0.00     0.003 A 
ATOM     15  C   LIG d   1       7.506   0.667  -5.316  0.00  0.00    -0.055 A 
ATOM     16  C   LIG d   1       8.342   1.649  -5.817  0.00  0.00    -0.061 A 
ATOM     17  C   LIG d   1       9.689   1.383  -5.991  0.00  0.00    -0.060 A 
ATOM     18  C   LIG d   1      10.202   0.144  -5.667  0.00  0.00    -0.040 A 
ATOM     19  C   LIG d   1       9.366  -0.851  -5.163  0.00  0.00     0.039 A 
ATOM     20  N   LIG d   1       9.643  -2.161  -4.769  0.00  0.00    -0.283 N 
ATOM     21  C   LIG d   1       8.543  -2.803  -4.330  0.00  0.00     0.243 A 
ATOM     22  O   LIG d   1       8.484  -3.945  -3.927  0.00  0.00    -0.273 OA
ATOM     23  H   LIG d   1       7.299  -0.924  -2.587  0.00  0.00     0.123 HD
ATOM     24  H   LIG d   1       6.455   0.872  -5.179  0.00  0.00     0.062 H 
ATOM     25  H   LIG d   1       7.946   2.620  -6.072  0.00  0.00     0.062 H 
ATOM     26  H   LIG d   1      10.341   2.149  -6.383  0.00  0.00     0.062 H 
ATOM     27  H   LIG d   1      11.254  -0.056  -5.807  0.00  0.00     0.064 H 
ATOM     28  H   LIG d   1      10.526  -2.563  -4.806  0.00  0.00     0.155 HD
ENDROOT
BRANCH   1  29
ATOM     29  C   LIG d   1       4.942  -0.055  -7.966  0.00  0.00     0.049 C 
ATOM     30  H   LIG d   1       5.816  -0.047  -8.616  0.00  0.00     0.052 H 
ATOM     31  H   LIG d   1       4.715   0.963  -7.648  0.00  0.00     0.052 H 
BRANCH  29  32
ATOM     32  C   LIG d   1       3.764  -0.622  -8.715  0.00  0.00    -0.011 A 
ATOM     33  C   LIG d   1       2.694   0.192  -9.040  0.00  0.00     0.046 A 
ATOM     34  C   LIG d   1       1.612  -0.329  -9.728  0.00  0.00    -0.043 A 
ATOM     35 CL   LIG d   1       2.709   1.868  -8.585  0.00  0.00    -0.083 Cl
ATOM     36  C   LIG d   1       1.601  -1.662 -10.090  0.00  0.00    -0.060 A 
ATOM     37  H   LIG d   1       0.778   0.307  -9.983  0.00  0.00     0.063 H 
ATOM     38  C   LIG d   1       2.671  -2.476  -9.765  0.00  0.00    -0.061 A 
ATOM     39  H   LIG d   1       0.757  -2.069 -10.627  0.00  0.00     0.062 H 
ATOM     40  C   LIG d   1       3.751  -1.956  -9.077  0.00  0.00    -0.056 A 
ATOM     41  H   LIG d   1       2.660  -3.519 -10.045  0.00  0.00     0.062 H 
ATOM     42  H   LIG d   1       4.587  -2.592  -8.824  0.00  0.00     0.062 H 
ENDBRANCH  29  32
ENDBRANCH   1  29
BRANCH   6  43
ATOM     43  C   LIG d   1       4.457  -1.281  -2.298  0.00  0.00    -0.032 C 
ATOM     44  H   LIG d   1       3.971  -2.251  -2.407  0.00  0.00     0.028 H 
ATOM     45  H   LIG d   1       5.009  -1.255  -1.358  0.00  0.00     0.028 H 
BRANCH  43  46
ATOM     46  C   LIG d   1       3.396  -0.178  -2.298  0.00  0.00    -0.012 C 
ATOM     47  H   LIG d   1       2.793  -0.255  -3.202  0.00  0.00     0.033 H 
ATOM     48  H   LIG d   1       2.755  -0.291  -1.424  0.00  0.00     0.033 H 
BRANCH  46  49
ATOM     49  C   LIG d   1       4.071   1.168  -2.256  0.00  0.00     0.042 C 
ATOM     50  O   LIG d   1       4.828   1.443  -1.341  0.00  0.00    -0.550 OA
ATOM     51  O   LIG d   1       3.859   1.984  -3.137  0.00  0.00    -0.550 OA
ENDBRANCH  46  49
ENDBRANCH  43  46
ENDBRANCH   6  43
TORSDOF 5
ENDMDL
MODEL 2
REMARK VINA RESULT:      -7.9      2.550      4.680
REMARK  5 active torsions:
REMARK  status: ('A' for Active; 'I' for Inactive)
REMARK    1  A    between atoms: C_5  and  C_7 
REMARK    2  A    between atoms: C_7  and  N_8 
REMARK    3  A    between atoms: C_13  and  C_30 
REMARK    4  A    between atoms: C_30  and  C_31 
REMARK    5  A    between atoms: C_31  and  C_32 
ROOT
ATOM      1  N   LIG d   1       4.367  -1.605  -7.233  0.00  0.00    -0.237 N 
ATOM      2  C   LIG d   1       4.543  -2.922  -7.393  0.00  0.00     0.228 A 
ATOM      3  O   LIG d   1       3.751  -3.676  -7.915  0.00  0.00    -0.275 OA
ATOM      4  C   LIG d   1       5.884  -3.322  -6.820  0.00  0.00     0.065 A 
ATOM      5  H   LIG d   1       6.528  -3.806  -7.556  0.00  0.00     0.042 H 
ATOM      6  C   LIG d   1       5.659  -4.188  -5.563  0.00  0.00     0.021 C 
ATOM      7  H   LIG d   1       4.630  -4.096  -5.217  0.00  0.00     0.047 H 
ATOM      8  N   LIG d   1       6.598  -3.639  -4.549  0.00  0.00    -0.295 N 
ATOM      9  C   LIG d   1       6.549  -2.180  -4.765  0.00  0.00     0.136 A 
ATOM     10  C   LIG d   1       6.466  -1.979  -6.298  0.00  0.00     0.080 A 
ATOM     11  H   LIG d   1       7.427  -1.732  -6.750  0.00  0.00     0.043 H 
ATOM     12  C   LIG d   1       5.385  -0.977  -6.634  0.00  0.00     0.229 A 
ATOM     13  O   LIG d   1       5.432   0.211  -6.394  0.00  0.00    -0.275 OA
ATOM     14  C   LIG d   1       5.382  -1.557  -4.053  0.00  0.00     0.003 A 
ATOM     15  C   LIG d   1       4.019  -1.741  -4.123  0.00  0.00    -0.055 A 
ATOM     16  C   LIG d   1       3.177  -0.996  -3.317  0.00  0.00    -0.061 A 
ATOM     17  C   LIG d   1       3.707  -0.066  -2.441  0.00  0.00    -0.060 A 
ATOM     18  C   LIG d   1       5.072   0.123  -2.367  0.00  0.00    -0.040 A 
ATOM     19  C   LIG d   1       5.927  -0.623  -3.176  0.00  0.00     0.039 A 
ATOM     20  N   LIG d   1       7.319  -0.615  -3.283  0.00  0.00    -0.283 N 
ATOM     21  C   LIG d   1       7.764  -1.502  -4.194  0.00  0.00     0.243 A 
ATOM     22  O   LIG d   1       8.920  -1.711  -4.496  0.00  0.00    -0.273 OA
ATOM     23  H   LIG d   1       6.300  -3.876  -3.614  0.00  0.00     0.123 HD
ATOM     24  H   LIG d   1       3.608  -2.468  -4.807  0.00  0.00     0.062 H 
ATOM     25  H   LIG d   1       2.109  -1.140  -3.371  0.00  0.00     0.062 H 
ATOM     26  H   LIG d   1       3.050   0.516  -1.812  0.00  0.00     0.062 H 
ATOM     27  H   LIG d   1       5.478   0.851  -1.681  0.00  0.00     0.064 H 
ATOM     28  H   LIG d   1       7.899  -0.037  -2.761  0.00  0.00     0.155 HD
ENDROOT
BRANCH   1  29
ATOM     29  C   LIG d   1       3.160  -0.908  -7.684  0.00  0.00     0.049 C 
ATOM     30  H   LIG d   1       2.891  -0.141  -6.957  0.00  0.00     0.052 H 
ATOM     31  H   LIG d   1       2.341  -1.621  -7.778  0.00  0.00     0.052 H 
BRANCH  29  32
ATOM     32  C   LIG d   1       3.421  -0.264  -9.021  0.00  0.00    -0.011 A 
ATOM     33  C   LIG d   1       3.288   1.105  -9.167  0.00  0.00     0.046 A 
ATOM     34  C   LIG d   1       3.529   1.696 -10.396  0.00  0.00    -0.043 A 
ATOM     35 CL   LIG d   1       2.818   2.082  -7.811  0.00  0.00    -0.083 Cl
ATOM     36  C   LIG d   1       3.902   0.919 -11.475  0.00  0.00    -0.060 A 
ATOM     37  H   LIG d   1       3.425   2.765 -10.510  0.00  0.00     0.063 H 
ATOM     38  C   LIG d   1       4.037  -0.450 -11.328  0.00  0.00    -0.061 A 
ATOM     39  H   LIG d   1       4.091   1.379 -12.433  0.00  0.00     0.062 H 
ATOM     40  C   LIG d   1       3.796  -1.041 -10.102  0.00  0.00    -0.056 A 
ATOM     41  H   LIG d   1       4.325  -1.057 -12.173  0.00  0.00     0.062 H 
ATOM     42  H   LIG d   1       3.901  -2.110  -9.987  0.00  0.00     0.062 H 
ENDBRANCH  29  32
ENDBRANCH   1  29
BRANCH   6  43
ATOM     43  C   LIG d   1       5.991  -5.653  -5.859  0.00  0.00    -0.032 C 
ATOM     44  H   LIG d   1       6.368  -5.741  -6.879  0.00  0.00     0.028 H 
ATOM     45  H   LIG d   1       6.751  -6.002  -5.159  0.00  0.00     0.028 H 
BRANCH  43  46
ATOM     46  C   LIG d   1       4.729  -6.503  -5.707  0.00  0.00    -0.012 C 
ATOM     47  H   LIG d   1       4.057  -6.031  -4.990  0.00  0.00     0.033 H 
ATOM     48  H   LIG d   1       4.228  -6.585  -6.672  0.00  0.00     0.033 H 
BRANCH  46  49
ATOM     49  C   LIG d   1       5.103  -7.877  -5.217  0.00  0.00     0.042 C 
ATOM     50  O   LIG d   1       4.236  -8.709  -5.013  0.00  0.00    -0.550 OA
ATOM     51  O   LIG d   1       6.274  -8.157  -5.023  0.00  0.00    -0.550 OA
ENDBRANCH  46  49
ENDBRANCH  43  46
ENDBRANCH   6  43
TORSDOF 5
ENDMDL
MODEL 3
REMARK VINA RESULT:      -7.6      2.544      6.030
REMARK  5 active torsions:
REMARK  status: ('A' for Active; 'I' for Inactive)
REMARK    1  A    between atoms: C_5  and  C_7 
REMARK    2  A    between atoms: C_7  and  N_8 
REMARK    3  A    between atoms: C_13  and  C_30 
REMARK    4  A    between atoms: C_30  and  C_31 
REMARK    5  A    between atoms: C_31  and  C_32 
ROOT
ATOM      1  N   LIG d   1       7.413   0.229  -5.791  0.00  0.00    -0.237 N 
ATOM      2  C   LIG d   1       6.763   0.449  -6.939  0.00  0.00     0.228 A 
ATOM      3  O   LIG d   1       6.883   1.435  -7.634  0.00  0.00    -0.275 OA
ATOM      4  C   LIG d   1       5.855  -0.724  -7.236  0.00  0.00     0.065 A 
ATOM      5  H   LIG d   1       6.067  -1.186  -8.201  0.00  0.00     0.042 H 
ATOM      6  C   LIG d   1       4.385  -0.273  -7.101  0.00  0.00     0.021 C 
ATOM      7  H   LIG d   1       4.326   0.679  -6.573  0.00  0.00     0.047 H 
ATOM      8  N   LIG d   1       3.729  -1.346  -6.308  0.00  0.00    -0.295 N 
ATOM      9  C   LIG d   1       4.742  -1.724  -5.305  0.00  0.00     0.136 A 
ATOM     10  C   LIG d   1       6.105  -1.682  -6.038  0.00  0.00     0.080 A 
ATOM     11  H   LIG d   1       6.453  -2.666  -6.351  0.00  0.00     0.043 H 
ATOM     12  C   LIG d   1       7.122  -0.938  -5.203  0.00  0.00     0.229 A 
ATOM     13  O   LIG d   1       7.599  -1.335  -4.161  0.00  0.00    -0.275 OA
ATOM     14  C   LIG d   1       4.714  -0.802  -4.119  0.00  0.00     0.003 A 
ATOM     15  C   LIG d   1       4.887   0.555  -3.968  0.00  0.00    -0.055 A 
ATOM     16  C   LIG d   1       4.799   1.130  -2.712  0.00  0.00    -0.061 A 
ATOM     17  C   LIG d   1       4.538   0.337  -1.609  0.00  0.00    -0.060 A 
ATOM     18  C   LIG d   1       4.363  -1.023  -1.755  0.00  0.00    -0.040 A 
ATOM     19  C   LIG d   1       4.451  -1.610  -3.016  0.00  0.00     0.039 A 
ATOM     20  N   LIG d   1       4.315  -2.942  -3.414  0.00  0.00    -0.283 N 
ATOM     21  C   LIG d   1       4.471  -3.093  -4.743  0.00  0.00     0.243 A 
ATOM     22  O   LIG d   1       4.407  -4.132  -5.366  0.00  0.00    -0.273 OA
ATOM     23  H   LIG d   1       2.889  -1.005  -5.863  0.00  0.00     0.123 HD
ATOM     24  H   LIG d   1       5.091   1.172  -4.830  0.00  0.00     0.062 H 
ATOM     25  H   LIG d   1       4.935   2.194  -2.593  0.00  0.00     0.062 H 
ATOM     26  H   LIG d   1       4.470   0.785  -0.629  0.00  0.00     0.062 H 
ATOM     27  H   LIG d   1       4.160  -1.636  -0.889  0.00  0.00     0.064 H 
ATOM     28  H   LIG d   1       4.130  -3.673  -2.803  0.00  0.00     0.155 HD
ENDROOT
BRANCH   1  29
ATOM     29  C   LIG d   1       8.370   1.184  -5.227  0.00  0.00     0.049 C 
ATOM     30  H   LIG d   1       8.487   0.994  -4.160  0.00  0.00     0.052 H 
ATOM     31  H   LIG d   1       8.002   2.199  -5.378  0.00  0.00     0.052 H 
BRANCH  29  32
ATOM     32  C   LIG d   1       9.702   1.025  -5.914  0.00  0.00    -0.011 A 
ATOM     33  C   LIG d   1      10.271   2.098  -6.577  0.00  0.00     0.046 A 
ATOM     34  C   LIG d   1      11.494   1.951  -7.208  0.00  0.00    -0.043 A 
ATOM     35 CL   LIG d   1       9.450   3.627  -6.618  0.00  0.00    -0.083 Cl
ATOM     36  C   LIG d   1      12.147   0.734  -7.175  0.00  0.00    -0.060 A 
ATOM     37  H   LIG d   1      11.938   2.789  -7.724  0.00  0.00     0.063 H 
ATOM     38  C   LIG d   1      11.578  -0.338  -6.512  0.00  0.00    -0.061 A 
ATOM     39  H   LIG d   1      13.101   0.620  -7.667  0.00  0.00     0.062 H 
ATOM     40  C   LIG d   1      10.356  -0.192  -5.882  0.00  0.00    -0.056 A 
ATOM     41  H   LIG d   1      12.087  -1.290  -6.490  0.00  0.00     0.062 H 
ATOM     42  H   LIG d   1       9.912  -1.030  -5.364  0.00  0.00     0.062 H 
ENDBRANCH  29  32
ENDBRANCH   1  29
BRANCH   6  43
ATOM     43  C   LIG d   1       3.735  -0.155  -8.481  0.00  0.00    -0.032 C 
ATOM     44  H   LIG d   1       4.495  -0.283  -9.253  0.00  0.00     0.028 H 
ATOM     45  H   LIG d   1       2.973  -0.927  -8.591  0.00  0.00     0.028 H 
BRANCH  43  46
ATOM     46  C   LIG d   1       3.090   1.224  -8.626  0.00  0.00    -0.012 C 
ATOM     47  H   LIG d   1       2.120   1.122  -9.114  0.00  0.00     0.033 H 
ATOM     48  H   LIG d   1       2.955   1.667  -7.640  0.00  0.00     0.033 H 
BRANCH  46  49
ATOM     49  C   LIG d   1       3.980   2.110  -9.458  0.00  0.00     0.042 C 
ATOM     50  O   LIG d   1       4.350   3.186  -9.020  0.00  0.00    -0.550 OA
ATOM     51  O   LIG d   1       4.329   1.752 -10.570  0.00  0.00    -0.550 OA
ENDBRANCH  46  49
ENDBRANCH  43  46
ENDBRANCH   6  43
TORSDOF 5
ENDMDL
MODEL 4
REMARK VINA RESULT:      -7.3      2.950      6.691
REMARK  5 active torsions:
REMARK  status: ('A' for Active; 'I' for Inactive)
REMARK    1  A    between atoms: C_5  and  C_7 
REMARK    2  A    between atoms: C_7  and  N_8 
REMARK    3  A    between atoms: C_13  and  C_30 
REMARK    4  A    between atoms: C_30  and  C_31 
REMARK    5  A    between atoms: C_31  and  C_32 
ROOT
ATOM      1  N   LIG d   1       7.485  -0.336  -5.029  0.00  0.00    -0.237 N 
ATOM      2  C   LIG d   1       7.855  -1.618  -5.117  0.00  0.00     0.228 A 
ATOM      3  O   LIG d   1       8.766  -2.040  -5.796  0.00  0.00    -0.275 OA
ATOM      4  C   LIG d   1       6.959  -2.461  -4.236  0.00  0.00     0.065 A 
ATOM      5  H   LIG d   1       7.516  -3.028  -3.490  0.00  0.00     0.042 H 
ATOM      6  C   LIG d   1       6.073  -3.358  -5.127  0.00  0.00     0.021 C 
ATOM      7  H   LIG d   1       6.089  -3.004  -6.158  0.00  0.00     0.047 H 
ATOM      8  N   LIG d   1       4.706  -3.230  -4.556  0.00  0.00    -0.295 N 
ATOM      9  C   LIG d   1       4.605  -1.808  -4.176  0.00  0.00     0.136 A 
ATOM     10  C   LIG d   1       5.993  -1.419  -3.608  0.00  0.00     0.080 A 
ATOM     11  H   LIG d   1       6.023  -1.419  -2.518  0.00  0.00     0.043 H 
ATOM     12  C   LIG d   1       6.453  -0.110  -4.208  0.00  0.00     0.229 A 
ATOM     13  O   LIG d   1       5.961   0.975  -3.982  0.00  0.00    -0.275 OA
ATOM     14  C   LIG d   1       4.219  -0.950  -5.347  0.00  0.00     0.003 A 
ATOM     15  C   LIG d   1       4.789  -0.712  -6.578  0.00  0.00    -0.055 A 
ATOM     16  C   LIG d   1       4.179   0.153  -7.469  0.00  0.00    -0.061 A 
ATOM     17  C   LIG d   1       2.995   0.779  -7.119  0.00  0.00    -0.060 A 
ATOM     18  C   LIG d   1       2.420   0.544  -5.888  0.00  0.00    -0.040 A 
ATOM     19  C   LIG d   1       3.029  -0.326  -4.985  0.00  0.00     0.039 A 
ATOM     20  N   LIG d   1       2.649  -0.719  -3.700  0.00  0.00    -0.283 N 
ATOM     21  C   LIG d   1       3.521  -1.590  -3.156  0.00  0.00     0.243 A 
ATOM     22  O   LIG d   1       3.448  -2.097  -2.058  0.00  0.00    -0.273 OA
ATOM     23  H   LIG d   1       4.005  -3.472  -5.240  0.00  0.00     0.123 HD
ATOM     24  H   LIG d   1       5.712  -1.202  -6.849  0.00  0.00     0.062 H 
ATOM     25  H   LIG d   1       4.624   0.340  -8.434  0.00  0.00     0.062 H 
ATOM     26  H   LIG d   1       2.519   1.455  -7.814  0.00  0.00     0.062 H 
ATOM     27  H   LIG d   1       1.497   1.037  -5.622  0.00  0.00     0.064 H 
ATOM     28  H   LIG d   1       1.848  -0.403  -3.251  0.00  0.00     0.155 HD
ENDROOT
BRANCH   1  29
ATOM     29  C   LIG d   1       8.159   0.735  -5.767  0.00  0.00     0.049 C 
ATOM     30  H   LIG d   1       7.451   1.539  -5.968  0.00  0.00     0.052 H 
ATOM     31  H   LIG d   1       8.541   0.342  -6.710  0.00  0.00     0.052 H 
BRANCH  29  32
ATOM     32  C   LIG d   1       9.304   1.268  -4.945  0.00  0.00    -0.011 A 
ATOM     33  C   LIG d   1      10.608   0.982  -5.307  0.00  0.00     0.046 A 
ATOM     34  C   LIG d   1      11.659   1.471  -4.551  0.00  0.00    -0.043 A 
ATOM     35 CL   LIG d   1      10.926   0.006  -6.708  0.00  0.00    -0.083 Cl
ATOM     36  C   LIG d   1      11.405   2.247  -3.436  0.00  0.00    -0.060 A 
ATOM     37  H   LIG d   1      12.676   1.248  -4.834  0.00  0.00     0.063 H 
ATOM     38  C   LIG d   1      10.101   2.534  -3.075  0.00  0.00    -0.061 A 
ATOM     39  H   LIG d   1      12.225   2.630  -2.847  0.00  0.00     0.062 H 
ATOM     40  C   LIG d   1       9.052   2.045  -3.829  0.00  0.00    -0.056 A 
ATOM     41  H   LIG d   1       9.904   3.137  -2.202  0.00  0.00     0.062 H 
ATOM     42  H   LIG d   1       8.033   2.270  -3.547  0.00  0.00     0.062 H 
ENDBRANCH  29  32
ENDBRANCH   1  29
BRANCH   6  43
ATOM     43  C   LIG d   1       6.546  -4.811  -5.058  0.00  0.00    -0.032 C 
ATOM     44  H   LIG d   1       7.636  -4.841  -5.108  0.00  0.00     0.028 H 
ATOM     45  H   LIG d   1       6.213  -5.258  -4.121  0.00  0.00     0.028 H 
BRANCH  43  46
ATOM     46  C   LIG d   1       5.961  -5.596  -6.234  0.00  0.00    -0.012 C 
ATOM     47  H   LIG d   1       5.806  -4.923  -7.077  0.00  0.00     0.033 H 
ATOM     48  H   LIG d   1       6.653  -6.386  -6.523  0.00  0.00     0.033 H 
BRANCH  46  49
ATOM     49  C   LIG d   1       4.644  -6.203  -5.827  0.00  0.00     0.042 C 
ATOM     50  O   LIG d   1       3.603  -5.615  -6.063  0.00  0.00    -0.550 OA
ATOM     51  O   LIG d   1       4.620  -7.283  -5.262  0.00  0.00    -0.550 OA
ENDBRANCH  46  49
ENDBRANCH  43  46
ENDBRANCH   6  43
TORSDOF 5
ENDMDL
MODEL 5
REMARK VINA RESULT:      -7.3      2.028      4.702
REMARK  5 active torsions:
REMARK  status: ('A' for Active; 'I' for Inactive)
REMARK    1  A    between atoms: C_5  and  C_7 
REMARK    2  A    between atoms: C_7  and  N_8 
REMARK    3  A    between atoms: C_13  and  C_30 
REMARK    4  A    between atoms: C_30  and  C_31 
REMARK    5  A    between atoms: C_31  and  C_32 
ROOT
ATOM      1  N   LIG d   1       5.461  -1.935  -6.745  0.00  0.00    -0.237 N 
ATOM      2  C   LIG d   1       6.397  -2.847  -6.458  0.00  0.00     0.228 A 
ATOM      3  O   LIG d   1       6.345  -4.021  -6.753  0.00  0.00    -0.275 OA
ATOM      4  C   LIG d   1       7.530  -2.183  -5.707  0.00  0.00     0.065 A 
ATOM      5  H   LIG d   1       8.492  -2.304  -6.205  0.00  0.00     0.042 H 
ATOM      6  C   LIG d   1       7.543  -2.699  -4.252  0.00  0.00     0.021 C 
ATOM      7  H   LIG d   1       6.603  -3.198  -4.017  0.00  0.00     0.047 H 
ATOM      8  N   LIG d   1       7.705  -1.479  -3.417  0.00  0.00    -0.295 N 
ATOM      9  C   LIG d   1       6.879  -0.464  -4.097  0.00  0.00     0.136 A 
ATOM     10  C   LIG d   1       7.079  -0.699  -5.615  0.00  0.00     0.080 A 
ATOM     11  H   LIG d   1       7.795  -0.012  -6.064  0.00  0.00     0.043 H 
ATOM     12  C   LIG d   1       5.742  -0.697  -6.322  0.00  0.00     0.229 A 
ATOM     13  O   LIG d   1       5.034   0.274  -6.479  0.00  0.00    -0.275 OA
ATOM     14  C   LIG d   1       5.435  -0.570  -3.698  0.00  0.00     0.003 A 
ATOM     15  C   LIG d   1       4.498  -1.576  -3.786  0.00  0.00    -0.055 A 
ATOM     16  C   LIG d   1       3.213  -1.368  -3.318  0.00  0.00    -0.061 A 
ATOM     17  C   LIG d   1       2.871  -0.148  -2.761  0.00  0.00    -0.060 A 
ATOM     18  C   LIG d   1       3.806   0.862  -2.671  0.00  0.00    -0.040 A 
ATOM     19  C   LIG d   1       5.103   0.661  -3.141  0.00  0.00     0.039 A 
ATOM     20  N   LIG d   1       6.208   1.514  -3.161  0.00  0.00    -0.283 N 
ATOM     21  C   LIG d   1       7.292   0.929  -3.706  0.00  0.00     0.243 A 
ATOM     22  O   LIG d   1       8.387   1.428  -3.854  0.00  0.00    -0.273 OA
ATOM     23  H   LIG d   1       7.378  -1.639  -2.476  0.00  0.00     0.123 HD
ATOM     24  H   LIG d   1       4.766  -2.527  -4.220  0.00  0.00     0.062 H 
ATOM     25  H   LIG d   1       2.477  -2.155  -3.386  0.00  0.00     0.062 H 
ATOM     26  H   LIG d   1       1.868   0.014  -2.396  0.00  0.00     0.062 H 
ATOM     27  H   LIG d   1       3.532   1.811  -2.235  0.00  0.00     0.064 H 
ATOM     28  H   LIG d   1       6.196   2.423  -2.821  0.00  0.00     0.155 HD
ENDROOT
BRANCH   1  29
ATOM     29  C   LIG d   1       4.231  -2.265  -7.469  0.00  0.00     0.049 C 
ATOM     30  H   LIG d   1       3.384  -1.773  -6.990  0.00  0.00     0.052 H 
ATOM     31  H   LIG d   1       4.079  -3.344  -7.456  0.00  0.00     0.052 H 
BRANCH  29  32
ATOM     32  C   LIG d   1       4.345  -1.792  -8.895  0.00  0.00    -0.011 A 
ATOM     33  C   LIG d   1       3.454  -0.855  -9.387  0.00  0.00     0.046 A 
ATOM     34  C   LIG d   1       3.560  -0.421 -10.697  0.00  0.00    -0.043 A 
ATOM     35 CL   LIG d   1       2.203  -0.226  -8.362  0.00  0.00    -0.083 Cl
ATOM     36  C   LIG d   1       4.556  -0.922 -11.513  0.00  0.00    -0.060 A 
ATOM     37  H   LIG d   1       2.865   0.311 -11.080  0.00  0.00     0.063 H 
ATOM     38  C   LIG d   1       5.447  -1.858 -11.020  0.00  0.00    -0.061 A 
ATOM     39  H   LIG d   1       4.639  -0.584 -12.534  0.00  0.00     0.062 H 
ATOM     40  C   LIG d   1       5.342  -2.293  -9.713  0.00  0.00    -0.056 A 
ATOM     41  H   LIG d   1       6.223  -2.253 -11.660  0.00  0.00     0.062 H 
ATOM     42  H   LIG d   1       6.039  -3.024  -9.328  0.00  0.00     0.062 H 
ENDBRANCH  29  32
ENDBRANCH   1  29
BRANCH   6  43
ATOM     43  C   LIG d   1       8.720  -3.654  -4.036  0.00  0.00    -0.032 C 
ATOM     44  H   LIG d   1       8.875  -3.803  -2.967  0.00  0.00     0.028 H 
ATOM     45  H   LIG d   1       8.502  -4.611  -4.509  0.00  0.00     0.028 H 
BRANCH  43  46
ATOM     46  C   LIG d   1       9.984  -3.054  -4.655  0.00  0.00    -0.012 C 
ATOM     47  H   LIG d   1      10.158  -3.505  -5.632  0.00  0.00     0.033 H 
ATOM     48  H   LIG d   1       9.856  -1.978  -4.770  0.00  0.00     0.033 H 
BRANCH  46  49
ATOM     49  C   LIG d   1      11.162  -3.329  -3.758  0.00  0.00     0.042 C 
ATOM     50  O   LIG d   1      12.165  -2.640  -3.840  0.00  0.00    -0.550 OA
ATOM     51  O   LIG d   1      11.113  -4.240  -2.950  0.00  0.00    -0.550 OA
ENDBRANCH  46  49
ENDBRANCH  43  46
ENDBRANCH   6  43
TORSDOF 5
ENDMDL
MODEL 6
REMARK VINA RESULT:      -7.1      2.218      4.854
REMARK  5 active torsions:
REMARK  status: ('A' for Active; 'I' for Inactive)
REMARK    1  A    between atoms: C_5  and  C_7 
REMARK    2  A    between atoms: C_7  and  N_8 
REMARK    3  A    between atoms: C_13  and  C_30 
REMARK    4  A    between atoms: C_30  and  C_31 
REMARK    5  A    between atoms: C_31  and  C_32 
ROOT
ATOM      1  N   LIG d   1       5.319  -1.358  -7.087  0.00  0.00    -0.237 N 
ATOM      2  C   LIG d   1       6.560  -1.776  -7.361  0.00  0.00     0.228 A 
ATOM      3  O   LIG d   1       6.842  -2.705  -8.085  0.00  0.00    -0.275 OA
ATOM      4  C   LIG d   1       7.555  -0.907  -6.625  0.00  0.00     0.065 A 
ATOM      5  H   LIG d   1       8.269  -0.426  -7.295  0.00  0.00     0.042 H 
ATOM      6  C   LIG d   1       8.242  -1.744  -5.525  0.00  0.00     0.021 C 
ATOM      7  H   LIG d   1       7.685  -2.663  -5.343  0.00  0.00     0.047 H 
ATOM      8  N   LIG d   1       8.220  -0.877  -4.317  0.00  0.00    -0.295 N 
ATOM      9  C   LIG d   1       6.906  -0.211  -4.375  0.00  0.00     0.136 A 
ATOM     10  C   LIG d   1       6.655   0.110  -5.869  0.00  0.00     0.080 A 
ATOM     11  H   LIG d   1       6.879   1.145  -6.128  0.00  0.00     0.043 H 
ATOM     12  C   LIG d   1       5.256  -0.304  -6.263  0.00  0.00     0.229 A 
ATOM     13  O   LIG d   1       4.235   0.232  -5.889  0.00  0.00    -0.275 OA
ATOM     14  C   LIG d   1       5.822  -1.077  -3.798  0.00  0.00     0.003 A 
ATOM     15  C   LIG d   1       5.343  -2.331  -4.109  0.00  0.00    -0.055 A 
ATOM     16  C   LIG d   1       4.308  -2.879  -3.374  0.00  0.00    -0.061 A 
ATOM     17  C   LIG d   1       3.755  -2.165  -2.325  0.00  0.00    -0.060 A 
ATOM     18  C   LIG d   1       4.231  -0.909  -2.009  0.00  0.00    -0.040 A 
ATOM     19  C   LIG d   1       5.274  -0.350  -2.746  0.00  0.00     0.039 A 
ATOM     20  N   LIG d   1       5.918   0.883  -2.623  0.00  0.00    -0.283 N 
ATOM     21  C   LIG d   1       6.890   1.042  -3.542  0.00  0.00     0.243 A 
ATOM     22  O   LIG d   1       7.611   2.008  -3.673  0.00  0.00    -0.273 OA
ATOM     23  H   LIG d   1       8.310  -1.427  -3.476  0.00  0.00     0.123 HD
ATOM     24  H   LIG d   1       5.776  -2.886  -4.927  0.00  0.00     0.062 H 
ATOM     25  H   LIG d   1       3.931  -3.861  -3.616  0.00  0.00     0.062 H 
ATOM     26  H   LIG d   1       2.946  -2.592  -1.751  0.00  0.00     0.062 H 
ATOM     27  H   LIG d   1       3.794  -0.358  -1.190  0.00  0.00     0.064 H 
ATOM     28  H   LIG d   1       5.692   1.548  -1.953  0.00  0.00     0.155 HD
ENDROOT
BRANCH   1  29
ATOM     29  C   LIG d   1       4.126  -1.998  -7.648  0.00  0.00     0.049 C 
ATOM     30  H   LIG d   1       3.274  -1.815  -6.993  0.00  0.00     0.052 H 
ATOM     31  H   LIG d   1       4.296  -3.071  -7.734  0.00  0.00     0.052 H 
BRANCH  29  32
ATOM     32  C   LIG d   1       3.843  -1.423  -9.012  0.00  0.00    -0.011 A 
ATOM     33  C   LIG d   1       3.913  -2.232 -10.131  0.00  0.00     0.046 A 
ATOM     34  C   LIG d   1       3.653  -1.703 -11.384  0.00  0.00    -0.043 A 
ATOM     35 CL   LIG d   1       4.330  -3.909  -9.966  0.00  0.00    -0.083 Cl
ATOM     36  C   LIG d   1       3.322  -0.369 -11.515  0.00  0.00    -0.060 A 
ATOM     37  H   LIG d   1       3.707  -2.335 -12.258  0.00  0.00     0.063 H 
ATOM     38  C   LIG d   1       3.250   0.440 -10.395  0.00  0.00    -0.061 A 
ATOM     39  H   LIG d   1       3.118   0.044 -12.492  0.00  0.00     0.062 H 
ATOM     40  C   LIG d   1       3.511  -0.087  -9.144  0.00  0.00    -0.056 A 
ATOM     41  H   LIG d   1       2.995   1.484 -10.499  0.00  0.00     0.062 H 
ATOM     42  H   LIG d   1       3.454   0.545  -8.269  0.00  0.00     0.062 H 
ENDBRANCH  29  32
ENDBRANCH   1  29
BRANCH   6  43
ATOM     43  C   LIG d   1       9.684  -2.068  -5.924  0.00  0.00    -0.032 C 
ATOM     44  H   LIG d   1      10.305  -2.119  -5.029  0.00  0.00     0.028 H 
ATOM     45  H   LIG d   1       9.711  -3.026  -6.441  0.00  0.00     0.028 H 
BRANCH  43  46
ATOM     46  C   LIG d   1      10.215  -0.972  -6.850  0.00  0.00    -0.012 C 
ATOM     47  H   LIG d   1      10.790  -1.427  -7.658  0.00  0.00     0.033 H 
ATOM     48  H   LIG d   1       9.378  -0.415  -7.271  0.00  0.00     0.033 H 
BRANCH  46  49
ATOM     49  C   LIG d   1      11.101  -0.038  -6.068  0.00  0.00     0.042 C 
ATOM     50  O   LIG d   1      11.318  -0.250  -4.887  0.00  0.00    -0.550 OA
ATOM     51  O   LIG d   1      11.598   0.931  -6.615  0.00  0.00    -0.550 OA
ENDBRANCH  46  49
ENDBRANCH  43  46
ENDBRANCH   6  43
TORSDOF 5
ENDMDL
MODEL 7
REMARK VINA RESULT:      -7.1      3.147      6.162
REMARK  5 active torsions:
REMARK  status: ('A' for Active; 'I' for Inactive)
REMARK    1  A    between atoms: C_5  and  C_7 
REMARK    2  A    between atoms: C_7  and  N_8 
REMARK    3  A    between atoms: C_13  and  C_30 
REMARK    4  A    between atoms: C_30  and  C_31 
REMARK    5  A    between atoms: C_31  and  C_32 
ROOT
ATOM      1  N   LIG d   1       5.074  -2.338  -7.449  0.00  0.00    -0.237 N 
ATOM      2  C   LIG d   1       4.654  -1.820  -6.288  0.00  0.00     0.228 A 
ATOM      3  O   LIG d   1       4.330  -2.461  -5.312  0.00  0.00    -0.275 OA
ATOM      4  C   LIG d   1       4.647  -0.311  -6.385  0.00  0.00     0.065 A 
ATOM      5  H   LIG d   1       5.267   0.162  -5.623  0.00  0.00     0.042 H 
ATOM      6  C   LIG d   1       3.188   0.191  -6.361  0.00  0.00     0.021 C 
ATOM      7  H   LIG d   1       2.499  -0.632  -6.551  0.00  0.00     0.047 H 
ATOM      8  N   LIG d   1       3.112   1.194  -7.457  0.00  0.00    -0.295 N 
ATOM      9  C   LIG d   1       3.940   0.617  -8.532  0.00  0.00     0.136 A 
ATOM     10  C   LIG d   1       5.153  -0.042  -7.829  0.00  0.00     0.080 A 
ATOM     11  H   LIG d   1       6.049   0.577  -7.854  0.00  0.00     0.043 H 
ATOM     12  C   LIG d   1       5.384  -1.430  -8.382  0.00  0.00     0.229 A 
ATOM     13  O   LIG d   1       5.785  -1.682  -9.498  0.00  0.00    -0.275 OA
ATOM     14  C   LIG d   1       3.164  -0.372  -9.355  0.00  0.00     0.003 A 
ATOM     15  C   LIG d   1       2.506  -1.545  -9.058  0.00  0.00    -0.055 A 
ATOM     16  C   LIG d   1       1.865  -2.253 -10.059  0.00  0.00    -0.061 A 
ATOM     17  C   LIG d   1       1.886  -1.779 -11.359  0.00  0.00    -0.060 A 
ATOM     18  C   LIG d   1       2.543  -0.604 -11.662  0.00  0.00    -0.040 A 
ATOM     19  C   LIG d   1       3.192   0.114 -10.659  0.00  0.00     0.039 A 
ATOM     20  N   LIG d   1       3.914   1.308 -10.714  0.00  0.00    -0.283 N 
ATOM     21  C   LIG d   1       4.386   1.673  -9.507  0.00  0.00     0.243 A 
ATOM     22  O   LIG d   1       5.043   2.659  -9.254  0.00  0.00    -0.273 OA
ATOM     23  H   LIG d   1       2.159   1.322  -7.764  0.00  0.00     0.123 HD
ATOM     24  H   LIG d   1       2.491  -1.913  -8.043  0.00  0.00     0.062 H 
ATOM     25  H   LIG d   1       1.349  -3.172  -9.828  0.00  0.00     0.062 H 
ATOM     26  H   LIG d   1       1.385  -2.331 -12.141  0.00  0.00     0.062 H 
ATOM     27  H   LIG d   1       2.555  -0.241 -12.679  0.00  0.00     0.064 H 
ATOM     28  H   LIG d   1       4.058   1.816 -11.528  0.00  0.00     0.155 HD
ENDROOT
BRANCH   1  29
ATOM     29  C   LIG d   1       5.191  -3.780  -7.676  0.00  0.00     0.049 C 
ATOM     30  H   LIG d   1       5.272  -3.974  -8.745  0.00  0.00     0.052 H 
ATOM     31  H   LIG d   1       4.308  -4.283  -7.282  0.00  0.00     0.052 H 
BRANCH  29  32
ATOM     32  C   LIG d   1       6.419  -4.301  -6.975  0.00  0.00    -0.011 A 
ATOM     33  C   LIG d   1       6.297  -5.257  -5.984  0.00  0.00     0.046 A 
ATOM     34  C   LIG d   1       7.426  -5.735  -5.341  0.00  0.00    -0.043 A 
ATOM     35 CL   LIG d   1       4.728  -5.857  -5.544  0.00  0.00    -0.083 Cl
ATOM     36  C   LIG d   1       8.674  -5.257  -5.690  0.00  0.00    -0.060 A 
ATOM     37  H   LIG d   1       7.331  -6.482  -4.567  0.00  0.00     0.063 H 
ATOM     38  C   LIG d   1       8.796  -4.302  -6.683  0.00  0.00    -0.061 A 
ATOM     39  H   LIG d   1       9.555  -5.630  -5.189  0.00  0.00     0.062 H 
ATOM     40  C   LIG d   1       7.669  -3.824  -7.325  0.00  0.00    -0.056 A 
ATOM     41  H   LIG d   1       9.772  -3.926  -6.953  0.00  0.00     0.062 H 
ATOM     42  H   LIG d   1       7.765  -3.078  -8.100  0.00  0.00     0.062 H 
ENDBRANCH  29  32
ENDBRANCH   1  29
BRANCH   6  43
ATOM     43  C   LIG d   1       2.872   0.847  -5.015  0.00  0.00    -0.032 C 
ATOM     44  H   LIG d   1       3.775   1.313  -4.617  0.00  0.00     0.028 H 
ATOM     45  H   LIG d   1       2.102   1.605  -5.152  0.00  0.00     0.028 H 
BRANCH  43  46
ATOM     46  C   LIG d   1       2.373  -0.216  -4.034  0.00  0.00    -0.012 C 
ATOM     47  H   LIG d   1       1.318  -0.045  -3.819  0.00  0.00     0.033 H 
ATOM     48  H   LIG d   1       2.497  -1.205  -4.476  0.00  0.00     0.033 H 
BRANCH  46  49
ATOM     49  C   LIG d   1       3.167  -0.133  -2.756  0.00  0.00     0.042 C 
ATOM     50  O   LIG d   1       3.284   0.934  -2.180  0.00  0.00    -0.550 OA
ATOM     51  O   LIG d   1       3.693  -1.134  -2.299  0.00  0.00    -0.550 OA
ENDBRANCH  46  49
ENDBRANCH  43  46
ENDBRANCH   6  43
TORSDOF 5
ENDMDL
MODEL 8
REMARK VINA RESULT:      -7.1      2.566      6.210
REMARK  5 active torsions:
REMARK  status: ('A' for Active; 'I' for Inactive)
REMARK    1  A    between atoms: C_5  and  C_7 
REMARK    2  A    between atoms: C_7  and  N_8 
REMARK    3  A    between atoms: C_13  and  C_30 
REMARK    4  A    between atoms: C_30  and  C_31 
REMARK    5  A    between atoms: C_31  and  C_32 
ROOT
ATOM      1  N   LIG d   1       7.508  -1.985  -5.450  0.00  0.00    -0.237 N 
ATOM      2  C   LIG d   1       7.062  -1.875  -4.194  0.00  0.00     0.228 A 
ATOM      3  O   LIG d   1       7.523  -2.451  -3.233  0.00  0.00    -0.275 OA
ATOM      4  C   LIG d   1       5.892  -0.917  -4.160  0.00  0.00     0.065 A 
ATOM      5  H   LIG d   1       6.055  -0.076  -3.485  0.00  0.00     0.042 H 
ATOM      6  C   LIG d   1       4.604  -1.703  -3.832  0.00  0.00     0.021 C 
ATOM      7  H   LIG d   1       4.767  -2.772  -3.964  0.00  0.00     0.047 H 
ATOM      8  N   LIG d   1       3.597  -1.208  -4.807  0.00  0.00    -0.295 N 
ATOM      9  C   LIG d   1       4.359  -1.039  -6.059  0.00  0.00     0.136 A 
ATOM     10  C   LIG d   1       5.742  -0.481  -5.644  0.00  0.00     0.080 A 
ATOM     11  H   LIG d   1       5.825   0.598  -5.777  0.00  0.00     0.043 H 
ATOM     12  C   LIG d   1       6.843  -1.244  -6.344  0.00  0.00     0.229 A 
ATOM     13  O   LIG d   1       7.084  -1.195  -7.531  0.00  0.00    -0.275 OA
ATOM     14  C   LIG d   1       4.480  -2.335  -6.810  0.00  0.00     0.003 A 
ATOM     15  C   LIG d   1       5.016  -3.565  -6.500  0.00  0.00    -0.055 A 
ATOM     16  C   LIG d   1       4.974  -4.593  -7.425  0.00  0.00    -0.061 A 
ATOM     17  C   LIG d   1       4.393  -4.381  -8.663  0.00  0.00    -0.060 A 
ATOM     18  C   LIG d   1       3.854  -3.151  -8.978  0.00  0.00    -0.040 A 
ATOM     19  C   LIG d   1       3.893  -2.111  -8.052  0.00  0.00     0.039 A 
ATOM     20  N   LIG d   1       3.424  -0.798  -8.135  0.00  0.00    -0.283 N 
ATOM     21  C   LIG d   1       3.657  -0.103  -7.005  0.00  0.00     0.243 A 
ATOM     22  O   LIG d   1       3.362   1.054  -6.792  0.00  0.00    -0.273 OA
ATOM     23  H   LIG d   1       2.850  -1.876  -4.926  0.00  0.00     0.123 HD
ATOM     24  H   LIG d   1       5.468  -3.728  -5.533  0.00  0.00     0.062 H 
ATOM     25  H   LIG d   1       5.393  -5.557  -7.183  0.00  0.00     0.062 H 
ATOM     26  H   LIG d   1       4.361  -5.183  -9.385  0.00  0.00     0.062 H 
ATOM     27  H   LIG d   1       3.403  -2.994  -9.946  0.00  0.00     0.064 H 
ATOM     28  H   LIG d   1       2.980  -0.430  -8.915  0.00  0.00     0.155 HD
ENDROOT
BRANCH   1  29
ATOM     29  C   LIG d   1       8.638  -2.844  -5.815  0.00  0.00     0.049 C 
ATOM     30  H   LIG d   1       8.660  -2.974  -6.897  0.00  0.00     0.052 H 
ATOM     31  H   LIG d   1       8.528  -3.815  -5.334  0.00  0.00     0.052 H 
BRANCH  29  32
ATOM     32  C   LIG d   1       9.924  -2.202  -5.361  0.00  0.00    -0.011 A 
ATOM     33  C   LIG d   1      10.794  -2.899  -4.543  0.00  0.00     0.046 A 
ATOM     34  C   LIG d   1      11.975  -2.308  -4.126  0.00  0.00    -0.043 A 
ATOM     35 CL   LIG d   1      10.404  -4.514  -4.037  0.00  0.00    -0.083 Cl
ATOM     36  C   LIG d   1      12.284  -1.024  -4.528  0.00  0.00    -0.060 A 
ATOM     37  H   LIG d   1      12.654  -2.853  -3.488  0.00  0.00     0.063 H 
ATOM     38  C   LIG d   1      11.414  -0.327  -5.348  0.00  0.00    -0.061 A 
ATOM     39  H   LIG d   1      13.205  -0.563  -4.204  0.00  0.00     0.062 H 
ATOM     40  C   LIG d   1      10.235  -0.916  -5.763  0.00  0.00    -0.056 A 
ATOM     41  H   LIG d   1      11.655   0.679  -5.658  0.00  0.00     0.062 H 
ATOM     42  H   LIG d   1       9.556  -0.371  -6.404  0.00  0.00     0.062 H 
ENDBRANCH  29  32
ENDBRANCH   1  29
BRANCH   6  43
ATOM     43  C   LIG d   1       4.150  -1.408  -2.401  0.00  0.00    -0.032 C 
ATOM     44  H   LIG d   1       3.636  -2.280  -1.995  0.00  0.00     0.028 H 
ATOM     45  H   LIG d   1       5.019  -1.179  -1.784  0.00  0.00     0.028 H 
BRANCH  43  46
ATOM     46  C   LIG d   1       3.197  -0.211  -2.403  0.00  0.00    -0.012 C 
ATOM     47  H   LIG d   1       2.601  -0.225  -3.316  0.00  0.00     0.033 H 
ATOM     48  H   LIG d   1       2.537  -0.271  -1.539  0.00  0.00     0.033 H 
BRANCH  46  49
ATOM     49  C   LIG d   1       3.993   1.066  -2.342  0.00  0.00     0.042 C 
ATOM     50  O   LIG d   1       4.712   1.291  -1.383  0.00  0.00    -0.550 OA
ATOM     51  O   LIG d   1       3.919   1.875  -3.251  0.00  0.00    -0.550 OA
ENDBRANCH  46  49
ENDBRANCH  43  46
ENDBRANCH   6  43
TORSDOF 5
ENDMDL
MODEL 9
REMARK VINA RESULT:      -6.8      2.909      7.080
REMARK  5 active torsions:
REMARK  status: ('A' for Active; 'I' for Inactive)
REMARK    1  A    between atoms: C_5  and  C_7 
REMARK    2  A    between atoms: C_7  and  N_8 
REMARK    3  A    between atoms: C_13  and  C_30 
REMARK    4  A    between atoms: C_30  and  C_31 
REMARK    5  A    between atoms: C_31  and  C_32 
ROOT
ATOM      1  N   LIG d   1       5.447  -1.484  -6.569  0.00  0.00    -0.237 N 
ATOM      2  C   LIG d   1       6.052  -2.478  -7.228  0.00  0.00     0.228 A 
ATOM      3  O   LIG d   1       7.185  -2.861  -7.033  0.00  0.00    -0.275 OA
ATOM      4  C   LIG d   1       5.101  -3.051  -8.255  0.00  0.00     0.065 A 
ATOM      5  H   LIG d   1       4.929  -4.120  -8.119  0.00  0.00     0.042 H 
ATOM      6  C   LIG d   1       5.615  -2.707  -9.669  0.00  0.00     0.021 C 
ATOM      7  H   LIG d   1       6.370  -1.922  -9.618  0.00  0.00     0.047 H 
ATOM      8  N   LIG d   1       4.415  -2.225 -10.404  0.00  0.00    -0.295 N 
ATOM      9  C   LIG d   1       3.672  -1.436  -9.404  0.00  0.00     0.136 A 
ATOM     10  C   LIG d   1       3.814  -2.202  -8.065  0.00  0.00     0.080 A 
ATOM     11  H   LIG d   1       2.940  -2.808  -7.825  0.00  0.00     0.043 H 
ATOM     12  C   LIG d   1       4.188  -1.246  -6.955  0.00  0.00     0.229 A 
ATOM     13  O   LIG d   1       3.461  -0.395  -6.490  0.00  0.00    -0.275 OA
ATOM     14  C   LIG d   1       4.201  -0.033  -9.305  0.00  0.00     0.003 A 
ATOM     15  C   LIG d   1       5.433   0.498  -8.995  0.00  0.00    -0.055 A 
ATOM     16  C   LIG d   1       5.616   1.869  -8.989  0.00  0.00    -0.061 A 
ATOM     17  C   LIG d   1       4.557   2.706  -9.294  0.00  0.00    -0.060 A 
ATOM     18  C   LIG d   1       3.321   2.179  -9.606  0.00  0.00    -0.040 A 
ATOM     19  C   LIG d   1       3.128   0.799  -9.614  0.00  0.00     0.039 A 
ATOM     20  N   LIG d   1       1.991   0.038  -9.891  0.00  0.00    -0.283 N 
ATOM     21  C   LIG d   1       2.226  -1.284  -9.791  0.00  0.00     0.243 A 
ATOM     22  O   LIG d   1       1.428  -2.178  -9.975  0.00  0.00    -0.273 OA
ATOM     23  H   LIG d   1       4.680  -1.653 -11.192  0.00  0.00     0.123 HD
ATOM     24  H   LIG d   1       6.258  -0.158  -8.758  0.00  0.00     0.062 H 
ATOM     25  H   LIG d   1       6.581   2.286  -8.746  0.00  0.00     0.062 H 
ATOM     26  H   LIG d   1       4.699   3.776  -9.288  0.00  0.00     0.062 H 
ATOM     27  H   LIG d   1       2.499   2.839  -9.842  0.00  0.00     0.064 H 
ATOM     28  H   LIG d   1       1.130   0.419 -10.129  0.00  0.00     0.155 HD
ENDROOT
BRANCH   1  29
ATOM     29  C   LIG d   1       6.108  -0.722  -5.506  0.00  0.00     0.049 C 
ATOM     30  H   LIG d   1       6.045   0.343  -5.731  0.00  0.00     0.052 H 
ATOM     31  H   LIG d   1       7.154  -1.019  -5.442  0.00  0.00     0.052 H 
BRANCH  29  32
ATOM     32  C   LIG d   1       5.425  -0.998  -4.192  0.00  0.00    -0.011 A 
ATOM     33  C   LIG d   1       5.467  -0.056  -3.179  0.00  0.00     0.046 A 
ATOM     34  C   LIG d   1       4.840  -0.311  -1.972  0.00  0.00    -0.043 A 
ATOM     35 CL   LIG d   1       6.306   1.444  -3.423  0.00  0.00    -0.083 Cl
ATOM     36  C   LIG d   1       4.172  -1.504  -1.778  0.00  0.00    -0.060 A 
ATOM     37  H   LIG d   1       4.871   0.425  -1.182  0.00  0.00     0.063 H 
ATOM     38  C   LIG d   1       4.130  -2.445  -2.791  0.00  0.00    -0.061 A 
ATOM     39  H   LIG d   1       3.683  -1.703  -0.836  0.00  0.00     0.062 H 
ATOM     40  C   LIG d   1       4.756  -2.192  -3.996  0.00  0.00    -0.056 A 
ATOM     41  H   LIG d   1       3.611  -3.380  -2.637  0.00  0.00     0.062 H 
ATOM     42  H   LIG d   1       4.723  -2.928  -4.788  0.00  0.00     0.062 H 
ENDBRANCH  29  32
ENDBRANCH   1  29
BRANCH   6  43
ATOM     43  C   LIG d   1       6.191  -3.953 -10.345  0.00  0.00    -0.032 C 
ATOM     44  H   LIG d   1       6.011  -3.899 -11.420  0.00  0.00     0.028 H 
ATOM     45  H   LIG d   1       7.263  -4.006 -10.158  0.00  0.00     0.028 H 
BRANCH  43  46
ATOM     46  C   LIG d   1       5.511  -5.201  -9.778  0.00  0.00    -0.012 C 
ATOM     47  H   LIG d   1       6.260  -5.975  -9.606  0.00  0.00     0.033 H 
ATOM     48  H   LIG d   1       5.024  -4.953  -8.835  0.00  0.00     0.033 H 
BRANCH  46  49
ATOM     49  C   LIG d   1       4.484  -5.704 -10.758  0.00  0.00     0.042 C 
ATOM     50  O   LIG d   1       3.404  -5.145 -10.850  0.00  0.00    -0.550 OA
ATOM     51  O   LIG d   1       4.732  -6.670 -11.458  0.00  0.00    -0.550 OA
ENDBRANCH  46  49
ENDBRANCH  43  46
ENDBRANCH   6  43
TORSDOF 5
ENDMDL
