MODEL 1
REMARK VINA RESULT:      -7.0      0.000      0.000
REMARK  4 active torsions:
REMARK  status: ('A' for Active; 'I' for Inactive)
REMARK    1  A    between atoms: C_1  and  C_2 
REMARK    2  A    between atoms: C_19  and  C_21 
REMARK    3  A    between atoms: C_21  and  N_56 
REMARK    4  A    between atoms: C_22  and  N_56 
ROOT
ATOM      1  C   LIG d   1       4.787  -1.094  -3.221  0.00  0.00    -0.022 C 
ATOM      2  C   LIG d   1       4.961  -0.153  -2.030  0.00  0.00    -0.047 C 
ATOM      3  C   LIG d   1       3.726   0.746  -1.896  0.00  0.00    -0.049 C 
ATOM      4  C   LIG d   1       3.601   1.629  -3.141  0.00  0.00    -0.032 C 
ATOM      5  C   LIG d   1       3.607   0.746  -4.370  0.00  0.00    -0.073 C 
ATOM      6  C   LIG d   1       2.672   0.854  -5.283  0.00  0.00    -0.099 C 
ATOM      7  C   LIG d   1       4.719  -0.267  -4.512  0.00  0.00    -0.014 C 
ATOM      8  H   LIG d   1       5.668   0.245  -4.678  0.00  0.00     0.035 H 
ATOM      9  C   LIG d   1       4.425  -1.207  -5.678  0.00  0.00    -0.039 C 
ATOM     10  C   LIG d   1       5.559  -2.220  -5.850  0.00  0.00     0.015 C 
ATOM     11  H   LIG d   1       6.450  -1.778  -6.299  0.00  0.00     0.035 H 
ATOM     12  C   LIG d   1       5.862  -2.946  -4.525  0.00  0.00     0.107 C 
ATOM     13  H   LIG d   1       6.791  -3.506  -4.632  0.00  0.00     0.074 H 
ATOM     14  C   LIG d   1       6.000  -2.017  -3.343  0.00  0.00    -0.009 C 
ATOM     15  O   LIG d   1       4.756  -3.884  -4.392  0.00  0.00    -0.461 OA
ATOM     16  C   LIG d   1       4.522  -4.400  -5.619  0.00  0.00     0.316 C 
ATOM     17  O   LIG d   1       4.034  -5.483  -5.841  0.00  0.00    -0.250 OA
ATOM     18  C   LIG d   1       4.978  -3.396  -6.690  0.00  0.00     0.102 C 
ATOM     19  H   LIG d   1       5.750  -3.830  -7.326  0.00  0.00     0.047 H 
ATOM     20  H   LIG d   1       5.081  -0.740  -1.119  0.00  0.00     0.027 H 
ATOM     21  H   LIG d   1       5.845   0.466  -2.183  0.00  0.00     0.027 H 
ATOM     22  H   LIG d   1       3.826   1.376  -1.012  0.00  0.00     0.027 H 
ATOM     23  H   LIG d   1       2.835   0.126  -1.800  0.00  0.00     0.027 H 
ATOM     24  H   LIG d   1       4.443   2.321  -3.185  0.00  0.00     0.031 H 
ATOM     25  H   LIG d   1       2.669   2.192  -3.099  0.00  0.00     0.031 H 
ATOM     26  H   LIG d   1       1.885   1.582  -5.164  0.00  0.00     0.053 H 
ATOM     27  H   LIG d   1       2.692   0.215  -6.153  0.00  0.00     0.053 H 
ATOM     28  H   LIG d   1       3.495  -1.739  -5.485  0.00  0.00     0.028 H 
ATOM     29  H   LIG d   1       4.322  -0.624  -6.593  0.00  0.00     0.028 H 
ATOM     30  H   LIG d   1       6.075  -2.610  -2.430  0.00  0.00     0.031 H 
ATOM     31  H   LIG d   1       6.909  -1.426  -3.457  0.00  0.00     0.031 H 
ENDROOT
BRANCH  18  32
ATOM     32  C   LIG d   1       3.794  -2.917  -7.534  0.00  0.00    -0.020 C 
ATOM     33  H   LIG d   1       2.991  -3.651  -7.483  0.00  0.00     0.082 H 
ATOM     34  H   LIG d   1       3.439  -1.960  -7.150  0.00  0.00     0.082 H 
BRANCH  32  35
ATOM     35  N   LIG d   1       4.231  -2.757  -8.933  0.00  0.00     0.230 N 
ATOM     36  H   LIG d   1       3.760  -3.458  -9.518  0.00  0.00     0.202 HD
ATOM     37  H   LIG d   1       5.247  -2.893  -8.989  0.00  0.00     0.202 HD
BRANCH  35  38
ATOM     38  C   LIG d   1       3.893  -1.408  -9.425  0.00  0.00    -0.023 C 
ATOM     39  C   LIG d   1       2.638  -0.911  -8.706  0.00  0.00    -0.010 C 
ATOM     40  C   LIG d   1       2.283   0.491  -9.207  0.00  0.00    -0.048 C 
ATOM     41  H   LIG d   1       1.810  -1.590  -8.910  0.00  0.00     0.032 H 
ATOM     42  H   LIG d   1       2.823  -0.876  -7.632  0.00  0.00     0.032 H 
ATOM     43  C   LIG d   1       3.445   1.444  -8.921  0.00  0.00    -0.053 C 
ATOM     44  H   LIG d   1       2.098   0.456 -10.281  0.00  0.00     0.027 H 
ATOM     45  H   LIG d   1       1.388   0.845  -8.695  0.00  0.00     0.027 H 
ATOM     46  C   LIG d   1       4.701   0.947  -9.640  0.00  0.00    -0.048 C 
ATOM     47  H   LIG d   1       3.192   2.442  -9.279  0.00  0.00     0.026 H 
ATOM     48  H   LIG d   1       3.631   1.478  -7.848  0.00  0.00     0.026 H 
ATOM     49  C   LIG d   1       5.056  -0.454  -9.138  0.00  0.00    -0.010 C 
ATOM     50  H   LIG d   1       4.516   0.913 -10.713  0.00  0.00     0.027 H 
ATOM     51  H   LIG d   1       5.529   1.626  -9.436  0.00  0.00     0.027 H 
ATOM     52  H   LIG d   1       5.242  -0.420  -8.064  0.00  0.00     0.032 H 
ATOM     53  H   LIG d   1       5.951  -0.808  -9.650  0.00  0.00     0.032 H 
ATOM     54  H   LIG d   1       3.708  -1.442 -10.498  0.00  0.00     0.085 H 
ENDBRANCH  35  38
ENDBRANCH  32  35
ENDBRANCH  18  32
BRANCH   1  55
ATOM     55  C   LIG d   1       3.504  -1.913  -3.065  0.00  0.00    -0.059 C 
ATOM     56  H   LIG d   1       2.961  -1.572  -2.183  0.00  0.00     0.024 H 
ATOM     57  H   LIG d   1       2.880  -1.781  -3.949  0.00  0.00     0.024 H 
ATOM     58  H   LIG d   1       3.757  -2.967  -2.952  0.00  0.00     0.024 H 
ENDBRANCH   1  55
TORSDOF 4
ENDMDL
MODEL 2
REMARK VINA RESULT:      -6.8      3.005      6.093
REMARK  4 active torsions:
REMARK  status: ('A' for Active; 'I' for Inactive)
REMARK    1  A    between atoms: C_1  and  C_2 
REMARK    2  A    between atoms: C_19  and  C_21 
REMARK    3  A    between atoms: C_21  and  N_56 
REMARK    4  A    between atoms: C_22  and  N_56 
ROOT
ATOM      1  C   LIG d   1       5.183   0.001  -9.026  0.00  0.00    -0.022 C 
ATOM      2  C   LIG d   1       4.249  -0.270 -10.205  0.00  0.00    -0.047 C 
ATOM      3  C   LIG d   1       2.877   0.358  -9.934  0.00  0.00    -0.049 C 
ATOM      4  C   LIG d   1       2.244  -0.308  -8.709  0.00  0.00    -0.032 C 
ATOM      5  C   LIG d   1       3.215  -0.224  -7.551  0.00  0.00    -0.073 C 
ATOM      6  C   LIG d   1       2.838   0.248  -6.388  0.00  0.00    -0.099 C 
ATOM      7  C   LIG d   1       4.632  -0.698  -7.775  0.00  0.00    -0.014 C 
ATOM      8  H   LIG d   1       4.644  -1.780  -7.918  0.00  0.00     0.035 H 
ATOM      9  C   LIG d   1       5.506  -0.321  -6.582  0.00  0.00    -0.039 C 
ATOM     10  C   LIG d   1       6.938  -0.821  -6.786  0.00  0.00     0.015 C 
ATOM     11  H   LIG d   1       7.028  -1.899  -6.641  0.00  0.00     0.035 H 
ATOM     12  C   LIG d   1       7.501  -0.356  -8.143  0.00  0.00     0.107 C 
ATOM     13  H   LIG d   1       8.432  -0.887  -8.340  0.00  0.00     0.074 H 
ATOM     14  C   LIG d   1       6.564  -0.594  -9.302  0.00  0.00    -0.009 C 
ATOM     15  O   LIG d   1       7.796   1.052  -7.923  0.00  0.00    -0.461 OA
ATOM     16  C   LIG d   1       8.336   1.158  -6.688  0.00  0.00     0.316 C 
ATOM     17  O   LIG d   1       9.096   2.026  -6.328  0.00  0.00    -0.250 OA
ATOM     18  C   LIG d   1       7.835  -0.002  -5.811  0.00  0.00     0.102 C 
ATOM     19  H   LIG d   1       8.668  -0.608  -5.456  0.00  0.00     0.047 H 
ATOM     20  H   LIG d   1       4.674   0.165 -11.110  0.00  0.00     0.027 H 
ATOM     21  H   LIG d   1       4.135  -1.346 -10.338  0.00  0.00     0.027 H 
ATOM     22  H   LIG d   1       2.230   0.215 -10.800  0.00  0.00     0.027 H 
ATOM     23  H   LIG d   1       2.997   1.425  -9.745  0.00  0.00     0.027 H 
ATOM     24  H   LIG d   1       2.030  -1.354  -8.931  0.00  0.00     0.031 H 
ATOM     25  H   LIG d   1       1.319   0.206  -8.448  0.00  0.00     0.031 H 
ATOM     26  H   LIG d   1       1.822   0.583  -6.245  0.00  0.00     0.053 H 
ATOM     27  H   LIG d   1       3.545   0.301  -5.573  0.00  0.00     0.053 H 
ATOM     28  H   LIG d   1       5.516   0.762  -6.473  0.00  0.00     0.028 H 
ATOM     29  H   LIG d   1       5.094  -0.770  -5.678  0.00  0.00     0.028 H 
ATOM     30  H   LIG d   1       6.972  -0.119 -10.195  0.00  0.00     0.031 H 
ATOM     31  H   LIG d   1       6.479  -1.666  -9.479  0.00  0.00     0.031 H 
ENDROOT
BRANCH  18  32
ATOM     32  C   LIG d   1       7.009   0.518  -4.633  0.00  0.00    -0.020 C 
ATOM     33  H   LIG d   1       7.343   1.520  -4.368  0.00  0.00     0.082 H 
ATOM     34  H   LIG d   1       5.955   0.547  -4.913  0.00  0.00     0.082 H 
BRANCH  32  35
ATOM     35  N   LIG d   1       7.189  -0.386  -3.480  0.00  0.00     0.230 N 
ATOM     36  H   LIG d   1       7.878   0.021  -2.835  0.00  0.00     0.202 HD
ATOM     37  H   LIG d   1       7.528  -1.296  -3.813  0.00  0.00     0.202 HD
BRANCH  35  38
ATOM     38  C   LIG d   1       5.910  -0.573  -2.771  0.00  0.00    -0.023 C 
ATOM     39  C   LIG d   1       4.985   0.605  -3.083  0.00  0.00    -0.010 C 
ATOM     40  C   LIG d   1       3.653   0.416  -2.353  0.00  0.00    -0.048 C 
ATOM     41  H   LIG d   1       5.453   1.532  -2.751  0.00  0.00     0.032 H 
ATOM     42  H   LIG d   1       4.806   0.653  -4.158  0.00  0.00     0.032 H 
ATOM     43  C   LIG d   1       2.997  -0.885  -2.819  0.00  0.00    -0.053 C 
ATOM     44  H   LIG d   1       3.832   0.368  -1.279  0.00  0.00     0.027 H 
ATOM     45  H   LIG d   1       2.994   1.255  -2.575  0.00  0.00     0.027 H 
ATOM     46  C   LIG d   1       3.921  -2.063  -2.507  0.00  0.00    -0.048 C 
ATOM     47  H   LIG d   1       2.048  -1.020  -2.299  0.00  0.00     0.026 H 
ATOM     48  H   LIG d   1       2.819  -0.838  -3.893  0.00  0.00     0.026 H 
ATOM     49  C   LIG d   1       5.253  -1.874  -3.237  0.00  0.00    -0.010 C 
ATOM     50  H   LIG d   1       4.099  -2.111  -1.433  0.00  0.00     0.027 H 
ATOM     51  H   LIG d   1       3.454  -2.990  -2.839  0.00  0.00     0.027 H 
ATOM     52  H   LIG d   1       5.075  -1.827  -4.312  0.00  0.00     0.032 H 
ATOM     53  H   LIG d   1       5.912  -2.713  -3.015  0.00  0.00     0.032 H 
ATOM     54  H   LIG d   1       6.088  -0.621  -1.697  0.00  0.00     0.085 H 
ENDBRANCH  35  38
ENDBRANCH  32  35
ENDBRANCH  18  32
BRANCH   1  55
ATOM     55  C   LIG d   1       5.288   1.506  -8.770  0.00  0.00    -0.059 C 
ATOM     56  H   LIG d   1       5.234   1.696  -7.698  0.00  0.00     0.024 H 
ATOM     57  H   LIG d   1       6.238   1.874  -9.157  0.00  0.00     0.024 H 
ATOM     58  H   LIG d   1       4.467   2.018  -9.272  0.00  0.00     0.024 H 
ENDBRANCH   1  55
TORSDOF 4
ENDMDL
MODEL 3
REMARK VINA RESULT:      -6.7      1.641      1.953
REMARK  4 active torsions:
REMARK  status: ('A' for Active; 'I' for Inactive)
REMARK    1  A    between atoms: C_1  and  C_2 
REMARK    2  A    between atoms: C_19  and  C_21 
REMARK    3  A    between atoms: C_21  and  N_56 
REMARK    4  A    between atoms: C_22  and  N_56 
ROOT
ATOM      1  C   LIG d   1       5.472  -1.587  -3.821  0.00  0.00    -0.022 C 
ATOM      2  C   LIG d   1       5.135  -1.279  -2.363  0.00  0.00    -0.047 C 
ATOM      3  C   LIG d   1       3.621  -1.081  -2.213  0.00  0.00    -0.049 C 
ATOM      4  C   LIG d   1       3.181   0.134  -3.034  0.00  0.00    -0.032 C 
ATOM      5  C   LIG d   1       3.655  -0.043  -4.461  0.00  0.00    -0.073 C 
ATOM      6  C   LIG d   1       2.825   0.086  -5.467  0.00  0.00    -0.099 C 
ATOM      7  C   LIG d   1       5.110  -0.375  -4.691  0.00  0.00    -0.014 C 
ATOM      8  H   LIG d   1       5.733   0.478  -4.419  0.00  0.00     0.035 H 
ATOM      9  C   LIG d   1       5.340  -0.741  -6.155  0.00  0.00    -0.039 C 
ATOM     10  C   LIG d   1       6.817  -1.052  -6.406  0.00  0.00     0.015 C 
ATOM     11  H   LIG d   1       7.435  -0.153  -6.428  0.00  0.00     0.035 H 
ATOM     12  C   LIG d   1       7.339  -2.106  -5.411  0.00  0.00     0.107 C 
ATOM     13  H   LIG d   1       8.425  -2.157  -5.487  0.00  0.00     0.074 H 
ATOM     14  C   LIG d   1       6.976  -1.817  -3.974  0.00  0.00    -0.009 C 
ATOM     15  O   LIG d   1       6.771  -3.352  -5.907  0.00  0.00    -0.461 OA
ATOM     16  C   LIG d   1       6.865  -3.323  -7.255  0.00  0.00     0.316 C 
ATOM     17  O   LIG d   1       6.932  -4.293  -7.974  0.00  0.00    -0.250 OA
ATOM     18  C   LIG d   1       6.878  -1.862  -7.735  0.00  0.00     0.102 C 
ATOM     19  H   LIG d   1       7.797  -1.639  -8.277  0.00  0.00     0.047 H 
ATOM     20  H   LIG d   1       5.456  -2.108  -1.733  0.00  0.00     0.027 H 
ATOM     21  H   LIG d   1       5.651  -0.368  -2.056  0.00  0.00     0.027 H 
ATOM     22  H   LIG d   1       3.376  -0.919  -1.163  0.00  0.00     0.027 H 
ATOM     23  H   LIG d   1       3.102  -1.970  -2.572  0.00  0.00     0.027 H 
ATOM     24  H   LIG d   1       3.621   1.039  -2.613  0.00  0.00     0.031 H 
ATOM     25  H   LIG d   1       2.094   0.214  -3.017  0.00  0.00     0.031 H 
ATOM     26  H   LIG d   1       1.788   0.323  -5.284  0.00  0.00     0.053 H 
ATOM     27  H   LIG d   1       3.180  -0.044  -6.479  0.00  0.00     0.053 H 
ATOM     28  H   LIG d   1       4.740  -1.615  -6.404  0.00  0.00     0.028 H 
ATOM     29  H   LIG d   1       5.036   0.095  -6.786  0.00  0.00     0.028 H 
ATOM     30  H   LIG d   1       7.259  -2.670  -3.356  0.00  0.00     0.031 H 
ATOM     31  H   LIG d   1       7.524  -0.937  -3.638  0.00  0.00     0.031 H 
ENDROOT
BRANCH  18  32
ATOM     32  C   LIG d   1       5.655  -1.558  -8.603  0.00  0.00    -0.020 C 
ATOM     33  H   LIG d   1       5.326  -2.470  -9.101  0.00  0.00     0.082 H 
ATOM     34  H   LIG d   1       4.850  -1.175  -7.975  0.00  0.00     0.082 H 
BRANCH  32  35
ATOM     35  N   LIG d   1       6.019  -0.546  -9.613  0.00  0.00     0.230 N 
ATOM     36  H   LIG d   1       6.199  -1.012 -10.511  0.00  0.00     0.202 HD
ATOM     37  H   LIG d   1       6.865  -0.052  -9.308  0.00  0.00     0.202 HD
BRANCH  35  38
ATOM     38  C   LIG d   1       4.922   0.426  -9.782  0.00  0.00    -0.023 C 
ATOM     39  C   LIG d   1       3.641  -0.152  -9.180  0.00  0.00    -0.010 C 
ATOM     40  C   LIG d   1       2.499   0.853  -9.347  0.00  0.00    -0.048 C 
ATOM     41  H   LIG d   1       3.386  -1.080  -9.691  0.00  0.00     0.032 H 
ATOM     42  H   LIG d   1       3.795  -0.352  -8.119  0.00  0.00     0.032 H 
ATOM     43  C   LIG d   1       2.857   2.156  -8.630  0.00  0.00    -0.053 C 
ATOM     44  H   LIG d   1       2.344   1.053 -10.408  0.00  0.00     0.027 H 
ATOM     45  H   LIG d   1       1.585   0.441  -8.918  0.00  0.00     0.027 H 
ATOM     46  C   LIG d   1       4.138   2.734  -9.232  0.00  0.00    -0.048 C 
ATOM     47  H   LIG d   1       2.043   2.872  -8.749  0.00  0.00     0.026 H 
ATOM     48  H   LIG d   1       3.013   1.956  -7.570  0.00  0.00     0.026 H 
ATOM     49  C   LIG d   1       5.280   1.729  -9.064  0.00  0.00    -0.010 C 
ATOM     50  H   LIG d   1       3.984   2.935 -10.292  0.00  0.00     0.027 H 
ATOM     51  H   LIG d   1       4.393   3.662  -8.721  0.00  0.00     0.027 H 
ATOM     52  H   LIG d   1       5.436   1.529  -8.004  0.00  0.00     0.032 H 
ATOM     53  H   LIG d   1       6.194   2.141  -9.493  0.00  0.00     0.032 H 
ATOM     54  H   LIG d   1       4.768   0.626 -10.842  0.00  0.00     0.085 H 
ENDBRANCH  35  38
ENDBRANCH  32  35
ENDBRANCH  18  32
BRANCH   1  55
ATOM     55  C   LIG d   1       4.691  -2.814  -4.296  0.00  0.00    -0.059 C 
ATOM     56  H   LIG d   1       5.389  -3.608  -4.563  0.00  0.00     0.024 H 
ATOM     57  H   LIG d   1       4.037  -3.160  -3.496  0.00  0.00     0.024 H 
ATOM     58  H   LIG d   1       4.092  -2.548  -5.168  0.00  0.00     0.024 H 
ENDBRANCH   1  55
TORSDOF 4
ENDMDL
MODEL 4
REMARK VINA RESULT:      -6.6      3.046      7.293
REMARK  4 active torsions:
REMARK  status: ('A' for Active; 'I' for Inactive)
REMARK    1  A    between atoms: C_1  and  C_2 
REMARK    2  A    between atoms: C_19  and  C_21 
REMARK    3  A    between atoms: C_21  and  N_56 
REMARK    4  A    between atoms: C_22  and  N_56 
ROOT
ATOM      1  C   LIG d   1       3.072  -0.965 -11.630  0.00  0.00    -0.022 C 
ATOM      2  C   LIG d   1       2.864  -1.534 -13.033  0.00  0.00    -0.047 C 
ATOM      3  C   LIG d   1       1.940  -2.756 -12.964  0.00  0.00    -0.049 C 
ATOM      4  C   LIG d   1       2.610  -3.857 -12.136  0.00  0.00    -0.032 C 
ATOM      5  C   LIG d   1       3.001  -3.286 -10.790  0.00  0.00    -0.073 C 
ATOM      6  C   LIG d   1       2.655  -3.886  -9.677  0.00  0.00    -0.099 C 
ATOM      7  C   LIG d   1       3.800  -2.004 -10.767  0.00  0.00    -0.014 C 
ATOM      8  H   LIG d   1       4.801  -2.183 -11.163  0.00  0.00     0.035 H 
ATOM      9  C   LIG d   1       3.894  -1.472  -9.339  0.00  0.00    -0.039 C 
ATOM     10  C   LIG d   1       4.726  -0.188  -9.299  0.00  0.00     0.015 C 
ATOM     11  H   LIG d   1       5.795  -0.379  -9.406  0.00  0.00     0.035 H 
ATOM     12  C   LIG d   1       4.204   0.845 -10.317  0.00  0.00     0.107 C 
ATOM     13  H   LIG d   1       4.927   1.655 -10.402  0.00  0.00     0.074 H 
ATOM     14  C   LIG d   1       3.967   0.273 -11.694  0.00  0.00    -0.009 C 
ATOM     15  O   LIG d   1       2.992   1.355  -9.691  0.00  0.00    -0.461 OA
ATOM     16  C   LIG d   1       3.257   1.507  -8.374  0.00  0.00     0.316 C 
ATOM     17  O   LIG d   1       2.710   2.291  -7.635  0.00  0.00    -0.250 OA
ATOM     18  C   LIG d   1       4.369   0.527  -7.962  0.00  0.00     0.102 C 
ATOM     19  H   LIG d   1       5.234   1.064  -7.572  0.00  0.00     0.047 H 
ATOM     20  H   LIG d   1       2.411  -0.774 -13.669  0.00  0.00     0.027 H 
ATOM     21  H   LIG d   1       3.826  -1.832 -13.450  0.00  0.00     0.027 H 
ATOM     22  H   LIG d   1       1.746  -3.126 -13.971  0.00  0.00     0.027 H 
ATOM     23  H   LIG d   1       0.998  -2.472 -12.495  0.00  0.00     0.027 H 
ATOM     24  H   LIG d   1       3.500  -4.213 -12.655  0.00  0.00     0.031 H 
ATOM     25  H   LIG d   1       1.914  -4.684 -11.995  0.00  0.00     0.031 H 
ATOM     26  H   LIG d   1       2.083  -4.801  -9.713  0.00  0.00     0.053 H 
ATOM     27  H   LIG d   1       2.943  -3.464  -8.726  0.00  0.00     0.053 H 
ATOM     28  H   LIG d   1       2.892  -1.263  -8.968  0.00  0.00     0.028 H 
ATOM     29  H   LIG d   1       4.363  -2.224  -8.705  0.00  0.00     0.028 H 
ATOM     30  H   LIG d   1       3.473   1.024 -12.312  0.00  0.00     0.031 H 
ATOM     31  H   LIG d   1       4.926   0.018 -12.144  0.00  0.00     0.031 H 
ENDROOT
BRANCH  18  32
ATOM     32  C   LIG d   1       3.857  -0.484  -6.934  0.00  0.00    -0.020 C 
ATOM     33  H   LIG d   1       3.064  -1.084  -7.378  0.00  0.00     0.082 H 
ATOM     34  H   LIG d   1       4.677  -1.134  -6.626  0.00  0.00     0.082 H 
BRANCH  32  35
ATOM     35  N   LIG d   1       3.333   0.242  -5.761  0.00  0.00     0.230 N 
ATOM     36  H   LIG d   1       2.347  -0.009  -5.620  0.00  0.00     0.202 HD
ATOM     37  H   LIG d   1       3.408   1.252  -5.927  0.00  0.00     0.202 HD
BRANCH  35  38
ATOM     38  C   LIG d   1       4.103  -0.112  -4.554  0.00  0.00    -0.023 C 
ATOM     39  C   LIG d   1       3.364   0.404  -3.318  0.00  0.00    -0.010 C 
ATOM     40  C   LIG d   1       4.155   0.037  -2.060  0.00  0.00    -0.048 C 
ATOM     41  H   LIG d   1       3.263   1.487  -3.381  0.00  0.00     0.032 H 
ATOM     42  H   LIG d   1       2.375  -0.051  -3.269  0.00  0.00     0.032 H 
ATOM     43  C   LIG d   1       4.297  -1.484  -1.972  0.00  0.00    -0.053 C 
ATOM     44  H   LIG d   1       5.145   0.492  -2.109  0.00  0.00     0.027 H 
ATOM     45  H   LIG d   1       3.629   0.405  -1.179  0.00  0.00     0.027 H 
ATOM     46  C   LIG d   1       5.036  -1.999  -3.208  0.00  0.00    -0.048 C 
ATOM     47  H   LIG d   1       4.861  -1.745  -1.076  0.00  0.00     0.026 H 
ATOM     48  H   LIG d   1       3.308  -1.939  -1.925  0.00  0.00     0.026 H 
ATOM     49  C   LIG d   1       4.245  -1.633  -4.466  0.00  0.00    -0.010 C 
ATOM     50  H   LIG d   1       6.025  -1.545  -3.256  0.00  0.00     0.027 H 
ATOM     51  H   LIG d   1       5.137  -3.083  -3.146  0.00  0.00     0.027 H 
ATOM     52  H   LIG d   1       3.255  -2.088  -4.418  0.00  0.00     0.032 H 
ATOM     53  H   LIG d   1       4.771  -2.000  -5.347  0.00  0.00     0.032 H 
ATOM     54  H   LIG d   1       5.093   0.343  -4.602  0.00  0.00     0.085 H 
ENDBRANCH  35  38
ENDBRANCH  32  35
ENDBRANCH  18  32
BRANCH   1  55
ATOM     55  C   LIG d   1       1.724  -0.621 -10.994  0.00  0.00    -0.059 C 
ATOM     56  H   LIG d   1       0.960  -1.302 -11.371  0.00  0.00     0.024 H 
ATOM     57  H   LIG d   1       1.797  -0.720  -9.912  0.00  0.00     0.024 H 
ATOM     58  H   LIG d   1       1.453   0.404 -11.249  0.00  0.00     0.024 H 
ENDBRANCH   1  55
TORSDOF 4
ENDMDL
MODEL 5
REMARK VINA RESULT:      -6.5      2.038      5.280
REMARK  4 active torsions:
REMARK  status: ('A' for Active; 'I' for Inactive)
REMARK    1  A    between atoms: C_1  and  C_2 
REMARK    2  A    between atoms: C_19  and  C_21 
REMARK    3  A    between atoms: C_21  and  N_56 
REMARK    4  A    between atoms: C_22  and  N_56 
ROOT
ATOM      1  C   LIG d   1       5.081  -0.096  -8.810  0.00  0.00    -0.022 C 
ATOM      2  C   LIG d   1       4.613   0.936  -9.836  0.00  0.00    -0.047 C 
ATOM      3  C   LIG d   1       3.986   2.135  -9.115  0.00  0.00    -0.049 C 
ATOM      4  C   LIG d   1       2.741   1.677  -8.350  0.00  0.00    -0.032 C 
ATOM      5  C   LIG d   1       3.120   0.526  -7.444  0.00  0.00    -0.073 C 
ATOM      6  C   LIG d   1       2.814   0.541  -6.170  0.00  0.00    -0.099 C 
ATOM      7  C   LIG d   1       3.864  -0.641  -8.051  0.00  0.00    -0.014 C 
ATOM      8  H   LIG d   1       3.210  -1.183  -8.735  0.00  0.00     0.035 H 
ATOM      9  C   LIG d   1       4.356  -1.578  -6.951  0.00  0.00    -0.039 C 
ATOM     10  C   LIG d   1       5.087  -2.779  -7.556  0.00  0.00     0.015 C 
ATOM     11  H   LIG d   1       4.403  -3.501  -8.005  0.00  0.00     0.035 H 
ATOM     12  C   LIG d   1       6.192  -2.325  -8.528  0.00  0.00     0.107 C 
ATOM     13  H   LIG d   1       6.553  -3.190  -9.083  0.00  0.00     0.074 H 
ATOM     14  C   LIG d   1       5.736  -1.281  -9.520  0.00  0.00    -0.009 C 
ATOM     15  O   LIG d   1       7.249  -1.854  -7.645  0.00  0.00    -0.461 OA
ATOM     16  C   LIG d   1       7.320  -2.722  -6.611  0.00  0.00     0.316 C 
ATOM     17  O   LIG d   1       8.305  -2.940  -5.946  0.00  0.00    -0.250 OA
ATOM     18  C   LIG d   1       5.950  -3.392  -6.413  0.00  0.00     0.102 C 
ATOM     19  H   LIG d   1       6.026  -4.473  -6.528  0.00  0.00     0.047 H 
ATOM     20  H   LIG d   1       5.465   1.273 -10.426  0.00  0.00     0.027 H 
ATOM     21  H   LIG d   1       3.872   0.481 -10.495  0.00  0.00     0.027 H 
ATOM     22  H   LIG d   1       3.705   2.895  -9.844  0.00  0.00     0.027 H 
ATOM     23  H   LIG d   1       4.708   2.555  -8.415  0.00  0.00     0.027 H 
ATOM     24  H   LIG d   1       1.978   1.350  -9.056  0.00  0.00     0.031 H 
ATOM     25  H   LIG d   1       2.355   2.502  -7.751  0.00  0.00     0.031 H 
ATOM     26  H   LIG d   1       2.283   1.383  -5.753  0.00  0.00     0.053 H 
ATOM     27  H   LIG d   1       3.093  -0.289  -5.538  0.00  0.00     0.053 H 
ATOM     28  H   LIG d   1       5.036  -1.036  -6.296  0.00  0.00     0.028 H 
ATOM     29  H   LIG d   1       3.504  -1.931  -6.371  0.00  0.00     0.028 H 
ATOM     30  H   LIG d   1       6.600  -0.915 -10.076  0.00  0.00     0.031 H 
ATOM     31  H   LIG d   1       5.032  -1.735 -10.217  0.00  0.00     0.031 H 
ENDROOT
BRANCH  18  32
ATOM     32  C   LIG d   1       5.358  -3.039  -5.047  0.00  0.00    -0.020 C 
ATOM     33  H   LIG d   1       4.720  -2.161  -5.142  0.00  0.00     0.082 H 
ATOM     34  H   LIG d   1       4.768  -3.879  -4.679  0.00  0.00     0.082 H 
BRANCH  32  35
ATOM     35  N   LIG d   1       6.455  -2.753  -4.103  0.00  0.00     0.230 N 
ATOM     36  H   LIG d   1       7.300  -2.503  -4.631  0.00  0.00     0.202 HD
ATOM     37  H   LIG d   1       6.641  -3.589  -3.537  0.00  0.00     0.202 HD
BRANCH  35  38
ATOM     38  C   LIG d   1       6.089  -1.635  -3.214  0.00  0.00    -0.023 C 
ATOM     39  C   LIG d   1       6.211  -0.320  -3.985  0.00  0.00    -0.010 C 
ATOM     40  C   LIG d   1       5.828   0.846  -3.070  0.00  0.00    -0.048 C 
ATOM     41  H   LIG d   1       7.239  -0.192  -4.325  0.00  0.00     0.032 H 
ATOM     42  H   LIG d   1       5.543  -0.339  -4.847  0.00  0.00     0.032 H 
ATOM     43  C   LIG d   1       4.386   0.667  -2.593  0.00  0.00    -0.053 C 
ATOM     44  H   LIG d   1       6.496   0.865  -2.209  0.00  0.00     0.027 H 
ATOM     45  H   LIG d   1       5.916   1.784  -3.619  0.00  0.00     0.027 H 
ATOM     46  C   LIG d   1       4.263  -0.648  -1.822  0.00  0.00    -0.048 C 
ATOM     47  H   LIG d   1       4.113   1.497  -1.941  0.00  0.00     0.026 H 
ATOM     48  H   LIG d   1       3.718   0.646  -3.454  0.00  0.00     0.026 H 
ATOM     49  C   LIG d   1       4.645  -1.814  -2.737  0.00  0.00    -0.010 C 
ATOM     50  H   LIG d   1       4.930  -0.629  -0.960  0.00  0.00     0.027 H 
ATOM     51  H   LIG d   1       3.236  -0.776  -1.482  0.00  0.00     0.027 H 
ATOM     52  H   LIG d   1       3.978  -1.834  -3.598  0.00  0.00     0.032 H 
ATOM     53  H   LIG d   1       4.559  -2.751  -2.188  0.00  0.00     0.032 H 
ATOM     54  H   LIG d   1       6.756  -1.615  -2.353  0.00  0.00     0.085 H 
ENDBRANCH  35  38
ENDBRANCH  32  35
ENDBRANCH  18  32
BRANCH   1  55
ATOM     55  C   LIG d   1       6.059   0.546  -7.824  0.00  0.00    -0.059 C 
ATOM     56  H   LIG d   1       7.077   0.433  -8.197  0.00  0.00     0.024 H 
ATOM     57  H   LIG d   1       5.826   1.606  -7.720  0.00  0.00     0.024 H 
ATOM     58  H   LIG d   1       5.970   0.057  -6.854  0.00  0.00     0.024 H 
ENDBRANCH   1  55
TORSDOF 4
ENDMDL
MODEL 6
REMARK VINA RESULT:      -6.5      4.812      6.478
REMARK  4 active torsions:
REMARK  status: ('A' for Active; 'I' for Inactive)
REMARK    1  A    between atoms: C_1  and  C_2 
REMARK    2  A    between atoms: C_19  and  C_21 
REMARK    3  A    between atoms: C_21  and  N_56 
REMARK    4  A    between atoms: C_22  and  N_56 
ROOT
ATOM      1  C   LIG d   1       5.732  -1.531  -4.381  0.00  0.00    -0.022 C 
ATOM      2  C   LIG d   1       4.816  -2.619  -3.821  0.00  0.00    -0.047 C 
ATOM      3  C   LIG d   1       3.618  -1.973  -3.114  0.00  0.00    -0.049 C 
ATOM      4  C   LIG d   1       4.113  -1.154  -1.918  0.00  0.00    -0.032 C 
ATOM      5  C   LIG d   1       5.164  -0.176  -2.396  0.00  0.00    -0.073 C 
ATOM      6  C   LIG d   1       5.079   1.099  -2.107  0.00  0.00    -0.099 C 
ATOM      7  C   LIG d   1       6.312  -0.712  -3.219  0.00  0.00    -0.014 C 
ATOM      8  H   LIG d   1       6.950  -1.344  -2.600  0.00  0.00     0.035 H 
ATOM      9  C   LIG d   1       7.127   0.442  -3.797  0.00  0.00    -0.039 C 
ATOM     10  C   LIG d   1       8.309  -0.089  -4.609  0.00  0.00     0.015 C 
ATOM     11  H   LIG d   1       9.112  -0.473  -3.977  0.00  0.00     0.035 H 
ATOM     12  C   LIG d   1       7.844  -1.112  -5.663  0.00  0.00     0.107 C 
ATOM     13  H   LIG d   1       8.718  -1.611  -6.083  0.00  0.00     0.074 H 
ATOM     14  C   LIG d   1       6.913  -2.167  -5.116  0.00  0.00    -0.009 C 
ATOM     15  O   LIG d   1       7.232  -0.284  -6.693  0.00  0.00    -0.461 OA
ATOM     16  C   LIG d   1       8.015   0.807  -6.844  0.00  0.00     0.316 C 
ATOM     17  O   LIG d   1       8.110   1.467  -7.852  0.00  0.00    -0.250 OA
ATOM     18  C   LIG d   1       8.771   1.078  -5.532  0.00  0.00     0.102 C 
ATOM     19  H   LIG d   1       9.849   1.038  -5.689  0.00  0.00     0.047 H 
ATOM     20  H   LIG d   1       4.459  -3.247  -4.637  0.00  0.00     0.027 H 
ATOM     21  H   LIG d   1       5.371  -3.229  -3.109  0.00  0.00     0.027 H 
ATOM     22  H   LIG d   1       2.936  -2.749  -2.766  0.00  0.00     0.027 H 
ATOM     23  H   LIG d   1       3.095  -1.318  -3.811  0.00  0.00     0.027 H 
ATOM     24  H   LIG d   1       4.547  -1.821  -1.173  0.00  0.00     0.031 H 
ATOM     25  H   LIG d   1       3.279  -0.608  -1.478  0.00  0.00     0.031 H 
ATOM     26  H   LIG d   1       4.252   1.465  -1.518  0.00  0.00     0.053 H 
ATOM     27  H   LIG d   1       5.838   1.783  -2.457  0.00  0.00     0.053 H 
ATOM     28  H   LIG d   1       6.489   1.044  -4.442  0.00  0.00     0.028 H 
ATOM     29  H   LIG d   1       7.500   1.062  -2.981  0.00  0.00     0.028 H 
ATOM     30  H   LIG d   1       6.524  -2.763  -5.942  0.00  0.00     0.031 H 
ATOM     31  H   LIG d   1       7.467  -2.817  -4.440  0.00  0.00     0.031 H 
ENDROOT
BRANCH  18  32
ATOM     32  C   LIG d   1       8.366   2.426  -4.932  0.00  0.00    -0.020 C 
ATOM     33  H   LIG d   1       7.291   2.566  -5.043  0.00  0.00     0.082 H 
ATOM     34  H   LIG d   1       8.628   2.446  -3.874  0.00  0.00     0.082 H 
BRANCH  32  35
ATOM     35  N   LIG d   1       9.082   3.504  -5.640  0.00  0.00     0.230 N 
ATOM     36  H   LIG d   1       8.405   4.076  -6.160  0.00  0.00     0.202 HD
ATOM     37  H   LIG d   1       9.755   3.091  -6.296  0.00  0.00     0.202 HD
BRANCH  35  38
ATOM     38  C   LIG d   1       9.802   4.359  -4.678  0.00  0.00    -0.023 C 
ATOM     39  C   LIG d   1       9.211   5.770  -4.719  0.00  0.00    -0.010 C 
ATOM     40  C   LIG d   1       9.951   6.662  -3.719  0.00  0.00    -0.048 C 
ATOM     41  H   LIG d   1       9.320   6.180  -5.722  0.00  0.00     0.032 H 
ATOM     42  H   LIG d   1       8.154   5.729  -4.455  0.00  0.00     0.032 H 
ATOM     43  C   LIG d   1       9.798   6.085  -2.310  0.00  0.00    -0.053 C 
ATOM     44  H   LIG d   1      11.008   6.702  -3.982  0.00  0.00     0.027 H 
ATOM     45  H   LIG d   1       9.530   7.667  -3.748  0.00  0.00     0.027 H 
ATOM     46  C   LIG d   1      10.388   4.675  -2.269  0.00  0.00    -0.048 C 
ATOM     47  H   LIG d   1      10.325   6.721  -1.599  0.00  0.00     0.026 H 
ATOM     48  H   LIG d   1       8.741   6.044  -2.048  0.00  0.00     0.026 H 
ATOM     49  C   LIG d   1       9.648   3.783  -3.268  0.00  0.00    -0.010 C 
ATOM     50  H   LIG d   1      11.445   4.716  -2.532  0.00  0.00     0.027 H 
ATOM     51  H   LIG d   1      10.279   4.265  -1.266  0.00  0.00     0.027 H 
ATOM     52  H   LIG d   1       8.591   3.742  -3.006  0.00  0.00     0.032 H 
ATOM     53  H   LIG d   1      10.069   2.778  -3.240  0.00  0.00     0.032 H 
ATOM     54  H   LIG d   1      10.859   4.400  -4.940  0.00  0.00     0.085 H 
ENDBRANCH  35  38
ENDBRANCH  32  35
ENDBRANCH  18  32
BRANCH   1  55
ATOM     55  C   LIG d   1       4.948  -0.611  -5.319  0.00  0.00    -0.059 C 
ATOM     56  H   LIG d   1       4.732  -1.140  -6.248  0.00  0.00     0.024 H 
ATOM     57  H   LIG d   1       4.013  -0.318  -4.843  0.00  0.00     0.024 H 
ATOM     58  H   LIG d   1       5.541   0.277  -5.536  0.00  0.00     0.024 H 
ENDBRANCH   1  55
TORSDOF 4
ENDMDL
MODEL 7
REMARK VINA RESULT:      -6.3      3.417      6.291
REMARK  4 active torsions:
REMARK  status: ('A' for Active; 'I' for Inactive)
REMARK    1  A    between atoms: C_1  and  C_2 
REMARK    2  A    between atoms: C_19  and  C_21 
REMARK    3  A    between atoms: C_21  and  N_56 
REMARK    4  A    between atoms: C_22  and  N_56 
ROOT
ATOM      1  C   LIG d   1       9.102  -6.082  -5.201  0.00  0.00    -0.022 C 
ATOM      2  C   LIG d   1      10.493  -6.713  -5.212  0.00  0.00    -0.047 C 
ATOM      3  C   LIG d   1      11.041  -6.784  -3.780  0.00  0.00    -0.049 C 
ATOM      4  C   LIG d   1      11.204  -5.365  -3.226  0.00  0.00    -0.032 C 
ATOM      5  C   LIG d   1       9.886  -4.634  -3.361  0.00  0.00    -0.073 C 
ATOM      6  C   LIG d   1       9.347  -4.022  -2.335  0.00  0.00    -0.099 C 
ATOM      7  C   LIG d   1       9.209  -4.631  -4.711  0.00  0.00    -0.014 C 
ATOM      8  H   LIG d   1       9.794  -4.041  -5.419  0.00  0.00     0.035 H 
ATOM      9  C   LIG d   1       7.802  -4.052  -4.591  0.00  0.00    -0.039 C 
ATOM     10  C   LIG d   1       7.116  -4.018  -5.958  0.00  0.00     0.015 C 
ATOM     11  H   LIG d   1       7.499  -3.221  -6.598  0.00  0.00     0.035 H 
ATOM     12  C   LIG d   1       7.166  -5.399  -6.639  0.00  0.00     0.107 C 
ATOM     13  H   LIG d   1       6.852  -5.294  -7.678  0.00  0.00     0.074 H 
ATOM     14  C   LIG d   1       8.535  -6.036  -6.620  0.00  0.00    -0.009 C 
ATOM     15  O   LIG d   1       6.164  -6.170  -5.917  0.00  0.00    -0.461 OA
ATOM     16  C   LIG d   1       5.107  -5.354  -5.710  0.00  0.00     0.316 C 
ATOM     17  O   LIG d   1       3.962  -5.712  -5.569  0.00  0.00    -0.250 OA
ATOM     18  C   LIG d   1       5.588  -3.893  -5.683  0.00  0.00     0.102 C 
ATOM     19  H   LIG d   1       5.104  -3.311  -6.468  0.00  0.00     0.047 H 
ATOM     20  H   LIG d   1      10.432  -7.719  -5.626  0.00  0.00     0.027 H 
ATOM     21  H   LIG d   1      11.161  -6.107  -5.825  0.00  0.00     0.027 H 
ATOM     22  H   LIG d   1      12.008  -7.286  -3.783  0.00  0.00     0.027 H 
ATOM     23  H   LIG d   1      10.345  -7.341  -3.153  0.00  0.00     0.027 H 
ATOM     24  H   LIG d   1      11.974  -4.839  -3.790  0.00  0.00     0.031 H 
ATOM     25  H   LIG d   1      11.490  -5.414  -2.176  0.00  0.00     0.031 H 
ATOM     26  H   LIG d   1       9.844  -4.035  -1.377  0.00  0.00     0.053 H 
ATOM     27  H   LIG d   1       8.406  -3.505  -2.449  0.00  0.00     0.053 H 
ATOM     28  H   LIG d   1       7.217  -4.670  -3.910  0.00  0.00     0.028 H 
ATOM     29  H   LIG d   1       7.862  -3.039  -4.194  0.00  0.00     0.028 H 
ATOM     30  H   LIG d   1       8.459  -7.058  -6.993  0.00  0.00     0.031 H 
ATOM     31  H   LIG d   1       9.201  -5.470  -7.270  0.00  0.00     0.031 H 
ENDROOT
BRANCH  18  32
ATOM     32  C   LIG d   1       5.341  -3.258  -4.313  0.00  0.00    -0.020 C 
ATOM     33  H   LIG d   1       5.334  -4.033  -3.549  0.00  0.00     0.082 H 
ATOM     34  H   LIG d   1       6.134  -2.541  -4.097  0.00  0.00     0.082 H 
BRANCH  32  35
ATOM     35  N   LIG d   1       4.039  -2.565  -4.330  0.00  0.00     0.230 N 
ATOM     36  H   LIG d   1       3.395  -3.038  -3.684  0.00  0.00     0.202 HD
ATOM     37  H   LIG d   1       3.652  -2.593  -5.280  0.00  0.00     0.202 HD
BRANCH  35  38
ATOM     38  C   LIG d   1       4.201  -1.160  -3.912  0.00  0.00    -0.023 C 
ATOM     39  C   LIG d   1       3.100  -0.803  -2.911  0.00  0.00    -0.010 C 
ATOM     40  C   LIG d   1       3.264   0.653  -2.469  0.00  0.00    -0.048 C 
ATOM     41  H   LIG d   1       2.126  -0.932  -3.382  0.00  0.00     0.032 H 
ATOM     42  H   LIG d   1       3.174  -1.456  -2.041  0.00  0.00     0.032 H 
ATOM     43  C   LIG d   1       4.632   0.835  -1.809  0.00  0.00    -0.053 C 
ATOM     44  H   LIG d   1       3.191   1.306  -3.339  0.00  0.00     0.027 H 
ATOM     45  H   LIG d   1       2.480   0.908  -1.757  0.00  0.00     0.027 H 
ATOM     46  C   LIG d   1       5.733   0.478  -2.809  0.00  0.00    -0.048 C 
ATOM     47  H   LIG d   1       4.749   1.872  -1.495  0.00  0.00     0.026 H 
ATOM     48  H   LIG d   1       4.706   0.181  -0.940  0.00  0.00     0.026 H 
ATOM     49  C   LIG d   1       5.569  -0.978  -3.250  0.00  0.00    -0.010 C 
ATOM     50  H   LIG d   1       5.660   1.131  -3.678  0.00  0.00     0.027 H 
ATOM     51  H   LIG d   1       6.708   0.608  -2.339  0.00  0.00     0.027 H 
ATOM     52  H   LIG d   1       5.643  -1.632  -2.382  0.00  0.00     0.032 H 
ATOM     53  H   LIG d   1       6.354  -1.232  -3.964  0.00  0.00     0.032 H 
ATOM     54  H   LIG d   1       4.128  -0.506  -4.781  0.00  0.00     0.085 H 
ENDBRANCH  35  38
ENDBRANCH  32  35
ENDBRANCH  18  32
BRANCH   1  55
ATOM     55  C   LIG d   1       8.171  -6.870  -4.276  0.00  0.00    -0.059 C 
ATOM     56  H   LIG d   1       7.186  -6.402  -4.269  0.00  0.00     0.024 H 
ATOM     57  H   LIG d   1       8.084  -7.894  -4.636  0.00  0.00     0.024 H 
ATOM     58  H   LIG d   1       8.580  -6.872  -3.265  0.00  0.00     0.024 H 
ENDBRANCH   1  55
TORSDOF 4
ENDMDL
MODEL 8
REMARK VINA RESULT:      -6.3      2.823      3.718
REMARK  4 active torsions:
REMARK  status: ('A' for Active; 'I' for Inactive)
REMARK    1  A    between atoms: C_1  and  C_2 
REMARK    2  A    between atoms: C_19  and  C_21 
REMARK    3  A    between atoms: C_21  and  N_56 
REMARK    4  A    between atoms: C_22  and  N_56 
ROOT
ATOM      1  C   LIG d   1       4.369  -1.371  -3.577  0.00  0.00    -0.022 C 
ATOM      2  C   LIG d   1       3.371  -0.773  -2.586  0.00  0.00    -0.047 C 
ATOM      3  C   LIG d   1       3.495   0.756  -2.585  0.00  0.00    -0.049 C 
ATOM      4  C   LIG d   1       4.891   1.154  -2.099  0.00  0.00    -0.032 C 
ATOM      5  C   LIG d   1       5.925   0.439  -2.942  0.00  0.00    -0.073 C 
ATOM      6  C   LIG d   1       6.902   1.099  -3.514  0.00  0.00    -0.099 C 
ATOM      7  C   LIG d   1       5.797  -1.057  -3.106  0.00  0.00    -0.014 C 
ATOM      8  H   LIG d   1       5.993  -1.554  -2.155  0.00  0.00     0.035 H 
ATOM      9  C   LIG d   1       6.778  -1.554  -4.164  0.00  0.00    -0.039 C 
ATOM     10  C   LIG d   1       6.677  -3.073  -4.320  0.00  0.00     0.015 C 
ATOM     11  H   LIG d   1       7.141  -3.610  -3.491  0.00  0.00     0.035 H 
ATOM     12  C   LIG d   1       5.220  -3.510  -4.567  0.00  0.00     0.107 C 
ATOM     13  H   LIG d   1       5.155  -4.595  -4.475  0.00  0.00     0.074 H 
ATOM     14  C   LIG d   1       4.230  -2.893  -3.608  0.00  0.00    -0.009 C 
ATOM     15  O   LIG d   1       4.984  -3.138  -5.954  0.00  0.00    -0.461 OA
ATOM     16  C   LIG d   1       6.102  -3.450  -6.646  0.00  0.00     0.316 C 
ATOM     17  O   LIG d   1       6.146  -3.715  -7.825  0.00  0.00    -0.250 OA
ATOM     18  C   LIG d   1       7.314  -3.419  -5.699  0.00  0.00     0.102 C 
ATOM     19  H   LIG d   1       7.801  -4.394  -5.661  0.00  0.00     0.047 H 
ATOM     20  H   LIG d   1       2.359  -1.054  -2.878  0.00  0.00     0.027 H 
ATOM     21  H   LIG d   1       3.580  -1.154  -1.586  0.00  0.00     0.027 H 
ATOM     22  H   LIG d   1       2.743   1.184  -1.922  0.00  0.00     0.027 H 
ATOM     23  H   LIG d   1       3.342   1.133  -3.596  0.00  0.00     0.027 H 
ATOM     24  H   LIG d   1       5.010   0.867  -1.054  0.00  0.00     0.031 H 
ATOM     25  H   LIG d   1       5.020   2.231  -2.198  0.00  0.00     0.031 H 
ATOM     26  H   LIG d   1       6.978   2.168  -3.386  0.00  0.00     0.053 H 
ATOM     27  H   LIG d   1       7.631   0.572  -4.112  0.00  0.00     0.053 H 
ATOM     28  H   LIG d   1       6.549  -1.079  -5.117  0.00  0.00     0.028 H 
ATOM     29  H   LIG d   1       7.793  -1.290  -3.866  0.00  0.00     0.028 H 
ATOM     30  H   LIG d   1       3.218  -3.140  -3.931  0.00  0.00     0.031 H 
ATOM     31  H   LIG d   1       4.395  -3.303  -2.612  0.00  0.00     0.031 H 
ENDROOT
BRANCH  18  32
ATOM     32  C   LIG d   1       8.310  -2.336  -6.115  0.00  0.00    -0.020 C 
ATOM     33  H   LIG d   1       8.517  -1.686  -5.266  0.00  0.00     0.082 H 
ATOM     34  H   LIG d   1       9.237  -2.804  -6.449  0.00  0.00     0.082 H 
BRANCH  32  35
ATOM     35  N   LIG d   1       7.731  -1.543  -7.216  0.00  0.00     0.230 N 
ATOM     36  H   LIG d   1       6.737  -1.369  -7.022  0.00  0.00     0.202 HD
ATOM     37  H   LIG d   1       7.821  -2.067  -8.095  0.00  0.00     0.202 HD
BRANCH  35  38
ATOM     38  C   LIG d   1       8.435  -0.253  -7.345  0.00  0.00    -0.023 C 
ATOM     39  C   LIG d   1       7.419   0.886  -7.238  0.00  0.00    -0.010 C 
ATOM     40  C   LIG d   1       8.143   2.228  -7.366  0.00  0.00    -0.048 C 
ATOM     41  H   LIG d   1       6.683   0.792  -8.036  0.00  0.00     0.032 H 
ATOM     42  H   LIG d   1       6.917   0.836  -6.271  0.00  0.00     0.032 H 
ATOM     43  C   LIG d   1       9.177   2.359  -6.245  0.00  0.00    -0.053 C 
ATOM     44  H   LIG d   1       8.646   2.278  -8.332  0.00  0.00     0.027 H 
ATOM     45  H   LIG d   1       7.420   3.040  -7.290  0.00  0.00     0.027 H 
ATOM     46  C   LIG d   1      10.192   1.220  -6.353  0.00  0.00    -0.048 C 
ATOM     47  H   LIG d   1       9.692   3.316  -6.337  0.00  0.00     0.026 H 
ATOM     48  H   LIG d   1       8.674   2.308  -5.280  0.00  0.00     0.026 H 
ATOM     49  C   LIG d   1       9.468  -0.122  -6.224  0.00  0.00    -0.010 C 
ATOM     50  H   LIG d   1      10.695   1.271  -7.318  0.00  0.00     0.027 H 
ATOM     51  H   LIG d   1      10.928   1.314  -5.555  0.00  0.00     0.027 H 
ATOM     52  H   LIG d   1       8.966  -0.173  -5.258  0.00  0.00     0.032 H 
ATOM     53  H   LIG d   1      10.192  -0.934  -6.300  0.00  0.00     0.032 H 
ATOM     54  H   LIG d   1       8.937  -0.203  -8.310  0.00  0.00     0.085 H 
ENDBRANCH  35  38
ENDBRANCH  32  35
ENDBRANCH  18  32
BRANCH   1  55
ATOM     55  C   LIG d   1       4.146  -0.783  -4.972  0.00  0.00    -0.059 C 
ATOM     56  H   LIG d   1       3.228  -1.192  -5.395  0.00  0.00     0.024 H 
ATOM     57  H   LIG d   1       4.061   0.301  -4.900  0.00  0.00     0.024 H 
ATOM     58  H   LIG d   1       4.989  -1.041  -5.614  0.00  0.00     0.024 H 
ENDBRANCH   1  55
TORSDOF 4
ENDMDL
MODEL 9
REMARK VINA RESULT:      -6.0      2.608      6.725
REMARK  4 active torsions:
REMARK  status: ('A' for Active; 'I' for Inactive)
REMARK    1  A    between atoms: C_1  and  C_2 
REMARK    2  A    between atoms: C_19  and  C_21 
REMARK    3  A    between atoms: C_21  and  N_56 
REMARK    4  A    between atoms: C_22  and  N_56 
ROOT
ATOM      1  C   LIG d   1       4.233  -1.952 -10.799  0.00  0.00    -0.022 C 
ATOM      2  C   LIG d   1       4.198  -2.647 -12.160  0.00  0.00    -0.047 C 
ATOM      3  C   LIG d   1       3.280  -1.871 -13.113  0.00  0.00    -0.049 C 
ATOM      4  C   LIG d   1       1.848  -1.891 -12.571  0.00  0.00    -0.032 C 
ATOM      5  C   LIG d   1       1.857  -1.376 -11.148  0.00  0.00    -0.073 C 
ATOM      6  C   LIG d   1       1.045  -0.418 -10.772  0.00  0.00    -0.099 C 
ATOM      7  C   LIG d   1       2.832  -1.995 -10.174  0.00  0.00    -0.014 C 
ATOM      8  H   LIG d   1       2.547  -3.028  -9.970  0.00  0.00     0.035 H 
ATOM      9  C   LIG d   1       2.854  -1.195  -8.874  0.00  0.00    -0.039 C 
ATOM     10  C   LIG d   1       3.817  -1.830  -7.869  0.00  0.00     0.015 C 
ATOM     11  H   LIG d   1       3.414  -2.739  -7.421  0.00  0.00     0.035 H 
ATOM     12  C   LIG d   1       5.210  -2.044  -8.493  0.00  0.00     0.107 C 
ATOM     13  H   LIG d   1       5.804  -2.669  -7.827  0.00  0.00     0.074 H 
ATOM     14  C   LIG d   1       5.171  -2.700  -9.852  0.00  0.00    -0.009 C 
ATOM     15  O   LIG d   1       5.780  -0.704  -8.518  0.00  0.00    -0.461 OA
ATOM     16  C   LIG d   1       5.444  -0.107  -7.353  0.00  0.00     0.316 C 
ATOM     17  O   LIG d   1       6.067   0.777  -6.814  0.00  0.00    -0.250 OA
ATOM     18  C   LIG d   1       4.144  -0.730  -6.816  0.00  0.00     0.102 C 
ATOM     19  H   LIG d   1       4.305  -1.176  -5.834  0.00  0.00     0.047 H 
ATOM     20  H   LIG d   1       5.205  -2.681 -12.575  0.00  0.00     0.027 H 
ATOM     21  H   LIG d   1       3.820  -3.662 -12.039  0.00  0.00     0.027 H 
ATOM     22  H   LIG d   1       3.302  -2.335 -14.100  0.00  0.00     0.027 H 
ATOM     23  H   LIG d   1       3.625  -0.840 -13.190  0.00  0.00     0.027 H 
ATOM     24  H   LIG d   1       1.465  -2.911 -12.587  0.00  0.00     0.031 H 
ATOM     25  H   LIG d   1       1.215  -1.253 -13.187  0.00  0.00     0.031 H 
ATOM     26  H   LIG d   1       0.356   0.013 -11.482  0.00  0.00     0.053 H 
ATOM     27  H   LIG d   1       1.065  -0.063  -9.753  0.00  0.00     0.053 H 
ATOM     28  H   LIG d   1       3.175  -0.176  -9.085  0.00  0.00     0.028 H 
ATOM     29  H   LIG d   1       1.851  -1.174  -8.447  0.00  0.00     0.028 H 
ATOM     30  H   LIG d   1       6.174  -2.691 -10.281  0.00  0.00     0.031 H 
ATOM     31  H   LIG d   1       4.843  -3.733  -9.740  0.00  0.00     0.031 H 
ENDROOT
BRANCH  18  32
ATOM     32  C   LIG d   1       3.021   0.307  -6.758  0.00  0.00    -0.020 C 
ATOM     33  H   LIG d   1       3.272   1.152  -7.399  0.00  0.00     0.082 H 
ATOM     34  H   LIG d   1       2.090  -0.147  -7.101  0.00  0.00     0.082 H 
BRANCH  32  35
ATOM     35  N   LIG d   1       2.862   0.771  -5.366  0.00  0.00     0.230 N 
ATOM     36  H   LIG d   1       1.866   0.752  -5.114  0.00  0.00     0.202 HD
ATOM     37  H   LIG d   1       3.217   1.730  -5.287  0.00  0.00     0.202 HD
BRANCH  35  38
ATOM     38  C   LIG d   1       3.613  -0.104  -4.446  0.00  0.00    -0.023 C 
ATOM     39  C   LIG d   1       4.559   0.750  -3.601  0.00  0.00    -0.010 C 
ATOM     40  C   LIG d   1       5.339  -0.151  -2.640  0.00  0.00    -0.048 C 
ATOM     41  H   LIG d   1       5.256   1.274  -4.254  0.00  0.00     0.032 H 
ATOM     42  H   LIG d   1       3.981   1.476  -3.029  0.00  0.00     0.032 H 
ATOM     43  C   LIG d   1       4.360  -0.887  -1.723  0.00  0.00    -0.053 C 
ATOM     44  H   LIG d   1       5.917  -0.877  -3.212  0.00  0.00     0.027 H 
ATOM     45  H   LIG d   1       6.013   0.458  -2.038  0.00  0.00     0.027 H 
ATOM     46  C   LIG d   1       3.414  -1.741  -2.568  0.00  0.00    -0.048 C 
ATOM     47  H   LIG d   1       4.916  -1.528  -1.039  0.00  0.00     0.026 H 
ATOM     48  H   LIG d   1       3.781  -0.161  -1.152  0.00  0.00     0.026 H 
ATOM     49  C   LIG d   1       2.633  -0.840  -3.528  0.00  0.00    -0.010 C 
ATOM     50  H   LIG d   1       3.991  -2.467  -3.140  0.00  0.00     0.027 H 
ATOM     51  H   LIG d   1       2.716  -2.266  -1.915  0.00  0.00     0.027 H 
ATOM     52  H   LIG d   1       2.055  -0.115  -2.957  0.00  0.00     0.032 H 
ATOM     53  H   LIG d   1       1.959  -1.449  -4.131  0.00  0.00     0.032 H 
ATOM     54  H   LIG d   1       4.190  -0.830  -5.017  0.00  0.00     0.085 H 
ENDBRANCH  35  38
ENDBRANCH  32  35
ENDBRANCH  18  32
BRANCH   1  55
ATOM     55  C   LIG d   1       4.681  -0.498 -10.960  0.00  0.00    -0.059 C 
ATOM     56  H   LIG d   1       4.960  -0.094  -9.986  0.00  0.00     0.024 H 
ATOM     57  H   LIG d   1       5.538  -0.453 -11.631  0.00  0.00     0.024 H 
ATOM     58  H   LIG d   1       3.862   0.091 -11.375  0.00  0.00     0.024 H 
ENDBRANCH   1  55
TORSDOF 4
ENDMDL
