MODEL 1
REMARK VINA RESULT:      -6.3      0.000      0.000
REMARK  5 active torsions:
REMARK  status: ('A' for Active; 'I' for Inactive)
REMARK    1  A    between atoms: C_1  and  O_2 
REMARK    2  A    between atoms: O_2  and  C_3 
REMARK    3  A    between atoms: C_7  and  C_14 
REMARK    4  A    between atoms: C_12  and  O_13 
REMARK    5  A    between atoms: C_14  and  C_15 
ROOT
ATOM      1  C   LIG d   1       4.282  -6.118  -6.571  0.00  0.00     0.225 A 
ATOM      2  C   LIG d   1       5.152  -5.831  -5.537  0.00  0.00    -0.010 A 
ATOM      3  C   LIG d   1       5.614  -4.554  -5.289  0.00  0.00    -0.050 A 
ATOM      4  C   LIG d   1       5.212  -3.491  -6.091  0.00  0.00    -0.002 A 
ATOM      5  C   LIG d   1       5.655  -2.163  -5.880  0.00  0.00    -0.019 A 
ATOM      6  C   LIG d   1       5.214  -1.194  -6.708  0.00  0.00     0.006 A 
ATOM      7  N   LIG d   1       4.357  -1.450  -7.732  0.00  0.00    -0.366 N 
ATOM      8  C   LIG d   1       3.892  -2.680  -7.996  0.00  0.00     0.018 A 
ATOM      9  C   LIG d   1       4.286  -3.743  -7.205  0.00  0.00     0.105 A 
ATOM     10  C   LIG d   1       3.821  -5.112  -7.431  0.00  0.00     0.393 A 
ATOM     11  H   LIG d   1       5.482  -6.637  -4.898  0.00  0.00     0.066 H 
ATOM     12  H   LIG d   1       6.293  -4.378  -4.469  0.00  0.00     0.062 H 
ATOM     13  H   LIG d   1       5.550  -0.180  -6.551  0.00  0.00     0.081 H 
ATOM     14  H   LIG d   1       3.213  -2.838  -8.820  0.00  0.00     0.082 H 
ATOM     15  H   LIG d   1       4.019  -0.631  -8.384  0.00  0.00     0.165 HD
ENDROOT
BRANCH   5  16
ATOM     16  C   LIG d   1       6.604  -1.840  -4.755  0.00  0.00     0.001 C 
ATOM     17  H   LIG d   1       6.997  -2.775  -4.327  0.00  0.00     0.036 H 
ATOM     18  H   LIG d   1       7.437  -1.234  -5.140  0.00  0.00     0.036 H 
BRANCH  16  19
ATOM     19  C   LIG d   1       5.872  -1.069  -3.687  0.00  0.00    -0.025 A 
ATOM     20  C   LIG d   1       6.140   0.276  -3.498  0.00  0.00     0.044 A 
ATOM     21  C   LIG d   1       5.467   0.983  -2.519  0.00  0.00    -0.043 A 
ATOM     22 CL   LIG d   1       7.321   1.074  -4.488  0.00  0.00    -0.083 Cl
ATOM     23  C   LIG d   1       4.525   0.348  -1.730  0.00  0.00    -0.060 A 
ATOM     24  H   LIG d   1       5.674   2.032  -2.370  0.00  0.00     0.063 H 
ATOM     25  C   LIG d   1       4.258  -0.996  -1.920  0.00  0.00    -0.061 A 
ATOM     26  H   LIG d   1       4.000   0.900  -0.965  0.00  0.00     0.062 H 
ATOM     27  C   LIG d   1       4.927  -1.702  -2.901  0.00  0.00    -0.057 A 
ATOM     28  H   LIG d   1       3.523  -1.491  -1.304  0.00  0.00     0.062 H 
ATOM     29  H   LIG d   1       4.714  -2.749  -3.053  0.00  0.00     0.062 H 
ENDBRANCH  16  19
ENDBRANCH   5  16
BRANCH  10  30
ATOM     30  O   LIG d   1       3.049  -5.371  -8.347  0.00  0.00    -0.267 OA
ATOM     31  H   LIG d   1       3.397  -5.480  -9.278  0.00  0.00     0.684 HD
ENDBRANCH  10  30
BRANCH   1  32
ATOM     32  O   LIG d   1       3.870  -7.401  -6.762  0.00  0.00    -0.487 OA
BRANCH  32  33
ATOM     33  C   LIG d   1       4.811  -8.435  -6.470  0.00  0.00     0.079 C 
ATOM     34  H   LIG d   1       4.588  -9.320  -7.084  0.00  0.00     0.066 H 
ATOM     35  H   LIG d   1       4.743  -8.703  -5.405  0.00  0.00     0.066 H 
ATOM     36  H   LIG d   1       5.828  -8.080  -6.695  0.00  0.00     0.066 H 
ENDBRANCH  32  33
ENDBRANCH   1  32
TORSDOF 5
ENDMDL
MODEL 2
REMARK VINA RESULT:      -5.9      3.808      5.619
REMARK  5 active torsions:
REMARK  status: ('A' for Active; 'I' for Inactive)
REMARK    1  A    between atoms: C_1  and  O_2 
REMARK    2  A    between atoms: O_2  and  C_3 
REMARK    3  A    between atoms: C_7  and  C_14 
REMARK    4  A    between atoms: C_12  and  O_13 
REMARK    5  A    between atoms: C_14  and  C_15 
ROOT
ATOM      1  C   LIG d   1       7.122   1.945  -8.714  0.00  0.00     0.225 A 
ATOM      2  C   LIG d   1       7.768   1.595  -7.545  0.00  0.00    -0.010 A 
ATOM      3  C   LIG d   1       7.284   0.622  -6.692  0.00  0.00    -0.050 A 
ATOM      4  C   LIG d   1       6.103  -0.050  -6.989  0.00  0.00    -0.002 A 
ATOM      5  C   LIG d   1       5.564  -1.054  -6.149  0.00  0.00    -0.019 A 
ATOM      6  C   LIG d   1       4.412  -1.654  -6.515  0.00  0.00     0.006 A 
ATOM      7  N   LIG d   1       3.757  -1.328  -7.660  0.00  0.00    -0.366 N 
ATOM      8  C   LIG d   1       4.203  -0.389  -8.507  0.00  0.00     0.018 A 
ATOM      9  C   LIG d   1       5.377   0.286  -8.222  0.00  0.00     0.105 A 
ATOM     10  C   LIG d   1       5.926   1.322  -9.096  0.00  0.00     0.393 A 
ATOM     11  H   LIG d   1       8.688   2.100  -7.289  0.00  0.00     0.066 H 
ATOM     12  H   LIG d   1       7.825   0.383  -5.789  0.00  0.00     0.062 H 
ATOM     13  H   LIG d   1       3.997  -2.420  -5.877  0.00  0.00     0.081 H 
ATOM     14  H   LIG d   1       3.651  -0.161  -9.405  0.00  0.00     0.082 H 
ATOM     15  H   LIG d   1       2.821  -1.842  -7.923  0.00  0.00     0.165 HD
ENDROOT
BRANCH   5  16
ATOM     16  C   LIG d   1       6.262  -1.444  -4.872  0.00  0.00     0.001 C 
ATOM     17  H   LIG d   1       6.148  -2.526  -4.707  0.00  0.00     0.036 H 
ATOM     18  H   LIG d   1       7.331  -1.194  -4.947  0.00  0.00     0.036 H 
BRANCH  16  19
ATOM     19  C   LIG d   1       5.651  -0.694  -3.717  0.00  0.00    -0.025 A 
ATOM     20  C   LIG d   1       4.731  -1.319  -2.894  0.00  0.00     0.044 A 
ATOM     21  C   LIG d   1       4.171  -0.630  -1.834  0.00  0.00    -0.043 A 
ATOM     22 CL   LIG d   1       4.277  -2.968  -3.194  0.00  0.00    -0.083 Cl
ATOM     23  C   LIG d   1       4.531   0.683  -1.595  0.00  0.00    -0.060 A 
ATOM     24  H   LIG d   1       3.453  -1.117  -1.192  0.00  0.00     0.063 H 
ATOM     25  C   LIG d   1       5.452   1.307  -2.417  0.00  0.00    -0.061 A 
ATOM     26  H   LIG d   1       4.095   1.222  -0.767  0.00  0.00     0.062 H 
ATOM     27  C   LIG d   1       6.015   0.618  -3.474  0.00  0.00    -0.057 A 
ATOM     28  H   LIG d   1       5.734   2.333  -2.230  0.00  0.00     0.062 H 
ATOM     29  H   LIG d   1       6.737   1.104  -4.112  0.00  0.00     0.062 H 
ENDBRANCH  16  19
ENDBRANCH   5  16
BRANCH  10  30
ATOM     30  O   LIG d   1       5.356   1.636 -10.135  0.00  0.00    -0.267 OA
ATOM     31  H   LIG d   1       4.734   0.991 -10.578  0.00  0.00     0.684 HD
ENDBRANCH  10  30
BRANCH   1  32
ATOM     32  O   LIG d   1       7.652   2.917  -9.507  0.00  0.00    -0.487 OA
BRANCH  32  33
ATOM     33  C   LIG d   1       9.039   3.211  -9.333  0.00  0.00     0.079 C 
ATOM     34  H   LIG d   1       9.641   2.509  -9.930  0.00  0.00     0.066 H 
ATOM     35  H   LIG d   1       9.305   3.109  -8.270  0.00  0.00     0.066 H 
ATOM     36  H   LIG d   1       9.241   4.240  -9.665  0.00  0.00     0.066 H 
ENDBRANCH  32  33
ENDBRANCH   1  32
TORSDOF 5
ENDMDL
MODEL 3
REMARK VINA RESULT:      -5.9      5.023      7.246
REMARK  5 active torsions:
REMARK  status: ('A' for Active; 'I' for Inactive)
REMARK    1  A    between atoms: C_1  and  O_2 
REMARK    2  A    between atoms: O_2  and  C_3 
REMARK    3  A    between atoms: C_7  and  C_14 
REMARK    4  A    between atoms: C_12  and  O_13 
REMARK    5  A    between atoms: C_14  and  C_15 
ROOT
ATOM      1  C   LIG d   1       9.532   3.606  -5.018  0.00  0.00     0.225 A 
ATOM      2  C   LIG d   1       9.251   2.997  -3.810  0.00  0.00    -0.010 A 
ATOM      3  C   LIG d   1       8.540   1.816  -3.723  0.00  0.00    -0.050 A 
ATOM      4  C   LIG d   1       8.073   1.189  -4.873  0.00  0.00    -0.002 A 
ATOM      5  C   LIG d   1       7.341  -0.023  -4.839  0.00  0.00    -0.019 A 
ATOM      6  C   LIG d   1       6.925  -0.561  -6.005  0.00  0.00     0.006 A 
ATOM      7  N   LIG d   1       7.189   0.019  -7.205  0.00  0.00    -0.366 N 
ATOM      8  C   LIG d   1       7.877   1.164  -7.321  0.00  0.00     0.018 A 
ATOM      9  C   LIG d   1       8.346   1.797  -6.184  0.00  0.00     0.105 A 
ATOM     10  C   LIG d   1       9.102   3.047  -6.229  0.00  0.00     0.393 A 
ATOM     11  H   LIG d   1       9.602   3.461  -2.900  0.00  0.00     0.066 H 
ATOM     12  H   LIG d   1       8.346   1.377  -2.756  0.00  0.00     0.062 H 
ATOM     13  H   LIG d   1       6.366  -1.484  -5.983  0.00  0.00     0.081 H 
ATOM     14  H   LIG d   1       8.063   1.590  -8.295  0.00  0.00     0.082 H 
ATOM     15  H   LIG d   1       6.834  -0.453  -8.133  0.00  0.00     0.165 HD
ENDROOT
BRANCH   5  16
ATOM     16  C   LIG d   1       7.029  -0.696  -3.527  0.00  0.00     0.001 C 
ATOM     17  H   LIG d   1       7.194  -1.779  -3.623  0.00  0.00     0.036 H 
ATOM     18  H   LIG d   1       7.687  -0.292  -2.743  0.00  0.00     0.036 H 
BRANCH  16  19
ATOM     19  C   LIG d   1       5.591  -0.436  -3.159  0.00  0.00    -0.025 A 
ATOM     20  C   LIG d   1       4.638  -1.420  -3.355  0.00  0.00     0.044 A 
ATOM     21  C   LIG d   1       3.319  -1.182  -3.016  0.00  0.00    -0.043 A 
ATOM     22 CL   LIG d   1       5.098  -2.953  -4.028  0.00  0.00    -0.083 Cl
ATOM     23  C   LIG d   1       2.952   0.039  -2.480  0.00  0.00    -0.060 A 
ATOM     24  H   LIG d   1       2.575  -1.949  -3.168  0.00  0.00     0.063 H 
ATOM     25  C   LIG d   1       3.906   1.021  -2.284  0.00  0.00    -0.061 A 
ATOM     26  H   LIG d   1       1.922   0.225  -2.215  0.00  0.00     0.062 H 
ATOM     27  C   LIG d   1       5.225   0.782  -2.618  0.00  0.00    -0.057 A 
ATOM     28  H   LIG d   1       3.619   1.974  -1.865  0.00  0.00     0.062 H 
ATOM     29  H   LIG d   1       5.969   1.548  -2.460  0.00  0.00     0.062 H 
ENDBRANCH  16  19
ENDBRANCH   5  16
BRANCH  10  30
ATOM     30  O   LIG d   1       9.354   3.592  -7.298  0.00  0.00    -0.267 OA
ATOM     31  H   LIG d   1      10.179   4.149  -7.393  0.00  0.00     0.684 HD
ENDBRANCH  10  30
BRANCH   1  32
ATOM     32  O   LIG d   1      10.233   4.773  -5.031  0.00  0.00    -0.487 OA
BRANCH  32  33
ATOM     33  C   LIG d   1       9.530   5.956  -4.647  0.00  0.00     0.079 C 
ATOM     34  H   LIG d   1      10.195   6.826  -4.744  0.00  0.00     0.066 H 
ATOM     35  H   LIG d   1       9.200   5.863  -3.601  0.00  0.00     0.066 H 
ATOM     36  H   LIG d   1       8.654   6.090  -5.298  0.00  0.00     0.066 H 
ENDBRANCH  32  33
ENDBRANCH   1  32
TORSDOF 5
ENDMDL
MODEL 4
REMARK VINA RESULT:      -5.9      4.440      5.790
REMARK  5 active torsions:
REMARK  status: ('A' for Active; 'I' for Inactive)
REMARK    1  A    between atoms: C_1  and  O_2 
REMARK    2  A    between atoms: O_2  and  C_3 
REMARK    3  A    between atoms: C_7  and  C_14 
REMARK    4  A    between atoms: C_12  and  O_13 
REMARK    5  A    between atoms: C_14  and  C_15 
ROOT
ATOM      1  C   LIG d   1       5.814   1.174  -8.917  0.00  0.00     0.225 A 
ATOM      2  C   LIG d   1       5.273   0.159  -8.153  0.00  0.00    -0.010 A 
ATOM      3  C   LIG d   1       5.846  -0.265  -6.970  0.00  0.00    -0.050 A 
ATOM      4  C   LIG d   1       7.012   0.328  -6.499  0.00  0.00    -0.002 A 
ATOM      5  C   LIG d   1       7.639  -0.068  -5.293  0.00  0.00    -0.019 A 
ATOM      6  C   LIG d   1       8.770   0.563  -4.913  0.00  0.00     0.006 A 
ATOM      7  N   LIG d   1       9.322   1.565  -5.647  0.00  0.00    -0.366 N 
ATOM      8  C   LIG d   1       8.788   1.997  -6.799  0.00  0.00     0.018 A 
ATOM      9  C   LIG d   1       7.629   1.414  -7.276  0.00  0.00     0.105 A 
ATOM     10  C   LIG d   1       6.988   1.831  -8.522  0.00  0.00     0.393 A 
ATOM     11  H   LIG d   1       4.367  -0.321  -8.493  0.00  0.00     0.066 H 
ATOM     12  H   LIG d   1       5.385  -1.063  -6.406  0.00  0.00     0.062 H 
ATOM     13  H   LIG d   1       9.251   0.263  -3.995  0.00  0.00     0.081 H 
ATOM     14  H   LIG d   1       9.261   2.796  -7.350  0.00  0.00     0.082 H 
ATOM     15  H   LIG d   1      10.244   2.055  -5.302  0.00  0.00     0.165 HD
ENDROOT
BRANCH   5  16
ATOM     16  C   LIG d   1       7.056  -1.174  -4.452  0.00  0.00     0.001 C 
ATOM     17  H   LIG d   1       6.661  -1.964  -5.108  0.00  0.00     0.036 H 
ATOM     18  H   LIG d   1       7.839  -1.594  -3.804  0.00  0.00     0.036 H 
BRANCH  16  19
ATOM     19  C   LIG d   1       5.940  -0.624  -3.602  0.00  0.00    -0.025 A 
ATOM     20  C   LIG d   1       4.833  -1.404  -3.322  0.00  0.00     0.044 A 
ATOM     21  C   LIG d   1       3.810  -0.898  -2.541  0.00  0.00    -0.043 A 
ATOM     22 CL   LIG d   1       4.726  -3.018  -3.953  0.00  0.00    -0.083 Cl
ATOM     23  C   LIG d   1       3.894   0.387  -2.038  0.00  0.00    -0.060 A 
ATOM     24  H   LIG d   1       2.946  -1.506  -2.322  0.00  0.00     0.063 H 
ATOM     25  C   LIG d   1       5.003   1.166  -2.318  0.00  0.00    -0.061 A 
ATOM     26  H   LIG d   1       3.096   0.783  -1.428  0.00  0.00     0.062 H 
ATOM     27  C   LIG d   1       6.027   0.660  -3.095  0.00  0.00    -0.057 A 
ATOM     28  H   LIG d   1       5.068   2.170  -1.925  0.00  0.00     0.062 H 
ATOM     29  H   LIG d   1       6.893   1.267  -3.308  0.00  0.00     0.062 H 
ENDBRANCH  16  19
ENDBRANCH   5  16
BRANCH  10  30
ATOM     30  O   LIG d   1       7.465   2.732  -9.204  0.00  0.00    -0.267 OA
ATOM     31  H   LIG d   1       7.891   3.521  -8.762  0.00  0.00     0.684 HD
ENDBRANCH  10  30
BRANCH   1  32
ATOM     32  O   LIG d   1       5.202   1.539 -10.076  0.00  0.00    -0.487 OA
BRANCH  32  33
ATOM     33  C   LIG d   1       3.889   2.092  -9.969  0.00  0.00     0.079 C 
ATOM     34  H   LIG d   1       3.771   2.903 -10.704  0.00  0.00     0.066 H 
ATOM     35  H   LIG d   1       3.741   2.493  -8.955  0.00  0.00     0.066 H 
ATOM     36  H   LIG d   1       3.142   1.308 -10.167  0.00  0.00     0.066 H 
ENDBRANCH  32  33
ENDBRANCH   1  32
TORSDOF 5
ENDMDL
MODEL 5
REMARK VINA RESULT:      -5.7      3.639      4.788
REMARK  5 active torsions:
REMARK  status: ('A' for Active; 'I' for Inactive)
REMARK    1  A    between atoms: C_1  and  O_2 
REMARK    2  A    between atoms: O_2  and  C_3 
REMARK    3  A    between atoms: C_7  and  C_14 
REMARK    4  A    between atoms: C_12  and  O_13 
REMARK    5  A    between atoms: C_14  and  C_15 
ROOT
ATOM      1  C   LIG d   1       2.853  -0.457 -10.476  0.00  0.00     0.225 A 
ATOM      2  C   LIG d   1       2.489  -1.283  -9.431  0.00  0.00    -0.010 A 
ATOM      3  C   LIG d   1       3.195  -1.333  -8.244  0.00  0.00    -0.050 A 
ATOM      4  C   LIG d   1       4.320  -0.538  -8.060  0.00  0.00    -0.002 A 
ATOM      5  C   LIG d   1       5.079  -0.552  -6.865  0.00  0.00    -0.019 A 
ATOM      6  C   LIG d   1       6.158   0.253  -6.773  0.00  0.00     0.006 A 
ATOM      7  N   LIG d   1       6.537   1.075  -7.787  0.00  0.00    -0.366 N 
ATOM      8  C   LIG d   1       5.871   1.146  -8.949  0.00  0.00     0.018 A 
ATOM      9  C   LIG d   1       4.750   0.359  -9.143  0.00  0.00     0.105 A 
ATOM     10  C   LIG d   1       3.974   0.381 -10.381  0.00  0.00     0.393 A 
ATOM     11  H   LIG d   1       1.618  -1.912  -9.545  0.00  0.00     0.066 H 
ATOM     12  H   LIG d   1       2.871  -1.995  -7.455  0.00  0.00     0.062 H 
ATOM     13  H   LIG d   1       6.739   0.245  -5.863  0.00  0.00     0.081 H 
ATOM     14  H   LIG d   1       6.208   1.812  -9.728  0.00  0.00     0.082 H 
ATOM     15  H   LIG d   1       7.422   1.717  -7.672  0.00  0.00     0.165 HD
ENDROOT
BRANCH   5  16
ATOM     16  C   LIG d   1       4.689  -1.449  -5.718  0.00  0.00     0.001 C 
ATOM     17  H   LIG d   1       3.771  -1.998  -5.978  0.00  0.00     0.036 H 
ATOM     18  H   LIG d   1       5.500  -2.164  -5.520  0.00  0.00     0.036 H 
BRANCH  16  19
ATOM     19  C   LIG d   1       4.443  -0.613  -4.488  0.00  0.00    -0.025 A 
ATOM     20  C   LIG d   1       5.269  -0.745  -3.386  0.00  0.00     0.044 A 
ATOM     21  C   LIG d   1       5.043   0.023  -2.258  0.00  0.00    -0.043 A 
ATOM     22 CL   LIG d   1       6.587  -1.873  -3.418  0.00  0.00    -0.083 Cl
ATOM     23  C   LIG d   1       3.993   0.922  -2.232  0.00  0.00    -0.060 A 
ATOM     24  H   LIG d   1       5.687  -0.078  -1.397  0.00  0.00     0.063 H 
ATOM     25  C   LIG d   1       3.168   1.053  -3.335  0.00  0.00    -0.061 A 
ATOM     26  H   LIG d   1       3.816   1.522  -1.351  0.00  0.00     0.062 H 
ATOM     27  C   LIG d   1       3.396   0.290  -4.463  0.00  0.00    -0.057 A 
ATOM     28  H   LIG d   1       2.348   1.755  -3.314  0.00  0.00     0.062 H 
ATOM     29  H   LIG d   1       2.755   0.396  -5.325  0.00  0.00     0.062 H 
ENDBRANCH  16  19
ENDBRANCH   5  16
BRANCH  10  30
ATOM     30  O   LIG d   1       4.293   1.112 -11.312  0.00  0.00    -0.267 OA
ATOM     31  H   LIG d   1       3.588   1.516 -11.895  0.00  0.00     0.684 HD
ENDBRANCH  10  30
BRANCH   1  32
ATOM     32  O   LIG d   1       2.116  -0.460 -11.620  0.00  0.00    -0.487 OA
BRANCH  32  33
ATOM     33  C   LIG d   1       1.254  -1.580 -11.833  0.00  0.00     0.079 C 
ATOM     34  H   LIG d   1       0.403  -1.525 -11.139  0.00  0.00     0.066 H 
ATOM     35  H   LIG d   1       1.812  -2.511 -11.654  0.00  0.00     0.066 H 
ATOM     36  H   LIG d   1       0.884  -1.566 -12.869  0.00  0.00     0.066 H 
ENDBRANCH  32  33
ENDBRANCH   1  32
TORSDOF 5
ENDMDL
MODEL 6
REMARK VINA RESULT:      -5.5      2.884      3.767
REMARK  5 active torsions:
REMARK  status: ('A' for Active; 'I' for Inactive)
REMARK    1  A    between atoms: C_1  and  O_2 
REMARK    2  A    between atoms: O_2  and  C_3 
REMARK    3  A    between atoms: C_7  and  C_14 
REMARK    4  A    between atoms: C_12  and  O_13 
REMARK    5  A    between atoms: C_14  and  C_15 
ROOT
ATOM      1  C   LIG d   1       2.418  -3.511  -9.812  0.00  0.00     0.225 A 
ATOM      2  C   LIG d   1       3.385  -3.745  -8.854  0.00  0.00    -0.010 A 
ATOM      3  C   LIG d   1       3.918  -2.737  -8.076  0.00  0.00    -0.050 A 
ATOM      4  C   LIG d   1       3.490  -1.424  -8.235  0.00  0.00    -0.002 A 
ATOM      5  C   LIG d   1       4.003  -0.353  -7.463  0.00  0.00    -0.019 A 
ATOM      6  C   LIG d   1       3.531   0.891  -7.685  0.00  0.00     0.006 A 
ATOM      7  N   LIG d   1       2.579   1.147  -8.621  0.00  0.00    -0.366 N 
ATOM      8  C   LIG d   1       2.043   0.189  -9.390  0.00  0.00     0.018 A 
ATOM      9  C   LIG d   1       2.462  -1.120  -9.241  0.00  0.00     0.105 A 
ATOM     10  C   LIG d   1       1.925  -2.219 -10.043  0.00  0.00     0.393 A 
ATOM     11  H   LIG d   1       3.737  -4.756  -8.709  0.00  0.00     0.066 H 
ATOM     12  H   LIG d   1       4.672  -2.969  -7.339  0.00  0.00     0.062 H 
ATOM     13  H   LIG d   1       3.920   1.710  -7.099  0.00  0.00     0.081 H 
ATOM     14  H   LIG d   1       1.290   0.438 -10.122  0.00  0.00     0.082 H 
ATOM     15  H   LIG d   1       2.219   2.176  -8.770  0.00  0.00     0.165 HD
ENDROOT
BRANCH   5  16
ATOM     16  C   LIG d   1       5.059  -0.599  -6.415  0.00  0.00     0.001 C 
ATOM     17  H   LIG d   1       5.691  -1.445  -6.723  0.00  0.00     0.036 H 
ATOM     18  H   LIG d   1       5.680   0.302  -6.302  0.00  0.00     0.036 H 
BRANCH  16  19
ATOM     19  C   LIG d   1       4.395  -0.921  -5.101  0.00  0.00    -0.025 A 
ATOM     20  C   LIG d   1       4.783  -2.040  -4.385  0.00  0.00     0.044 A 
ATOM     21  C   LIG d   1       4.175  -2.335  -3.179  0.00  0.00    -0.043 A 
ATOM     22 CL   LIG d   1       6.033  -3.076  -5.002  0.00  0.00    -0.083 Cl
ATOM     23  C   LIG d   1       3.179  -1.511  -2.687  0.00  0.00    -0.060 A 
ATOM     24  H   LIG d   1       4.477  -3.207  -2.620  0.00  0.00     0.063 H 
ATOM     25  C   LIG d   1       2.793  -0.392  -3.403  0.00  0.00    -0.061 A 
ATOM     26  H   LIG d   1       2.704  -1.740  -1.745  0.00  0.00     0.062 H 
ATOM     27  C   LIG d   1       3.403  -0.095  -4.606  0.00  0.00    -0.057 A 
ATOM     28  H   LIG d   1       2.015   0.251  -3.018  0.00  0.00     0.062 H 
ATOM     29  H   LIG d   1       3.104   0.781  -5.161  0.00  0.00     0.062 H 
ENDBRANCH  16  19
ENDBRANCH   5  16
BRANCH  10  30
ATOM     30  O   LIG d   1       1.066  -2.016 -10.894  0.00  0.00    -0.267 OA
ATOM     31  H   LIG d   1       0.148  -2.396 -10.779  0.00  0.00     0.684 HD
ENDBRANCH  10  30
BRANCH   1  32
ATOM     32  O   LIG d   1       1.939  -4.550 -10.549  0.00  0.00    -0.487 OA
BRANCH  32  33
ATOM     33  C   LIG d   1       2.802  -5.083 -11.556  0.00  0.00     0.079 C 
ATOM     34  H   LIG d   1       2.492  -6.110 -11.800  0.00  0.00     0.066 H 
ATOM     35  H   LIG d   1       3.838  -5.091 -11.185  0.00  0.00     0.066 H 
ATOM     36  H   LIG d   1       2.740  -4.458 -12.460  0.00  0.00     0.066 H 
ENDBRANCH  32  33
ENDBRANCH   1  32
TORSDOF 5
ENDMDL
MODEL 7
REMARK VINA RESULT:      -5.4      3.895      6.837
REMARK  5 active torsions:
REMARK  status: ('A' for Active; 'I' for Inactive)
REMARK    1  A    between atoms: C_1  and  O_2 
REMARK    2  A    between atoms: O_2  and  C_3 
REMARK    3  A    between atoms: C_7  and  C_14 
REMARK    4  A    between atoms: C_12  and  O_13 
REMARK    5  A    between atoms: C_14  and  C_15 
ROOT
ATOM      1  C   LIG d   1       7.124   0.982  -3.638  0.00  0.00     0.225 A 
ATOM      2  C   LIG d   1       7.683   0.054  -4.495  0.00  0.00    -0.010 A 
ATOM      3  C   LIG d   1       7.132  -1.196  -4.697  0.00  0.00    -0.050 A 
ATOM      4  C   LIG d   1       5.973  -1.571  -4.028  0.00  0.00    -0.002 A 
ATOM      5  C   LIG d   1       5.367  -2.840  -4.199  0.00  0.00    -0.019 A 
ATOM      6  C   LIG d   1       4.243  -3.120  -3.508  0.00  0.00     0.006 A 
ATOM      7  N   LIG d   1       3.673  -2.225  -2.659  0.00  0.00    -0.366 N 
ATOM      8  C   LIG d   1       4.185  -1.004  -2.443  0.00  0.00     0.018 A 
ATOM      9  C   LIG d   1       5.338  -0.620  -3.104  0.00  0.00     0.105 A 
ATOM     10  C   LIG d   1       5.955   0.693  -2.920  0.00  0.00     0.393 A 
ATOM     11  H   LIG d   1       8.584   0.318  -5.029  0.00  0.00     0.066 H 
ATOM     12  H   LIG d   1       7.605  -1.887  -5.379  0.00  0.00     0.062 H 
ATOM     13  H   LIG d   1       3.779  -4.086  -3.635  0.00  0.00     0.081 H 
ATOM     14  H   LIG d   1       3.699  -0.325  -1.759  0.00  0.00     0.082 H 
ATOM     15  H   LIG d   1       2.755  -2.490  -2.115  0.00  0.00     0.165 HD
ENDROOT
BRANCH   5  16
ATOM     16  C   LIG d   1       5.969  -3.858  -5.133  0.00  0.00     0.001 C 
ATOM     17  H   LIG d   1       6.970  -3.523  -5.446  0.00  0.00     0.036 H 
ATOM     18  H   LIG d   1       6.051  -4.826  -4.617  0.00  0.00     0.036 H 
BRANCH  16  19
ATOM     19  C   LIG d   1       5.089  -4.009  -6.347  0.00  0.00    -0.025 A 
ATOM     20  C   LIG d   1       4.494  -5.227  -6.624  0.00  0.00     0.044 A 
ATOM     21  C   LIG d   1       3.685  -5.364  -7.737  0.00  0.00    -0.043 A 
ATOM     22 CL   LIG d   1       4.764  -6.584  -5.575  0.00  0.00    -0.083 Cl
ATOM     23  C   LIG d   1       3.469  -4.283  -8.573  0.00  0.00    -0.060 A 
ATOM     24  H   LIG d   1       3.220  -6.313  -7.954  0.00  0.00     0.063 H 
ATOM     25  C   LIG d   1       4.064  -3.066  -8.294  0.00  0.00    -0.061 A 
ATOM     26  H   LIG d   1       2.838  -4.390  -9.442  0.00  0.00     0.062 H 
ATOM     27  C   LIG d   1       4.869  -2.927  -7.180  0.00  0.00    -0.057 A 
ATOM     28  H   LIG d   1       3.895  -2.222  -8.947  0.00  0.00     0.062 H 
ATOM     29  H   LIG d   1       5.328  -1.975  -6.961  0.00  0.00     0.062 H 
ENDBRANCH  16  19
ENDBRANCH   5  16
BRANCH  10  30
ATOM     30  O   LIG d   1       5.462   1.519  -2.160  0.00  0.00    -0.267 OA
ATOM     31  H   LIG d   1       5.945   2.374  -1.971  0.00  0.00     0.684 HD
ENDBRANCH  10  30
BRANCH   1  32
ATOM     32  O   LIG d   1       7.722   2.194  -3.481  0.00  0.00    -0.487 OA
BRANCH  32  33
ATOM     33  C   LIG d   1       8.515   2.671  -4.570  0.00  0.00     0.079 C 
ATOM     34  H   LIG d   1       8.211   2.163  -5.497  0.00  0.00     0.066 H 
ATOM     35  H   LIG d   1       9.577   2.462  -4.369  0.00  0.00     0.066 H 
ATOM     36  H   LIG d   1       8.370   3.756  -4.682  0.00  0.00     0.066 H 
ENDBRANCH  32  33
ENDBRANCH   1  32
TORSDOF 5
ENDMDL
MODEL 8
REMARK VINA RESULT:      -5.3      2.506      3.219
REMARK  5 active torsions:
REMARK  status: ('A' for Active; 'I' for Inactive)
REMARK    1  A    between atoms: C_1  and  O_2 
REMARK    2  A    between atoms: O_2  and  C_3 
REMARK    3  A    between atoms: C_7  and  C_14 
REMARK    4  A    between atoms: C_12  and  O_13 
REMARK    5  A    between atoms: C_14  and  C_15 
ROOT
ATOM      1  C   LIG d   1       7.691  -6.932  -5.171  0.00  0.00     0.225 A 
ATOM      2  C   LIG d   1       8.019  -5.631  -4.841  0.00  0.00    -0.010 A 
ATOM      3  C   LIG d   1       7.201  -4.560  -5.145  0.00  0.00    -0.050 A 
ATOM      4  C   LIG d   1       5.996  -4.761  -5.808  0.00  0.00    -0.002 A 
ATOM      5  C   LIG d   1       5.121  -3.698  -6.143  0.00  0.00    -0.019 A 
ATOM      6  C   LIG d   1       3.971  -3.985  -6.788  0.00  0.00     0.006 A 
ATOM      7  N   LIG d   1       3.626  -5.256  -7.123  0.00  0.00    -0.366 N 
ATOM      8  C   LIG d   1       4.399  -6.315  -6.840  0.00  0.00     0.018 A 
ATOM      9  C   LIG d   1       5.600  -6.127  -6.181  0.00  0.00     0.105 A 
ATOM     10  C   LIG d   1       6.496  -7.231  -5.840  0.00  0.00     0.393 A 
ATOM     11  H   LIG d   1       8.949  -5.445  -4.326  0.00  0.00     0.066 H 
ATOM     12  H   LIG d   1       7.500  -3.561  -4.867  0.00  0.00     0.062 H 
ATOM     13  H   LIG d   1       3.302  -3.178  -7.045  0.00  0.00     0.081 H 
ATOM     14  H   LIG d   1       4.085  -7.307  -7.126  0.00  0.00     0.082 H 
ATOM     15  H   LIG d   1       2.678  -5.448  -7.647  0.00  0.00     0.165 HD
ENDROOT
BRANCH   5  16
ATOM     16  C   LIG d   1       5.469  -2.276  -5.787  0.00  0.00     0.001 C 
ATOM     17  H   LIG d   1       6.516  -2.228  -5.452  0.00  0.00     0.036 H 
ATOM     18  H   LIG d   1       5.337  -1.634  -6.671  0.00  0.00     0.036 H 
BRANCH  16  19
ATOM     19  C   LIG d   1       4.565  -1.799  -4.680  0.00  0.00    -0.025 A 
ATOM     20  C   LIG d   1       3.682  -0.758  -4.907  0.00  0.00     0.044 A 
ATOM     21  C   LIG d   1       2.852  -0.322  -3.891  0.00  0.00    -0.043 A 
ATOM     22 CL   LIG d   1       3.618   0.002  -6.466  0.00  0.00    -0.083 Cl
ATOM     23  C   LIG d   1       2.903  -0.927  -2.648  0.00  0.00    -0.060 A 
ATOM     24  H   LIG d   1       2.162   0.489  -4.067  0.00  0.00     0.063 H 
ATOM     25  C   LIG d   1       3.785  -1.968  -2.423  0.00  0.00    -0.061 A 
ATOM     26  H   LIG d   1       2.254  -0.587  -1.855  0.00  0.00     0.062 H 
ATOM     27  C   LIG d   1       4.612  -2.407  -3.439  0.00  0.00    -0.057 A 
ATOM     28  H   LIG d   1       3.824  -2.440  -1.452  0.00  0.00     0.062 H 
ATOM     29  H   LIG d   1       5.297  -3.223  -3.264  0.00  0.00     0.062 H 
ENDBRANCH  16  19
ENDBRANCH   5  16
BRANCH  10  30
ATOM     30  O   LIG d   1       6.209  -8.387  -6.130  0.00  0.00    -0.267 OA
ATOM     31  H   LIG d   1       6.338  -9.117  -5.459  0.00  0.00     0.684 HD
ENDBRANCH  10  30
BRANCH   1  32
ATOM     32  O   LIG d   1       8.546  -7.940  -4.846  0.00  0.00    -0.487 OA
BRANCH  32  33
ATOM     33  C   LIG d   1       8.620  -8.309  -3.468  0.00  0.00     0.079 C 
ATOM     34  H   LIG d   1       7.758  -7.889  -2.928  0.00  0.00     0.066 H 
ATOM     35  H   LIG d   1       9.551  -7.916  -3.032  0.00  0.00     0.066 H 
ATOM     36  H   LIG d   1       8.607  -9.406  -3.380  0.00  0.00     0.066 H 
ENDBRANCH  32  33
ENDBRANCH   1  32
TORSDOF 5
ENDMDL
MODEL 9
REMARK VINA RESULT:      -5.2      4.519      6.672
REMARK  5 active torsions:
REMARK  status: ('A' for Active; 'I' for Inactive)
REMARK    1  A    between atoms: C_1  and  O_2 
REMARK    2  A    between atoms: O_2  and  C_3 
REMARK    3  A    between atoms: C_7  and  C_14 
REMARK    4  A    between atoms: C_12  and  O_13 
REMARK    5  A    between atoms: C_14  and  C_15 
ROOT
ATOM      1  C   LIG d   1       9.435   2.078  -4.752  0.00  0.00     0.225 A 
ATOM      2  C   LIG d   1       8.359   2.127  -3.888  0.00  0.00    -0.010 A 
ATOM      3  C   LIG d   1       7.558   1.030  -3.638  0.00  0.00    -0.050 A 
ATOM      4  C   LIG d   1       7.812  -0.185  -4.263  0.00  0.00    -0.002 A 
ATOM      5  C   LIG d   1       7.022  -1.340  -4.042  0.00  0.00    -0.019 A 
ATOM      6  C   LIG d   1       7.342  -2.478  -4.692  0.00  0.00     0.006 A 
ATOM      7  N   LIG d   1       8.395  -2.552  -5.548  0.00  0.00    -0.366 N 
ATOM      8  C   LIG d   1       9.191  -1.505  -5.809  0.00  0.00     0.018 A 
ATOM      9  C   LIG d   1       8.947  -0.291  -5.193  0.00  0.00     0.105 A 
ATOM     10  C   LIG d   1       9.769   0.895  -5.428  0.00  0.00     0.393 A 
ATOM     11  H   LIG d   1       8.138   3.058  -3.388  0.00  0.00     0.066 H 
ATOM     12  H   LIG d   1       6.728   1.117  -2.953  0.00  0.00     0.062 H 
ATOM     13  H   LIG d   1       6.741  -3.359  -4.527  0.00  0.00     0.081 H 
ATOM     14  H   LIG d   1      10.017  -1.608  -6.497  0.00  0.00     0.082 H 
ATOM     15  H   LIG d   1       8.624  -3.499  -6.058  0.00  0.00     0.165 HD
ENDROOT
BRANCH   5  16
ATOM     16  C   LIG d   1       5.847  -1.296  -3.100  0.00  0.00     0.001 C 
ATOM     17  H   LIG d   1       5.535  -2.323  -2.856  0.00  0.00     0.036 H 
ATOM     18  H   LIG d   1       6.135  -0.771  -2.178  0.00  0.00     0.036 H 
BRANCH  16  19
ATOM     19  C   LIG d   1       4.703  -0.567  -3.757  0.00  0.00    -0.025 A 
ATOM     20  C   LIG d   1       4.067   0.466  -3.092  0.00  0.00     0.044 A 
ATOM     21  C   LIG d   1       3.018   1.135  -3.696  0.00  0.00    -0.043 A 
ATOM     22 CL   LIG d   1       4.584   0.921  -1.499  0.00  0.00    -0.083 Cl
ATOM     23  C   LIG d   1       2.606   0.773  -4.966  0.00  0.00    -0.060 A 
ATOM     24  H   LIG d   1       2.522   1.941  -3.179  0.00  0.00     0.063 H 
ATOM     25  C   LIG d   1       3.244  -0.260  -5.630  0.00  0.00    -0.061 A 
ATOM     26  H   LIG d   1       1.788   1.295  -5.438  0.00  0.00     0.062 H 
ATOM     27  C   LIG d   1       4.294  -0.926  -5.029  0.00  0.00    -0.057 A 
ATOM     28  H   LIG d   1       2.922  -0.543  -6.621  0.00  0.00     0.062 H 
ATOM     29  H   LIG d   1       4.794  -1.728  -5.549  0.00  0.00     0.062 H 
ENDBRANCH  16  19
ENDBRANCH   5  16
BRANCH  10  30
ATOM     30  O   LIG d   1      10.725   0.857  -6.195  0.00  0.00    -0.267 OA
ATOM     31  H   LIG d   1      11.589   1.290  -5.938  0.00  0.00     0.684 HD
ENDBRANCH  10  30
BRANCH   1  32
ATOM     32  O   LIG d   1      10.181   3.198  -4.958  0.00  0.00    -0.487 OA
BRANCH  32  33
ATOM     33  C   LIG d   1       9.492   4.449  -4.930  0.00  0.00     0.079 C 
ATOM     34  H   LIG d   1       8.576   4.378  -5.536  0.00  0.00     0.066 H 
ATOM     35  H   LIG d   1      10.143   5.235  -5.342  0.00  0.00     0.066 H 
ATOM     36  H   LIG d   1       9.226   4.699  -3.892  0.00  0.00     0.066 H 
ENDBRANCH  32  33
ENDBRANCH   1  32
TORSDOF 5
ENDMDL
MODEL 10
REMARK VINA RESULT:      -5.1      2.464      4.108
REMARK  5 active torsions:
REMARK  status: ('A' for Active; 'I' for Inactive)
REMARK    1  A    between atoms: C_1  and  O_2 
REMARK    2  A    between atoms: O_2  and  C_3 
REMARK    3  A    between atoms: C_7  and  C_14 
REMARK    4  A    between atoms: C_12  and  O_13 
REMARK    5  A    between atoms: C_14  and  C_15 
ROOT
ATOM      1  C   LIG d   1       2.628  -2.227 -10.481  0.00  0.00     0.225 A 
ATOM      2  C   LIG d   1       3.100  -1.058  -9.916  0.00  0.00    -0.010 A 
ATOM      3  C   LIG d   1       3.763  -1.035  -8.705  0.00  0.00    -0.050 A 
ATOM      4  C   LIG d   1       3.980  -2.213  -7.998  0.00  0.00    -0.002 A 
ATOM      5  C   LIG d   1       4.654  -2.244  -6.753  0.00  0.00    -0.019 A 
ATOM      6  C   LIG d   1       4.820  -3.433  -6.136  0.00  0.00     0.006 A 
ATOM      7  N   LIG d   1       4.364  -4.596  -6.671  0.00  0.00    -0.366 N 
ATOM      8  C   LIG d   1       3.718  -4.649  -7.845  0.00  0.00     0.018 A 
ATOM      9  C   LIG d   1       3.497  -3.484  -8.556  0.00  0.00     0.105 A 
ATOM     10  C   LIG d   1       2.800  -3.462  -9.842  0.00  0.00     0.393 A 
ATOM     11  H   LIG d   1       2.946  -0.128 -10.443  0.00  0.00     0.066 H 
ATOM     12  H   LIG d   1       4.115  -0.096  -8.304  0.00  0.00     0.062 H 
ATOM     13  H   LIG d   1       5.332  -3.461  -5.186  0.00  0.00     0.081 H 
ATOM     14  H   LIG d   1       3.373  -5.596  -8.232  0.00  0.00     0.082 H 
ATOM     15  H   LIG d   1       4.521  -5.545  -6.137  0.00  0.00     0.165 HD
ENDROOT
BRANCH   5  16
ATOM     16  C   LIG d   1       5.174  -0.975  -6.129  0.00  0.00     0.001 C 
ATOM     17  H   LIG d   1       6.272  -0.958  -6.193  0.00  0.00     0.036 H 
ATOM     18  H   LIG d   1       4.762  -0.107  -6.665  0.00  0.00     0.036 H 
BRANCH  16  19
ATOM     19  C   LIG d   1       4.754  -0.918  -4.683  0.00  0.00    -0.025 A 
ATOM     20  C   LIG d   1       3.555  -0.323  -4.333  0.00  0.00     0.044 A 
ATOM     21  C   LIG d   1       3.170  -0.272  -3.006  0.00  0.00    -0.043 A 
ATOM     22 CL   LIG d   1       2.534   0.360  -5.560  0.00  0.00    -0.083 Cl
ATOM     23  C   LIG d   1       3.982  -0.816  -2.028  0.00  0.00    -0.060 A 
ATOM     24  H   LIG d   1       2.234   0.191  -2.732  0.00  0.00     0.063 H 
ATOM     25  C   LIG d   1       5.181  -1.411  -2.379  0.00  0.00    -0.061 A 
ATOM     26  H   LIG d   1       3.682  -0.777  -0.992  0.00  0.00     0.062 H 
ATOM     27  C   LIG d   1       5.564  -1.466  -3.705  0.00  0.00    -0.057 A 
ATOM     28  H   LIG d   1       5.815  -1.836  -1.616  0.00  0.00     0.062 H 
ATOM     29  H   LIG d   1       6.497  -1.935  -3.979  0.00  0.00     0.062 H 
ENDBRANCH  16  19
ENDBRANCH   5  16
BRANCH  10  30
ATOM     30  O   LIG d   1       2.379  -4.497 -10.347  0.00  0.00    -0.267 OA
ATOM     31  H   LIG d   1       2.455  -5.362  -9.852  0.00  0.00     0.684 HD
ENDBRANCH  10  30
BRANCH   1  32
ATOM     32  O   LIG d   1       1.978  -2.178 -11.676  0.00  0.00    -0.487 OA
BRANCH  32  33
ATOM     33  C   LIG d   1       0.939  -1.205 -11.809  0.00  0.00     0.079 C 
ATOM     34  H   LIG d   1       1.243  -0.273 -11.311  0.00  0.00     0.066 H 
ATOM     35  H   LIG d   1       0.018  -1.586 -11.344  0.00  0.00     0.066 H 
ATOM     36  H   LIG d   1       0.757  -1.006 -12.876  0.00  0.00     0.066 H 
ENDBRANCH  32  33
ENDBRANCH   1  32
TORSDOF 5
ENDMDL
