MODEL 1
REMARK VINA RESULT:      -7.8      0.000      0.000
REMARK  6 active torsions:
REMARK  status: ('A' for Active; 'I' for Inactive)
REMARK    1  A    between atoms: C_4  and  O_7 
REMARK    2  A    between atoms: O_7  and  C_8 
REMARK    3  A    between atoms: C_8  and  C_9 
REMARK    4  A    between atoms: N_11  and  C_14 
REMARK    5  A    between atoms: C_14  and  C_15 
REMARK    6  A    between atoms: C_23  and  C_25 
REMARK       I    between atoms: C_25  and  N_27 
ROOT
ATOM      1  C   LIG d   1       2.612  -3.429  -9.781  0.00  0.00    -0.001 C 
ATOM      2  H   LIG d   1       1.810  -3.978  -9.288  0.00  0.00     0.087 H 
ATOM      3  C   LIG d   1       2.567  -1.961  -9.350  0.00  0.00    -0.004 C 
ATOM      4  C   LIG d   1       2.356  -1.086 -10.592  0.00  0.00    -0.015 C 
ATOM      5  H   LIG d   1       2.317  -0.031 -10.319  0.00  0.00     0.031 H 
ATOM      6  C   LIG d   1       1.044  -1.504 -11.267  0.00  0.00    -0.009 C 
ATOM      7  C   LIG d   1       1.132  -2.985 -11.646  0.00  0.00    -0.031 C 
ATOM      8  C   LIG d   1       3.531  -2.822 -11.940  0.00  0.00    -0.020 C 
ATOM      9  C   LIG d   1       3.511  -1.337 -11.570  0.00  0.00     0.079 C 
ATOM     10  H   LIG d   1       3.364  -0.738 -12.468  0.00  0.00     0.045 H 
ATOM     11  H   LIG d   1       3.508  -1.692  -8.870  0.00  0.00     0.032 H 
ATOM     12  H   LIG d   1       1.744  -1.808  -8.651  0.00  0.00     0.032 H 
ATOM     13  H   LIG d   1       0.888  -0.906 -12.166  0.00  0.00     0.032 H 
ATOM     14  H   LIG d   1       0.211  -1.351 -10.580  0.00  0.00     0.032 H 
ATOM     15  H   LIG d   1       1.015  -3.092 -12.723  0.00  0.00     0.081 H 
ATOM     16  H   LIG d   1       0.342  -3.538 -11.137  0.00  0.00     0.081 H 
ATOM     17  H   LIG d   1       3.397  -2.931 -13.016  0.00  0.00     0.082 H 
ATOM     18  H   LIG d   1       4.486  -3.257 -11.646  0.00  0.00     0.082 H 
ATOM     19  N   LIG d   1       2.441  -3.543 -11.245  0.00  0.00     0.239 N 
ATOM     20  H   LIG d   1       2.476  -4.534 -11.510  0.00  0.00     0.204 HD
ENDROOT
BRANCH   1  21
ATOM     21  C   LIG d   1       3.962  -4.034  -9.390  0.00  0.00     0.086 C 
ATOM     22  H   LIG d   1       4.076  -5.008  -9.868  0.00  0.00     0.057 H 
ATOM     23  H   LIG d   1       4.764  -3.373  -9.716  0.00  0.00     0.057 H 
BRANCH  21  24
ATOM     24  N   LIG d   1       4.022  -4.195  -7.936  0.00  0.00    -0.246 N 
ATOM     25  C   LIG d   1       4.655  -3.368  -7.072  0.00  0.00     0.052 A 
ATOM     26  C   LIG d   1       4.455  -3.886  -5.838  0.00  0.00     0.120 A 
ATOM     27  H   LIG d   1       5.209  -2.474  -7.318  0.00  0.00     0.085 H 
ATOM     28  N   LIG d   1       3.724  -4.994  -6.005  0.00  0.00    -0.131 NA
ATOM     29  N   LIG d   1       3.484  -5.149  -7.259  0.00  0.00    -0.065 NA
BRANCH  26  30
ATOM     30  C   LIG d   1       4.959  -3.328  -4.532  0.00  0.00     0.135 C 
ATOM     31  H   LIG d   1       5.536  -4.091  -4.009  0.00  0.00     0.076 H 
ATOM     32  H   LIG d   1       5.594  -2.464  -4.728  0.00  0.00     0.076 H 
BRANCH  30  33
ATOM     33  O   LIG d   1       3.850  -2.929  -3.724  0.00  0.00    -0.486 OA
BRANCH  33  34
ATOM     34  C   LIG d   1       3.848  -1.650  -3.266  0.00  0.00     0.121 A 
ATOM     35  C   LIG d   1       4.572  -1.317  -2.131  0.00  0.00    -0.020 A 
ATOM     36  C   LIG d   1       4.567  -0.016  -1.667  0.00  0.00    -0.058 A 
ATOM     37  H   LIG d   1       5.138  -2.074  -1.609  0.00  0.00     0.065 H 
ATOM     38  C   LIG d   1       3.842   0.955  -2.333  0.00  0.00    -0.061 A 
ATOM     39  H   LIG d   1       5.131   0.244  -0.783  0.00  0.00     0.062 H 
ATOM     40  C   LIG d   1       3.119   0.625  -3.465  0.00  0.00    -0.058 A 
ATOM     41  H   LIG d   1       3.839   1.972  -1.969  0.00  0.00     0.062 H 
ATOM     42  C   LIG d   1       3.125  -0.673  -3.936  0.00  0.00    -0.020 A 
ATOM     43  H   LIG d   1       2.553   1.385  -3.983  0.00  0.00     0.062 H 
ATOM     44  H   LIG d   1       2.564  -0.929  -4.823  0.00  0.00     0.065 H 
ENDBRANCH  33  34
ENDBRANCH  30  33
ENDBRANCH  26  30
ENDBRANCH  21  24
ENDBRANCH   1  21
BRANCH   9  45
ATOM     45  C   LIG d   1       4.815  -0.961 -10.917  0.00  0.00     0.224 C 
ATOM     46  O   LIG d   1       5.655  -1.811 -10.706  0.00  0.00    -0.275 OA
ATOM     47  N   LIG d   1       5.050   0.319 -10.568  0.00  0.00    -0.297 N 
ATOM     48  C   LIG d   1       6.317   0.710  -9.929  0.00  0.00     0.038 C 
ATOM     49  C   LIG d   1       4.050   1.369 -10.820  0.00  0.00     0.038 C 
ATOM     50  C   LIG d   1       5.994   1.523  -8.671  0.00  0.00     0.064 C 
ATOM     51  H   LIG d   1       6.881  -0.181  -9.655  0.00  0.00     0.049 H 
ATOM     52  H   LIG d   1       6.903   1.319 -10.618  0.00  0.00     0.049 H 
ATOM     53  O   LIG d   1       5.100   2.586  -9.014  0.00  0.00    -0.377 OA
ATOM     54  H   LIG d   1       5.522   0.877  -7.930  0.00  0.00     0.058 H 
ATOM     55  H   LIG d   1       6.913   1.938  -8.259  0.00  0.00     0.058 H 
ATOM     56  C   LIG d   1       3.834   2.149  -9.513  0.00  0.00     0.064 C 
ATOM     57  H   LIG d   1       3.355   1.504  -8.775  0.00  0.00     0.058 H 
ATOM     58  H   LIG d   1       3.200   3.014  -9.706  0.00  0.00     0.058 H 
ATOM     59  H   LIG d   1       4.412   2.041 -11.597  0.00  0.00     0.049 H 
ATOM     60  H   LIG d   1       3.112   0.912 -11.135  0.00  0.00     0.049 H 
ENDBRANCH   9  45
TORSDOF 6
ENDMDL
MODEL 2
REMARK VINA RESULT:      -7.7      2.554      4.762
REMARK  6 active torsions:
REMARK  status: ('A' for Active; 'I' for Inactive)
REMARK    1  A    between atoms: C_4  and  O_7 
REMARK    2  A    between atoms: O_7  and  C_8 
REMARK    3  A    between atoms: C_8  and  C_9 
REMARK    4  A    between atoms: N_11  and  C_14 
REMARK    5  A    between atoms: C_14  and  C_15 
REMARK    6  A    between atoms: C_23  and  C_25 
REMARK       I    between atoms: C_25  and  N_27 
ROOT
ATOM      1  C   LIG d   1       5.627   0.872  -9.237  0.00  0.00    -0.001 C 
ATOM      2  H   LIG d   1       6.436   1.533  -9.547  0.00  0.00     0.087 H 
ATOM      3  C   LIG d   1       4.943   0.286 -10.474  0.00  0.00    -0.004 C 
ATOM      4  C   LIG d   1       3.466   0.700 -10.467  0.00  0.00    -0.015 C 
ATOM      5  H   LIG d   1       2.947   0.298 -11.338  0.00  0.00     0.031 H 
ATOM      6  C   LIG d   1       3.388   2.232 -10.466  0.00  0.00    -0.009 C 
ATOM      7  C   LIG d   1       4.115   2.764  -9.228  0.00  0.00    -0.031 C 
ATOM      8  C   LIG d   1       3.560   0.766  -7.977  0.00  0.00    -0.020 C 
ATOM      9  C   LIG d   1       2.817   0.176  -9.179  0.00  0.00     0.079 C 
ATOM     10  H   LIG d   1       1.771   0.482  -9.148  0.00  0.00     0.045 H 
ATOM     11  H   LIG d   1       5.017  -0.802 -10.451  0.00  0.00     0.032 H 
ATOM     12  H   LIG d   1       5.424   0.666 -11.375  0.00  0.00     0.032 H 
ATOM     13  H   LIG d   1       2.343   2.545 -10.438  0.00  0.00     0.032 H 
ATOM     14  H   LIG d   1       3.861   2.624 -11.366  0.00  0.00     0.032 H 
ATOM     15  H   LIG d   1       3.418   3.333  -8.614  0.00  0.00     0.081 H 
ATOM     16  H   LIG d   1       4.937   3.409  -9.539  0.00  0.00     0.081 H 
ATOM     17  H   LIG d   1       2.867   1.349  -7.371  0.00  0.00     0.082 H 
ATOM     18  H   LIG d   1       3.978  -0.042  -7.376  0.00  0.00     0.082 H 
ATOM     19  N   LIG d   1       4.660   1.646  -8.429  0.00  0.00     0.239 N 
ATOM     20  H   LIG d   1       5.140   2.027  -7.607  0.00  0.00     0.204 HD
ENDROOT
BRANCH   1  21
ATOM     21  C   LIG d   1       6.193  -0.263  -8.380  0.00  0.00     0.086 C 
ATOM     22  H   LIG d   1       5.401  -0.975  -8.151  0.00  0.00     0.057 H 
ATOM     23  H   LIG d   1       6.989  -0.767  -8.927  0.00  0.00     0.057 H 
BRANCH  21  24
ATOM     24  N   LIG d   1       6.730   0.288  -7.134  0.00  0.00    -0.246 N 
ATOM     25  C   LIG d   1       6.695  -0.311  -5.922  0.00  0.00     0.052 A 
ATOM     26  C   LIG d   1       7.300   0.540  -5.061  0.00  0.00     0.120 A 
ATOM     27  H   LIG d   1       6.271  -1.277  -5.688  0.00  0.00     0.085 H 
ATOM     28  N   LIG d   1       7.664   1.609  -5.777  0.00  0.00    -0.131 NA
ATOM     29  N   LIG d   1       7.312   1.429  -7.002  0.00  0.00    -0.065 NA
BRANCH  26  30
ATOM     30  C   LIG d   1       7.516   0.328  -3.585  0.00  0.00     0.135 C 
ATOM     31  H   LIG d   1       7.559  -0.740  -3.373  0.00  0.00     0.076 H 
ATOM     32  H   LIG d   1       8.453   0.796  -3.284  0.00  0.00     0.076 H 
BRANCH  30  33
ATOM     33  O   LIG d   1       6.436   0.916  -2.856  0.00  0.00    -0.486 OA
BRANCH  33  34
ATOM     34  C   LIG d   1       5.281   0.204  -2.781  0.00  0.00     0.121 A 
ATOM     35  C   LIG d   1       5.320  -1.154  -2.503  0.00  0.00    -0.020 A 
ATOM     36  C   LIG d   1       4.145  -1.876  -2.429  0.00  0.00    -0.058 A 
ATOM     37  H   LIG d   1       6.268  -1.647  -2.344  0.00  0.00     0.065 H 
ATOM     38  C   LIG d   1       2.931  -1.247  -2.633  0.00  0.00    -0.061 A 
ATOM     39  H   LIG d   1       4.174  -2.934  -2.211  0.00  0.00     0.062 H 
ATOM     40  C   LIG d   1       2.890   0.107  -2.911  0.00  0.00    -0.058 A 
ATOM     41  H   LIG d   1       2.012  -1.813  -2.574  0.00  0.00     0.062 H 
ATOM     42  C   LIG d   1       4.062   0.835  -2.980  0.00  0.00    -0.020 A 
ATOM     43  H   LIG d   1       1.940   0.596  -3.070  0.00  0.00     0.062 H 
ATOM     44  H   LIG d   1       4.029   1.893  -3.193  0.00  0.00     0.065 H 
ENDBRANCH  33  34
ENDBRANCH  30  33
ENDBRANCH  26  30
ENDBRANCH  21  24
ENDBRANCH   1  21
BRANCH   9  45
ATOM     45  C   LIG d   1       2.909  -1.327  -9.142  0.00  0.00     0.224 C 
ATOM     46  O   LIG d   1       3.593  -1.872  -8.302  0.00  0.00    -0.275 OA
ATOM     47  N   LIG d   1       2.230  -2.065 -10.042  0.00  0.00    -0.297 N 
ATOM     48  C   LIG d   1       2.304  -3.535 -10.026  0.00  0.00     0.038 C 
ATOM     49  C   LIG d   1       1.389  -1.426 -11.067  0.00  0.00     0.038 C 
ATOM     50  C   LIG d   1       2.638  -4.018 -11.442  0.00  0.00     0.064 C 
ATOM     51  H   LIG d   1       3.083  -3.857  -9.335  0.00  0.00     0.049 H 
ATOM     52  H   LIG d   1       1.344  -3.947  -9.716  0.00  0.00     0.049 H 
ATOM     53  O   LIG d   1       1.715  -3.438 -12.368  0.00  0.00    -0.377 OA
ATOM     54  H   LIG d   1       3.653  -3.713 -11.701  0.00  0.00     0.058 H 
ATOM     55  H   LIG d   1       2.563  -5.104 -11.483  0.00  0.00     0.058 H 
ATOM     56  C   LIG d   1       1.773  -2.011 -12.435  0.00  0.00     0.064 C 
ATOM     57  H   LIG d   1       2.784  -1.700 -12.698  0.00  0.00     0.058 H 
ATOM     58  H   LIG d   1       1.074  -1.655 -13.192  0.00  0.00     0.058 H 
ATOM     59  H   LIG d   1       0.339  -1.630 -10.858  0.00  0.00     0.049 H 
ATOM     60  H   LIG d   1       1.563  -0.350 -11.064  0.00  0.00     0.049 H 
ENDBRANCH   9  45
TORSDOF 6
ENDMDL
MODEL 3
REMARK VINA RESULT:      -7.4      9.080     12.192
REMARK  6 active torsions:
REMARK  status: ('A' for Active; 'I' for Inactive)
REMARK    1  A    between atoms: C_4  and  O_7 
REMARK    2  A    between atoms: O_7  and  C_8 
REMARK    3  A    between atoms: C_8  and  C_9 
REMARK    4  A    between atoms: N_11  and  C_14 
REMARK    5  A    between atoms: C_14  and  C_15 
REMARK    6  A    between atoms: C_23  and  C_25 
REMARK       I    between atoms: C_25  and  N_27 
ROOT
ATOM      1  C   LIG d   1      11.849   5.255  -2.526  0.00  0.00    -0.001 C 
ATOM      2  H   LIG d   1      12.357   4.687  -3.305  0.00  0.00     0.087 H 
ATOM      3  C   LIG d   1      12.024   6.753  -2.790  0.00  0.00    -0.004 C 
ATOM      4  C   LIG d   1      12.748   7.386  -1.595  0.00  0.00    -0.015 C 
ATOM      5  H   LIG d   1      12.891   8.456  -1.751  0.00  0.00     0.031 H 
ATOM      6  C   LIG d   1      14.106   6.693  -1.423  0.00  0.00    -0.009 C 
ATOM      7  C   LIG d   1      13.873   5.197  -1.197  0.00  0.00    -0.031 C 
ATOM      8  C   LIG d   1      11.740   5.635  -0.135  0.00  0.00    -0.020 C 
ATOM      9  C   LIG d   1      11.912   7.144  -0.332  0.00  0.00     0.079 C 
ATOM     10  H   LIG d   1      12.425   7.569   0.531  0.00  0.00     0.045 H 
ATOM     11  H   LIG d   1      11.046   7.219  -2.912  0.00  0.00     0.032 H 
ATOM     12  H   LIG d   1      12.615   6.900  -3.695  0.00  0.00     0.032 H 
ATOM     13  H   LIG d   1      14.626   7.116  -0.563  0.00  0.00     0.032 H 
ATOM     14  H   LIG d   1      14.709   6.838  -2.320  0.00  0.00     0.032 H 
ATOM     15  H   LIG d   1      14.285   4.907  -0.231  0.00  0.00     0.081 H 
ATOM     16  H   LIG d   1      14.363   4.629  -1.987  0.00  0.00     0.081 H 
ATOM     17  H   LIG d   1      12.167   5.342   0.824  0.00  0.00     0.082 H 
ATOM     18  H   LIG d   1      10.679   5.385  -0.152  0.00  0.00     0.082 H 
ATOM     19  N   LIG d   1      12.427   4.891  -1.214  0.00  0.00     0.239 N 
ATOM     20  H   LIG d   1      12.296   3.885  -1.059  0.00  0.00     0.204 HD
ENDROOT
BRANCH   1  21
ATOM     21  C   LIG d   1      10.359   4.907  -2.527  0.00  0.00     0.086 C 
ATOM     22  H   LIG d   1       9.985   4.910  -1.503  0.00  0.00     0.057 H 
ATOM     23  H   LIG d   1       9.815   5.645  -3.115  0.00  0.00     0.057 H 
BRANCH  21  24
ATOM     24  N   LIG d   1      10.169   3.578  -3.112  0.00  0.00    -0.246 N 
ATOM     25  C   LIG d   1       8.983   3.027  -3.459  0.00  0.00     0.052 A 
ATOM     26  C   LIG d   1       9.268   1.802  -3.959  0.00  0.00     0.120 A 
ATOM     27  H   LIG d   1       8.005   3.475  -3.359  0.00  0.00     0.085 H 
ATOM     28  N   LIG d   1      10.596   1.662  -3.888  0.00  0.00    -0.131 NA
ATOM     29  N   LIG d   1      11.101   2.732  -3.382  0.00  0.00    -0.065 NA
BRANCH  26  30
ATOM     30  C   LIG d   1       8.283   0.792  -4.488  0.00  0.00     0.135 C 
ATOM     31  H   LIG d   1       8.481   0.608  -5.544  0.00  0.00     0.076 H 
ATOM     32  H   LIG d   1       8.385  -0.140  -3.933  0.00  0.00     0.076 H 
BRANCH  30  33
ATOM     33  O   LIG d   1       6.954   1.296  -4.333  0.00  0.00    -0.486 OA
BRANCH  33  34
ATOM     34  C   LIG d   1       6.123   0.601  -3.513  0.00  0.00     0.121 A 
ATOM     35  C   LIG d   1       6.168  -0.785  -3.491  0.00  0.00    -0.020 A 
ATOM     36  C   LIG d   1       5.321  -1.489  -2.657  0.00  0.00    -0.058 A 
ATOM     37  H   LIG d   1       6.864  -1.314  -4.125  0.00  0.00     0.065 H 
ATOM     38  C   LIG d   1       4.429  -0.814  -1.844  0.00  0.00    -0.061 A 
ATOM     39  H   LIG d   1       5.355  -2.568  -2.638  0.00  0.00     0.062 H 
ATOM     40  C   LIG d   1       4.382   0.569  -1.865  0.00  0.00    -0.058 A 
ATOM     41  H   LIG d   1       3.767  -1.365  -1.193  0.00  0.00     0.062 H 
ATOM     42  C   LIG d   1       5.231   1.277  -2.693  0.00  0.00    -0.020 A 
ATOM     43  H   LIG d   1       3.685   1.094  -1.230  0.00  0.00     0.062 H 
ATOM     44  H   LIG d   1       5.197   2.357  -2.705  0.00  0.00     0.065 H 
ENDBRANCH  33  34
ENDBRANCH  30  33
ENDBRANCH  26  30
ENDBRANCH  21  24
ENDBRANCH   1  21
BRANCH   9  45
ATOM     45  C   LIG d   1      10.561   7.790  -0.489  0.00  0.00     0.224 C 
ATOM     46  O   LIG d   1       9.562   7.104  -0.539  0.00  0.00    -0.275 OA
ATOM     47  N   LIG d   1      10.461   9.131  -0.574  0.00  0.00    -0.297 N 
ATOM     48  C   LIG d   1       9.152   9.786  -0.728  0.00  0.00     0.038 C 
ATOM     49  C   LIG d   1      11.659   9.986  -0.509  0.00  0.00     0.038 C 
ATOM     50  C   LIG d   1       9.236  10.765  -1.904  0.00  0.00     0.064 C 
ATOM     51  H   LIG d   1       8.387   9.036  -0.929  0.00  0.00     0.049 H 
ATOM     52  H   LIG d   1       8.904  10.329   0.184  0.00  0.00     0.049 H 
ATOM     53  O   LIG d   1      10.361  11.629  -1.718  0.00  0.00    -0.377 OA
ATOM     54  H   LIG d   1       9.355  10.208  -2.834  0.00  0.00     0.058 H 
ATOM     55  H   LIG d   1       8.324  11.358  -1.950  0.00  0.00     0.058 H 
ATOM     56  C   LIG d   1      11.621  10.954  -1.702  0.00  0.00     0.064 C 
ATOM     57  H   LIG d   1      11.748  10.398  -2.631  0.00  0.00     0.058 H 
ATOM     58  H   LIG d   1      12.424  11.685  -1.602  0.00  0.00     0.058 H 
ATOM     59  H   LIG d   1      11.658  10.548   0.424  0.00  0.00     0.049 H 
ATOM     60  H   LIG d   1      12.553   9.366  -0.565  0.00  0.00     0.049 H 
ENDBRANCH   9  45
TORSDOF 6
ENDMDL
MODEL 4
REMARK VINA RESULT:      -7.2      2.779      8.194
REMARK  6 active torsions:
REMARK  status: ('A' for Active; 'I' for Inactive)
REMARK    1  A    between atoms: C_4  and  O_7 
REMARK    2  A    between atoms: O_7  and  C_8 
REMARK    3  A    between atoms: C_8  and  C_9 
REMARK    4  A    between atoms: N_11  and  C_14 
REMARK    5  A    between atoms: C_14  and  C_15 
REMARK    6  A    between atoms: C_23  and  C_25 
REMARK       I    between atoms: C_25  and  N_27 
ROOT
ATOM      1  C   LIG d   1       3.408  -0.077  -4.489  0.00  0.00    -0.001 C 
ATOM      2  H   LIG d   1       2.572   0.621  -4.448  0.00  0.00     0.087 H 
ATOM      3  C   LIG d   1       3.212  -1.171  -3.437  0.00  0.00    -0.004 C 
ATOM      4  C   LIG d   1       4.392  -1.136  -2.458  0.00  0.00    -0.015 C 
ATOM      5  H   LIG d   1       4.283  -1.905  -1.692  0.00  0.00     0.031 H 
ATOM      6  C   LIG d   1       4.446   0.252  -1.807  0.00  0.00    -0.009 C 
ATOM      7  C   LIG d   1       4.609   1.307  -2.904  0.00  0.00    -0.031 C 
ATOM      8  C   LIG d   1       5.817  -0.257  -4.304  0.00  0.00    -0.020 C 
ATOM      9  C   LIG d   1       5.689  -1.357  -3.247  0.00  0.00     0.079 C 
ATOM     10  H   LIG d   1       6.541  -1.312  -2.568  0.00  0.00     0.045 H 
ATOM     11  H   LIG d   1       3.173  -2.145  -3.926  0.00  0.00     0.032 H 
ATOM     12  H   LIG d   1       2.282  -0.997  -2.894  0.00  0.00     0.032 H 
ATOM     13  H   LIG d   1       5.294   0.303  -1.124  0.00  0.00     0.032 H 
ATOM     14  H   LIG d   1       3.523   0.436  -1.256  0.00  0.00     0.032 H 
ATOM     15  H   LIG d   1       5.532   1.863  -2.741  0.00  0.00     0.081 H 
ATOM     16  H   LIG d   1       3.762   1.993  -2.878  0.00  0.00     0.081 H 
ATOM     17  H   LIG d   1       6.733   0.309  -4.131  0.00  0.00     0.082 H 
ATOM     18  H   LIG d   1       5.851  -0.708  -5.296  0.00  0.00     0.082 H 
ATOM     19  N   LIG d   1       4.662   0.665  -4.235  0.00  0.00     0.239 N 
ATOM     20  H   LIG d   1       4.772   1.390  -4.952  0.00  0.00     0.204 HD
ENDROOT
BRANCH   1  21
ATOM     21  C   LIG d   1       3.479  -0.711  -5.879  0.00  0.00     0.086 C 
ATOM     22  H   LIG d   1       4.440  -1.210  -6.002  0.00  0.00     0.057 H 
ATOM     23  H   LIG d   1       2.675  -1.439  -5.987  0.00  0.00     0.057 H 
BRANCH  21  24
ATOM     24  N   LIG d   1       3.335   0.330  -6.899  0.00  0.00    -0.246 N 
ATOM     25  C   LIG d   1       3.754   0.247  -8.182  0.00  0.00     0.052 A 
ATOM     26  C   LIG d   1       3.419   1.422  -8.765  0.00  0.00     0.120 A 
ATOM     27  H   LIG d   1       4.254  -0.589  -8.649  0.00  0.00     0.085 H 
ATOM     28  N   LIG d   1       2.826   2.160  -7.821  0.00  0.00    -0.131 NA
ATOM     29  N   LIG d   1       2.792   1.485  -6.726  0.00  0.00    -0.065 NA
BRANCH  26  30
ATOM     30  C   LIG d   1       3.670   1.822 -10.197  0.00  0.00     0.135 C 
ATOM     31  H   LIG d   1       2.720   1.879 -10.730  0.00  0.00     0.076 H 
ATOM     32  H   LIG d   1       4.159   2.795 -10.222  0.00  0.00     0.076 H 
BRANCH  30  33
ATOM     33  O   LIG d   1       4.511   0.850 -10.823  0.00  0.00    -0.486 OA
BRANCH  33  34
ATOM     34  C   LIG d   1       3.925   0.009 -11.714  0.00  0.00     0.121 A 
ATOM     35  C   LIG d   1       2.663  -0.507 -11.456  0.00  0.00    -0.020 A 
ATOM     36  C   LIG d   1       2.070  -1.363 -12.363  0.00  0.00    -0.058 A 
ATOM     37  H   LIG d   1       2.145  -0.240 -10.547  0.00  0.00     0.065 H 
ATOM     38  C   LIG d   1       2.731  -1.706 -13.527  0.00  0.00    -0.061 A 
ATOM     39  H   LIG d   1       1.087  -1.764 -12.164  0.00  0.00     0.062 H 
ATOM     40  C   LIG d   1       3.990  -1.194 -13.787  0.00  0.00    -0.058 A 
ATOM     41  H   LIG d   1       2.266  -2.376 -14.236  0.00  0.00     0.062 H 
ATOM     42  C   LIG d   1       4.584  -0.333 -12.886  0.00  0.00    -0.020 A 
ATOM     43  H   LIG d   1       4.505  -1.464 -14.696  0.00  0.00     0.062 H 
ATOM     44  H   LIG d   1       5.565   0.071 -13.091  0.00  0.00     0.065 H 
ENDBRANCH  33  34
ENDBRANCH  30  33
ENDBRANCH  26  30
ENDBRANCH  21  24
ENDBRANCH   1  21
BRANCH   9  45
ATOM     45  C   LIG d   1       5.647  -2.703  -3.921  0.00  0.00     0.224 C 
ATOM     46  O   LIG d   1       4.637  -3.373  -3.874  0.00  0.00    -0.275 OA
ATOM     47  N   LIG d   1       6.731  -3.164  -4.575  0.00  0.00    -0.297 N 
ATOM     48  C   LIG d   1       6.714  -4.476  -5.241  0.00  0.00     0.038 C 
ATOM     49  C   LIG d   1       7.966  -2.366  -4.651  0.00  0.00     0.038 C 
ATOM     50  C   LIG d   1       7.947  -5.264  -4.789  0.00  0.00     0.064 C 
ATOM     51  H   LIG d   1       5.810  -5.017  -4.963  0.00  0.00     0.049 H 
ATOM     52  H   LIG d   1       6.743  -4.339  -6.323  0.00  0.00     0.049 H 
ATOM     53  O   LIG d   1       9.117  -4.465  -4.990  0.00  0.00    -0.377 OA
ATOM     54  H   LIG d   1       7.854  -5.512  -3.731  0.00  0.00     0.058 H 
ATOM     55  H   LIG d   1       8.028  -6.181  -5.372  0.00  0.00     0.058 H 
ATOM     56  C   LIG d   1       9.140  -3.260  -4.222  0.00  0.00     0.064 C 
ATOM     57  H   LIG d   1       9.051  -3.501  -3.162  0.00  0.00     0.058 H 
ATOM     58  H   LIG d   1      10.080  -2.735  -4.397  0.00  0.00     0.058 H 
ATOM     59  H   LIG d   1       8.118  -2.021  -5.673  0.00  0.00     0.049 H 
ATOM     60  H   LIG d   1       7.890  -1.510  -3.981  0.00  0.00     0.049 H 
ENDBRANCH   9  45
TORSDOF 6
ENDMDL
MODEL 5
REMARK VINA RESULT:      -7.2      8.180     10.823
REMARK  6 active torsions:
REMARK  status: ('A' for Active; 'I' for Inactive)
REMARK    1  A    between atoms: C_4  and  O_7 
REMARK    2  A    between atoms: O_7  and  C_8 
REMARK    3  A    between atoms: C_8  and  C_9 
REMARK    4  A    between atoms: N_11  and  C_14 
REMARK    5  A    between atoms: C_14  and  C_15 
REMARK    6  A    between atoms: C_23  and  C_25 
REMARK       I    between atoms: C_25  and  N_27 
ROOT
ATOM      1  C   LIG d   1       9.886   6.181  -6.056  0.00  0.00    -0.001 C 
ATOM      2  H   LIG d   1       9.215   5.407  -6.428  0.00  0.00     0.087 H 
ATOM      3  C   LIG d   1       9.062   7.336  -5.480  0.00  0.00    -0.004 C 
ATOM      4  C   LIG d   1       9.392   8.617  -6.258  0.00  0.00    -0.015 C 
ATOM      5  H   LIG d   1       8.819   9.461  -5.873  0.00  0.00     0.031 H 
ATOM      6  C   LIG d   1       9.062   8.387  -7.739  0.00  0.00    -0.009 C 
ATOM      7  C   LIG d   1       9.887   7.204  -8.252  0.00  0.00    -0.031 C 
ATOM      8  C   LIG d   1      11.668   7.696  -6.686  0.00  0.00    -0.020 C 
ATOM      9  C   LIG d   1      10.895   8.894  -6.129  0.00  0.00     0.079 C 
ATOM     10  H   LIG d   1      11.150   9.790  -6.695  0.00  0.00     0.045 H 
ATOM     11  H   LIG d   1       9.312   7.474  -4.428  0.00  0.00     0.032 H 
ATOM     12  H   LIG d   1       7.999   7.113  -5.577  0.00  0.00     0.032 H 
ATOM     13  H   LIG d   1       9.312   9.281  -8.311  0.00  0.00     0.032 H 
ATOM     14  H   LIG d   1       8.000   8.169  -7.849  0.00  0.00     0.032 H 
ATOM     15  H   LIG d   1      10.525   7.533  -9.070  0.00  0.00     0.081 H 
ATOM     16  H   LIG d   1       9.216   6.420  -8.605  0.00  0.00     0.081 H 
ATOM     17  H   LIG d   1      12.295   8.023  -7.516  0.00  0.00     0.082 H 
ATOM     18  H   LIG d   1      12.295   7.272  -5.902  0.00  0.00     0.082 H 
ATOM     19  N   LIG d   1      10.733   6.657  -7.170  0.00  0.00     0.239 N 
ATOM     20  H   LIG d   1      11.276   5.867  -7.538  0.00  0.00     0.204 HD
ENDROOT
BRANCH   1  21
ATOM     21  C   LIG d   1      10.783   5.599  -4.962  0.00  0.00     0.086 C 
ATOM     22  H   LIG d   1      11.732   5.287  -5.398  0.00  0.00     0.057 H 
ATOM     23  H   LIG d   1      10.965   6.357  -4.201  0.00  0.00     0.057 H 
BRANCH  21  24
ATOM     24  N   LIG d   1      10.122   4.443  -4.353  0.00  0.00    -0.246 N 
ATOM     25  C   LIG d   1       9.213   3.641  -4.953  0.00  0.00     0.052 A 
ATOM     26  C   LIG d   1       8.870   2.707  -4.037  0.00  0.00     0.120 A 
ATOM     27  H   LIG d   1       8.838   3.728  -5.963  0.00  0.00     0.085 H 
ATOM     28  N   LIG d   1       9.570   2.983  -2.932  0.00  0.00    -0.131 NA
ATOM     29  N   LIG d   1      10.303   4.017  -3.151  0.00  0.00    -0.065 NA
BRANCH  26  30
ATOM     30  C   LIG d   1       7.887   1.579  -4.223  0.00  0.00     0.135 C 
ATOM     31  H   LIG d   1       7.579   1.534  -5.267  0.00  0.00     0.076 H 
ATOM     32  H   LIG d   1       8.358   0.637  -3.943  0.00  0.00     0.076 H 
BRANCH  30  33
ATOM     33  O   LIG d   1       6.743   1.803  -3.396  0.00  0.00    -0.486 OA
BRANCH  33  34
ATOM     34  C   LIG d   1       6.035   0.708  -3.013  0.00  0.00     0.121 A 
ATOM     35  C   LIG d   1       6.424  -0.554  -3.436  0.00  0.00    -0.020 A 
ATOM     36  C   LIG d   1       5.703  -1.665  -3.046  0.00  0.00    -0.058 A 
ATOM     37  H   LIG d   1       7.291  -0.668  -4.070  0.00  0.00     0.065 H 
ATOM     38  C   LIG d   1       4.592  -1.521  -2.235  0.00  0.00    -0.061 A 
ATOM     39  H   LIG d   1       6.005  -2.648  -3.374  0.00  0.00     0.062 H 
ATOM     40  C   LIG d   1       4.202  -0.263  -1.812  0.00  0.00    -0.058 A 
ATOM     41  H   LIG d   1       4.028  -2.390  -1.931  0.00  0.00     0.062 H 
ATOM     42  C   LIG d   1       4.924   0.850  -2.195  0.00  0.00    -0.020 A 
ATOM     43  H   LIG d   1       3.334  -0.153  -1.179  0.00  0.00     0.062 H 
ATOM     44  H   LIG d   1       4.621   1.832  -1.860  0.00  0.00     0.065 H 
ENDBRANCH  33  34
ENDBRANCH  30  33
ENDBRANCH  26  30
ENDBRANCH  21  24
ENDBRANCH   1  21
BRANCH   9  45
ATOM     45  C   LIG d   1      11.248   9.093  -4.678  0.00  0.00     0.224 C 
ATOM     46  O   LIG d   1      11.913   8.262  -4.096  0.00  0.00    -0.275 OA
ATOM     47  N   LIG d   1      10.826  10.194  -4.026  0.00  0.00    -0.297 N 
ATOM     48  C   LIG d   1      11.159  10.410  -2.609  0.00  0.00     0.038 C 
ATOM     49  C   LIG d   1      10.024  11.220  -4.713  0.00  0.00     0.038 C 
ATOM     50  C   LIG d   1       9.868  10.744  -1.855  0.00  0.00     0.064 C 
ATOM     51  H   LIG d   1      11.604   9.506  -2.194  0.00  0.00     0.049 H 
ATOM     52  H   LIG d   1      11.861  11.240  -2.519  0.00  0.00     0.049 H 
ATOM     53  O   LIG d   1       9.197  11.818  -2.520  0.00  0.00    -0.377 OA
ATOM     54  H   LIG d   1       9.220   9.867  -1.835  0.00  0.00     0.058 H 
ATOM     55  H   LIG d   1      10.108  11.041  -0.834  0.00  0.00     0.058 H 
ATOM     56  C   LIG d   1       8.783  11.511  -3.854  0.00  0.00     0.064 C 
ATOM     57  H   LIG d   1       8.132  10.637  -3.841  0.00  0.00     0.058 H 
ATOM     58  H   LIG d   1       8.243  12.361  -4.272  0.00  0.00     0.058 H 
ATOM     59  H   LIG d   1      10.614  12.129  -4.831  0.00  0.00     0.049 H 
ATOM     60  H   LIG d   1       9.717  10.851  -5.691  0.00  0.00     0.049 H 
ENDBRANCH   9  45
TORSDOF 6
ENDMDL
MODEL 6
REMARK VINA RESULT:      -7.1      8.989     12.001
REMARK  6 active torsions:
REMARK  status: ('A' for Active; 'I' for Inactive)
REMARK    1  A    between atoms: C_4  and  O_7 
REMARK    2  A    between atoms: O_7  and  C_8 
REMARK    3  A    between atoms: C_8  and  C_9 
REMARK    4  A    between atoms: N_11  and  C_14 
REMARK    5  A    between atoms: C_14  and  C_15 
REMARK    6  A    between atoms: C_23  and  C_25 
REMARK       I    between atoms: C_25  and  N_27 
ROOT
ATOM      1  C   LIG d   1      11.613   5.856  -2.087  0.00  0.00    -0.001 C 
ATOM      2  H   LIG d   1      12.324   5.088  -1.784  0.00  0.00     0.087 H 
ATOM      3  C   LIG d   1      12.317   7.215  -2.130  0.00  0.00    -0.004 C 
ATOM      4  C   LIG d   1      11.623   8.164  -1.145  0.00  0.00    -0.015 C 
ATOM      5  H   LIG d   1      12.101   9.144  -1.149  0.00  0.00     0.031 H 
ATOM      6  C   LIG d   1      11.693   7.549   0.259  0.00  0.00    -0.009 C 
ATOM      7  C   LIG d   1      11.006   6.181   0.235  0.00  0.00    -0.031 C 
ATOM      8  C   LIG d   1       9.504   6.906  -1.521  0.00  0.00    -0.020 C 
ATOM      9  C   LIG d   1      10.148   8.295  -1.547  0.00  0.00     0.079 C 
ATOM     10  H   LIG d   1       9.635   8.949  -0.843  0.00  0.00     0.045 H 
ATOM     11  H   LIG d   1      12.256   7.627  -3.138  0.00  0.00     0.032 H 
ATOM     12  H   LIG d   1      13.363   7.096  -1.847  0.00  0.00     0.032 H 
ATOM     13  H   LIG d   1      11.184   8.200   0.970  0.00  0.00     0.032 H 
ATOM     14  H   LIG d   1      12.736   7.430   0.556  0.00  0.00     0.032 H 
ATOM     15  H   LIG d   1      10.173   6.180   0.937  0.00  0.00     0.081 H 
ATOM     16  H   LIG d   1      11.722   5.409   0.519  0.00  0.00     0.081 H 
ATOM     17  H   LIG d   1       8.681   6.901  -0.807  0.00  0.00     0.082 H 
ATOM     18  H   LIG d   1       9.126   6.662  -2.514  0.00  0.00     0.082 H 
ATOM     19  N   LIG d   1      10.495   5.884  -1.120  0.00  0.00     0.239 N 
ATOM     20  H   LIG d   1      10.039   4.965  -1.110  0.00  0.00     0.204 HD
ENDROOT
BRANCH   1  21
ATOM     21  C   LIG d   1      11.061   5.523  -3.475  0.00  0.00     0.086 C 
ATOM     22  H   LIG d   1      10.320   6.270  -3.760  0.00  0.00     0.057 H 
ATOM     23  H   LIG d   1      11.875   5.524  -4.199  0.00  0.00     0.057 H 
BRANCH  21  24
ATOM     24  N   LIG d   1      10.434   4.200  -3.446  0.00  0.00    -0.246 N 
ATOM     25  C   LIG d   1       9.291   3.850  -4.079  0.00  0.00     0.052 A 
ATOM     26  C   LIG d   1       9.082   2.545  -3.787  0.00  0.00     0.120 A 
ATOM     27  H   LIG d   1       8.671   4.484  -4.696  0.00  0.00     0.085 H 
ATOM     28  N   LIG d   1      10.090   2.167  -2.993  0.00  0.00    -0.131 NA
ATOM     29  N   LIG d   1      10.874   3.171  -2.810  0.00  0.00    -0.065 NA
BRANCH  26  30
ATOM     30  C   LIG d   1       7.936   1.688  -4.258  0.00  0.00     0.135 C 
ATOM     31  H   LIG d   1       7.703   1.929  -5.295  0.00  0.00     0.076 H 
ATOM     32  H   LIG d   1       8.214   0.636  -4.184  0.00  0.00     0.076 H 
BRANCH  30  33
ATOM     33  O   LIG d   1       6.788   1.934  -3.442  0.00  0.00    -0.486 OA
BRANCH  33  34
ATOM     34  C   LIG d   1       6.063   0.853  -3.053  0.00  0.00     0.121 A 
ATOM     35  C   LIG d   1       6.487  -0.424  -3.389  0.00  0.00    -0.020 A 
ATOM     36  C   LIG d   1       5.748  -1.522  -2.994  0.00  0.00    -0.058 A 
ATOM     37  H   LIG d   1       7.394  -0.561  -3.959  0.00  0.00     0.065 H 
ATOM     38  C   LIG d   1       4.586  -1.349  -2.264  0.00  0.00    -0.061 A 
ATOM     39  H   LIG d   1       6.077  -2.517  -3.254  0.00  0.00     0.062 H 
ATOM     40  C   LIG d   1       4.161  -0.076  -1.928  0.00  0.00    -0.058 A 
ATOM     41  H   LIG d   1       4.009  -2.208  -1.956  0.00  0.00     0.062 H 
ATOM     42  C   LIG d   1       4.901   1.024  -2.316  0.00  0.00    -0.020 A 
ATOM     43  H   LIG d   1       3.254   0.057  -1.359  0.00  0.00     0.062 H 
ATOM     44  H   LIG d   1       4.571   2.018  -2.049  0.00  0.00     0.065 H 
ENDBRANCH  33  34
ENDBRANCH  30  33
ENDBRANCH  26  30
ENDBRANCH  21  24
ENDBRANCH   1  21
BRANCH   9  45
ATOM     45  C   LIG d   1      10.054   8.870  -2.937  0.00  0.00     0.224 C 
ATOM     46  O   LIG d   1       9.999   8.130  -3.896  0.00  0.00    -0.275 OA
ATOM     47  N   LIG d   1      10.030  10.205  -3.113  0.00  0.00    -0.297 N 
ATOM     48  C   LIG d   1       9.938  10.790  -4.460  0.00  0.00     0.038 C 
ATOM     49  C   LIG d   1      10.089  11.123  -1.963  0.00  0.00     0.038 C 
ATOM     50  C   LIG d   1      11.043  11.842  -4.607  0.00  0.00     0.064 C 
ATOM     51  H   LIG d   1      10.071  10.010  -5.210  0.00  0.00     0.049 H 
ATOM     52  H   LIG d   1       8.963  11.262  -4.590  0.00  0.00     0.049 H 
ATOM     53  O   LIG d   1      10.971  12.758  -3.511  0.00  0.00    -0.377 OA
ATOM     54  H   LIG d   1      12.016  11.350  -4.607  0.00  0.00     0.058 H 
ATOM     55  H   LIG d   1      10.909  12.383  -5.544  0.00  0.00     0.058 H 
ATOM     56  C   LIG d   1      11.193  12.158  -2.233  0.00  0.00     0.064 C 
ATOM     57  H   LIG d   1      12.166  11.667  -2.224  0.00  0.00     0.058 H 
ATOM     58  H   LIG d   1      11.166  12.927  -1.460  0.00  0.00     0.058 H 
ATOM     59  H   LIG d   1       9.130  11.626  -1.846  0.00  0.00     0.049 H 
ATOM     60  H   LIG d   1      10.323  10.561  -1.059  0.00  0.00     0.049 H 
ENDBRANCH   9  45
TORSDOF 6
ENDMDL
MODEL 7
REMARK VINA RESULT:      -7.1      7.588     10.491
REMARK  6 active torsions:
REMARK  status: ('A' for Active; 'I' for Inactive)
REMARK    1  A    between atoms: C_4  and  O_7 
REMARK    2  A    between atoms: O_7  and  C_8 
REMARK    3  A    between atoms: C_8  and  C_9 
REMARK    4  A    between atoms: N_11  and  C_14 
REMARK    5  A    between atoms: C_14  and  C_15 
REMARK    6  A    between atoms: C_23  and  C_25 
REMARK       I    between atoms: C_25  and  N_27 
ROOT
ATOM      1  C   LIG d   1       9.932   5.754  -6.297  0.00  0.00    -0.001 C 
ATOM      2  H   LIG d   1       9.134   5.415  -6.957  0.00  0.00     0.087 H 
ATOM      3  C   LIG d   1       9.327   6.286  -4.995  0.00  0.00    -0.004 C 
ATOM      4  C   LIG d   1       9.721   7.759  -4.830  0.00  0.00    -0.015 C 
ATOM      5  H   LIG d   1       9.305   8.170  -3.910  0.00  0.00     0.031 H 
ATOM      6  C   LIG d   1       9.200   8.543  -6.041  0.00  0.00    -0.009 C 
ATOM      7  C   LIG d   1       9.809   7.949  -7.314  0.00  0.00    -0.031 C 
ATOM      8  C   LIG d   1      11.804   7.282  -6.113  0.00  0.00    -0.020 C 
ATOM      9  C   LIG d   1      11.252   7.857  -4.806  0.00  0.00     0.079 C 
ATOM     10  H   LIG d   1      11.549   8.901  -4.711  0.00  0.00     0.045 H 
ATOM     11  H   LIG d   1       9.710   5.710  -4.152  0.00  0.00     0.032 H 
ATOM     12  H   LIG d   1       8.241   6.200  -5.032  0.00  0.00     0.032 H 
ATOM     13  H   LIG d   1       9.491   9.590  -5.952  0.00  0.00     0.032 H 
ATOM     14  H   LIG d   1       8.113   8.469  -6.087  0.00  0.00     0.032 H 
ATOM     15  H   LIG d   1      10.386   8.714  -7.832  0.00  0.00     0.081 H 
ATOM     16  H   LIG d   1       9.012   7.590  -7.966  0.00  0.00     0.081 H 
ATOM     17  H   LIG d   1      12.368   8.052  -6.639  0.00  0.00     0.082 H 
ATOM     18  H   LIG d   1      12.459   6.439  -5.892  0.00  0.00     0.082 H 
ATOM     19  N   LIG d   1      10.700   6.817  -6.981  0.00  0.00     0.239 N 
ATOM     20  H   LIG d   1      11.096   6.437  -7.848  0.00  0.00     0.204 HD
ENDROOT
BRANCH   1  21
ATOM     21  C   LIG d   1      10.870   4.586  -5.984  0.00  0.00     0.086 C 
ATOM     22  H   LIG d   1      11.141   4.080  -6.911  0.00  0.00     0.057 H 
ATOM     23  H   LIG d   1      11.770   4.963  -5.500  0.00  0.00     0.057 H 
BRANCH  21  24
ATOM     24  N   LIG d   1      10.193   3.643  -5.092  0.00  0.00    -0.246 N 
ATOM     25  C   LIG d   1       9.171   2.823  -5.431  0.00  0.00     0.052 A 
ATOM     26  C   LIG d   1       8.858   2.129  -4.313  0.00  0.00     0.120 A 
ATOM     27  H   LIG d   1       8.702   2.739  -6.400  0.00  0.00     0.085 H 
ATOM     28  N   LIG d   1       9.686   2.556  -3.354  0.00  0.00    -0.131 NA
ATOM     29  N   LIG d   1      10.466   3.453  -3.848  0.00  0.00    -0.065 NA
BRANCH  26  30
ATOM     30  C   LIG d   1       7.782   1.082  -4.173  0.00  0.00     0.135 C 
ATOM     31  H   LIG d   1       7.420   0.799  -5.161  0.00  0.00     0.076 H 
ATOM     32  H   LIG d   1       8.191   0.206  -3.671  0.00  0.00     0.076 H 
BRANCH  30  33
ATOM     33  O   LIG d   1       6.700   1.611  -3.402  0.00  0.00    -0.486 OA
BRANCH  33  34
ATOM     34  C   LIG d   1       5.722   0.742  -3.035  0.00  0.00     0.121 A 
ATOM     35  C   LIG d   1       4.476   1.218  -2.655  0.00  0.00    -0.020 A 
ATOM     36  C   LIG d   1       3.484   0.333  -2.281  0.00  0.00    -0.058 A 
ATOM     37  H   LIG d   1       4.282   2.281  -2.651  0.00  0.00     0.065 H 
ATOM     38  C   LIG d   1       3.732  -1.027  -2.284  0.00  0.00    -0.061 A 
ATOM     39  H   LIG d   1       2.514   0.703  -1.986  0.00  0.00     0.062 H 
ATOM     40  C   LIG d   1       4.974  -1.505  -2.662  0.00  0.00    -0.058 A 
ATOM     41  H   LIG d   1       2.955  -1.718  -1.992  0.00  0.00     0.062 H 
ATOM     42  C   LIG d   1       5.967  -0.624  -3.043  0.00  0.00    -0.020 A 
ATOM     43  H   LIG d   1       5.164  -2.567  -2.664  0.00  0.00     0.062 H 
ATOM     44  H   LIG d   1       6.935  -0.998  -3.342  0.00  0.00     0.065 H 
ENDBRANCH  33  34
ENDBRANCH  30  33
ENDBRANCH  26  30
ENDBRANCH  21  24
ENDBRANCH   1  21
BRANCH   9  45
ATOM     45  C   LIG d   1      11.790   7.069  -3.640  0.00  0.00     0.224 C 
ATOM     46  O   LIG d   1      12.554   6.147  -3.832  0.00  0.00    -0.275 OA
ATOM     47  N   LIG d   1      11.422   7.388  -2.384  0.00  0.00    -0.297 N 
ATOM     48  C   LIG d   1      11.934   6.633  -1.229  0.00  0.00     0.038 C 
ATOM     49  C   LIG d   1      10.501   8.507  -2.125  0.00  0.00     0.038 C 
ATOM     50  C   LIG d   1      10.745   6.221  -0.355  0.00  0.00     0.064 C 
ATOM     51  H   LIG d   1      12.461   5.744  -1.576  0.00  0.00     0.049 H 
ATOM     52  H   LIG d   1      12.613   7.261  -0.652  0.00  0.00     0.049 H 
ATOM     53  O   LIG d   1       9.955   7.375  -0.059  0.00  0.00    -0.377 OA
ATOM     54  H   LIG d   1      10.136   5.490  -0.889  0.00  0.00     0.058 H 
ATOM     55  H   LIG d   1      11.110   5.780   0.573  0.00  0.00     0.058 H 
ATOM     56  C   LIG d   1       9.377   7.999  -1.208  0.00  0.00     0.064 C 
ATOM     57  H   LIG d   1       8.763   7.275  -1.745  0.00  0.00     0.058 H 
ATOM     58  H   LIG d   1       8.757   8.839  -0.893  0.00  0.00     0.058 H 
ATOM     59  H   LIG d   1      11.038   9.319  -1.637  0.00  0.00     0.049 H 
ATOM     60  H   LIG d   1      10.078   8.858  -3.066  0.00  0.00     0.049 H 
ENDBRANCH   9  45
TORSDOF 6
ENDMDL
MODEL 8
REMARK VINA RESULT:      -6.9      7.578     10.396
REMARK  6 active torsions:
REMARK  status: ('A' for Active; 'I' for Inactive)
REMARK    1  A    between atoms: C_4  and  O_7 
REMARK    2  A    between atoms: O_7  and  C_8 
REMARK    3  A    between atoms: C_8  and  C_9 
REMARK    4  A    between atoms: N_11  and  C_14 
REMARK    5  A    between atoms: C_14  and  C_15 
REMARK    6  A    between atoms: C_23  and  C_25 
REMARK       I    between atoms: C_25  and  N_27 
ROOT
ATOM      1  C   LIG d   1      11.355   6.214  -4.229  0.00  0.00    -0.001 C 
ATOM      2  H   LIG d   1      12.058   5.975  -3.432  0.00  0.00     0.087 H 
ATOM      3  C   LIG d   1      11.876   7.411  -5.028  0.00  0.00    -0.004 C 
ATOM      4  C   LIG d   1      10.852   8.550  -4.942  0.00  0.00    -0.015 C 
ATOM      5  H   LIG d   1      11.193   9.421  -5.502  0.00  0.00     0.031 H 
ATOM      6  C   LIG d   1      10.651   8.916  -3.466  0.00  0.00    -0.009 C 
ATOM      7  C   LIG d   1      10.163   7.677  -2.710  0.00  0.00    -0.031 C 
ATOM      8  C   LIG d   1       9.059   6.835  -4.695  0.00  0.00    -0.020 C 
ATOM      9  C   LIG d   1       9.516   8.050  -5.508  0.00  0.00     0.079 C 
ATOM     10  H   LIG d   1       8.770   8.841  -5.433  0.00  0.00     0.045 H 
ATOM     11  H   LIG d   1      12.013   7.123  -6.071  0.00  0.00     0.032 H 
ATOM     12  H   LIG d   1      12.828   7.744  -4.613  0.00  0.00     0.032 H 
ATOM     13  H   LIG d   1       9.908   9.710  -3.384  0.00  0.00     0.032 H 
ATOM     14  H   LIG d   1      11.596   9.256  -3.041  0.00  0.00     0.032 H 
ATOM     15  H   LIG d   1       9.190   7.882  -2.266  0.00  0.00     0.081 H 
ATOM     16  H   LIG d   1      10.877   7.425  -1.926  0.00  0.00     0.081 H 
ATOM     17  H   LIG d   1       8.093   7.046  -4.237  0.00  0.00     0.082 H 
ATOM     18  H   LIG d   1       8.968   5.971  -5.353  0.00  0.00     0.082 H 
ATOM     19  N   LIG d   1      10.039   6.527  -3.631  0.00  0.00     0.239 N 
ATOM     20  H   LIG d   1       9.710   5.711  -3.102  0.00  0.00     0.204 HD
ENDROOT
BRANCH   1  21
ATOM     21  C   LIG d   1      11.204   5.007  -5.158  0.00  0.00     0.086 C 
ATOM     22  H   LIG d   1      10.726   5.320  -6.086  0.00  0.00     0.057 H 
ATOM     23  H   LIG d   1      12.188   4.593  -5.376  0.00  0.00     0.057 H 
BRANCH  21  24
ATOM     24  N   LIG d   1      10.379   3.989  -4.503  0.00  0.00    -0.246 N 
ATOM     25  C   LIG d   1       9.406   3.257  -5.093  0.00  0.00     0.052 A 
ATOM     26  C   LIG d   1       8.910   2.444  -4.132  0.00  0.00     0.120 A 
ATOM     27  H   LIG d   1       9.090   3.310  -6.125  0.00  0.00     0.085 H 
ATOM     28  N   LIG d   1       9.589   2.719  -3.013  0.00  0.00    -0.131 NA
ATOM     29  N   LIG d   1      10.453   3.639  -3.267  0.00  0.00    -0.065 NA
BRANCH  26  30
ATOM     30  C   LIG d   1       7.805   1.431  -4.289  0.00  0.00     0.135 C 
ATOM     31  H   LIG d   1       7.457   1.430  -5.322  0.00  0.00     0.076 H 
ATOM     32  H   LIG d   1       8.181   0.441  -4.031  0.00  0.00     0.076 H 
BRANCH  30  33
ATOM     33  O   LIG d   1       6.721   1.769  -3.421  0.00  0.00    -0.486 OA
BRANCH  33  34
ATOM     34  C   LIG d   1       5.930   0.750  -2.995  0.00  0.00     0.121 A 
ATOM     35  C   LIG d   1       6.302  -0.564  -3.235  0.00  0.00    -0.020 A 
ATOM     36  C   LIG d   1       5.496  -1.599  -2.802  0.00  0.00    -0.058 A 
ATOM     37  H   LIG d   1       7.221  -0.779  -3.762  0.00  0.00     0.065 H 
ATOM     38  C   LIG d   1       4.320  -1.326  -2.129  0.00  0.00    -0.061 A 
ATOM     39  H   LIG d   1       5.785  -2.623  -2.989  0.00  0.00     0.062 H 
ATOM     40  C   LIG d   1       3.947  -0.016  -1.888  0.00  0.00    -0.058 A 
ATOM     41  H   LIG d   1       3.690  -2.136  -1.791  0.00  0.00     0.062 H 
ATOM     42  C   LIG d   1       4.752   1.021  -2.314  0.00  0.00    -0.020 A 
ATOM     43  H   LIG d   1       3.027   0.194  -1.363  0.00  0.00     0.062 H 
ATOM     44  H   LIG d   1       4.463   2.044  -2.121  0.00  0.00     0.065 H 
ENDBRANCH  33  34
ENDBRANCH  30  33
ENDBRANCH  26  30
ENDBRANCH  21  24
ENDBRANCH   1  21
BRANCH   9  45
ATOM     45  C   LIG d   1       9.695   7.655  -6.950  0.00  0.00     0.224 C 
ATOM     46  O   LIG d   1       9.645   6.486  -7.270  0.00  0.00    -0.275 OA
ATOM     47  N   LIG d   1       9.909   8.600  -7.886  0.00  0.00    -0.297 N 
ATOM     48  C   LIG d   1      10.087   8.239  -9.301  0.00  0.00     0.038 C 
ATOM     49  C   LIG d   1       9.967  10.026  -7.524  0.00  0.00     0.038 C 
ATOM     50  C   LIG d   1      11.356   8.923  -9.820  0.00  0.00     0.064 C 
ATOM     51  H   LIG d   1      10.188   7.158  -9.395  0.00  0.00     0.049 H 
ATOM     52  H   LIG d   1       9.226   8.579  -9.878  0.00  0.00     0.049 H 
ATOM     53  O   LIG d   1      11.293  10.321  -9.524  0.00  0.00    -0.377 OA
ATOM     54  H   LIG d   1      12.230   8.488  -9.333  0.00  0.00     0.058 H 
ATOM     55  H   LIG d   1      11.433   8.781 -10.898  0.00  0.00     0.058 H 
ATOM     56  C   LIG d   1      11.249  10.622  -8.127  0.00  0.00     0.064 C 
ATOM     57  H   LIG d   1      12.121  10.193  -7.635  0.00  0.00     0.058 H 
ATOM     58  H   LIG d   1      11.247  11.703  -7.988  0.00  0.00     0.058 H 
ATOM     59  H   LIG d   1       9.094  10.542  -7.924  0.00  0.00     0.049 H 
ATOM     60  H   LIG d   1       9.989  10.127  -6.439  0.00  0.00     0.049 H 
ENDBRANCH   9  45
TORSDOF 6
ENDMDL
MODEL 9
REMARK VINA RESULT:      -6.9      7.593     10.338
REMARK  6 active torsions:
REMARK  status: ('A' for Active; 'I' for Inactive)
REMARK    1  A    between atoms: C_4  and  O_7 
REMARK    2  A    between atoms: O_7  and  C_8 
REMARK    3  A    between atoms: C_8  and  C_9 
REMARK    4  A    between atoms: N_11  and  C_14 
REMARK    5  A    between atoms: C_14  and  C_15 
REMARK    6  A    between atoms: C_23  and  C_25 
REMARK       I    between atoms: C_25  and  N_27 
ROOT
ATOM      1  C   LIG d   1       9.714   5.003  -5.156  0.00  0.00    -0.001 C 
ATOM      2  H   LIG d   1       9.191   4.560  -6.004  0.00  0.00     0.087 H 
ATOM      3  C   LIG d   1       9.183   6.417  -4.912  0.00  0.00    -0.004 C 
ATOM      4  C   LIG d   1      10.340   7.414  -5.057  0.00  0.00    -0.015 C 
ATOM      5  H   LIG d   1       9.995   8.435  -4.889  0.00  0.00     0.031 H 
ATOM      6  C   LIG d   1      10.925   7.280  -6.468  0.00  0.00    -0.009 C 
ATOM      7  C   LIG d   1      11.409   5.842  -6.670  0.00  0.00    -0.031 C 
ATOM      8  C   LIG d   1      11.899   5.619  -4.308  0.00  0.00    -0.020 C 
ATOM      9  C   LIG d   1      11.429   7.051  -4.039  0.00  0.00     0.079 C 
ATOM     10  H   LIG d   1      12.269   7.737  -4.145  0.00  0.00     0.045 H 
ATOM     11  H   LIG d   1       8.769   6.483  -3.905  0.00  0.00     0.032 H 
ATOM     12  H   LIG d   1       8.407   6.650  -5.641  0.00  0.00     0.032 H 
ATOM     13  H   LIG d   1      11.765   7.967  -6.583  0.00  0.00     0.032 H 
ATOM     14  H   LIG d   1      10.159   7.516  -7.208  0.00  0.00     0.032 H 
ATOM     15  H   LIG d   1      12.477   5.844  -6.883  0.00  0.00     0.081 H 
ATOM     16  H   LIG d   1      10.871   5.391  -7.504  0.00  0.00     0.081 H 
ATOM     17  H   LIG d   1      12.964   5.623  -4.538  0.00  0.00     0.082 H 
ATOM     18  H   LIG d   1      11.719   5.006  -3.425  0.00  0.00     0.082 H 
ATOM     19  N   LIG d   1      11.162   5.039  -5.453  0.00  0.00     0.239 N 
ATOM     20  H   LIG d   1      11.495   4.082  -5.612  0.00  0.00     0.204 HD
ENDROOT
BRANCH   1  21
ATOM     21  C   LIG d   1       9.484   4.148  -3.909  0.00  0.00     0.086 C 
ATOM     22  H   LIG d   1      10.370   4.183  -3.275  0.00  0.00     0.057 H 
ATOM     23  H   LIG d   1       8.628   4.535  -3.357  0.00  0.00     0.057 H 
BRANCH  21  24
ATOM     24  N   LIG d   1       9.223   2.763  -4.308  0.00  0.00    -0.246 N 
ATOM     25  C   LIG d   1       8.182   2.002  -3.898  0.00  0.00     0.052 A 
ATOM     26  C   LIG d   1       8.328   0.803  -4.508  0.00  0.00     0.120 A 
ATOM     27  H   LIG d   1       7.392   2.294  -3.222  0.00  0.00     0.085 H 
ATOM     28  N   LIG d   1       9.440   0.884  -5.246  0.00  0.00    -0.131 NA
ATOM     29  N   LIG d   1       9.947   2.059  -5.106  0.00  0.00    -0.065 NA
BRANCH  26  30
ATOM     30  C   LIG d   1       7.418  -0.392  -4.378  0.00  0.00     0.135 C 
ATOM     31  H   LIG d   1       6.588  -0.295  -5.079  0.00  0.00     0.076 H 
ATOM     32  H   LIG d   1       7.977  -1.300  -4.601  0.00  0.00     0.076 H 
BRANCH  30  33
ATOM     33  O   LIG d   1       6.910  -0.461  -3.044  0.00  0.00    -0.486 OA
BRANCH  33  34
ATOM     34  C   LIG d   1       5.560  -0.523  -2.900  0.00  0.00     0.121 A 
ATOM     35  C   LIG d   1       4.928  -1.754  -2.803  0.00  0.00    -0.020 A 
ATOM     36  C   LIG d   1       3.556  -1.814  -2.658  0.00  0.00    -0.058 A 
ATOM     37  H   LIG d   1       5.508  -2.664  -2.841  0.00  0.00     0.065 H 
ATOM     38  C   LIG d   1       2.812  -0.650  -2.609  0.00  0.00    -0.061 A 
ATOM     39  H   LIG d   1       3.063  -2.772  -2.582  0.00  0.00     0.062 H 
ATOM     40  C   LIG d   1       3.440   0.578  -2.706  0.00  0.00    -0.058 A 
ATOM     41  H   LIG d   1       1.739  -0.699  -2.496  0.00  0.00     0.062 H 
ATOM     42  C   LIG d   1       4.812   0.644  -2.845  0.00  0.00    -0.020 A 
ATOM     43  H   LIG d   1       2.857   1.486  -2.669  0.00  0.00     0.062 H 
ATOM     44  H   LIG d   1       5.303   1.604  -2.916  0.00  0.00     0.065 H 
ENDBRANCH  33  34
ENDBRANCH  30  33
ENDBRANCH  26  30
ENDBRANCH  21  24
ENDBRANCH   1  21
BRANCH   9  45
ATOM     45  C   LIG d   1      10.868   7.146  -2.644  0.00  0.00     0.224 C 
ATOM     46  O   LIG d   1      10.631   6.136  -2.016  0.00  0.00    -0.275 OA
ATOM     47  N   LIG d   1      10.630   8.353  -2.094  0.00  0.00    -0.297 N 
ATOM     48  C   LIG d   1      10.082   8.471  -0.734  0.00  0.00     0.038 C 
ATOM     49  C   LIG d   1      10.915   9.593  -2.835  0.00  0.00     0.038 C 
ATOM     50  C   LIG d   1       8.877   9.416  -0.777  0.00  0.00     0.064 C 
ATOM     51  H   LIG d   1       9.767   7.490  -0.378  0.00  0.00     0.049 H 
ATOM     52  H   LIG d   1      10.843   8.877  -0.066  0.00  0.00     0.049 H 
ATOM     53  O   LIG d   1       9.259  10.637  -1.416  0.00  0.00    -0.377 OA
ATOM     54  H   LIG d   1       8.068   8.949  -1.339  0.00  0.00     0.058 H 
ATOM     55  H   LIG d   1       8.541   9.625   0.238  0.00  0.00     0.058 H 
ATOM     56  C   LIG d   1       9.663  10.483  -2.779  0.00  0.00     0.064 C 
ATOM     57  H   LIG d   1       8.857  10.020  -3.348  0.00  0.00     0.058 H 
ATOM     58  H   LIG d   1       9.893  11.461  -3.203  0.00  0.00     0.058 H 
ATOM     59  H   LIG d   1      11.758  10.109  -2.375  0.00  0.00     0.049 H 
ATOM     60  H   LIG d   1      11.151   9.354  -3.872  0.00  0.00     0.049 H 
ENDBRANCH   9  45
TORSDOF 6
ENDMDL
