MODEL 1
REMARK VINA RESULT:      -6.6      0.000      0.000
REMARK  3 active torsions:
REMARK  status: ('A' for Active; 'I' for Inactive)
REMARK    1  A    between atoms: CZ_3  and  OH_20 
REMARK    2  A    between atoms: CG_6  and  CB_7 
REMARK    3  A    between atoms: CB_7  and  CA_8 
REMARK       I    between atoms: CA_8  and  C_10 
REMARK       I    between atoms: CA_8  and  N_12 
REMARK       I    between atoms: N_12  and  C_13 
REMARK       I    between atoms: C_13  and  CA_15 
REMARK       I    between atoms: CA_15  and  N_16 
REMARK       I    between atoms: N_16  and  C_17 
REMARK       I    between atoms: C_17  and  CA_19 
REMARK       I    between atoms: CA_19  and  N_37 
ROOT
ATOM      1  CA  TYR d   3       6.399  -3.171  -4.813  0.00  0.00     0.067 C 
ATOM      2  HA  TYR d   3       5.581  -3.782  -4.430  0.00  0.00     0.056 H 
ATOM      3  C   TYR d   3       7.429  -4.061  -5.461  0.00  0.00     0.062 C 
ATOM      4  O   TYR d   3       7.700  -3.918  -6.630  0.00  0.00    -0.548 OA
ATOM      5  N   TYR d   3       5.880  -2.224  -5.802  0.00  0.00    -0.306 N 
ATOM      6  H   TYR d   3       6.264  -1.336  -5.873  0.00  0.00     0.149 HD
ATOM      7  OXT TYR d   3       8.044  -5.012  -4.740  0.00  0.00    -0.548 OA
ATOM      8  C   GLY d   2       4.867  -2.586  -6.615  0.00  0.00     0.231 C 
ATOM      9  O   GLY d   2       4.386  -3.696  -6.526  0.00  0.00    -0.274 OA
ATOM     10  CA  GLY d   2       4.329  -1.610  -7.628  0.00  0.00     0.088 C 
ATOM     11  N   GLY d   2       3.235  -2.236  -8.377  0.00  0.00    -0.302 N 
ATOM     12  HA1 GLY d   2       3.955  -0.723  -7.116  0.00  0.00     0.056 H 
ATOM     13  HA2 GLY d   2       5.123  -1.325  -8.316  0.00  0.00     0.056 H 
ATOM     14  H   GLY d   2       2.971  -3.148  -8.177  0.00  0.00     0.149 HD
ATOM     15  C   GLY d   1       2.598  -1.545  -9.343  0.00  0.00     0.259 C 
ATOM     16  O   GLY d   1       2.930  -0.406  -9.593  0.00  0.00    -0.270 OA
ATOM     17  CA  GLY d   1       1.474  -2.190 -10.114  0.00  0.00     0.043 C 
ATOM     18  HA1 GLY d   1       1.847  -3.077 -10.626  0.00  0.00     0.091 H 
ATOM     19  HA2 GLY d   1       0.679  -2.476  -9.425  0.00  0.00     0.091 H 
ATOM     20  H1  GLY d   1       0.194  -1.648 -11.631  0.00  0.00     0.200 HD
ATOM     21  H2  GLY d   1       0.657  -0.381 -10.658  0.00  0.00     0.200 HD
ATOM     22  N   GLY d   1       0.970  -1.235 -11.116  0.00  0.00     0.225 N 
ATOM     23  H3  GLY d   1       1.725  -1.006 -11.773  0.00  0.00     0.200 HD
ENDROOT
BRANCH   1  24
ATOM     24  CB  TYR d   3       7.044  -2.401  -3.660  0.00  0.00    -0.004 C 
ATOM     25  HB1 TYR d   3       7.279  -3.090  -2.848  0.00  0.00     0.034 H 
ATOM     26  HB2 TYR d   3       7.962  -1.926  -4.009  0.00  0.00     0.034 H 
BRANCH  24  27
ATOM     27  CG  TYR d   3       6.090  -1.347  -3.162  0.00  0.00    -0.045 A 
ATOM     28  CD1 TYR d   3       6.412  -0.008  -3.291  0.00  0.00    -0.055 A 
ATOM     29  CE1 TYR d   3       5.536   0.961  -2.842  0.00  0.00    -0.020 A 
ATOM     30  HD1 TYR d   3       7.348   0.280  -3.747  0.00  0.00     0.062 H 
ATOM     31  CZ  TYR d   3       4.337   0.590  -2.251  0.00  0.00     0.117 A 
ATOM     32  HE1 TYR d   3       5.787   2.006  -2.947  0.00  0.00     0.065 H 
ATOM     33  CE2 TYR d   3       4.018  -0.753  -2.118  0.00  0.00    -0.020 A 
ATOM     34  CD2 TYR d   3       4.896  -1.718  -2.574  0.00  0.00    -0.055 A 
ATOM     35  HE2 TYR d   3       3.086  -1.045  -1.659  0.00  0.00     0.065 H 
ATOM     36  HD2 TYR d   3       4.648  -2.765  -2.471  0.00  0.00     0.062 H 
BRANCH  31  37
ATOM     37  OH  TYR d   3       3.476   1.541  -1.804  0.00  0.00    -0.507 OA
ATOM     38  HH  TYR d   3       2.878   1.235  -1.107  0.00  0.00     0.292 HD
ENDBRANCH  31  37
ENDBRANCH  24  27
ENDBRANCH   1  24
TORSDOF 9
ENDMDL
MODEL 2
REMARK VINA RESULT:      -6.5      3.765      7.339
REMARK  3 active torsions:
REMARK  status: ('A' for Active; 'I' for Inactive)
REMARK    1  A    between atoms: CZ_3  and  OH_20 
REMARK    2  A    between atoms: CG_6  and  CB_7 
REMARK    3  A    between atoms: CB_7  and  CA_8 
REMARK       I    between atoms: CA_8  and  C_10 
REMARK       I    between atoms: CA_8  and  N_12 
REMARK       I    between atoms: N_12  and  C_13 
REMARK       I    between atoms: C_13  and  CA_15 
REMARK       I    between atoms: CA_15  and  N_16 
REMARK       I    between atoms: N_16  and  C_17 
REMARK       I    between atoms: C_17  and  CA_19 
REMARK       I    between atoms: CA_19  and  N_37 
ROOT
ATOM      1  CA  TYR d   3       4.964  -0.845  -4.991  0.00  0.00     0.067 C 
ATOM      2  HA  TYR d   3       5.579  -1.256  -5.792  0.00  0.00     0.056 H 
ATOM      3  C   TYR d   3       4.798  -1.877  -3.905  0.00  0.00     0.062 C 
ATOM      4  O   TYR d   3       5.183  -1.642  -2.785  0.00  0.00    -0.548 OA
ATOM      5  N   TYR d   3       5.614   0.345  -4.438  0.00  0.00    -0.306 N 
ATOM      6  H   TYR d   3       5.077   1.093  -4.131  0.00  0.00     0.149 HD
ATOM      7  OXT TYR d   3       4.221  -3.057  -4.183  0.00  0.00    -0.548 OA
ATOM      8  C   GLY d   2       6.958   0.403  -4.356  0.00  0.00     0.231 C 
ATOM      9  O   GLY d   2       7.629  -0.531  -4.741  0.00  0.00    -0.274 OA
ATOM     10  CA  GLY d   2       7.627   1.630  -3.793  0.00  0.00     0.088 C 
ATOM     11  N   GLY d   2       9.081   1.449  -3.819  0.00  0.00    -0.302 N 
ATOM     12  HA1 GLY d   2       7.359   2.499  -4.395  0.00  0.00     0.056 H 
ATOM     13  HA2 GLY d   2       7.298   1.784  -2.766  0.00  0.00     0.056 H 
ATOM     14  H   GLY d   2       9.461   0.626  -4.166  0.00  0.00     0.149 HD
ATOM     15  C   GLY d   1       9.890   2.425  -3.361  0.00  0.00     0.259 C 
ATOM     16  O   GLY d   1       9.414   3.452  -2.927  0.00  0.00    -0.270 OA
ATOM     17  CA  GLY d   1      11.385   2.238  -3.387  0.00  0.00     0.043 C 
ATOM     18  HA1 GLY d   1      11.653   1.370  -2.785  0.00  0.00     0.091 H 
ATOM     19  HA2 GLY d   1      11.714   2.084  -4.415  0.00  0.00     0.091 H 
ATOM     20  H1  GLY d   1      13.041   3.333  -2.845  0.00  0.00     0.200 HD
ATOM     21  H2  GLY d   1      11.754   4.263  -3.338  0.00  0.00     0.200 HD
ATOM     22  N   GLY d   1      12.028   3.434  -2.814  0.00  0.00     0.225 N 
ATOM     23  H3  GLY d   1      11.731   3.541  -1.837  0.00  0.00     0.200 HD
ENDROOT
BRANCH   1  24
ATOM     24  CB  TYR d   3       3.591  -0.465  -5.547  0.00  0.00    -0.004 C 
ATOM     25  HB1 TYR d   3       2.932  -1.332  -5.515  0.00  0.00     0.034 H 
ATOM     26  HB2 TYR d   3       3.165   0.338  -4.944  0.00  0.00     0.034 H 
BRANCH  24  27
ATOM     27  CG  TYR d   3       3.737   0.002  -6.973  0.00  0.00    -0.045 A 
ATOM     28  CD1 TYR d   3       4.745  -0.513  -7.767  0.00  0.00    -0.055 A 
ATOM     29  CE1 TYR d   3       4.878  -0.093  -9.076  0.00  0.00    -0.020 A 
ATOM     30  HD1 TYR d   3       5.427  -1.249  -7.365  0.00  0.00     0.062 H 
ATOM     31  CZ  TYR d   3       4.006   0.856  -9.590  0.00  0.00     0.117 A 
ATOM     32  HE1 TYR d   3       5.662  -0.499  -9.697  0.00  0.00     0.065 H 
ATOM     33  CE2 TYR d   3       2.999   1.375  -8.790  0.00  0.00    -0.020 A 
ATOM     34  CD2 TYR d   3       2.867   0.947  -7.483  0.00  0.00    -0.055 A 
ATOM     35  HE2 TYR d   3       2.319   2.114  -9.187  0.00  0.00     0.065 H 
ATOM     36  HD2 TYR d   3       2.083   1.350  -6.859  0.00  0.00     0.062 H 
BRANCH  31  37
ATOM     37  OH  TYR d   3       4.137   1.276 -10.876  0.00  0.00    -0.507 OA
ATOM     38  HH  TYR d   3       4.694   2.060 -10.980  0.00  0.00     0.292 HD
ENDBRANCH  31  37
ENDBRANCH  24  27
ENDBRANCH   1  24
TORSDOF 9
ENDMDL
MODEL 3
REMARK VINA RESULT:      -6.4      4.915      7.213
REMARK  3 active torsions:
REMARK  status: ('A' for Active; 'I' for Inactive)
REMARK    1  A    between atoms: CZ_3  and  OH_20 
REMARK    2  A    between atoms: CG_6  and  CB_7 
REMARK    3  A    between atoms: CB_7  and  CA_8 
REMARK       I    between atoms: CA_8  and  C_10 
REMARK       I    between atoms: CA_8  and  N_12 
REMARK       I    between atoms: N_12  and  C_13 
REMARK       I    between atoms: C_13  and  CA_15 
REMARK       I    between atoms: CA_15  and  N_16 
REMARK       I    between atoms: N_16  and  C_17 
REMARK       I    between atoms: C_17  and  CA_19 
REMARK       I    between atoms: CA_19  and  N_37 
ROOT
ATOM      1  CA  TYR d   3       5.293  -7.673  -5.670  0.00  0.00     0.067 C 
ATOM      2  HA  TYR d   3       4.550  -7.815  -4.885  0.00  0.00     0.056 H 
ATOM      3  C   TYR d   3       4.668  -7.962  -7.011  0.00  0.00     0.062 C 
ATOM      4  O   TYR d   3       4.628  -7.101  -7.857  0.00  0.00    -0.548 OA
ATOM      5  N   TYR d   3       5.773  -6.289  -5.644  0.00  0.00    -0.306 N 
ATOM      6  H   TYR d   3       6.698  -6.092  -5.858  0.00  0.00     0.149 HD
ATOM      7  OXT TYR d   3       4.157  -9.177  -7.265  0.00  0.00    -0.548 OA
ATOM      8  C   GLY d   2       4.928  -5.289  -5.321  0.00  0.00     0.231 C 
ATOM      9  O   GLY d   2       3.771  -5.535  -5.053  0.00  0.00    -0.274 OA
ATOM     10  CA  GLY d   2       5.423  -3.866  -5.288  0.00  0.00     0.088 C 
ATOM     11  N   GLY d   2       4.324  -2.975  -4.907  0.00  0.00    -0.302 N 
ATOM     12  HA1 GLY d   2       6.230  -3.779  -4.560  0.00  0.00     0.056 H 
ATOM     13  HA2 GLY d   2       5.792  -3.587  -6.274  0.00  0.00     0.056 H 
ATOM     14  H   GLY d   2       3.445  -3.342  -4.723  0.00  0.00     0.149 HD
ATOM     15  C   GLY d   1       4.536  -1.648  -4.812  0.00  0.00     0.259 C 
ATOM     16  O   GLY d   1       5.635  -1.191  -5.042  0.00  0.00    -0.270 OA
ATOM     17  CA  GLY d   1       3.404  -0.731  -4.420  0.00  0.00     0.043 C 
ATOM     18  HA1 GLY d   1       2.598  -0.818  -5.148  0.00  0.00     0.091 H 
ATOM     19  HA2 GLY d   1       3.035  -1.011  -3.433  0.00  0.00     0.091 H 
ATOM     20  H1  GLY d   1       3.147   1.290  -4.127  0.00  0.00     0.200 HD
ATOM     21  H2  GLY d   1       4.678   0.749  -3.768  0.00  0.00     0.200 HD
ATOM     22  N   GLY d   1       3.894   0.659  -4.412  0.00  0.00     0.225 N 
ATOM     23  H3  GLY d   1       4.205   0.912  -5.357  0.00  0.00     0.200 HD
ENDROOT
BRANCH   1  24
ATOM     24  CB  TYR d   3       6.468  -8.625  -5.439  0.00  0.00    -0.004 C 
ATOM     25  HB1 TYR d   3       6.492  -9.372  -6.231  0.00  0.00     0.034 H 
ATOM     26  HB2 TYR d   3       7.400  -8.059  -5.445  0.00  0.00     0.034 H 
BRANCH  24  27
ATOM     27  CG  TYR d   3       6.304  -9.310  -4.107  0.00  0.00    -0.045 A 
ATOM     28  CD1 TYR d   3       7.319  -9.248  -3.169  0.00  0.00    -0.055 A 
ATOM     29  CE1 TYR d   3       7.170  -9.870  -1.945  0.00  0.00    -0.020 A 
ATOM     30  HD1 TYR d   3       8.228  -8.707  -3.392  0.00  0.00     0.062 H 
ATOM     31  CZ  TYR d   3       6.005 -10.568  -1.661  0.00  0.00     0.117 A 
ATOM     32  HE1 TYR d   3       7.961  -9.817  -1.212  0.00  0.00     0.065 H 
ATOM     33  CE2 TYR d   3       4.991 -10.635  -2.605  0.00  0.00    -0.020 A 
ATOM     34  CD2 TYR d   3       5.144 -10.006  -3.826  0.00  0.00    -0.055 A 
ATOM     35  HE2 TYR d   3       4.084 -11.178  -2.387  0.00  0.00     0.065 H 
ATOM     36  HD2 TYR d   3       4.354 -10.057  -4.561  0.00  0.00     0.062 H 
BRANCH  31  37
ATOM     37  OH  TYR d   3       5.858 -11.186  -0.460  0.00  0.00    -0.507 OA
ATOM     38  HH  TYR d   3       6.615 -11.082   0.132  0.00  0.00     0.292 HD
ENDBRANCH  31  37
ENDBRANCH  24  27
ENDBRANCH   1  24
TORSDOF 9
ENDMDL
MODEL 4
REMARK VINA RESULT:      -6.3      2.201      2.525
REMARK  3 active torsions:
REMARK  status: ('A' for Active; 'I' for Inactive)
REMARK    1  A    between atoms: CZ_3  and  OH_20 
REMARK    2  A    between atoms: CG_6  and  CB_7 
REMARK    3  A    between atoms: CB_7  and  CA_8 
REMARK       I    between atoms: CA_8  and  C_10 
REMARK       I    between atoms: CA_8  and  N_12 
REMARK       I    between atoms: N_12  and  C_13 
REMARK       I    between atoms: C_13  and  CA_15 
REMARK       I    between atoms: CA_15  and  N_16 
REMARK       I    between atoms: N_16  and  C_17 
REMARK       I    between atoms: C_17  and  CA_19 
REMARK       I    between atoms: CA_19  and  N_37 
ROOT
ATOM      1  CA  TYR d   3       4.942  -3.525  -5.855  0.00  0.00     0.067 C 
ATOM      2  HA  TYR d   3       4.058  -2.915  -5.665  0.00  0.00     0.056 H 
ATOM      3  C   TYR d   3       4.528  -4.960  -6.054  0.00  0.00     0.062 C 
ATOM      4  O   TYR d   3       4.773  -5.520  -7.096  0.00  0.00    -0.548 OA
ATOM      5  N   TYR d   3       5.619  -3.040  -7.060  0.00  0.00    -0.306 N 
ATOM      6  H   TYR d   3       6.587  -3.069  -7.117  0.00  0.00     0.149 HD
ATOM      7  OXT TYR d   3       3.886  -5.616  -5.074  0.00  0.00    -0.548 OA
ATOM      8  C   GLY d   2       4.897  -2.554  -8.089  0.00  0.00     0.231 C 
ATOM      9  O   GLY d   2       3.687  -2.517  -8.017  0.00  0.00    -0.274 OA
ATOM     10  CA  GLY d   2       5.594  -2.050  -9.326  0.00  0.00     0.088 C 
ATOM     11  N   GLY d   2       4.597  -1.571 -10.288  0.00  0.00    -0.302 N 
ATOM     12  HA1 GLY d   2       6.263  -1.231  -9.058  0.00  0.00     0.056 H 
ATOM     13  HA2 GLY d   2       6.171  -2.858  -9.773  0.00  0.00     0.056 H 
ATOM     14  H   GLY d   2       3.653  -1.614 -10.069  0.00  0.00     0.149 HD
ATOM     15  C   GLY d   1       4.993  -1.071 -11.475  0.00  0.00     0.259 C 
ATOM     16  O   GLY d   1       6.173  -1.018 -11.748  0.00  0.00    -0.270 OA
ATOM     17  CA  GLY d   1       3.967  -0.579 -12.465  0.00  0.00     0.043 C 
ATOM     18  HA1 GLY d   1       3.299  -1.398 -12.732  0.00  0.00     0.091 H 
ATOM     19  HA2 GLY d   1       3.390   0.230 -12.017  0.00  0.00     0.091 H 
ATOM     20  H1  GLY d   1       3.980   0.248 -14.349  0.00  0.00     0.200 HD
ATOM     21  H2  GLY d   1       5.320   0.628 -13.440  0.00  0.00     0.200 HD
ATOM     22  N   GLY d   1       4.658  -0.109 -13.678  0.00  0.00     0.225 N 
ATOM     23  H3  GLY d   1       5.168  -0.894 -14.101  0.00  0.00     0.200 HD
ENDROOT
BRANCH   1  24
ATOM     24  CB  TYR d   3       5.894  -3.430  -4.661  0.00  0.00    -0.004 C 
ATOM     25  HB1 TYR d   3       5.831  -4.344  -4.072  0.00  0.00     0.034 H 
ATOM     26  HB2 TYR d   3       6.915  -3.299  -5.021  0.00  0.00     0.034 H 
BRANCH  24  27
ATOM     27  CG  TYR d   3       5.508  -2.253  -3.803  0.00  0.00    -0.045 A 
ATOM     28  CD1 TYR d   3       6.317  -1.132  -3.765  0.00  0.00    -0.055 A 
ATOM     29  CE1 TYR d   3       5.964  -0.049  -2.984  0.00  0.00    -0.020 A 
ATOM     30  HD1 TYR d   3       7.225  -1.101  -4.350  0.00  0.00     0.062 H 
ATOM     31  CZ  TYR d   3       4.801  -0.091  -2.228  0.00  0.00     0.117 A 
ATOM     32  HE1 TYR d   3       6.594   0.827  -2.958  0.00  0.00     0.065 H 
ATOM     33  CE2 TYR d   3       3.994  -1.219  -2.263  0.00  0.00    -0.020 A 
ATOM     34  CD2 TYR d   3       4.350  -2.297  -3.051  0.00  0.00    -0.055 A 
ATOM     35  HE2 TYR d   3       3.088  -1.254  -1.677  0.00  0.00     0.065 H 
ATOM     36  HD2 TYR d   3       3.721  -3.175  -3.080  0.00  0.00     0.062 H 
BRANCH  31  37
ATOM     37  OH  TYR d   3       4.453   0.970  -1.454  0.00  0.00    -0.507 OA
ATOM     38  HH  TYR d   3       4.614   1.829  -1.869  0.00  0.00     0.292 HD
ENDBRANCH  31  37
ENDBRANCH  24  27
ENDBRANCH   1  24
TORSDOF 9
ENDMDL
MODEL 5
REMARK VINA RESULT:      -6.0      4.764      6.855
REMARK  3 active torsions:
REMARK  status: ('A' for Active; 'I' for Inactive)
REMARK    1  A    between atoms: CZ_3  and  OH_20 
REMARK    2  A    between atoms: CG_6  and  CB_7 
REMARK    3  A    between atoms: CB_7  and  CA_8 
REMARK       I    between atoms: CA_8  and  C_10 
REMARK       I    between atoms: CA_8  and  N_12 
REMARK       I    between atoms: N_12  and  C_13 
REMARK       I    between atoms: C_13  and  CA_15 
REMARK       I    between atoms: CA_15  and  N_16 
REMARK       I    between atoms: N_16  and  C_17 
REMARK       I    between atoms: C_17  and  CA_19 
REMARK       I    between atoms: CA_19  and  N_37 
ROOT
ATOM      1  CA  TYR d   3       7.854  -0.411  -4.515  0.00  0.00     0.067 C 
ATOM      2  HA  TYR d   3       7.120  -0.064  -5.244  0.00  0.00     0.056 H 
ATOM      3  C   TYR d   3       8.973  -1.123  -5.229  0.00  0.00     0.062 C 
ATOM      4  O   TYR d   3      10.106  -0.714  -5.135  0.00  0.00    -0.548 OA
ATOM      5  N   TYR d   3       8.393   0.737  -3.782  0.00  0.00    -0.306 N 
ATOM      6  H   TYR d   3       8.624   0.648  -2.844  0.00  0.00     0.149 HD
ATOM      7  OXT TYR d   3       8.712  -2.213  -5.969  0.00  0.00    -0.548 OA
ATOM      8  C   GLY d   2       8.569   1.916  -4.411  0.00  0.00     0.231 C 
ATOM      9  O   GLY d   2       8.280   2.027  -5.584  0.00  0.00    -0.274 OA
ATOM     10  CA  GLY d   2       9.119   3.098  -3.656  0.00  0.00     0.088 C 
ATOM     11  N   GLY d   2       9.208   4.253  -4.554  0.00  0.00    -0.302 N 
ATOM     12  HA1 GLY d   2       8.457   3.336  -2.822  0.00  0.00     0.056 H 
ATOM     13  HA2 GLY d   2      10.110   2.857  -3.275  0.00  0.00     0.056 H 
ATOM     14  H   GLY d   2       8.930   4.170  -5.479  0.00  0.00     0.149 HD
ATOM     15  C   GLY d   1       9.674   5.430  -4.093  0.00  0.00     0.259 C 
ATOM     16  O   GLY d   1      10.022   5.533  -2.935  0.00  0.00    -0.270 OA
ATOM     17  CA  GLY d   1       9.766   6.618  -5.016  0.00  0.00     0.043 C 
ATOM     18  HA1 GLY d   1      10.427   6.380  -5.850  0.00  0.00     0.091 H 
ATOM     19  HA2 GLY d   1       8.774   6.859  -5.397  0.00  0.00     0.091 H 
ATOM     20  H1  GLY d   1      10.373   8.580  -4.878  0.00  0.00     0.200 HD
ATOM     21  H2  GLY d   1       9.742   7.971  -3.465  0.00  0.00     0.200 HD
ATOM     22  N   GLY d   1      10.325   7.762  -4.273  0.00  0.00     0.225 N 
ATOM     23  H3  GLY d   1      11.271   7.525  -3.953  0.00  0.00     0.200 HD
ENDROOT
BRANCH   1  24
ATOM     24  CB  TYR d   3       7.181  -1.372  -3.534  0.00  0.00    -0.004 C 
ATOM     25  HB1 TYR d   3       7.439  -2.398  -3.795  0.00  0.00     0.034 H 
ATOM     26  HB2 TYR d   3       7.526  -1.158  -2.522  0.00  0.00     0.034 H 
BRANCH  24  27
ATOM     27  CG  TYR d   3       5.686  -1.198  -3.603  0.00  0.00    -0.045 A 
ATOM     28  CD1 TYR d   3       5.118  -0.528  -4.671  0.00  0.00    -0.055 A 
ATOM     29  CE1 TYR d   3       3.748  -0.372  -4.741  0.00  0.00    -0.020 A 
ATOM     30  HD1 TYR d   3       5.746  -0.130  -5.455  0.00  0.00     0.062 H 
ATOM     31  CZ  TYR d   3       2.941  -0.878  -3.731  0.00  0.00     0.117 A 
ATOM     32  HE1 TYR d   3       3.304   0.147  -5.577  0.00  0.00     0.065 H 
ATOM     33  CE2 TYR d   3       3.513  -1.545  -2.658  0.00  0.00    -0.020 A 
ATOM     34  CD2 TYR d   3       4.885  -1.703  -2.597  0.00  0.00    -0.055 A 
ATOM     35  HE2 TYR d   3       2.889  -1.940  -1.871  0.00  0.00     0.065 H 
ATOM     36  HD2 TYR d   3       5.331  -2.222  -1.761  0.00  0.00     0.062 H 
BRANCH  31  37
ATOM     37  OH  TYR d   3       1.593  -0.722  -3.794  0.00  0.00    -0.507 OA
ATOM     38  HH  TYR d   3       1.201  -0.351  -2.991  0.00  0.00     0.292 HD
ENDBRANCH  31  37
ENDBRANCH  24  27
ENDBRANCH   1  24
TORSDOF 9
ENDMDL
MODEL 6
REMARK VINA RESULT:      -5.9      2.810      3.979
REMARK  3 active torsions:
REMARK  status: ('A' for Active; 'I' for Inactive)
REMARK    1  A    between atoms: CZ_3  and  OH_20 
REMARK    2  A    between atoms: CG_6  and  CB_7 
REMARK    3  A    between atoms: CB_7  and  CA_8 
REMARK       I    between atoms: CA_8  and  C_10 
REMARK       I    between atoms: CA_8  and  N_12 
REMARK       I    between atoms: N_12  and  C_13 
REMARK       I    between atoms: C_13  and  CA_15 
REMARK       I    between atoms: CA_15  and  N_16 
REMARK       I    between atoms: N_16  and  C_17 
REMARK       I    between atoms: C_17  and  CA_19 
REMARK       I    between atoms: CA_19  and  N_37 
ROOT
ATOM      1  CA  TYR d   3       5.310  -0.517  -3.823  0.00  0.00     0.067 C 
ATOM      2  HA  TYR d   3       5.089   0.546  -3.915  0.00  0.00     0.056 H 
ATOM      3  C   TYR d   3       4.392  -1.134  -2.800  0.00  0.00     0.062 C 
ATOM      4  O   TYR d   3       3.646  -2.029  -3.120  0.00  0.00    -0.548 OA
ATOM      5  N   TYR d   3       5.110  -1.172  -5.117  0.00  0.00    -0.306 N 
ATOM      6  H   TYR d   3       5.686  -1.906  -5.384  0.00  0.00     0.149 HD
ATOM      7  OXT TYR d   3       4.403  -0.690  -1.533  0.00  0.00    -0.548 OA
ATOM      8  C   GLY d   2       4.126  -0.754  -5.939  0.00  0.00     0.231 C 
ATOM      9  O   GLY d   2       3.407   0.164  -5.605  0.00  0.00    -0.274 OA
ATOM     10  CA  GLY d   2       3.923  -1.424  -7.273  0.00  0.00     0.088 C 
ATOM     11  N   GLY d   2       2.805  -0.788  -7.974  0.00  0.00    -0.302 N 
ATOM     12  HA1 GLY d   2       4.830  -1.324  -7.871  0.00  0.00     0.056 H 
ATOM     13  HA2 GLY d   2       3.703  -2.479  -7.120  0.00  0.00     0.056 H 
ATOM     14  H   GLY d   2       2.328  -0.052  -7.559  0.00  0.00     0.149 HD
ATOM     15  C   GLY d   1       2.440  -1.224  -9.196  0.00  0.00     0.259 C 
ATOM     16  O   GLY d   1       3.036  -2.144  -9.714  0.00  0.00    -0.270 OA
ATOM     17  CA  GLY d   1       1.288  -0.570  -9.917  0.00  0.00     0.043 C 
ATOM     18  HA1 GLY d   1       0.382  -0.669  -9.319  0.00  0.00     0.091 H 
ATOM     19  HA2 GLY d   1       1.509   0.487 -10.070  0.00  0.00     0.091 H 
ATOM     20  H1  GLY d   1       0.324  -0.801 -11.720  0.00  0.00     0.200 HD
ATOM     21  H2  GLY d   1       1.938  -1.201 -11.765  0.00  0.00     0.200 HD
ATOM     22  N   GLY d   1       1.085  -1.246 -11.210  0.00  0.00     0.225 N 
ATOM     23  H3  GLY d   1       0.846  -2.230 -11.042  0.00  0.00     0.200 HD
ENDROOT
BRANCH   1  24
ATOM     24  CB  TYR d   3       6.763  -0.698  -3.379  0.00  0.00    -0.004 C 
ATOM     25  HB1 TYR d   3       6.840  -0.531  -2.305  0.00  0.00     0.034 H 
ATOM     26  HB2 TYR d   3       7.090  -1.712  -3.612  0.00  0.00     0.034 H 
BRANCH  24  27
ATOM     27  CG  TYR d   3       7.638   0.291  -4.105  0.00  0.00    -0.045 A 
ATOM     28  CD1 TYR d   3       7.544   1.639  -3.814  0.00  0.00    -0.055 A 
ATOM     29  CE1 TYR d   3       8.348   2.548  -4.472  0.00  0.00    -0.020 A 
ATOM     30  HD1 TYR d   3       6.842   1.982  -3.067  0.00  0.00     0.062 H 
ATOM     31  CZ  TYR d   3       9.245   2.108  -5.436  0.00  0.00     0.117 A 
ATOM     32  HE1 TYR d   3       8.277   3.600  -4.242  0.00  0.00     0.065 H 
ATOM     33  CE2 TYR d   3       9.334   0.755  -5.730  0.00  0.00    -0.020 A 
ATOM     34  CD2 TYR d   3       8.530  -0.150  -5.064  0.00  0.00    -0.055 A 
ATOM     35  HE2 TYR d   3      10.031   0.409  -6.479  0.00  0.00     0.065 H 
ATOM     36  HD2 TYR d   3       8.600  -1.204  -5.292  0.00  0.00     0.062 H 
BRANCH  31  37
ATOM     37  OH  TYR d   3      10.034   3.000  -6.090  0.00  0.00    -0.507 OA
ATOM     38  HH  TYR d   3      10.919   3.095  -5.711  0.00  0.00     0.292 HD
ENDBRANCH  31  37
ENDBRANCH  24  27
ENDBRANCH   1  24
TORSDOF 9
ENDMDL
MODEL 7
REMARK VINA RESULT:      -5.9      3.021      4.053
REMARK  3 active torsions:
REMARK  status: ('A' for Active; 'I' for Inactive)
REMARK    1  A    between atoms: CZ_3  and  OH_20 
REMARK    2  A    between atoms: CG_6  and  CB_7 
REMARK    3  A    between atoms: CB_7  and  CA_8 
REMARK       I    between atoms: CA_8  and  C_10 
REMARK       I    between atoms: CA_8  and  N_12 
REMARK       I    between atoms: N_12  and  C_13 
REMARK       I    between atoms: C_13  and  CA_15 
REMARK       I    between atoms: CA_15  and  N_16 
REMARK       I    between atoms: N_16  and  C_17 
REMARK       I    between atoms: C_17  and  CA_19 
REMARK       I    between atoms: CA_19  and  N_37 
ROOT
ATOM      1  CA  TYR d   3       4.762  -3.267  -5.695  0.00  0.00     0.067 C 
ATOM      2  HA  TYR d   3       4.009  -2.571  -6.063  0.00  0.00     0.056 H 
ATOM      3  C   TYR d   3       4.544  -4.620  -6.320  0.00  0.00     0.062 C 
ATOM      4  O   TYR d   3       5.414  -5.122  -6.992  0.00  0.00    -0.548 OA
ATOM      5  N   TYR d   3       6.096  -2.775  -6.047  0.00  0.00    -0.306 N 
ATOM      6  H   TYR d   3       6.841  -2.917  -5.442  0.00  0.00     0.149 HD
ATOM      7  OXT TYR d   3       3.384  -5.269  -6.130  0.00  0.00    -0.548 OA
ATOM      8  C   GLY d   2       6.288  -2.124  -7.212  0.00  0.00     0.231 C 
ATOM      9  O   GLY d   2       5.356  -1.946  -7.968  0.00  0.00    -0.274 OA
ATOM     10  CA  GLY d   2       7.658  -1.613  -7.572  0.00  0.00     0.088 C 
ATOM     11  N   GLY d   2       7.603  -0.941  -8.874  0.00  0.00    -0.302 N 
ATOM     12  HA1 GLY d   2       7.993  -0.905  -6.813  0.00  0.00     0.056 H 
ATOM     13  HA2 GLY d   2       8.356  -2.447  -7.624  0.00  0.00     0.056 H 
ATOM     14  H   GLY d   2       6.762  -0.886  -9.355  0.00  0.00     0.149 HD
ATOM     15  C   GLY d   1       8.719  -0.401  -9.401  0.00  0.00     0.259 C 
ATOM     16  O   GLY d   1       9.769  -0.471  -8.800  0.00  0.00    -0.270 OA
ATOM     17  CA  GLY d   1       8.662   0.289 -10.741  0.00  0.00     0.043 C 
ATOM     18  HA1 GLY d   1       8.327  -0.418 -11.499  0.00  0.00     0.091 H 
ATOM     19  HA2 GLY d   1       7.963   1.125 -10.689  0.00  0.00     0.091 H 
ATOM     20  H1  GLY d   1       9.985   1.255 -11.986  0.00  0.00     0.200 HD
ATOM     21  H2  GLY d   1      10.358   1.395 -10.371  0.00  0.00     0.200 HD
ATOM     22  N   GLY d   1      10.011   0.766 -11.093  0.00  0.00     0.225 N 
ATOM     23  H3  GLY d   1      10.644  -0.039 -11.169  0.00  0.00     0.200 HD
ENDROOT
BRANCH   1  24
ATOM     24  CB  TYR d   3       4.647  -3.383  -4.174  0.00  0.00    -0.004 C 
ATOM     25  HB1 TYR d   3       3.875  -4.110  -3.921  0.00  0.00     0.034 H 
ATOM     26  HB2 TYR d   3       5.602  -3.710  -3.762  0.00  0.00     0.034 H 
BRANCH  24  27
ATOM     27  CG  TYR d   3       4.282  -2.042  -3.592  0.00  0.00    -0.045 A 
ATOM     28  CD1 TYR d   3       3.500  -1.164  -4.320  0.00  0.00    -0.055 A 
ATOM     29  CE1 TYR d   3       3.158   0.063  -3.788  0.00  0.00    -0.020 A 
ATOM     30  HD1 TYR d   3       3.152  -1.440  -5.306  0.00  0.00     0.062 H 
ATOM     31  CZ  TYR d   3       3.609   0.421  -2.526  0.00  0.00     0.117 A 
ATOM     32  HE1 TYR d   3       2.544   0.747  -4.356  0.00  0.00     0.065 H 
ATOM     33  CE2 TYR d   3       4.398  -0.459  -1.799  0.00  0.00    -0.020 A 
ATOM     34  CD2 TYR d   3       4.732  -1.688  -2.335  0.00  0.00    -0.055 A 
ATOM     35  HE2 TYR d   3       4.751  -0.184  -0.817  0.00  0.00     0.065 H 
ATOM     36  HD2 TYR d   3       5.346  -2.374  -1.769  0.00  0.00     0.062 H 
BRANCH  31  37
ATOM     37  OH  TYR d   3       3.279   1.630  -2.001  0.00  0.00    -0.507 OA
ATOM     38  HH  TYR d   3       2.332   1.746  -1.844  0.00  0.00     0.292 HD
ENDBRANCH  31  37
ENDBRANCH  24  27
ENDBRANCH   1  24
TORSDOF 9
ENDMDL
MODEL 8
REMARK VINA RESULT:      -5.8     11.062     13.128
REMARK  3 active torsions:
REMARK  status: ('A' for Active; 'I' for Inactive)
REMARK    1  A    between atoms: CZ_3  and  OH_20 
REMARK    2  A    between atoms: CG_6  and  CB_7 
REMARK    3  A    between atoms: CB_7  and  CA_8 
REMARK       I    between atoms: CA_8  and  C_10 
REMARK       I    between atoms: CA_8  and  N_12 
REMARK       I    between atoms: N_12  and  C_13 
REMARK       I    between atoms: C_13  and  CA_15 
REMARK       I    between atoms: CA_15  and  N_16 
REMARK       I    between atoms: N_16  and  C_17 
REMARK       I    between atoms: C_17  and  CA_19 
REMARK       I    between atoms: CA_19  and  N_37 
ROOT
ATOM      1  CA  TYR d   3       9.955  10.360  -2.210  0.00  0.00     0.067 C 
ATOM      2  HA  TYR d   3      11.003  10.063  -2.153  0.00  0.00     0.056 H 
ATOM      3  C   TYR d   3       9.844  11.850  -2.015  0.00  0.00     0.062 C 
ATOM      4  O   TYR d   3       9.364  12.538  -2.884  0.00  0.00    -0.548 OA
ATOM      5  N   TYR d   3       9.416   9.997  -3.523  0.00  0.00    -0.306 N 
ATOM      6  H   TYR d   3       8.495   9.705  -3.605  0.00  0.00     0.149 HD
ATOM      7  OXT TYR d   3      10.278  12.413  -0.876  0.00  0.00    -0.548 OA
ATOM      8  C   GLY d   2      10.201  10.068  -4.617  0.00  0.00     0.231 C 
ATOM      9  O   GLY d   2      11.354  10.433  -4.513  0.00  0.00    -0.274 OA
ATOM     10  CA  GLY d   2       9.649   9.690  -5.966  0.00  0.00     0.088 C 
ATOM     11  N   GLY d   2      10.693   9.845  -6.983  0.00  0.00    -0.302 N 
ATOM     12  HA1 GLY d   2       9.316   8.651  -5.944  0.00  0.00     0.056 H 
ATOM     13  HA2 GLY d   2       8.807  10.336  -6.209  0.00  0.00     0.056 H 
ATOM     14  H   GLY d   2      11.577  10.152  -6.726  0.00  0.00     0.149 HD
ATOM     15  C   GLY d   1      10.425   9.561  -8.273  0.00  0.00     0.259 C 
ATOM     16  O   GLY d   1       9.320   9.178  -8.592  0.00  0.00    -0.270 OA
ATOM     17  CA  GLY d   1      11.500   9.722  -9.318  0.00  0.00     0.043 C 
ATOM     18  HA1 GLY d   1      11.833  10.759  -9.340  0.00  0.00     0.091 H 
ATOM     19  HA2 GLY d   1      12.343   9.075  -9.075  0.00  0.00     0.091 H 
ATOM     20  H1  GLY d   1      11.663   9.452 -11.352  0.00  0.00     0.200 HD
ATOM     21  H2  GLY d   1      10.586   8.416 -10.621  0.00  0.00     0.200 HD
ATOM     22  N   GLY d   1      10.943   9.370 -10.636  0.00  0.00     0.225 N 
ATOM     23  H3  GLY d   1      10.173  10.012 -10.859  0.00  0.00     0.200 HD
ENDROOT
BRANCH   1  24
ATOM     24  CB  TYR d   3       9.162   9.642  -1.117  0.00  0.00    -0.004 C 
ATOM     25  HB1 TYR d   3       9.178  10.237  -0.205  0.00  0.00     0.034 H 
ATOM     26  HB2 TYR d   3       8.131   9.509  -1.445  0.00  0.00     0.034 H 
BRANCH  24  27
ATOM     27  CG  TYR d   3       9.781   8.295  -0.848  0.00  0.00    -0.045 A 
ATOM     28  CD1 TYR d   3       9.451   7.212  -1.642  0.00  0.00    -0.055 A 
ATOM     29  CE1 TYR d   3      10.021   5.978  -1.402  0.00  0.00    -0.020 A 
ATOM     30  HD1 TYR d   3       8.748   7.333  -2.454  0.00  0.00     0.062 H 
ATOM     31  CZ  TYR d   3      10.919   5.822  -0.356  0.00  0.00     0.117 A 
ATOM     32  HE1 TYR d   3       9.766   5.134  -2.025  0.00  0.00     0.065 H 
ATOM     33  CE2 TYR d   3      11.245   6.908   0.443  0.00  0.00    -0.020 A 
ATOM     34  CD2 TYR d   3      10.675   8.142   0.195  0.00  0.00    -0.055 A 
ATOM     35  HE2 TYR d   3      11.943   6.790   1.258  0.00  0.00     0.065 H 
ATOM     36  HD2 TYR d   3      10.929   8.988   0.816  0.00  0.00     0.062 H 
BRANCH  31  37
ATOM     37  OH  TYR d   3      11.478   4.607  -0.113  0.00  0.00    -0.507 OA
ATOM     38  HH  TYR d   3      10.870   3.864  -0.226  0.00  0.00     0.292 HD
ENDBRANCH  31  37
ENDBRANCH  24  27
ENDBRANCH   1  24
TORSDOF 9
ENDMDL
MODEL 9
REMARK VINA RESULT:      -5.7      6.663      8.114
REMARK  3 active torsions:
REMARK  status: ('A' for Active; 'I' for Inactive)
REMARK    1  A    between atoms: CZ_3  and  OH_20 
REMARK    2  A    between atoms: CG_6  and  CB_7 
REMARK    3  A    between atoms: CB_7  and  CA_8 
REMARK       I    between atoms: CA_8  and  C_10 
REMARK       I    between atoms: CA_8  and  N_12 
REMARK       I    between atoms: N_12  and  C_13 
REMARK       I    between atoms: C_13  and  CA_15 
REMARK       I    between atoms: CA_15  and  N_16 
REMARK       I    between atoms: N_16  and  C_17 
REMARK       I    between atoms: C_17  and  CA_19 
REMARK       I    between atoms: CA_19  and  N_37 
ROOT
ATOM      1  CA  TYR d   3       9.904   3.666  -5.792  0.00  0.00     0.067 C 
ATOM      2  HA  TYR d   3       9.117   4.366  -5.510  0.00  0.00     0.056 H 
ATOM      3  C   TYR d   3      10.844   3.474  -4.630  0.00  0.00     0.062 C 
ATOM      4  O   TYR d   3      10.998   2.374  -4.154  0.00  0.00    -0.548 OA
ATOM      5  N   TYR d   3       9.306   2.379  -6.155  0.00  0.00    -0.306 N 
ATOM      6  H   TYR d   3       9.699   1.844  -6.862  0.00  0.00     0.149 HD
ATOM      7  OXT TYR d   3      11.510   4.524  -4.125  0.00  0.00    -0.548 OA
ATOM      8  C   GLY d   2       8.208   1.939  -5.507  0.00  0.00     0.231 C 
ATOM      9  O   GLY d   2       7.716   2.610  -4.623  0.00  0.00    -0.274 OA
ATOM     10  CA  GLY d   2       7.589   0.619  -5.884  0.00  0.00     0.088 C 
ATOM     11  N   GLY d   2       6.414   0.372  -5.044  0.00  0.00    -0.302 N 
ATOM     12  HA1 GLY d   2       7.288   0.645  -6.932  0.00  0.00     0.056 H 
ATOM     13  HA2 GLY d   2       8.316  -0.179  -5.734  0.00  0.00     0.056 H 
ATOM     14  H   GLY d   2       6.153   1.023  -4.373  0.00  0.00     0.149 HD
ATOM     15  C   GLY d   1       5.696  -0.756  -5.205  0.00  0.00     0.259 C 
ATOM     16  O   GLY d   1       6.023  -1.569  -6.043  0.00  0.00    -0.270 OA
ATOM     17  CA  GLY d   1       4.487  -1.010  -4.340  0.00  0.00     0.043 C 
ATOM     18  HA1 GLY d   1       4.788  -1.035  -3.293  0.00  0.00     0.091 H 
ATOM     19  HA2 GLY d   1       3.759  -0.211  -4.490  0.00  0.00     0.091 H 
ATOM     20  H1  GLY d   1       3.070  -2.490  -4.142  0.00  0.00     0.200 HD
ATOM     21  H2  GLY d   1       3.655  -2.322  -5.690  0.00  0.00     0.200 HD
ATOM     22  N   GLY d   1       3.902  -2.313  -4.703  0.00  0.00     0.225 N 
ATOM     23  H3  GLY d   1       4.591  -3.053  -4.523  0.00  0.00     0.200 HD
ENDROOT
BRANCH   1  24
ATOM     24  CB  TYR d   3      10.678   4.224  -6.988  0.00  0.00    -0.004 C 
ATOM     25  HB1 TYR d   3      11.717   4.389  -6.704  0.00  0.00     0.034 H 
ATOM     26  HB2 TYR d   3      10.635   3.511  -7.812  0.00  0.00     0.034 H 
BRANCH  24  27
ATOM     27  CG  TYR d   3      10.063   5.530  -7.420  0.00  0.00    -0.045 A 
ATOM     28  CD1 TYR d   3       9.584   5.674  -8.709  0.00  0.00    -0.055 A 
ATOM     29  CE1 TYR d   3       9.015   6.868  -9.107  0.00  0.00    -0.020 A 
ATOM     30  HD1 TYR d   3       9.652   4.850  -9.406  0.00  0.00     0.062 H 
ATOM     31  CZ  TYR d   3       8.933   7.927  -8.215  0.00  0.00     0.117 A 
ATOM     32  HE1 TYR d   3       8.638   6.978 -10.113  0.00  0.00     0.065 H 
ATOM     33  CE2 TYR d   3       9.419   7.782  -6.924  0.00  0.00    -0.020 A 
ATOM     34  CD2 TYR d   3       9.983   6.584  -6.530  0.00  0.00    -0.055 A 
ATOM     35  HE2 TYR d   3       9.357   8.605  -6.227  0.00  0.00     0.065 H 
ATOM     36  HD2 TYR d   3      10.361   6.470  -5.524  0.00  0.00     0.062 H 
BRANCH  31  37
ATOM     37  OH  TYR d   3       8.378   9.105  -8.604  0.00  0.00    -0.507 OA
ATOM     38  HH  TYR d   3       9.013   9.829  -8.694  0.00  0.00     0.292 HD
ENDBRANCH  31  37
ENDBRANCH  24  27
ENDBRANCH   1  24
TORSDOF 9
ENDMDL
