MODEL 1
REMARK VINA RESULT:      -6.9      0.000      0.000
REMARK  8 active torsions:
REMARK  status: ('A' for Active; 'I' for Inactive)
REMARK    1  A    between atoms: C_1  and  C_2 
REMARK    2  A    between atoms: C_17  and  C_20 
REMARK    3  A    between atoms: C_20  and  C_21 
REMARK    4  A    between atoms: C_21  and  S_22 
REMARK    5  A    between atoms: S_22  and  C_23 
REMARK    6  A    between atoms: N_26  and  C_29 
REMARK    7  A    between atoms: C_29  and  C_30 
REMARK    8  A    between atoms: C_30  and  C_31 
ROOT
ATOM      1  C   LIG d   1       3.327  -4.108 -11.191  0.00  0.00    -0.049 A 
ATOM      2  C   LIG d   1       3.805  -3.317 -10.161  0.00  0.00    -0.051 A 
ATOM      3  C   LIG d   1       3.944  -3.842  -8.895  0.00  0.00     0.005 A 
ATOM      4  C   LIG d   1       3.608  -5.167  -8.637  0.00  0.00     0.057 A 
ATOM      5  C   LIG d   1       3.127  -5.957  -9.679  0.00  0.00     0.063 A 
ATOM      6  C   LIG d   1       2.984  -5.424 -10.946  0.00  0.00    -0.039 A 
ATOM      7 CL   LIG d   1       2.700  -7.614  -9.385  0.00  0.00    -0.082 Cl
ATOM      8  N   LIG d   1       3.833  -5.469  -7.291  0.00  0.00    -0.282 N 
ATOM      9  C   LIG d   1       4.310  -4.411  -6.606  0.00  0.00     0.243 A 
ATOM     10  O   LIG d   1       4.595  -4.380  -5.428  0.00  0.00    -0.273 OA
ATOM     11  C   LIG d   1       4.419  -3.276  -7.588  0.00  0.00     0.136 A 
ATOM     12  C   LIG d   1       5.859  -2.758  -7.688  0.00  0.00     0.080 A 
ATOM     13  H   LIG d   1       6.425  -3.243  -8.484  0.00  0.00     0.043 H 
ATOM     14  C   LIG d   1       5.708  -1.225  -7.902  0.00  0.00     0.065 A 
ATOM     15  H   LIG d   1       6.209  -0.873  -8.804  0.00  0.00     0.042 H 
ATOM     16  C   LIG d   1       4.185  -0.978  -7.934  0.00  0.00     0.021 C 
ATOM     17  H   LIG d   1       3.824  -0.964  -8.962  0.00  0.00     0.047 H 
ATOM     18  N   LIG d   1       3.602  -2.121  -7.170  0.00  0.00    -0.295 N 
ATOM     19  C   LIG d   1       6.298  -0.637  -6.641  0.00  0.00     0.227 A 
ATOM     20  O   LIG d   1       6.374   0.546  -6.389  0.00  0.00    -0.275 OA
ATOM     21  N   LIG d   1       6.724  -1.626  -5.846  0.00  0.00    -0.241 N 
ATOM     22  C   LIG d   1       6.535  -2.871  -6.341  0.00  0.00     0.228 A 
ATOM     23  O   LIG d   1       6.849  -3.910  -5.800  0.00  0.00    -0.275 OA
ATOM     24  H   LIG d   1       4.070  -2.287 -10.349  0.00  0.00     0.062 H 
ATOM     25  H   LIG d   1       2.606  -6.040 -11.748  0.00  0.00     0.064 H 
ATOM     26  H   LIG d   1       3.665  -6.339  -6.896  0.00  0.00     0.155 HD
ATOM     27  H   LIG d   1       2.632  -2.257  -7.415  0.00  0.00     0.123 HD
ENDROOT
BRANCH  16  28
ATOM     28  C   LIG d   1       3.846   0.340  -7.234  0.00  0.00    -0.028 C 
ATOM     29  H   LIG d   1       3.274   0.134  -6.329  0.00  0.00     0.029 H 
ATOM     30  H   LIG d   1       4.767   0.860  -6.972  0.00  0.00     0.029 H 
BRANCH  28  31
ATOM     31  C   LIG d   1       3.015   1.217  -8.173  0.00  0.00    -0.005 C 
ATOM     32  H   LIG d   1       2.347   0.589  -8.761  0.00  0.00     0.038 H 
ATOM     33  H   LIG d   1       2.429   1.923  -7.586  0.00  0.00     0.038 H 
BRANCH  31  34
ATOM     34  S   LIG d   1       4.122   2.128  -9.285  0.00  0.00    -0.164 SA
BRANCH  34  35
ATOM     35  C   LIG d   1       3.968   1.256 -10.868  0.00  0.00    -0.018 C 
ATOM     36  H   LIG d   1       2.984   0.792 -10.933  0.00  0.00     0.034 H 
ATOM     37  H   LIG d   1       4.090   1.965 -11.687  0.00  0.00     0.034 H 
ATOM     38  H   LIG d   1       4.738   0.487 -10.936  0.00  0.00     0.034 H 
ENDBRANCH  34  35
ENDBRANCH  31  34
ENDBRANCH  28  31
ENDBRANCH  16  28
BRANCH   1  39
ATOM     39  C   LIG d   1       3.175  -3.533 -12.576  0.00  0.00    -0.040 C 
ATOM     40  H   LIG d   1       2.613  -4.228 -13.198  0.00  0.00     0.028 H 
ATOM     41  H   LIG d   1       2.642  -2.584 -12.518  0.00  0.00     0.028 H 
ATOM     42  H   LIG d   1       4.161  -3.370 -13.012  0.00  0.00     0.028 H 
ENDBRANCH   1  39
BRANCH  21  43
ATOM     43  C   LIG d   1       7.352  -1.382  -4.545  0.00  0.00     0.026 C 
ATOM     44  H   LIG d   1       8.343  -1.833  -4.530  0.00  0.00     0.047 H 
ATOM     45  H   LIG d   1       7.438  -0.308  -4.379  0.00  0.00     0.047 H 
BRANCH  43  46
ATOM     46  C   LIG d   1       6.494  -2.001  -3.440  0.00  0.00    -0.011 C 
ATOM     47  H   LIG d   1       6.103  -2.961  -3.779  0.00  0.00     0.033 H 
ATOM     48  H   LIG d   1       7.103  -2.151  -2.549  0.00  0.00     0.033 H 
BRANCH  46  49
ATOM     49  C   LIG d   1       5.348  -1.078  -3.117  0.00  0.00    -0.046 A 
ATOM     50  C   LIG d   1       4.045  -1.506  -3.291  0.00  0.00    -0.059 A 
ATOM     51  C   LIG d   1       2.994  -0.660  -2.990  0.00  0.00    -0.061 A 
ATOM     52  H   LIG d   1       3.848  -2.502  -3.659  0.00  0.00     0.062 H 
ATOM     53  C   LIG d   1       3.245   0.616  -2.524  0.00  0.00    -0.062 A 
ATOM     54  H   LIG d   1       1.976  -0.996  -3.122  0.00  0.00     0.062 H 
ATOM     55  C   LIG d   1       4.549   1.047  -2.355  0.00  0.00    -0.061 A 
ATOM     56  H   LIG d   1       2.424   1.278  -2.291  0.00  0.00     0.062 H 
ATOM     57  C   LIG d   1       5.600   0.199  -2.651  0.00  0.00    -0.059 A 
ATOM     58  H   LIG d   1       4.745   2.044  -1.990  0.00  0.00     0.062 H 
ATOM     59  H   LIG d   1       6.617   0.535  -2.519  0.00  0.00     0.062 H 
ENDBRANCH  46  49
ENDBRANCH  43  46
ENDBRANCH  21  43
TORSDOF 8
ENDMDL
MODEL 2
REMARK VINA RESULT:      -6.6      3.238      7.159
REMARK  8 active torsions:
REMARK  status: ('A' for Active; 'I' for Inactive)
REMARK    1  A    between atoms: C_1  and  C_2 
REMARK    2  A    between atoms: C_17  and  C_20 
REMARK    3  A    between atoms: C_20  and  C_21 
REMARK    4  A    between atoms: C_21  and  S_22 
REMARK    5  A    between atoms: S_22  and  C_23 
REMARK    6  A    between atoms: N_26  and  C_29 
REMARK    7  A    between atoms: C_29  and  C_30 
REMARK    8  A    between atoms: C_30  and  C_31 
ROOT
ATOM      1  C   LIG d   1       6.988  -2.198  -3.755  0.00  0.00    -0.049 A 
ATOM      2  C   LIG d   1       6.483  -2.155  -5.043  0.00  0.00    -0.051 A 
ATOM      3  C   LIG d   1       5.411  -1.343  -5.337  0.00  0.00     0.005 A 
ATOM      4  C   LIG d   1       4.823  -0.559  -4.349  0.00  0.00     0.057 A 
ATOM      5  C   LIG d   1       5.337  -0.608  -3.054  0.00  0.00     0.063 A 
ATOM      6  C   LIG d   1       6.409  -1.429  -2.763  0.00  0.00    -0.039 A 
ATOM      7 CL   LIG d   1       4.622   0.358  -1.801  0.00  0.00    -0.082 Cl
ATOM      8  N   LIG d   1       3.761   0.175  -4.883  0.00  0.00    -0.282 N 
ATOM      9  C   LIG d   1       3.586  -0.066  -6.196  0.00  0.00     0.243 A 
ATOM     10  O   LIG d   1       2.745   0.427  -6.918  0.00  0.00    -0.273 OA
ATOM     11  C   LIG d   1       4.638  -1.065  -6.594  0.00  0.00     0.136 A 
ATOM     12  C   LIG d   1       5.545  -0.515  -7.703  0.00  0.00     0.080 A 
ATOM     13  H   LIG d   1       6.436  -0.025  -7.311  0.00  0.00     0.043 H 
ATOM     14  C   LIG d   1       5.873  -1.751  -8.588  0.00  0.00     0.065 A 
ATOM     15  H   LIG d   1       6.944  -1.922  -8.693  0.00  0.00     0.042 H 
ATOM     16  C   LIG d   1       5.149  -2.930  -7.905  0.00  0.00     0.021 C 
ATOM     17  H   LIG d   1       5.831  -3.462  -7.242  0.00  0.00     0.047 H 
ATOM     18  N   LIG d   1       4.035  -2.296  -7.140  0.00  0.00    -0.295 N 
ATOM     19  C   LIG d   1       5.203  -1.427  -9.903  0.00  0.00     0.227 A 
ATOM     20  O   LIG d   1       5.204  -2.139 -10.884  0.00  0.00    -0.275 OA
ATOM     21  N   LIG d   1       4.606  -0.232  -9.815  0.00  0.00    -0.241 N 
ATOM     22  C   LIG d   1       4.741   0.382  -8.617  0.00  0.00     0.228 A 
ATOM     23  O   LIG d   1       4.294   1.468  -8.317  0.00  0.00    -0.275 OA
ATOM     24  H   LIG d   1       6.932  -2.758  -5.819  0.00  0.00     0.062 H 
ATOM     25  H   LIG d   1       6.799  -1.467  -1.757  0.00  0.00     0.064 H 
ATOM     26  H   LIG d   1       3.213   0.787  -4.367  0.00  0.00     0.155 HD
ATOM     27  H   LIG d   1       3.719  -2.903  -6.398  0.00  0.00     0.123 HD
ENDROOT
BRANCH  16  28
ATOM     28  C   LIG d   1       4.578  -3.884  -8.957  0.00  0.00    -0.028 C 
ATOM     29  H   LIG d   1       4.019  -3.315  -9.699  0.00  0.00     0.029 H 
ATOM     30  H   LIG d   1       5.394  -4.416  -9.446  0.00  0.00     0.029 H 
BRANCH  28  31
ATOM     31  C   LIG d   1       3.647  -4.893  -8.279  0.00  0.00    -0.005 C 
ATOM     32  H   LIG d   1       3.058  -4.387  -7.516  0.00  0.00     0.038 H 
ATOM     33  H   LIG d   1       2.982  -5.328  -9.024  0.00  0.00     0.038 H 
BRANCH  31  34
ATOM     34  S   LIG d   1       4.635  -6.205  -7.510  0.00  0.00    -0.164 SA
BRANCH  34  35
ATOM     35  C   LIG d   1       4.541  -5.841  -5.736  0.00  0.00    -0.018 C 
ATOM     36  H   LIG d   1       5.521  -5.991  -5.281  0.00  0.00     0.034 H 
ATOM     37  H   LIG d   1       4.229  -4.807  -5.593  0.00  0.00     0.034 H 
ATOM     38  H   LIG d   1       3.817  -6.507  -5.265  0.00  0.00     0.034 H 
ENDBRANCH  34  35
ENDBRANCH  31  34
ENDBRANCH  28  31
ENDBRANCH  16  28
BRANCH   1  39
ATOM     39  C   LIG d   1       8.161  -3.088  -3.433  0.00  0.00    -0.040 C 
ATOM     40  H   LIG d   1       8.809  -3.165  -4.306  0.00  0.00     0.028 H 
ATOM     41  H   LIG d   1       8.722  -2.663  -2.601  0.00  0.00     0.028 H 
ATOM     42  H   LIG d   1       7.800  -4.079  -3.160  0.00  0.00     0.028 H 
ENDBRANCH   1  39
BRANCH  21  43
ATOM     43  C   LIG d   1       3.871   0.369 -10.930  0.00  0.00     0.026 C 
ATOM     44  H   LIG d   1       4.122   1.426 -11.003  0.00  0.00     0.047 H 
ATOM     45  H   LIG d   1       4.142  -0.134 -11.859  0.00  0.00     0.047 H 
BRANCH  43  46
ATOM     46  C   LIG d   1       2.367   0.218 -10.690  0.00  0.00    -0.011 C 
ATOM     47  H   LIG d   1       2.150   0.378  -9.633  0.00  0.00     0.033 H 
ATOM     48  H   LIG d   1       1.829   0.956 -11.286  0.00  0.00     0.033 H 
BRANCH  46  49
ATOM     49  C   LIG d   1       1.931  -1.167 -11.089  0.00  0.00    -0.046 A 
ATOM     50  C   LIG d   1       1.979  -1.551 -12.417  0.00  0.00    -0.059 A 
ATOM     51  C   LIG d   1       1.583  -2.824 -12.782  0.00  0.00    -0.061 A 
ATOM     52  H   LIG d   1       2.329  -0.858 -13.167  0.00  0.00     0.062 H 
ATOM     53  C   LIG d   1       1.129  -3.709 -11.823  0.00  0.00    -0.062 A 
ATOM     54  H   LIG d   1       1.624  -3.125 -13.818  0.00  0.00     0.062 H 
ATOM     55  C   LIG d   1       1.076  -3.323 -10.495  0.00  0.00    -0.061 A 
ATOM     56  H   LIG d   1       0.817  -4.703 -12.108  0.00  0.00     0.062 H 
ATOM     57  C   LIG d   1       1.477  -2.052 -10.130  0.00  0.00    -0.059 A 
ATOM     58  H   LIG d   1       0.722  -4.016  -9.746  0.00  0.00     0.062 H 
ATOM     59  H   LIG d   1       1.435  -1.751  -9.093  0.00  0.00     0.062 H 
ENDBRANCH  46  49
ENDBRANCH  43  46
ENDBRANCH  21  43
TORSDOF 8
ENDMDL
MODEL 3
REMARK VINA RESULT:      -6.5      2.848      3.651
REMARK  8 active torsions:
REMARK  status: ('A' for Active; 'I' for Inactive)
REMARK    1  A    between atoms: C_1  and  C_2 
REMARK    2  A    between atoms: C_17  and  C_20 
REMARK    3  A    between atoms: C_20  and  C_21 
REMARK    4  A    between atoms: C_21  and  S_22 
REMARK    5  A    between atoms: S_22  and  C_23 
REMARK    6  A    between atoms: N_26  and  C_29 
REMARK    7  A    between atoms: C_29  and  C_30 
REMARK    8  A    between atoms: C_30  and  C_31 
ROOT
ATOM      1  C   LIG d   1       4.658  -0.835 -11.766  0.00  0.00    -0.049 A 
ATOM      2  C   LIG d   1       5.369  -0.902 -10.581  0.00  0.00    -0.051 A 
ATOM      3  C   LIG d   1       4.705  -0.847  -9.375  0.00  0.00     0.005 A 
ATOM      4  C   LIG d   1       3.321  -0.723  -9.332  0.00  0.00     0.057 A 
ATOM      5  C   LIG d   1       2.612  -0.655 -10.531  0.00  0.00     0.063 A 
ATOM      6  C   LIG d   1       3.282  -0.705 -11.737  0.00  0.00    -0.039 A 
ATOM      7 CL   LIG d   1       0.883  -0.500 -10.507  0.00  0.00    -0.082 Cl
ATOM      8  N   LIG d   1       2.879  -0.688  -8.007  0.00  0.00    -0.282 N 
ATOM      9  C   LIG d   1       3.897  -0.782  -7.130  0.00  0.00     0.243 A 
ATOM     10  O   LIG d   1       3.814  -0.779  -5.920  0.00  0.00    -0.273 OA
ATOM     11  C   LIG d   1       5.158  -0.892  -7.944  0.00  0.00     0.136 A 
ATOM     12  C   LIG d   1       5.916  -2.189  -7.633  0.00  0.00     0.080 A 
ATOM     13  H   LIG d   1       5.644  -3.005  -8.303  0.00  0.00     0.043 H 
ATOM     14  C   LIG d   1       7.417  -1.798  -7.734  0.00  0.00     0.065 A 
ATOM     15  H   LIG d   1       7.966  -2.414  -8.446  0.00  0.00     0.042 H 
ATOM     16  C   LIG d   1       7.412  -0.305  -8.122  0.00  0.00     0.021 C 
ATOM     17  H   LIG d   1       7.506  -0.193  -9.203  0.00  0.00     0.047 H 
ATOM     18  N   LIG d   1       6.094   0.205  -7.638  0.00  0.00    -0.295 N 
ATOM     19  C   LIG d   1       7.917  -1.959  -6.317  0.00  0.00     0.227 A 
ATOM     20  O   LIG d   1       9.050  -1.746  -5.946  0.00  0.00    -0.275 OA
ATOM     21  N   LIG d   1       6.912  -2.375  -5.536  0.00  0.00    -0.241 N 
ATOM     22  C   LIG d   1       5.732  -2.548  -6.175  0.00  0.00     0.228 A 
ATOM     23  O   LIG d   1       4.695  -2.924  -5.672  0.00  0.00    -0.275 OA
ATOM     24  H   LIG d   1       6.444  -0.999 -10.601  0.00  0.00     0.062 H 
ATOM     25  H   LIG d   1       2.728  -0.647 -12.662  0.00  0.00     0.064 H 
ATOM     26  H   LIG d   1       1.948  -0.606  -7.749  0.00  0.00     0.155 HD
ATOM     27  H   LIG d   1       5.835   1.049  -8.129  0.00  0.00     0.123 HD
ENDROOT
BRANCH  16  28
ATOM     28  C   LIG d   1       8.547   0.434  -7.411  0.00  0.00    -0.028 C 
ATOM     29  H   LIG d   1       8.907  -0.168  -6.577  0.00  0.00     0.029 H 
ATOM     30  H   LIG d   1       9.364   0.607  -8.112  0.00  0.00     0.029 H 
BRANCH  28  31
ATOM     31  C   LIG d   1       8.033   1.777  -6.886  0.00  0.00    -0.005 C 
ATOM     32  H   LIG d   1       8.396   2.579  -7.527  0.00  0.00     0.038 H 
ATOM     33  H   LIG d   1       6.944   1.773  -6.889  0.00  0.00     0.038 H 
BRANCH  31  34
ATOM     34  S   LIG d   1       8.634   2.034  -5.194  0.00  0.00    -0.164 SA
BRANCH  34  35
ATOM     35  C   LIG d   1       9.477   3.638  -5.267  0.00  0.00    -0.018 C 
ATOM     36  H   LIG d   1       9.110   4.203  -6.124  0.00  0.00     0.034 H 
ATOM     37  H   LIG d   1       9.277   4.196  -4.353  0.00  0.00     0.034 H 
ATOM     38  H   LIG d   1      10.551   3.481  -5.370  0.00  0.00     0.034 H 
ENDBRANCH  34  35
ENDBRANCH  31  34
ENDBRANCH  28  31
ENDBRANCH  16  28
BRANCH   1  39
ATOM     39  C   LIG d   1       5.384  -0.895 -13.086  0.00  0.00    -0.040 C 
ATOM     40  H   LIG d   1       4.714  -1.284 -13.851  0.00  0.00     0.028 H 
ATOM     41  H   LIG d   1       5.713   0.106 -13.365  0.00  0.00     0.028 H 
ATOM     42  H   LIG d   1       6.250  -1.551 -12.994  0.00  0.00     0.028 H 
ENDBRANCH   1  39
BRANCH  21  43
ATOM     43  C   LIG d   1       7.076  -2.629  -4.103  0.00  0.00     0.026 C 
ATOM     44  H   LIG d   1       6.178  -3.107  -3.714  0.00  0.00     0.047 H 
ATOM     45  H   LIG d   1       7.934  -3.284  -3.946  0.00  0.00     0.047 H 
BRANCH  43  46
ATOM     46  C   LIG d   1       7.306  -1.304  -3.373  0.00  0.00    -0.011 C 
ATOM     47  H   LIG d   1       7.888  -1.484  -2.469  0.00  0.00     0.033 H 
ATOM     48  H   LIG d   1       7.849  -0.620  -4.025  0.00  0.00     0.033 H 
BRANCH  46  49
ATOM     49  C   LIG d   1       5.978  -0.698  -3.003  0.00  0.00    -0.046 A 
ATOM     50  C   LIG d   1       4.932  -1.512  -2.606  0.00  0.00    -0.059 A 
ATOM     51  C   LIG d   1       3.715  -0.955  -2.262  0.00  0.00    -0.061 A 
ATOM     52  H   LIG d   1       5.068  -2.582  -2.562  0.00  0.00     0.062 H 
ATOM     53  C   LIG d   1       3.539   0.415  -2.324  0.00  0.00    -0.062 A 
ATOM     54  H   LIG d   1       2.900  -1.590  -1.949  0.00  0.00     0.062 H 
ATOM     55  C   LIG d   1       4.583   1.229  -2.726  0.00  0.00    -0.061 A 
ATOM     56  H   LIG d   1       2.587   0.850  -2.058  0.00  0.00     0.062 H 
ATOM     57  C   LIG d   1       5.801   0.672  -3.065  0.00  0.00    -0.059 A 
ATOM     58  H   LIG d   1       4.445   2.299  -2.773  0.00  0.00     0.062 H 
ATOM     59  H   LIG d   1       6.616   1.308  -3.379  0.00  0.00     0.062 H 
ENDBRANCH  46  49
ENDBRANCH  43  46
ENDBRANCH  21  43
TORSDOF 8
ENDMDL
MODEL 4
REMARK VINA RESULT:      -6.4      4.612      7.360
REMARK  8 active torsions:
REMARK  status: ('A' for Active; 'I' for Inactive)
REMARK    1  A    between atoms: C_1  and  C_2 
REMARK    2  A    between atoms: C_17  and  C_20 
REMARK    3  A    between atoms: C_20  and  C_21 
REMARK    4  A    between atoms: C_21  and  S_22 
REMARK    5  A    between atoms: S_22  and  C_23 
REMARK    6  A    between atoms: N_26  and  C_29 
REMARK    7  A    between atoms: C_29  and  C_30 
REMARK    8  A    between atoms: C_30  and  C_31 
ROOT
ATOM      1  C   LIG d   1      11.901   0.496  -6.970  0.00  0.00    -0.049 A 
ATOM      2  C   LIG d   1      10.864  -0.286  -6.495  0.00  0.00    -0.051 A 
ATOM      3  C   LIG d   1       9.717   0.306  -6.013  0.00  0.00     0.005 A 
ATOM      4  C   LIG d   1       9.587   1.691  -5.999  0.00  0.00     0.057 A 
ATOM      5  C   LIG d   1      10.636   2.473  -6.480  0.00  0.00     0.063 A 
ATOM      6  C   LIG d   1      11.786   1.874  -6.956  0.00  0.00    -0.039 A 
ATOM      7 CL   LIG d   1      10.500   4.203  -6.473  0.00  0.00    -0.082 Cl
ATOM      8  N   LIG d   1       8.345   2.053  -5.470  0.00  0.00    -0.282 N 
ATOM      9  C   LIG d   1       7.611   0.981  -5.117  0.00  0.00     0.243 A 
ATOM     10  O   LIG d   1       6.498   0.993  -4.634  0.00  0.00    -0.273 OA
ATOM     11  C   LIG d   1       8.438  -0.233  -5.440  0.00  0.00     0.136 A 
ATOM     12  C   LIG d   1       7.719  -1.155  -6.433  0.00  0.00     0.080 A 
ATOM     13  H   LIG d   1       7.982  -0.941  -7.469  0.00  0.00     0.043 H 
ATOM     14  C   LIG d   1       8.118  -2.591  -5.992  0.00  0.00     0.065 A 
ATOM     15  H   LIG d   1       8.581  -3.166  -6.794  0.00  0.00     0.042 H 
ATOM     16  C   LIG d   1       9.062  -2.388  -4.788  0.00  0.00     0.021 C 
ATOM     17  H   LIG d   1      10.102  -2.404  -5.113  0.00  0.00     0.047 H 
ATOM     18  N   LIG d   1       8.687  -1.051  -4.238  0.00  0.00    -0.295 N 
ATOM     19  C   LIG d   1       6.811  -3.190  -5.526  0.00  0.00     0.227 A 
ATOM     20  O   LIG d   1       6.671  -4.310  -5.087  0.00  0.00    -0.275 OA
ATOM     21  N   LIG d   1       5.832  -2.289  -5.673  0.00  0.00    -0.241 N 
ATOM     22  C   LIG d   1       6.228  -1.101  -6.188  0.00  0.00     0.228 A 
ATOM     23  O   LIG d   1       5.515  -0.148  -6.414  0.00  0.00    -0.275 OA
ATOM     24  H   LIG d   1      10.953  -1.363  -6.501  0.00  0.00     0.062 H 
ATOM     25  H   LIG d   1      12.597   2.485  -7.322  0.00  0.00     0.064 H 
ATOM     26  H   LIG d   1       8.048   2.971  -5.369  0.00  0.00     0.155 HD
ATOM     27  H   LIG d   1       9.442  -0.666  -3.689  0.00  0.00     0.123 HD
ENDROOT
BRANCH  16  28
ATOM     28  C   LIG d   1       8.819  -3.469  -3.733  0.00  0.00    -0.028 C 
ATOM     29  H   LIG d   1       8.546  -3.000  -2.788  0.00  0.00     0.029 H 
ATOM     30  H   LIG d   1       8.010  -4.122  -4.061  0.00  0.00     0.029 H 
BRANCH  28  31
ATOM     31  C   LIG d   1      10.094  -4.294  -3.544  0.00  0.00    -0.005 C 
ATOM     32  H   LIG d   1      10.742  -4.164  -4.409  0.00  0.00     0.038 H 
ATOM     33  H   LIG d   1      10.613  -3.957  -2.647  0.00  0.00     0.038 H 
BRANCH  31  34
ATOM     34  S   LIG d   1       9.660  -6.046  -3.370  0.00  0.00    -0.164 SA
BRANCH  34  35
ATOM     35  C   LIG d   1      10.089  -6.436  -1.651  0.00  0.00    -0.018 C 
ATOM     36  H   LIG d   1       9.453  -5.861  -0.978  0.00  0.00     0.034 H 
ATOM     37  H   LIG d   1       9.940  -7.500  -1.471  0.00  0.00     0.034 H 
ATOM     38  H   LIG d   1      11.133  -6.179  -1.470  0.00  0.00     0.034 H 
ENDBRANCH  34  35
ENDBRANCH  31  34
ENDBRANCH  28  31
ENDBRANCH  16  28
BRANCH   1  39
ATOM     39  C   LIG d   1      13.156  -0.152  -7.496  0.00  0.00    -0.040 C 
ATOM     40  H   LIG d   1      13.478   0.362  -8.401  0.00  0.00     0.028 H 
ATOM     41  H   LIG d   1      13.941  -0.088  -6.743  0.00  0.00     0.028 H 
ATOM     42  H   LIG d   1      12.955  -1.199  -7.724  0.00  0.00     0.028 H 
ENDBRANCH   1  39
BRANCH  21  43
ATOM     43  C   LIG d   1       4.440  -2.567  -5.314  0.00  0.00     0.026 C 
ATOM     44  H   LIG d   1       3.798  -1.783  -5.714  0.00  0.00     0.047 H 
ATOM     45  H   LIG d   1       4.142  -3.529  -5.731  0.00  0.00     0.047 H 
BRANCH  43  46
ATOM     46  C   LIG d   1       4.305  -2.607  -3.790  0.00  0.00    -0.011 C 
ATOM     47  H   LIG d   1       3.451  -3.228  -3.518  0.00  0.00     0.033 H 
ATOM     48  H   LIG d   1       5.212  -3.028  -3.357  0.00  0.00     0.033 H 
BRANCH  46  49
ATOM     49  C   LIG d   1       4.098  -1.210  -3.267  0.00  0.00    -0.046 A 
ATOM     50  C   LIG d   1       3.260  -0.337  -3.937  0.00  0.00    -0.059 A 
ATOM     51  C   LIG d   1       3.067   0.943  -3.454  0.00  0.00    -0.061 A 
ATOM     52  H   LIG d   1       2.754  -0.658  -4.836  0.00  0.00     0.062 H 
ATOM     53  C   LIG d   1       3.719   1.355  -2.307  0.00  0.00    -0.062 A 
ATOM     54  H   LIG d   1       2.410   1.623  -3.975  0.00  0.00     0.062 H 
ATOM     55  C   LIG d   1       4.561   0.485  -1.640  0.00  0.00    -0.061 A 
ATOM     56  H   LIG d   1       3.571   2.357  -1.931  0.00  0.00     0.062 H 
ATOM     57  C   LIG d   1       4.750  -0.798  -2.120  0.00  0.00    -0.059 A 
ATOM     58  H   LIG d   1       5.070   0.807  -0.743  0.00  0.00     0.062 H 
ATOM     59  H   LIG d   1       5.408  -1.477  -1.599  0.00  0.00     0.062 H 
ENDBRANCH  46  49
ENDBRANCH  43  46
ENDBRANCH  21  43
TORSDOF 8
ENDMDL
MODEL 5
REMARK VINA RESULT:      -6.4      3.320      4.893
REMARK  8 active torsions:
REMARK  status: ('A' for Active; 'I' for Inactive)
REMARK    1  A    between atoms: C_1  and  C_2 
REMARK    2  A    between atoms: C_17  and  C_20 
REMARK    3  A    between atoms: C_20  and  C_21 
REMARK    4  A    between atoms: C_21  and  S_22 
REMARK    5  A    between atoms: S_22  and  C_23 
REMARK    6  A    between atoms: N_26  and  C_29 
REMARK    7  A    between atoms: C_29  and  C_30 
REMARK    8  A    between atoms: C_30  and  C_31 
ROOT
ATOM      1  C   LIG d   1       9.661   0.707 -10.691  0.00  0.00    -0.049 A 
ATOM      2  C   LIG d   1       8.339   0.722 -10.283  0.00  0.00    -0.051 A 
ATOM      3  C   LIG d   1       7.815  -0.355  -9.602  0.00  0.00     0.005 A 
ATOM      4  C   LIG d   1       8.604  -1.464  -9.315  0.00  0.00     0.057 A 
ATOM      5  C   LIG d   1       9.935  -1.471  -9.729  0.00  0.00     0.063 A 
ATOM      6  C   LIG d   1      10.454  -0.392 -10.418  0.00  0.00    -0.039 A 
ATOM      7 CL   LIG d   1      10.942  -2.843  -9.386  0.00  0.00    -0.082 Cl
ATOM      8  N   LIG d   1       7.858  -2.420  -8.621  0.00  0.00    -0.282 N 
ATOM      9  C   LIG d   1       6.588  -2.022  -8.414  0.00  0.00     0.243 A 
ATOM     10  O   LIG d   1       5.719  -2.644  -7.842  0.00  0.00    -0.273 OA
ATOM     11  C   LIG d   1       6.459  -0.656  -9.031  0.00  0.00     0.136 A 
ATOM     12  C   LIG d   1       6.039   0.391  -7.993  0.00  0.00     0.080 A 
ATOM     13  H   LIG d   1       6.891   0.893  -7.534  0.00  0.00     0.043 H 
ATOM     14  C   LIG d   1       5.112   1.365  -8.774  0.00  0.00     0.065 A 
ATOM     15  H   LIG d   1       5.450   2.400  -8.725  0.00  0.00     0.042 H 
ATOM     16  C   LIG d   1       5.089   0.818 -10.217  0.00  0.00     0.021 C 
ATOM     17  H   LIG d   1       5.829   1.332 -10.830  0.00  0.00     0.047 H 
ATOM     18  N   LIG d   1       5.417  -0.632 -10.074  0.00  0.00    -0.295 N 
ATOM     19  C   LIG d   1       3.763   1.162  -8.125  0.00  0.00     0.227 A 
ATOM     20  O   LIG d   1       2.741   1.730  -8.441  0.00  0.00    -0.275 OA
ATOM     21  N   LIG d   1       3.874   0.255  -7.146  0.00  0.00    -0.241 N 
ATOM     22  C   LIG d   1       5.120  -0.244  -6.974  0.00  0.00     0.228 A 
ATOM     23  O   LIG d   1       5.453  -1.065  -6.146  0.00  0.00    -0.275 OA
ATOM     24  H   LIG d   1       7.716   1.578 -10.499  0.00  0.00     0.062 H 
ATOM     25  H   LIG d   1      11.484  -0.405 -10.740  0.00  0.00     0.064 H 
ATOM     26  H   LIG d   1       8.215  -3.272  -8.323  0.00  0.00     0.155 HD
ATOM     27  H   LIG d   1       5.767  -1.007 -10.944  0.00  0.00     0.123 HD
ENDROOT
BRANCH  16  28
ATOM     28  C   LIG d   1       3.693   0.977 -10.823  0.00  0.00    -0.028 C 
ATOM     29  H   LIG d   1       2.980   1.223 -10.037  0.00  0.00     0.029 H 
ATOM     30  H   LIG d   1       3.707   1.777 -11.564  0.00  0.00     0.029 H 
BRANCH  28  31
ATOM     31  C   LIG d   1       3.277  -0.333 -11.497  0.00  0.00    -0.005 C 
ATOM     32  H   LIG d   1       3.116  -0.159 -12.560  0.00  0.00     0.038 H 
ATOM     33  H   LIG d   1       4.064  -1.074 -11.364  0.00  0.00     0.038 H 
BRANCH  31  34
ATOM     34  S   LIG d   1       1.742  -0.939 -10.743  0.00  0.00    -0.164 SA
BRANCH  34  35
ATOM     35  C   LIG d   1       0.819  -1.643 -12.137  0.00  0.00    -0.018 C 
ATOM     36  H   LIG d   1       0.003  -0.973 -12.409  0.00  0.00     0.034 H 
ATOM     37  H   LIG d   1       1.486  -1.769 -12.989  0.00  0.00     0.034 H 
ATOM     38  H   LIG d   1       0.411  -2.613 -11.849  0.00  0.00     0.034 H 
ENDBRANCH  34  35
ENDBRANCH  31  34
ENDBRANCH  28  31
ENDBRANCH  16  28
BRANCH   1  39
ATOM     39  C   LIG d   1      10.233   1.885 -11.437  0.00  0.00    -0.040 C 
ATOM     40  H   LIG d   1       9.959   1.816 -12.490  0.00  0.00     0.028 H 
ATOM     41  H   LIG d   1       9.837   2.809 -11.018  0.00  0.00     0.028 H 
ATOM     42  H   LIG d   1      11.320   1.880 -11.343  0.00  0.00     0.028 H 
ENDBRANCH   1  39
BRANCH  21  43
ATOM     43  C   LIG d   1       2.738  -0.161  -6.320  0.00  0.00     0.026 C 
ATOM     44  H   LIG d   1       1.836  -0.189  -6.930  0.00  0.00     0.047 H 
ATOM     45  H   LIG d   1       2.930  -1.152  -5.909  0.00  0.00     0.047 H 
BRANCH  43  46
ATOM     46  C   LIG d   1       2.548   0.837  -5.175  0.00  0.00    -0.011 C 
ATOM     47  H   LIG d   1       3.006   1.789  -5.443  0.00  0.00     0.033 H 
ATOM     48  H   LIG d   1       1.482   0.984  -4.996  0.00  0.00     0.033 H 
BRANCH  46  49
ATOM     49  C   LIG d   1       3.198   0.299  -3.927  0.00  0.00    -0.046 A 
ATOM     50  C   LIG d   1       3.133  -1.053  -3.641  0.00  0.00    -0.059 A 
ATOM     51  C   LIG d   1       3.733  -1.546  -2.498  0.00  0.00    -0.061 A 
ATOM     52  H   LIG d   1       2.616  -1.722  -4.312  0.00  0.00     0.062 H 
ATOM     53  C   LIG d   1       4.390  -0.689  -1.636  0.00  0.00    -0.062 A 
ATOM     54  H   LIG d   1       3.686  -2.602  -2.276  0.00  0.00     0.062 H 
ATOM     55  C   LIG d   1       4.451   0.664  -1.919  0.00  0.00    -0.061 A 
ATOM     56  H   LIG d   1       4.857  -1.073  -0.742  0.00  0.00     0.062 H 
ATOM     57  C   LIG d   1       3.854   1.157  -3.065  0.00  0.00    -0.059 A 
ATOM     58  H   LIG d   1       4.965   1.334  -1.246  0.00  0.00     0.062 H 
ATOM     59  H   LIG d   1       3.902   2.213  -3.286  0.00  0.00     0.062 H 
ENDBRANCH  46  49
ENDBRANCH  43  46
ENDBRANCH  21  43
TORSDOF 8
ENDMDL
MODEL 6
REMARK VINA RESULT:      -6.3      3.479      4.893
REMARK  8 active torsions:
REMARK  status: ('A' for Active; 'I' for Inactive)
REMARK    1  A    between atoms: C_1  and  C_2 
REMARK    2  A    between atoms: C_17  and  C_20 
REMARK    3  A    between atoms: C_20  and  C_21 
REMARK    4  A    between atoms: C_21  and  S_22 
REMARK    5  A    between atoms: S_22  and  C_23 
REMARK    6  A    between atoms: N_26  and  C_29 
REMARK    7  A    between atoms: C_29  and  C_30 
REMARK    8  A    between atoms: C_30  and  C_31 
ROOT
ATOM      1  C   LIG d   1       6.920  -2.347 -12.426  0.00  0.00    -0.049 A 
ATOM      2  C   LIG d   1       6.627  -1.740 -11.218  0.00  0.00    -0.051 A 
ATOM      3  C   LIG d   1       5.641  -0.780 -11.149  0.00  0.00     0.005 A 
ATOM      4  C   LIG d   1       4.930  -0.411 -12.286  0.00  0.00     0.057 A 
ATOM      5  C   LIG d   1       5.231  -1.027 -13.500  0.00  0.00     0.063 A 
ATOM      6  C   LIG d   1       6.224  -1.984 -13.565  0.00  0.00    -0.039 A 
ATOM      7 CL   LIG d   1       4.360  -0.585 -14.935  0.00  0.00    -0.082 Cl
ATOM      8  N   LIG d   1       3.989   0.572 -11.969  0.00  0.00    -0.282 N 
ATOM      9  C   LIG d   1       4.018   0.900 -10.663  0.00  0.00     0.243 A 
ATOM     10  O   LIG d   1       3.317   1.718 -10.106  0.00  0.00    -0.273 OA
ATOM     11  C   LIG d   1       5.087   0.053 -10.029  0.00  0.00     0.136 A 
ATOM     12  C   LIG d   1       4.518  -0.822  -8.905  0.00  0.00     0.080 A 
ATOM     13  H   LIG d   1       4.215  -1.809  -9.253  0.00  0.00     0.043 H 
ATOM     14  C   LIG d   1       5.651  -0.877  -7.841  0.00  0.00     0.065 A 
ATOM     15  H   LIG d   1       5.952  -1.896  -7.598  0.00  0.00     0.042 H 
ATOM     16  C   LIG d   1       6.802  -0.047  -8.447  0.00  0.00     0.021 C 
ATOM     17  H   LIG d   1       7.511  -0.698  -8.958  0.00  0.00     0.047 H 
ATOM     18  N   LIG d   1       6.133   0.883  -9.404  0.00  0.00    -0.295 N 
ATOM     19  C   LIG d   1       5.057  -0.146  -6.659  0.00  0.00     0.227 A 
ATOM     20  O   LIG d   1       5.617   0.050  -5.603  0.00  0.00    -0.275 OA
ATOM     21  N   LIG d   1       3.814   0.251  -6.961  0.00  0.00    -0.241 N 
ATOM     22  C   LIG d   1       3.399  -0.084  -8.204  0.00  0.00     0.228 A 
ATOM     23  O   LIG d   1       2.314   0.164  -8.686  0.00  0.00    -0.275 OA
ATOM     24  H   LIG d   1       7.172  -2.018 -10.328  0.00  0.00     0.062 H 
ATOM     25  H   LIG d   1       6.456  -2.454 -14.509  0.00  0.00     0.064 H 
ATOM     26  H   LIG d   1       3.386   0.972 -12.615  0.00  0.00     0.155 HD
ATOM     27  H   LIG d   1       6.789   1.218 -10.094  0.00  0.00     0.123 HD
ENDROOT
BRANCH  16  28
ATOM     28  C   LIG d   1       7.512   0.755  -7.354  0.00  0.00    -0.028 C 
ATOM     29  H   LIG d   1       7.378   1.820  -7.539  0.00  0.00     0.029 H 
ATOM     30  H   LIG d   1       7.088   0.500  -6.382  0.00  0.00     0.029 H 
BRANCH  28  31
ATOM     31  C   LIG d   1       9.005   0.420  -7.362  0.00  0.00    -0.005 C 
ATOM     32  H   LIG d   1       9.208  -0.312  -8.142  0.00  0.00     0.038 H 
ATOM     33  H   LIG d   1       9.578   1.326  -7.553  0.00  0.00     0.038 H 
BRANCH  31  34
ATOM     34  S   LIG d   1       9.478  -0.267  -5.751  0.00  0.00    -0.164 SA
BRANCH  34  35
ATOM     35  C   LIG d   1       8.610  -1.858  -5.680  0.00  0.00    -0.018 C 
ATOM     36  H   LIG d   1       9.190  -2.562  -5.083  0.00  0.00     0.034 H 
ATOM     37  H   LIG d   1       7.630  -1.717  -5.225  0.00  0.00     0.034 H 
ATOM     38  H   LIG d   1       8.489  -2.251  -6.689  0.00  0.00     0.034 H 
ENDBRANCH  34  35
ENDBRANCH  31  34
ENDBRANCH  28  31
ENDBRANCH  16  28
BRANCH   1  39
ATOM     39  C   LIG d   1       7.999  -3.396 -12.503  0.00  0.00    -0.040 C 
ATOM     40  H   LIG d   1       8.456  -3.376 -13.491  0.00  0.00     0.028 H 
ATOM     41  H   LIG d   1       8.758  -3.192 -11.747  0.00  0.00     0.028 H 
ATOM     42  H   LIG d   1       7.562  -4.379 -12.324  0.00  0.00     0.028 H 
ENDBRANCH   1  39
BRANCH  21  43
ATOM     43  C   LIG d   1       2.967   0.986  -6.018  0.00  0.00     0.026 C 
ATOM     44  H   LIG d   1       3.585   1.650  -5.416  0.00  0.00     0.047 H 
ATOM     45  H   LIG d   1       2.233   1.573  -6.571  0.00  0.00     0.047 H 
BRANCH  43  46
ATOM     46  C   LIG d   1       2.243  -0.005  -5.104  0.00  0.00    -0.011 C 
ATOM     47  H   LIG d   1       1.253   0.381  -4.862  0.00  0.00     0.033 H 
ATOM     48  H   LIG d   1       2.144  -0.964  -5.615  0.00  0.00     0.033 H 
BRANCH  46  49
ATOM     49  C   LIG d   1       3.035  -0.191  -3.837  0.00  0.00    -0.046 A 
ATOM     50  C   LIG d   1       3.330  -1.464  -3.385  0.00  0.00    -0.059 A 
ATOM     51  C   LIG d   1       4.061  -1.634  -2.225  0.00  0.00    -0.061 A 
ATOM     52  H   LIG d   1       2.992  -2.326  -3.942  0.00  0.00     0.062 H 
ATOM     53  C   LIG d   1       4.489  -0.532  -1.509  0.00  0.00    -0.062 A 
ATOM     54  H   LIG d   1       4.294  -2.628  -1.874  0.00  0.00     0.062 H 
ATOM     55  C   LIG d   1       4.189   0.742  -1.957  0.00  0.00    -0.061 A 
ATOM     56  H   LIG d   1       5.057  -0.664  -0.600  0.00  0.00     0.062 H 
ATOM     57  C   LIG d   1       3.463   0.912  -3.121  0.00  0.00    -0.059 A 
ATOM     58  H   LIG d   1       4.525   1.604  -1.399  0.00  0.00     0.062 H 
ATOM     59  H   LIG d   1       3.230   1.907  -3.471  0.00  0.00     0.062 H 
ENDBRANCH  46  49
ENDBRANCH  43  46
ENDBRANCH  21  43
TORSDOF 8
ENDMDL
MODEL 7
REMARK VINA RESULT:      -6.1      7.394     10.787
REMARK  8 active torsions:
REMARK  status: ('A' for Active; 'I' for Inactive)
REMARK    1  A    between atoms: C_1  and  C_2 
REMARK    2  A    between atoms: C_17  and  C_20 
REMARK    3  A    between atoms: C_20  and  C_21 
REMARK    4  A    between atoms: C_21  and  S_22 
REMARK    5  A    between atoms: S_22  and  C_23 
REMARK    6  A    between atoms: N_26  and  C_29 
REMARK    7  A    between atoms: C_29  and  C_30 
REMARK    8  A    between atoms: C_30  and  C_31 
ROOT
ATOM      1  C   LIG d   1       9.998   8.372  -1.682  0.00  0.00    -0.049 A 
ATOM      2  C   LIG d   1      10.061   7.444  -2.706  0.00  0.00    -0.051 A 
ATOM      3  C   LIG d   1      10.432   6.145  -2.438  0.00  0.00     0.005 A 
ATOM      4  C   LIG d   1      10.746   5.751  -1.141  0.00  0.00     0.057 A 
ATOM      5  C   LIG d   1      10.680   6.692  -0.115  0.00  0.00     0.063 A 
ATOM      6  C   LIG d   1      10.314   7.994  -0.389  0.00  0.00    -0.039 A 
ATOM      7 CL   LIG d   1      11.068   6.227   1.512  0.00  0.00    -0.082 Cl
ATOM      8  N   LIG d   1      11.090   4.397  -1.119  0.00  0.00    -0.282 N 
ATOM      9  C   LIG d   1      11.028   3.836  -2.342  0.00  0.00     0.243 A 
ATOM     10  O   LIG d   1      11.271   2.682  -2.623  0.00  0.00    -0.273 OA
ATOM     11  C   LIG d   1      10.598   4.921  -3.291  0.00  0.00     0.136 A 
ATOM     12  C   LIG d   1       9.294   4.554  -4.010  0.00  0.00     0.080 A 
ATOM     13  H   LIG d   1       8.410   4.927  -3.492  0.00  0.00     0.043 H 
ATOM     14  C   LIG d   1       9.454   5.149  -5.438  0.00  0.00     0.065 A 
ATOM     15  H   LIG d   1       8.647   5.831  -5.703  0.00  0.00     0.042 H 
ATOM     16  C   LIG d   1      10.834   5.839  -5.426  0.00  0.00     0.021 C 
ATOM     17  H   LIG d   1      10.726   6.901  -5.203  0.00  0.00     0.047 H 
ATOM     18  N   LIG d   1      11.598   5.135  -4.354  0.00  0.00    -0.295 N 
ATOM     19  C   LIG d   1       9.499   3.925  -6.324  0.00  0.00     0.227 A 
ATOM     20  O   LIG d   1       9.625   3.937  -7.529  0.00  0.00    -0.275 OA
ATOM     21  N   LIG d   1       9.377   2.826  -5.569  0.00  0.00    -0.241 N 
ATOM     22  C   LIG d   1       9.246   3.060  -4.243  0.00  0.00     0.228 A 
ATOM     23  O   LIG d   1       9.114   2.221  -3.379  0.00  0.00    -0.275 OA
ATOM     24  H   LIG d   1       9.819   7.738  -3.716  0.00  0.00     0.062 H 
ATOM     25  H   LIG d   1      10.269   8.720   0.409  0.00  0.00     0.064 H 
ATOM     26  H   LIG d   1      11.344   3.917  -0.315  0.00  0.00     0.155 HD
ATOM     27  H   LIG d   1      12.361   5.708  -4.023  0.00  0.00     0.123 HD
ENDROOT
BRANCH  16  28
ATOM     28  C   LIG d   1      11.535   5.649  -6.773  0.00  0.00    -0.028 C 
ATOM     29  H   LIG d   1      12.524   5.221  -6.611  0.00  0.00     0.029 H 
ATOM     30  H   LIG d   1      10.947   4.977  -7.398  0.00  0.00     0.029 H 
BRANCH  28  31
ATOM     31  C   LIG d   1      11.673   7.003  -7.472  0.00  0.00    -0.005 C 
ATOM     32  H   LIG d   1      11.722   7.794  -6.725  0.00  0.00     0.038 H 
ATOM     33  H   LIG d   1      12.584   7.011  -8.070  0.00  0.00     0.038 H 
BRANCH  31  34
ATOM     34  S   LIG d   1      10.240   7.275  -8.550  0.00  0.00    -0.164 SA
BRANCH  34  35
ATOM     35  C   LIG d   1       9.205   8.437  -7.618  0.00  0.00    -0.018 C 
ATOM     36  H   LIG d   1       9.148   9.384  -8.155  0.00  0.00     0.034 H 
ATOM     37  H   LIG d   1       8.204   8.022  -7.505  0.00  0.00     0.034 H 
ATOM     38  H   LIG d   1       9.642   8.605  -6.634  0.00  0.00     0.034 H 
ENDBRANCH  34  35
ENDBRANCH  31  34
ENDBRANCH  28  31
ENDBRANCH  16  28
BRANCH   1  39
ATOM     39  C   LIG d   1       9.592   9.794  -1.975  0.00  0.00    -0.040 C 
ATOM     40  H   LIG d   1       8.748   9.797  -2.663  0.00  0.00     0.028 H 
ATOM     41  H   LIG d   1       9.307  10.289  -1.047  0.00  0.00     0.028 H 
ATOM     42  H   LIG d   1      10.431  10.324  -2.427  0.00  0.00     0.028 H 
ENDBRANCH   1  39
BRANCH  21  43
ATOM     43  C   LIG d   1       9.379   1.474  -6.134  0.00  0.00     0.026 C 
ATOM     44  H   LIG d   1       9.908   1.479  -7.086  0.00  0.00     0.047 H 
ATOM     45  H   LIG d   1       9.877   0.793  -5.444  0.00  0.00     0.047 H 
BRANCH  43  46
ATOM     46  C   LIG d   1       7.937   1.012  -6.354  0.00  0.00    -0.011 C 
ATOM     47  H   LIG d   1       7.262   1.861  -6.243  0.00  0.00     0.033 H 
ATOM     48  H   LIG d   1       7.838   0.599  -7.359  0.00  0.00     0.033 H 
BRANCH  46  49
ATOM     49  C   LIG d   1       7.587  -0.045  -5.340  0.00  0.00    -0.046 A 
ATOM     50  C   LIG d   1       8.259  -1.254  -5.341  0.00  0.00    -0.059 A 
ATOM     51  C   LIG d   1       7.942  -2.221  -4.406  0.00  0.00    -0.061 A 
ATOM     52  H   LIG d   1       9.035  -1.440  -6.069  0.00  0.00     0.062 H 
ATOM     53  C   LIG d   1       6.946  -1.986  -3.478  0.00  0.00    -0.062 A 
ATOM     54  H   LIG d   1       8.469  -3.164  -4.405  0.00  0.00     0.062 H 
ATOM     55  C   LIG d   1       6.270  -0.779  -3.480  0.00  0.00    -0.061 A 
ATOM     56  H   LIG d   1       6.695  -2.743  -2.749  0.00  0.00     0.062 H 
ATOM     57  C   LIG d   1       6.591   0.191  -4.411  0.00  0.00    -0.059 A 
ATOM     58  H   LIG d   1       5.493  -0.595  -2.753  0.00  0.00     0.062 H 
ATOM     59  H   LIG d   1       6.063   1.133  -4.412  0.00  0.00     0.062 H 
ENDBRANCH  46  49
ENDBRANCH  43  46
ENDBRANCH  21  43
TORSDOF 8
ENDMDL
MODEL 8
REMARK VINA RESULT:      -6.1      5.742      8.495
REMARK  8 active torsions:
REMARK  status: ('A' for Active; 'I' for Inactive)
REMARK    1  A    between atoms: C_1  and  C_2 
REMARK    2  A    between atoms: C_17  and  C_20 
REMARK    3  A    between atoms: C_20  and  C_21 
REMARK    4  A    between atoms: C_21  and  S_22 
REMARK    5  A    between atoms: S_22  and  C_23 
REMARK    6  A    between atoms: N_26  and  C_29 
REMARK    7  A    between atoms: C_29  and  C_30 
REMARK    8  A    between atoms: C_30  and  C_31 
ROOT
ATOM      1  C   LIG d   1      10.172   5.638  -8.120  0.00  0.00    -0.049 A 
ATOM      2  C   LIG d   1      10.035   4.328  -7.694  0.00  0.00    -0.051 A 
ATOM      3  C   LIG d   1       9.755   4.059  -6.373  0.00  0.00     0.005 A 
ATOM      4  C   LIG d   1       9.607   5.092  -5.454  0.00  0.00     0.057 A 
ATOM      5  C   LIG d   1       9.747   6.409  -5.890  0.00  0.00     0.063 A 
ATOM      6  C   LIG d   1      10.034   6.674  -7.215  0.00  0.00    -0.039 A 
ATOM      7 CL   LIG d   1       9.569   7.718  -4.765  0.00  0.00    -0.082 Cl
ATOM      8  N   LIG d   1       9.328   4.575  -4.186  0.00  0.00    -0.282 N 
ATOM      9  C   LIG d   1       9.276   3.229  -4.187  0.00  0.00     0.243 A 
ATOM     10  O   LIG d   1       9.053   2.513  -3.234  0.00  0.00    -0.273 OA
ATOM     11  C   LIG d   1       9.547   2.788  -5.599  0.00  0.00     0.136 A 
ATOM     12  C   LIG d   1       8.382   1.967  -6.165  0.00  0.00     0.080 A 
ATOM     13  H   LIG d   1       7.659   2.581  -6.703  0.00  0.00     0.043 H 
ATOM     14  C   LIG d   1       9.060   0.899  -7.069  0.00  0.00     0.065 A 
ATOM     15  H   LIG d   1       8.691   0.919  -8.094  0.00  0.00     0.042 H 
ATOM     16  C   LIG d   1      10.570   1.202  -6.976  0.00  0.00     0.021 C 
ATOM     17  H   LIG d   1      10.883   1.831  -7.810  0.00  0.00     0.047 H 
ATOM     18  N   LIG d   1      10.732   1.912  -5.672  0.00  0.00    -0.295 N 
ATOM     19  C   LIG d   1       8.752  -0.402  -6.364  0.00  0.00     0.227 A 
ATOM     20  O   LIG d   1       9.107  -1.500  -6.734  0.00  0.00    -0.275 OA
ATOM     21  N   LIG d   1       8.026  -0.152  -5.267  0.00  0.00    -0.241 N 
ATOM     22  C   LIG d   1       7.748   1.155  -5.058  0.00  0.00     0.228 A 
ATOM     23  O   LIG d   1       7.102   1.610  -4.138  0.00  0.00    -0.275 OA
ATOM     24  H   LIG d   1      10.146   3.517  -8.398  0.00  0.00     0.062 H 
ATOM     25  H   LIG d   1      10.146   7.695  -7.546  0.00  0.00     0.064 H 
ATOM     26  H   LIG d   1       9.188   5.123  -3.397  0.00  0.00     0.155 HD
ATOM     27  H   LIG d   1      11.583   2.454  -5.663  0.00  0.00     0.123 HD
ENDROOT
BRANCH  16  28
ATOM     28  C   LIG d   1      11.374  -0.099  -6.961  0.00  0.00    -0.028 C 
ATOM     29  H   LIG d   1      10.704  -0.939  -6.777  0.00  0.00     0.029 H 
ATOM     30  H   LIG d   1      11.867  -0.233  -7.924  0.00  0.00     0.029 H 
BRANCH  28  31
ATOM     31  C   LIG d   1      12.428  -0.036  -5.853  0.00  0.00    -0.005 C 
ATOM     32  H   LIG d   1      13.420  -0.144  -6.290  0.00  0.00     0.038 H 
ATOM     33  H   LIG d   1      12.358   0.923  -5.341  0.00  0.00     0.038 H 
BRANCH  31  34
ATOM     34  S   LIG d   1      12.139  -1.377  -4.667  0.00  0.00    -0.164 SA
BRANCH  34  35
ATOM     35  C   LIG d   1      12.222  -2.882  -5.678  0.00  0.00    -0.018 C 
ATOM     36  H   LIG d   1      11.382  -3.531  -5.432  0.00  0.00     0.034 H 
ATOM     37  H   LIG d   1      12.177  -2.613  -6.733  0.00  0.00     0.034 H 
ATOM     38  H   LIG d   1      13.157  -3.405  -5.476  0.00  0.00     0.034 H 
ENDBRANCH  34  35
ENDBRANCH  31  34
ENDBRANCH  28  31
ENDBRANCH  16  28
BRANCH   1  39
ATOM     39  C   LIG d   1      10.479   5.933  -9.566  0.00  0.00    -0.040 C 
ATOM     40  H   LIG d   1      10.122   6.932  -9.816  0.00  0.00     0.028 H 
ATOM     41  H   LIG d   1      11.556   5.881  -9.726  0.00  0.00     0.028 H 
ATOM     42  H   LIG d   1       9.981   5.199 -10.199  0.00  0.00     0.028 H 
ENDBRANCH   1  39
BRANCH  21  43
ATOM     43  C   LIG d   1       7.563  -1.210  -4.367  0.00  0.00     0.026 C 
ATOM     44  H   LIG d   1       8.367  -1.925  -4.202  0.00  0.00     0.047 H 
ATOM     45  H   LIG d   1       7.264  -0.772  -3.414  0.00  0.00     0.047 H 
BRANCH  43  46
ATOM     46  C   LIG d   1       6.365  -1.927  -4.996  0.00  0.00    -0.011 C 
ATOM     47  H   LIG d   1       6.294  -1.657  -6.050  0.00  0.00     0.033 H 
ATOM     48  H   LIG d   1       6.499  -3.005  -4.905  0.00  0.00     0.033 H 
BRANCH  46  49
ATOM     49  C   LIG d   1       5.103  -1.514  -4.285  0.00  0.00    -0.046 A 
ATOM     50  C   LIG d   1       4.318  -0.500  -4.803  0.00  0.00    -0.059 A 
ATOM     51  C   LIG d   1       3.157  -0.125  -4.152  0.00  0.00    -0.061 A 
ATOM     52  H   LIG d   1       4.610  -0.004  -5.716  0.00  0.00     0.062 H 
ATOM     53  C   LIG d   1       2.786  -0.756  -2.980  0.00  0.00    -0.062 A 
ATOM     54  H   LIG d   1       2.542   0.664  -4.558  0.00  0.00     0.062 H 
ATOM     55  C   LIG d   1       3.574  -1.766  -2.459  0.00  0.00    -0.061 A 
ATOM     56  H   LIG d   1       1.881  -0.461  -2.470  0.00  0.00     0.062 H 
ATOM     57  C   LIG d   1       4.732  -2.145  -3.113  0.00  0.00    -0.059 A 
ATOM     58  H   LIG d   1       3.284  -2.260  -1.544  0.00  0.00     0.062 H 
ATOM     59  H   LIG d   1       5.347  -2.934  -2.705  0.00  0.00     0.062 H 
ENDBRANCH  46  49
ENDBRANCH  43  46
ENDBRANCH  21  43
TORSDOF 8
ENDMDL
MODEL 9
REMARK VINA RESULT:      -6.1      3.160      4.783
REMARK  8 active torsions:
REMARK  status: ('A' for Active; 'I' for Inactive)
REMARK    1  A    between atoms: C_1  and  C_2 
REMARK    2  A    between atoms: C_17  and  C_20 
REMARK    3  A    between atoms: C_20  and  C_21 
REMARK    4  A    between atoms: C_21  and  S_22 
REMARK    5  A    between atoms: S_22  and  C_23 
REMARK    6  A    between atoms: N_26  and  C_29 
REMARK    7  A    between atoms: C_29  and  C_30 
REMARK    8  A    between atoms: C_30  and  C_31 
ROOT
ATOM      1  C   LIG d   1       3.184  -3.823 -12.216  0.00  0.00    -0.049 A 
ATOM      2  C   LIG d   1       3.546  -4.094 -10.908  0.00  0.00    -0.051 A 
ATOM      3  C   LIG d   1       4.526  -3.346 -10.294  0.00  0.00     0.005 A 
ATOM      4  C   LIG d   1       5.161  -2.314 -10.976  0.00  0.00     0.057 A 
ATOM      5  C   LIG d   1       4.792  -2.046 -12.293  0.00  0.00     0.063 A 
ATOM      6  C   LIG d   1       3.812  -2.803 -12.907  0.00  0.00    -0.039 A 
ATOM      7 CL   LIG d   1       5.569  -0.764 -13.168  0.00  0.00    -0.082 Cl
ATOM      8  N   LIG d   1       6.111  -1.704 -10.152  0.00  0.00    -0.282 N 
ATOM      9  C   LIG d   1       6.162  -2.268  -8.931  0.00  0.00     0.243 A 
ATOM     10  O   LIG d   1       6.888  -1.947  -8.014  0.00  0.00    -0.273 OA
ATOM     11  C   LIG d   1       5.142  -3.374  -8.925  0.00  0.00     0.136 A 
ATOM     12  C   LIG d   1       4.089  -3.162  -7.829  0.00  0.00     0.080 A 
ATOM     13  H   LIG d   1       3.214  -2.621  -8.188  0.00  0.00     0.043 H 
ATOM     14  C   LIG d   1       3.752  -4.595  -7.329  0.00  0.00     0.065 A 
ATOM     15  H   LIG d   1       2.689  -4.826  -7.398  0.00  0.00     0.042 H 
ATOM     16  C   LIG d   1       4.620  -5.531  -8.196  0.00  0.00     0.021 C 
ATOM     17  H   LIG d   1       4.048  -5.899  -9.047  0.00  0.00     0.047 H 
ATOM     18  N   LIG d   1       5.764  -4.680  -8.639  0.00  0.00    -0.295 N 
ATOM     19  C   LIG d   1       4.257  -4.597  -5.905  0.00  0.00     0.227 A 
ATOM     20  O   LIG d   1       4.199  -5.537  -5.142  0.00  0.00    -0.275 OA
ATOM     21  N   LIG d   1       4.779  -3.398  -5.617  0.00  0.00    -0.241 N 
ATOM     22  C   LIG d   1       4.731  -2.501  -6.630  0.00  0.00     0.228 A 
ATOM     23  O   LIG d   1       5.135  -1.359  -6.592  0.00  0.00    -0.275 OA
ATOM     24  H   LIG d   1       3.059  -4.893 -10.368  0.00  0.00     0.062 H 
ATOM     25  H   LIG d   1       3.534  -2.595 -13.928  0.00  0.00     0.064 H 
ATOM     26  H   LIG d   1       6.669  -0.960 -10.429  0.00  0.00     0.155 HD
ATOM     27  H   LIG d   1       6.196  -5.064  -9.467  0.00  0.00     0.123 HD
ENDROOT
BRANCH  16  28
ATOM     28  C   LIG d   1       5.138  -6.702  -7.359  0.00  0.00    -0.028 C 
ATOM     29  H   LIG d   1       6.189  -6.877  -7.588  0.00  0.00     0.029 H 
ATOM     30  H   LIG d   1       5.032  -6.467  -6.299  0.00  0.00     0.029 H 
BRANCH  28  31
ATOM     31  C   LIG d   1       4.329  -7.960  -7.684  0.00  0.00    -0.005 C 
ATOM     32  H   LIG d   1       3.268  -7.755  -7.548  0.00  0.00     0.038 H 
ATOM     33  H   LIG d   1       4.515  -8.252  -8.717  0.00  0.00     0.038 H 
BRANCH  31  34
ATOM     34  S   LIG d   1       4.832  -9.305  -6.575  0.00  0.00    -0.164 SA
BRANCH  34  35
ATOM     35  C   LIG d   1       5.910  -8.494  -5.363  0.00  0.00    -0.018 C 
ATOM     36  H   LIG d   1       5.389  -7.642  -4.925  0.00  0.00     0.034 H 
ATOM     37  H   LIG d   1       6.171  -9.202  -4.577  0.00  0.00     0.034 H 
ATOM     38  H   LIG d   1       6.819  -8.148  -5.857  0.00  0.00     0.034 H 
ENDBRANCH  34  35
ENDBRANCH  31  34
ENDBRANCH  28  31
ENDBRANCH  16  28
BRANCH   1  39
ATOM     39  C   LIG d   1       2.112  -4.642 -12.888  0.00  0.00    -0.040 C 
ATOM     40  H   LIG d   1       2.445  -4.928 -13.885  0.00  0.00     0.028 H 
ATOM     41  H   LIG d   1       1.916  -5.537 -12.299  0.00  0.00     0.028 H 
ATOM     42  H   LIG d   1       1.199  -4.050 -12.965  0.00  0.00     0.028 H 
ENDBRANCH   1  39
BRANCH  21  43
ATOM     43  C   LIG d   1       5.352  -3.078  -4.308  0.00  0.00     0.026 C 
ATOM     44  H   LIG d   1       6.010  -3.887  -3.991  0.00  0.00     0.047 H 
ATOM     45  H   LIG d   1       5.923  -2.151  -4.377  0.00  0.00     0.047 H 
BRANCH  43  46
ATOM     46  C   LIG d   1       4.226  -2.907  -3.286  0.00  0.00    -0.011 C 
ATOM     47  H   LIG d   1       3.302  -3.319  -3.693  0.00  0.00     0.033 H 
ATOM     48  H   LIG d   1       4.486  -3.435  -2.369  0.00  0.00     0.033 H 
BRANCH  46  49
ATOM     49  C   LIG d   1       4.036  -1.443  -2.988  0.00  0.00    -0.046 A 
ATOM     50  C   LIG d   1       3.184  -0.683  -3.769  0.00  0.00    -0.059 A 
ATOM     51  C   LIG d   1       3.007   0.659  -3.492  0.00  0.00    -0.061 A 
ATOM     52  H   LIG d   1       2.656  -1.140  -4.593  0.00  0.00     0.062 H 
ATOM     53  C   LIG d   1       3.687   1.245  -2.442  0.00  0.00    -0.062 A 
ATOM     54  H   LIG d   1       2.339   1.252  -4.099  0.00  0.00     0.062 H 
ATOM     55  C   LIG d   1       4.543   0.486  -1.664  0.00  0.00    -0.061 A 
ATOM     56  H   LIG d   1       3.551   2.295  -2.227  0.00  0.00     0.062 H 
ATOM     57  C   LIG d   1       4.717  -0.857  -1.938  0.00  0.00    -0.059 A 
ATOM     58  H   LIG d   1       5.074   0.944  -0.842  0.00  0.00     0.062 H 
ATOM     59  H   LIG d   1       5.385  -1.449  -1.330  0.00  0.00     0.062 H 
ENDBRANCH  46  49
ENDBRANCH  43  46
ENDBRANCH  21  43
TORSDOF 8
ENDMDL
