MODEL 1
REMARK VINA RESULT:      -5.3      0.000      0.000
REMARK  7 active torsions:
REMARK  status: ('A' for Active; 'I' for Inactive)
REMARK    1  A    between atoms: C_1  and  C_2 
REMARK    2  A    between atoms: C_2  and  C_3 
REMARK    3  A    between atoms: C_3  and  C_4 
REMARK    4  A    between atoms: C_4  and  C_6 
REMARK    5  A    between atoms: C_4  and  C_7 
REMARK    6  A    between atoms: C_7  and  C_16 
REMARK    7  A    between atoms: C_16  and  C_17 
ROOT
ATOM      1  C   LIG d   1       5.134  -0.444  -3.202  0.00  0.00     0.126 A 
ATOM      2  C   LIG d   1       4.633  -0.723  -4.606  0.00  0.00     0.236 A 
ATOM      3  N   LIG d   1       3.722   0.128  -5.124  0.00  0.00    -0.239 N 
ATOM      4  C   LIG d   1       3.268   1.183  -4.438  0.00  0.00     0.312 A 
ATOM      5  O   LIG d   1       2.448   1.897  -4.981  0.00  0.00    -0.252 OA
ATOM      6  N   LIG d   1       3.649   1.508  -3.198  0.00  0.00    -0.239 N 
ATOM      7  C   LIG d   1       4.554   0.776  -2.512  0.00  0.00     0.236 A 
ATOM      8  O   LIG d   1       4.889   1.083  -1.389  0.00  0.00    -0.274 OA
ATOM      9  O   LIG d   1       5.038  -1.674  -5.241  0.00  0.00    -0.274 OA
ATOM     10  H   LIG d   1       3.387  -0.030  -6.021  0.00  0.00     0.159 HD
ATOM     11  H   LIG d   1       3.264   2.294  -2.778  0.00  0.00     0.159 HD
ENDROOT
BRANCH   1  12
ATOM     12  C   LIG d   1       6.654  -0.278  -3.262  0.00  0.00    -0.021 C 
ATOM     13  H   LIG d   1       7.012   0.137  -2.320  0.00  0.00     0.031 H 
BRANCH  12  14
ATOM     14  C   LIG d   1       7.019   0.668  -4.408  0.00  0.00    -0.049 C 
ATOM     15  H   LIG d   1       6.108   1.067  -4.854  0.00  0.00     0.027 H 
ATOM     16  H   LIG d   1       7.585   0.122  -5.163  0.00  0.00     0.027 H 
BRANCH  14  17
ATOM     17  C   LIG d   1       7.869   1.819  -3.867  0.00  0.00    -0.056 C 
ATOM     18  H   LIG d   1       8.634   1.423  -3.199  0.00  0.00     0.026 H 
ATOM     19  H   LIG d   1       7.234   2.514  -3.320  0.00  0.00     0.026 H 
BRANCH  17  20
ATOM     20  C   LIG d   1       8.539   2.549  -5.033  0.00  0.00    -0.065 C 
ATOM     21  H   LIG d   1       7.790   3.123  -5.580  0.00  0.00     0.023 H 
ATOM     22  H   LIG d   1       9.304   3.223  -4.649  0.00  0.00     0.023 H 
ATOM     23  H   LIG d   1       8.998   1.821  -5.702  0.00  0.00     0.023 H 
ENDBRANCH  17  20
ENDBRANCH  14  17
ENDBRANCH  12  14
BRANCH  12  24
ATOM     24  C   LIG d   1       7.307  -1.642  -3.499  0.00  0.00    -0.061 C 
ATOM     25  H   LIG d   1       7.952  -1.589  -4.376  0.00  0.00     0.023 H 
ATOM     26  H   LIG d   1       7.902  -1.915  -2.627  0.00  0.00     0.023 H 
ATOM     27  H   LIG d   1       6.534  -2.392  -3.661  0.00  0.00     0.023 H 
ENDBRANCH  12  24
ENDBRANCH   1  12
BRANCH   1  28
ATOM     28  C   LIG d   1       4.825  -1.666  -2.335  0.00  0.00    -0.033 C 
ATOM     29  H   LIG d   1       5.374  -2.528  -2.714  0.00  0.00     0.028 H 
ATOM     30  H   LIG d   1       5.127  -1.468  -1.307  0.00  0.00     0.028 H 
BRANCH  28  31
ATOM     31  C   LIG d   1       3.324  -1.957  -2.380  0.00  0.00    -0.064 C 
ATOM     32  H   LIG d   1       2.972  -2.204  -1.378  0.00  0.00     0.023 H 
ATOM     33  H   LIG d   1       2.794  -1.079  -2.745  0.00  0.00     0.023 H 
ATOM     34  H   LIG d   1       3.138  -2.799  -3.048  0.00  0.00     0.023 H 
ENDBRANCH  28  31
ENDBRANCH   1  28
TORSDOF 7
ENDMDL
MODEL 2
REMARK VINA RESULT:      -5.3      2.794      3.974
REMARK  7 active torsions:
REMARK  status: ('A' for Active; 'I' for Inactive)
REMARK    1  A    between atoms: C_1  and  C_2 
REMARK    2  A    between atoms: C_2  and  C_3 
REMARK    3  A    between atoms: C_3  and  C_4 
REMARK    4  A    between atoms: C_4  and  C_6 
REMARK    5  A    between atoms: C_4  and  C_7 
REMARK    6  A    between atoms: C_7  and  C_16 
REMARK    7  A    between atoms: C_16  and  C_17 
ROOT
ATOM      1  C   LIG d   1       5.081  -1.474  -4.174  0.00  0.00     0.126 A 
ATOM      2  C   LIG d   1       5.469  -0.818  -5.486  0.00  0.00     0.236 A 
ATOM      3  N   LIG d   1       5.213  -1.499  -6.623  0.00  0.00    -0.239 N 
ATOM      4  C   LIG d   1       4.639  -2.708  -6.612  0.00  0.00     0.312 A 
ATOM      5  O   LIG d   1       4.446  -3.249  -7.682  0.00  0.00    -0.252 OA
ATOM      6  N   LIG d   1       4.264  -3.363  -5.508  0.00  0.00    -0.239 N 
ATOM      7  C   LIG d   1       4.438  -2.844  -4.273  0.00  0.00     0.236 A 
ATOM      8  O   LIG d   1       4.093  -3.450  -3.282  0.00  0.00    -0.274 OA
ATOM      9  O   LIG d   1       5.988   0.277  -5.512  0.00  0.00    -0.274 OA
ATOM     10  H   LIG d   1       5.452  -1.100  -7.475  0.00  0.00     0.159 HD
ATOM     11  H   LIG d   1       3.854  -4.238  -5.597  0.00  0.00     0.159 HD
ENDROOT
BRANCH   1  12
ATOM     12  C   LIG d   1       4.108  -0.543  -3.446  0.00  0.00    -0.021 C 
ATOM     13  H   LIG d   1       4.157   0.451  -3.890  0.00  0.00     0.031 H 
BRANCH  12  14
ATOM     14  C   LIG d   1       4.491  -0.461  -1.967  0.00  0.00    -0.049 C 
ATOM     15  H   LIG d   1       5.464  -0.927  -1.817  0.00  0.00     0.027 H 
ATOM     16  H   LIG d   1       3.742  -0.982  -1.369  0.00  0.00     0.027 H 
BRANCH  14  17
ATOM     17  C   LIG d   1       4.555   1.006  -1.538  0.00  0.00    -0.056 C 
ATOM     18  H   LIG d   1       5.586   1.271  -1.302  0.00  0.00     0.026 H 
ATOM     19  H   LIG d   1       3.932   1.155  -0.657  0.00  0.00     0.026 H 
BRANCH  17  20
ATOM     20  C   LIG d   1       4.048   1.892  -2.677  0.00  0.00    -0.065 C 
ATOM     21  H   LIG d   1       3.055   2.268  -2.431  0.00  0.00     0.023 H 
ATOM     22  H   LIG d   1       4.730   2.731  -2.816  0.00  0.00     0.023 H 
ATOM     23  H   LIG d   1       3.997   1.309  -3.596  0.00  0.00     0.023 H 
ENDBRANCH  17  20
ENDBRANCH  14  17
ENDBRANCH  12  14
BRANCH  12  24
ATOM     24  C   LIG d   1       2.685  -1.090  -3.576  0.00  0.00    -0.061 C 
ATOM     25  H   LIG d   1       1.969  -0.286  -3.404  0.00  0.00     0.023 H 
ATOM     26  H   LIG d   1       2.542  -1.495  -4.578  0.00  0.00     0.023 H 
ATOM     27  H   LIG d   1       2.530  -1.878  -2.840  0.00  0.00     0.023 H 
ENDBRANCH  12  24
ENDBRANCH   1  12
BRANCH   1  28
ATOM     28  C   LIG d   1       6.341  -1.605  -3.317  0.00  0.00    -0.033 C 
ATOM     29  H   LIG d   1       6.806  -0.626  -3.203  0.00  0.00     0.028 H 
ATOM     30  H   LIG d   1       6.073  -1.996  -2.335  0.00  0.00     0.028 H 
BRANCH  28  31
ATOM     31  C   LIG d   1       7.323  -2.561  -3.996  0.00  0.00    -0.064 C 
ATOM     32  H   LIG d   1       6.923  -2.866  -4.963  0.00  0.00     0.023 H 
ATOM     33  H   LIG d   1       8.279  -2.058  -4.141  0.00  0.00     0.023 H 
ATOM     34  H   LIG d   1       7.467  -3.441  -3.369  0.00  0.00     0.023 H 
ENDBRANCH  28  31
ENDBRANCH   1  28
TORSDOF 7
ENDMDL
MODEL 3
REMARK VINA RESULT:      -5.0      2.545      4.400
REMARK  7 active torsions:
REMARK  status: ('A' for Active; 'I' for Inactive)
REMARK    1  A    between atoms: C_1  and  C_2 
REMARK    2  A    between atoms: C_2  and  C_3 
REMARK    3  A    between atoms: C_3  and  C_4 
REMARK    4  A    between atoms: C_4  and  C_6 
REMARK    5  A    between atoms: C_4  and  C_7 
REMARK    6  A    between atoms: C_7  and  C_16 
REMARK    7  A    between atoms: C_16  and  C_17 
ROOT
ATOM      1  C   LIG d   1       5.272  -0.825  -4.920  0.00  0.00     0.126 A 
ATOM      2  C   LIG d   1       5.154  -2.327  -4.744  0.00  0.00     0.236 A 
ATOM      3  N   LIG d   1       6.217  -2.982  -4.232  0.00  0.00    -0.239 N 
ATOM      4  C   LIG d   1       7.342  -2.344  -3.886  0.00  0.00     0.312 A 
ATOM      5  O   LIG d   1       8.251  -3.011  -3.433  0.00  0.00    -0.252 OA
ATOM      6  N   LIG d   1       7.539  -1.026  -4.005  0.00  0.00    -0.239 N 
ATOM      7  C   LIG d   1       6.589  -0.202  -4.498  0.00  0.00     0.236 A 
ATOM      8  O   LIG d   1       6.783   0.989  -4.600  0.00  0.00    -0.274 OA
ATOM      9  O   LIG d   1       4.140  -2.919  -5.050  0.00  0.00    -0.274 OA
ATOM     10  H   LIG d   1       6.166  -3.942  -4.110  0.00  0.00     0.159 HD
ATOM     11  H   LIG d   1       8.390  -0.651  -3.728  0.00  0.00     0.159 HD
ENDROOT
BRANCH   1  12
ATOM     12  C   LIG d   1       4.153  -0.162  -4.115  0.00  0.00    -0.021 C 
ATOM     13  H   LIG d   1       4.507   0.789  -3.716  0.00  0.00     0.031 H 
BRANCH  12  14
ATOM     14  C   LIG d   1       3.743  -1.078  -2.960  0.00  0.00    -0.049 C 
ATOM     15  H   LIG d   1       4.051  -2.100  -3.180  0.00  0.00     0.027 H 
ATOM     16  H   LIG d   1       2.660  -1.043  -2.836  0.00  0.00     0.027 H 
BRANCH  14  17
ATOM     17  C   LIG d   1       4.419  -0.607  -1.671  0.00  0.00    -0.056 C 
ATOM     18  H   LIG d   1       5.420  -1.034  -1.609  0.00  0.00     0.026 H 
ATOM     19  H   LIG d   1       3.832  -0.932  -0.813  0.00  0.00     0.026 H 
BRANCH  17  20
ATOM     20  C   LIG d   1       4.514   0.920  -1.675  0.00  0.00    -0.065 C 
ATOM     21  H   LIG d   1       5.103   1.245  -2.533  0.00  0.00     0.023 H 
ATOM     22  H   LIG d   1       3.513   1.347  -1.738  0.00  0.00     0.023 H 
ATOM     23  H   LIG d   1       4.996   1.255  -0.756  0.00  0.00     0.023 H 
ENDBRANCH  17  20
ENDBRANCH  14  17
ENDBRANCH  12  14
BRANCH  12  24
ATOM     24  C   LIG d   1       2.947   0.084  -5.024  0.00  0.00    -0.061 C 
ATOM     25  H   LIG d   1       2.465  -0.866  -5.254  0.00  0.00     0.023 H 
ATOM     26  H   LIG d   1       2.237   0.737  -4.517  0.00  0.00     0.023 H 
ATOM     27  H   LIG d   1       3.279   0.555  -5.948  0.00  0.00     0.023 H 
ENDBRANCH  12  24
ENDBRANCH   1  12
BRANCH   1  28
ATOM     28  C   LIG d   1       5.049  -0.500  -6.398  0.00  0.00    -0.033 C 
ATOM     29  H   LIG d   1       4.077  -0.882  -6.711  0.00  0.00     0.028 H 
ATOM     30  H   LIG d   1       5.077   0.580  -6.541  0.00  0.00     0.028 H 
BRANCH  28  31
ATOM     31  C   LIG d   1       6.148  -1.155  -7.236  0.00  0.00    -0.064 C 
ATOM     32  H   LIG d   1       6.309  -2.177  -6.890  0.00  0.00     0.023 H 
ATOM     33  H   LIG d   1       5.847  -1.170  -8.284  0.00  0.00     0.023 H 
ATOM     34  H   LIG d   1       7.072  -0.587  -7.131  0.00  0.00     0.023 H 
ENDBRANCH  28  31
ENDBRANCH   1  28
TORSDOF 7
ENDMDL
MODEL 4
REMARK VINA RESULT:      -5.0      2.136      3.065
REMARK  7 active torsions:
REMARK  status: ('A' for Active; 'I' for Inactive)
REMARK    1  A    between atoms: C_1  and  C_2 
REMARK    2  A    between atoms: C_2  and  C_3 
REMARK    3  A    between atoms: C_3  and  C_4 
REMARK    4  A    between atoms: C_4  and  C_6 
REMARK    5  A    between atoms: C_4  and  C_7 
REMARK    6  A    between atoms: C_7  and  C_16 
REMARK    7  A    between atoms: C_16  and  C_17 
ROOT
ATOM      1  C   LIG d   1       4.963  -1.055  -3.498  0.00  0.00     0.126 A 
ATOM      2  C   LIG d   1       3.511  -1.457  -3.318  0.00  0.00     0.236 A 
ATOM      3  N   LIG d   1       2.607  -0.927  -4.168  0.00  0.00    -0.239 N 
ATOM      4  C   LIG d   1       2.961  -0.076  -5.139  0.00  0.00     0.312 A 
ATOM      5  O   LIG d   1       2.081   0.354  -5.859  0.00  0.00    -0.252 OA
ATOM      6  N   LIG d   1       4.212   0.336  -5.373  0.00  0.00    -0.239 N 
ATOM      7  C   LIG d   1       5.256  -0.085  -4.627  0.00  0.00     0.236 A 
ATOM      8  O   LIG d   1       6.383   0.298  -4.851  0.00  0.00    -0.274 OA
ATOM      9  O   LIG d   1       3.176  -2.228  -2.444  0.00  0.00    -0.274 OA
ATOM     10  H   LIG d   1       1.672  -1.168  -4.073  0.00  0.00     0.159 HD
ATOM     11  H   LIG d   1       4.374   0.956  -6.102  0.00  0.00     0.159 HD
ENDROOT
BRANCH   1  12
ATOM     12  C   LIG d   1       5.783  -2.325  -3.737  0.00  0.00    -0.021 C 
ATOM     13  H   LIG d   1       5.394  -3.130  -3.113  0.00  0.00     0.031 H 
BRANCH  12  14
ATOM     14  C   LIG d   1       7.247  -2.062  -3.377  0.00  0.00    -0.049 C 
ATOM     15  H   LIG d   1       7.399  -2.250  -2.314  0.00  0.00     0.027 H 
ATOM     16  H   LIG d   1       7.495  -1.024  -3.602  0.00  0.00     0.027 H 
BRANCH  14  17
ATOM     17  C   LIG d   1       8.147  -2.991  -4.194  0.00  0.00    -0.056 C 
ATOM     18  H   LIG d   1       8.780  -2.397  -4.853  0.00  0.00     0.026 H 
ATOM     19  H   LIG d   1       7.530  -3.662  -4.791  0.00  0.00     0.026 H 
BRANCH  17  20
ATOM     20  C   LIG d   1       9.024  -3.812  -3.247  0.00  0.00    -0.065 C 
ATOM     21  H   LIG d   1       9.979  -3.304  -3.105  0.00  0.00     0.023 H 
ATOM     22  H   LIG d   1       8.522  -3.919  -2.286  0.00  0.00     0.023 H 
ATOM     23  H   LIG d   1       9.199  -4.798  -3.678  0.00  0.00     0.023 H 
ENDBRANCH  17  20
ENDBRANCH  14  17
ENDBRANCH  12  14
BRANCH  12  24
ATOM     24  C   LIG d   1       5.683  -2.726  -5.209  0.00  0.00    -0.061 C 
ATOM     25  H   LIG d   1       4.958  -2.087  -5.713  0.00  0.00     0.023 H 
ATOM     26  H   LIG d   1       6.658  -2.612  -5.683  0.00  0.00     0.023 H 
ATOM     27  H   LIG d   1       5.364  -3.765  -5.282  0.00  0.00     0.023 H 
ENDBRANCH  12  24
ENDBRANCH   1  12
BRANCH   1  28
ATOM     28  C   LIG d   1       5.445  -0.418  -2.193  0.00  0.00    -0.033 C 
ATOM     29  H   LIG d   1       5.372  -1.146  -1.385  0.00  0.00     0.028 H 
ATOM     30  H   LIG d   1       6.483  -0.104  -2.305  0.00  0.00     0.028 H 
BRANCH  28  31
ATOM     31  C   LIG d   1       4.576   0.796  -1.866  0.00  0.00    -0.064 C 
ATOM     32  H   LIG d   1       3.768   0.872  -2.594  0.00  0.00     0.023 H 
ATOM     33  H   LIG d   1       4.154   0.684  -0.867  0.00  0.00     0.023 H 
ATOM     34  H   LIG d   1       5.184   1.700  -1.904  0.00  0.00     0.023 H 
ENDBRANCH  28  31
ENDBRANCH   1  28
TORSDOF 7
ENDMDL
MODEL 5
REMARK VINA RESULT:      -4.9      2.437      4.225
REMARK  7 active torsions:
REMARK  status: ('A' for Active; 'I' for Inactive)
REMARK    1  A    between atoms: C_1  and  C_2 
REMARK    2  A    between atoms: C_2  and  C_3 
REMARK    3  A    between atoms: C_3  and  C_4 
REMARK    4  A    between atoms: C_4  and  C_6 
REMARK    5  A    between atoms: C_4  and  C_7 
REMARK    6  A    between atoms: C_7  and  C_16 
REMARK    7  A    between atoms: C_16  and  C_17 
ROOT
ATOM      1  C   LIG d   1       6.016  -1.584  -4.883  0.00  0.00     0.126 A 
ATOM      2  C   LIG d   1       7.169  -1.700  -3.904  0.00  0.00     0.236 A 
ATOM      3  N   LIG d   1       7.810  -0.564  -3.557  0.00  0.00    -0.239 N 
ATOM      4  C   LIG d   1       7.454   0.629  -4.048  0.00  0.00     0.312 A 
ATOM      5  O   LIG d   1       8.085   1.600  -3.681  0.00  0.00    -0.252 OA
ATOM      6  N   LIG d   1       6.453   0.829  -4.913  0.00  0.00    -0.239 N 
ATOM      7  C   LIG d   1       5.695  -0.187  -5.379  0.00  0.00     0.236 A 
ATOM      8  O   LIG d   1       4.793   0.010  -6.163  0.00  0.00    -0.274 OA
ATOM      9  O   LIG d   1       7.503  -2.774  -3.450  0.00  0.00    -0.274 OA
ATOM     10  H   LIG d   1       8.551  -0.613  -2.933  0.00  0.00     0.159 HD
ATOM     11  H   LIG d   1       6.267   1.732  -5.215  0.00  0.00     0.159 HD
ENDROOT
BRANCH   1  12
ATOM     12  C   LIG d   1       4.763  -2.150  -4.211  0.00  0.00    -0.021 C 
ATOM     13  H   LIG d   1       3.878  -1.681  -4.641  0.00  0.00     0.031 H 
BRANCH  12  14
ATOM     14  C   LIG d   1       4.815  -1.862  -2.709  0.00  0.00    -0.049 C 
ATOM     15  H   LIG d   1       5.812  -1.514  -2.440  0.00  0.00     0.027 H 
ATOM     16  H   LIG d   1       4.586  -2.773  -2.157  0.00  0.00     0.027 H 
BRANCH  14  17
ATOM     17  C   LIG d   1       3.787  -0.783  -2.362  0.00  0.00    -0.056 C 
ATOM     18  H   LIG d   1       3.089  -1.172  -1.621  0.00  0.00     0.026 H 
ATOM     19  H   LIG d   1       3.241  -0.499  -3.261  0.00  0.00     0.026 H 
BRANCH  17  20
ATOM     20  C   LIG d   1       4.506   0.442  -1.793  0.00  0.00    -0.065 C 
ATOM     21  H   LIG d   1       4.619   1.192  -2.576  0.00  0.00     0.023 H 
ATOM     22  H   LIG d   1       3.922   0.858  -0.973  0.00  0.00     0.023 H 
ATOM     23  H   LIG d   1       5.489   0.148  -1.427  0.00  0.00     0.023 H 
ENDBRANCH  17  20
ENDBRANCH  14  17
ENDBRANCH  12  14
BRANCH  12  24
ATOM     24  C   LIG d   1       4.701  -3.662  -4.439  0.00  0.00    -0.061 C 
ATOM     25  H   LIG d   1       4.434  -3.862  -5.476  0.00  0.00     0.023 H 
ATOM     26  H   LIG d   1       5.675  -4.101  -4.224  0.00  0.00     0.023 H 
ATOM     27  H   LIG d   1       3.951  -4.098  -3.780  0.00  0.00     0.023 H 
ENDBRANCH  12  24
ENDBRANCH   1  12
BRANCH   1  28
ATOM     28  C   LIG d   1       6.335  -2.455  -6.100  0.00  0.00    -0.033 C 
ATOM     29  H   LIG d   1       6.503  -3.482  -5.777  0.00  0.00     0.028 H 
ATOM     30  H   LIG d   1       5.497  -2.425  -6.797  0.00  0.00     0.028 H 
BRANCH  28  31
ATOM     31  C   LIG d   1       7.593  -1.925  -6.791  0.00  0.00    -0.064 C 
ATOM     32  H   LIG d   1       8.118  -1.246  -6.118  0.00  0.00     0.023 H 
ATOM     33  H   LIG d   1       8.245  -2.758  -7.049  0.00  0.00     0.023 H 
ATOM     34  H   LIG d   1       7.311  -1.390  -7.698  0.00  0.00     0.023 H 
ENDBRANCH  28  31
ENDBRANCH   1  28
TORSDOF 7
ENDMDL
MODEL 6
REMARK VINA RESULT:      -4.9      0.852      2.130
REMARK  7 active torsions:
REMARK  status: ('A' for Active; 'I' for Inactive)
REMARK    1  A    between atoms: C_1  and  C_2 
REMARK    2  A    between atoms: C_2  and  C_3 
REMARK    3  A    between atoms: C_3  and  C_4 
REMARK    4  A    between atoms: C_4  and  C_6 
REMARK    5  A    between atoms: C_4  and  C_7 
REMARK    6  A    between atoms: C_7  and  C_16 
REMARK    7  A    between atoms: C_16  and  C_17 
ROOT
ATOM      1  C   LIG d   1       5.029  -0.410  -3.737  0.00  0.00     0.126 A 
ATOM      2  C   LIG d   1       4.237  -0.633  -5.011  0.00  0.00     0.236 A 
ATOM      3  N   LIG d   1       3.304   0.287  -5.335  0.00  0.00    -0.239 N 
ATOM      4  C   LIG d   1       3.073   1.362  -4.571  0.00  0.00     0.312 A 
ATOM      5  O   LIG d   1       2.215   2.140  -4.938  0.00  0.00    -0.252 OA
ATOM      6  N   LIG d   1       3.720   1.642  -3.434  0.00  0.00    -0.239 N 
ATOM      7  C   LIG d   1       4.689   0.839  -2.945  0.00  0.00     0.236 A 
ATOM      8  O   LIG d   1       5.265   1.105  -1.913  0.00  0.00    -0.274 OA
ATOM      9  O   LIG d   1       4.435  -1.601  -5.714  0.00  0.00    -0.274 OA
ATOM     10  H   LIG d   1       2.784   0.167  -6.145  0.00  0.00     0.159 HD
ATOM     11  H   LIG d   1       3.485   2.447  -2.945  0.00  0.00     0.159 HD
ENDROOT
BRANCH   1  12
ATOM     12  C   LIG d   1       6.514  -0.351  -4.104  0.00  0.00    -0.021 C 
ATOM     13  H   LIG d   1       6.628  -0.491  -5.179  0.00  0.00     0.031 H 
BRANCH  12  14
ATOM     14  C   LIG d   1       7.266  -1.457  -3.362  0.00  0.00    -0.049 C 
ATOM     15  H   LIG d   1       6.554  -2.094  -2.838  0.00  0.00     0.027 H 
ATOM     16  H   LIG d   1       7.953  -1.010  -2.642  0.00  0.00     0.027 H 
BRANCH  14  17
ATOM     17  C   LIG d   1       8.058  -2.296  -4.367  0.00  0.00    -0.056 C 
ATOM     18  H   LIG d   1       9.025  -2.561  -3.938  0.00  0.00     0.026 H 
ATOM     19  H   LIG d   1       8.211  -1.722  -5.280  0.00  0.00     0.026 H 
BRANCH  17  20
ATOM     20  C   LIG d   1       7.278  -3.572  -4.692  0.00  0.00    -0.065 C 
ATOM     21  H   LIG d   1       7.083  -3.615  -5.764  0.00  0.00     0.023 H 
ATOM     22  H   LIG d   1       7.863  -4.442  -4.393  0.00  0.00     0.023 H 
ATOM     23  H   LIG d   1       6.332  -3.566  -4.150  0.00  0.00     0.023 H 
ENDBRANCH  17  20
ENDBRANCH  14  17
ENDBRANCH  12  14
BRANCH  12  24
ATOM     24  C   LIG d   1       7.084   1.011  -3.704  0.00  0.00    -0.061 C 
ATOM     25  H   LIG d   1       6.654   1.320  -2.751  0.00  0.00     0.023 H 
ATOM     26  H   LIG d   1       8.167   0.936  -3.605  0.00  0.00     0.023 H 
ATOM     27  H   LIG d   1       6.839   1.747  -4.469  0.00  0.00     0.023 H 
ENDBRANCH  12  24
ENDBRANCH   1  12
BRANCH   1  28
ATOM     28  C   LIG d   1       4.814  -1.619  -2.825  0.00  0.00    -0.033 C 
ATOM     29  H   LIG d   1       5.123  -2.526  -3.346  0.00  0.00     0.028 H 
ATOM     30  H   LIG d   1       5.408  -1.501  -1.919  0.00  0.00     0.028 H 
BRANCH  28  31
ATOM     31  C   LIG d   1       3.334  -1.723  -2.455  0.00  0.00    -0.064 C 
ATOM     32  H   LIG d   1       3.225  -2.336  -1.561  0.00  0.00     0.023 H 
ATOM     33  H   LIG d   1       2.936  -0.726  -2.263  0.00  0.00     0.023 H 
ATOM     34  H   LIG d   1       2.785  -2.181  -3.278  0.00  0.00     0.023 H 
ENDBRANCH  28  31
ENDBRANCH   1  28
TORSDOF 7
ENDMDL
MODEL 7
REMARK VINA RESULT:      -4.9      2.222      3.677
REMARK  7 active torsions:
REMARK  status: ('A' for Active; 'I' for Inactive)
REMARK    1  A    between atoms: C_1  and  C_2 
REMARK    2  A    between atoms: C_2  and  C_3 
REMARK    3  A    between atoms: C_3  and  C_4 
REMARK    4  A    between atoms: C_4  and  C_6 
REMARK    5  A    between atoms: C_4  and  C_7 
REMARK    6  A    between atoms: C_7  and  C_16 
REMARK    7  A    between atoms: C_16  and  C_17 
ROOT
ATOM      1  C   LIG d   1       4.433  -0.512  -4.027  0.00  0.00     0.126 A 
ATOM      2  C   LIG d   1       4.332  -1.713  -3.105  0.00  0.00     0.236 A 
ATOM      3  N   LIG d   1       4.294  -2.936  -3.675  0.00  0.00    -0.239 N 
ATOM      4  C   LIG d   1       4.342  -3.100  -5.003  0.00  0.00     0.312 A 
ATOM      5  O   LIG d   1       4.303  -4.237  -5.431  0.00  0.00    -0.252 OA
ATOM      6  N   LIG d   1       4.431  -2.105  -5.892  0.00  0.00    -0.239 N 
ATOM      7  C   LIG d   1       4.481  -0.810  -5.513  0.00  0.00     0.236 A 
ATOM      8  O   LIG d   1       4.561   0.081  -6.331  0.00  0.00    -0.274 OA
ATOM      9  O   LIG d   1       4.288  -1.580  -1.901  0.00  0.00    -0.274 OA
ATOM     10  H   LIG d   1       4.229  -3.719  -3.107  0.00  0.00     0.159 HD
ATOM     11  H   LIG d   1       4.461  -2.320  -6.838  0.00  0.00     0.159 HD
ENDROOT
BRANCH   1  12
ATOM     12  C   LIG d   1       5.697   0.267  -3.656  0.00  0.00    -0.021 C 
ATOM     13  H   LIG d   1       6.049   0.822  -4.526  0.00  0.00     0.031 H 
BRANCH  12  14
ATOM     14  C   LIG d   1       6.783  -0.710  -3.200  0.00  0.00    -0.049 C 
ATOM     15  H   LIG d   1       6.320  -1.635  -2.857  0.00  0.00     0.027 H 
ATOM     16  H   LIG d   1       7.353  -0.264  -2.385  0.00  0.00     0.027 H 
BRANCH  14  17
ATOM     17  C   LIG d   1       7.720  -1.013  -4.371  0.00  0.00    -0.056 C 
ATOM     18  H   LIG d   1       8.662  -0.482  -4.230  0.00  0.00     0.026 H 
ATOM     19  H   LIG d   1       7.256  -0.687  -5.301  0.00  0.00     0.026 H 
BRANCH  17  20
ATOM     20  C   LIG d   1       7.987  -2.518  -4.434  0.00  0.00    -0.065 C 
ATOM     21  H   LIG d   1       7.152  -3.014  -4.929  0.00  0.00     0.023 H 
ATOM     22  H   LIG d   1       8.903  -2.702  -4.994  0.00  0.00     0.023 H 
ATOM     23  H   LIG d   1       8.094  -2.910  -3.423  0.00  0.00     0.023 H 
ENDBRANCH  17  20
ENDBRANCH  14  17
ENDBRANCH  12  14
BRANCH  12  24
ATOM     24  C   LIG d   1       5.380   1.244  -2.522  0.00  0.00    -0.061 C 
ATOM     25  H   LIG d   1       4.545   1.881  -2.814  0.00  0.00     0.023 H 
ATOM     26  H   LIG d   1       5.114   0.684  -1.626  0.00  0.00     0.023 H 
ATOM     27  H   LIG d   1       6.254   1.861  -2.320  0.00  0.00     0.023 H 
ENDBRANCH  12  24
ENDBRANCH   1  12
BRANCH   1  28
ATOM     28  C   LIG d   1       3.226   0.391  -3.766  0.00  0.00    -0.033 C 
ATOM     29  H   LIG d   1       3.160   0.609  -2.699  0.00  0.00     0.028 H 
ATOM     30  H   LIG d   1       3.344   1.323  -4.320  0.00  0.00     0.028 H 
BRANCH  28  31
ATOM     31  C   LIG d   1       1.950  -0.317  -4.222  0.00  0.00    -0.064 C 
ATOM     32  H   LIG d   1       1.095   0.341  -4.071  0.00  0.00     0.023 H 
ATOM     33  H   LIG d   1       2.032  -0.569  -5.279  0.00  0.00     0.023 H 
ATOM     34  H   LIG d   1       1.814  -1.230  -3.641  0.00  0.00     0.023 H 
ENDBRANCH  28  31
ENDBRANCH   1  28
TORSDOF 7
ENDMDL
MODEL 8
REMARK VINA RESULT:      -4.8      2.452      4.178
REMARK  7 active torsions:
REMARK  status: ('A' for Active; 'I' for Inactive)
REMARK    1  A    between atoms: C_1  and  C_2 
REMARK    2  A    between atoms: C_2  and  C_3 
REMARK    3  A    between atoms: C_3  and  C_4 
REMARK    4  A    between atoms: C_4  and  C_6 
REMARK    5  A    between atoms: C_4  and  C_7 
REMARK    6  A    between atoms: C_7  and  C_16 
REMARK    7  A    between atoms: C_16  and  C_17 
ROOT
ATOM      1  C   LIG d   1       5.349  -1.784  -4.796  0.00  0.00     0.126 A 
ATOM      2  C   LIG d   1       6.193  -0.636  -4.275  0.00  0.00     0.236 A 
ATOM      3  N   LIG d   1       6.637   0.269  -5.173  0.00  0.00    -0.239 N 
ATOM      4  C   LIG d   1       6.352   0.172  -6.477  0.00  0.00     0.312 A 
ATOM      5  O   LIG d   1       6.793   1.031  -7.215  0.00  0.00    -0.252 OA
ATOM      6  N   LIG d   1       5.618  -0.802  -7.027  0.00  0.00    -0.239 N 
ATOM      7  C   LIG d   1       5.085  -1.800  -6.290  0.00  0.00     0.236 A 
ATOM      8  O   LIG d   1       4.423  -2.675  -6.802  0.00  0.00    -0.274 OA
ATOM      9  O   LIG d   1       6.458  -0.535  -3.096  0.00  0.00    -0.274 OA
ATOM     10  H   LIG d   1       7.179   1.012  -4.864  0.00  0.00     0.159 HD
ATOM     11  H   LIG d   1       5.463  -0.790  -7.985  0.00  0.00     0.159 HD
ENDROOT
BRANCH   1  12
ATOM     12  C   LIG d   1       3.999  -1.747  -4.075  0.00  0.00    -0.021 C 
ATOM     13  H   LIG d   1       3.299  -2.412  -4.582  0.00  0.00     0.031 H 
BRANCH  12  14
ATOM     14  C   LIG d   1       3.450  -0.319  -4.094  0.00  0.00    -0.049 C 
ATOM     15  H   LIG d   1       2.583  -0.271  -4.753  0.00  0.00     0.027 H 
ATOM     16  H   LIG d   1       4.221   0.362  -4.456  0.00  0.00     0.027 H 
BRANCH  14  17
ATOM     17  C   LIG d   1       3.037   0.086  -2.678  0.00  0.00    -0.056 C 
ATOM     18  H   LIG d   1       3.354  -0.682  -1.972  0.00  0.00     0.026 H 
ATOM     19  H   LIG d   1       1.954   0.196  -2.632  0.00  0.00     0.026 H 
BRANCH  17  20
ATOM     20  C   LIG d   1       3.699   1.417  -2.315  0.00  0.00    -0.065 C 
ATOM     21  H   LIG d   1       4.307   1.760  -3.152  0.00  0.00     0.023 H 
ATOM     22  H   LIG d   1       2.930   2.158  -2.095  0.00  0.00     0.023 H 
ATOM     23  H   LIG d   1       4.333   1.280  -1.438  0.00  0.00     0.023 H 
ENDBRANCH  17  20
ENDBRANCH  14  17
ENDBRANCH  12  14
BRANCH  12  24
ATOM     24  C   LIG d   1       4.181  -2.205  -2.627  0.00  0.00    -0.061 C 
ATOM     25  H   LIG d   1       4.443  -1.349  -2.005  0.00  0.00     0.023 H 
ATOM     26  H   LIG d   1       3.251  -2.645  -2.266  0.00  0.00     0.023 H 
ATOM     27  H   LIG d   1       4.978  -2.947  -2.578  0.00  0.00     0.023 H 
ENDBRANCH  12  24
ENDBRANCH   1  12
BRANCH   1  28
ATOM     28  C   LIG d   1       6.047  -3.094  -4.426  0.00  0.00    -0.033 C 
ATOM     29  H   LIG d   1       6.175  -3.145  -3.345  0.00  0.00     0.028 H 
ATOM     30  H   LIG d   1       5.439  -3.936  -4.759  0.00  0.00     0.028 H 
BRANCH  28  31
ATOM     31  C   LIG d   1       7.416  -3.152  -5.106  0.00  0.00    -0.064 C 
ATOM     32  H   LIG d   1       7.397  -2.546  -6.012  0.00  0.00     0.023 H 
ATOM     33  H   LIG d   1       8.176  -2.767  -4.427  0.00  0.00     0.023 H 
ATOM     34  H   LIG d   1       7.649  -4.185  -5.364  0.00  0.00     0.023 H 
ENDBRANCH  28  31
ENDBRANCH   1  28
TORSDOF 7
ENDMDL
MODEL 9
REMARK VINA RESULT:      -4.7      2.420      4.029
REMARK  7 active torsions:
REMARK  status: ('A' for Active; 'I' for Inactive)
REMARK    1  A    between atoms: C_1  and  C_2 
REMARK    2  A    between atoms: C_2  and  C_3 
REMARK    3  A    between atoms: C_3  and  C_4 
REMARK    4  A    between atoms: C_4  and  C_6 
REMARK    5  A    between atoms: C_4  and  C_7 
REMARK    6  A    between atoms: C_7  and  C_16 
REMARK    7  A    between atoms: C_16  and  C_17 
ROOT
ATOM      1  C   LIG d   1       6.049  -1.555  -4.278  0.00  0.00     0.126 A 
ATOM      2  C   LIG d   1       7.372  -2.258  -4.513  0.00  0.00     0.236 A 
ATOM      3  N   LIG d   1       7.992  -2.043  -5.693  0.00  0.00    -0.239 N 
ATOM      4  C   LIG d   1       7.472  -1.243  -6.631  0.00  0.00     0.312 A 
ATOM      5  O   LIG d   1       8.097  -1.106  -7.663  0.00  0.00    -0.252 OA
ATOM      6  N   LIG d   1       6.314  -0.583  -6.514  0.00  0.00    -0.239 N 
ATOM      7  C   LIG d   1       5.548  -0.672  -5.405  0.00  0.00     0.236 A 
ATOM      8  O   LIG d   1       4.502  -0.069  -5.314  0.00  0.00    -0.274 OA
ATOM      9  O   LIG d   1       7.856  -2.985  -3.672  0.00  0.00    -0.274 OA
ATOM     10  H   LIG d   1       8.839  -2.482  -5.866  0.00  0.00     0.159 HD
ATOM     11  H   LIG d   1       6.015  -0.023  -7.248  0.00  0.00     0.159 HD
ENDROOT
BRANCH   1  12
ATOM     12  C   LIG d   1       6.184  -0.692  -3.021  0.00  0.00    -0.021 C 
ATOM     13  H   LIG d   1       6.900  -1.153  -2.340  0.00  0.00     0.031 H 
BRANCH  12  14
ATOM     14  C   LIG d   1       4.824  -0.579  -2.331  0.00  0.00    -0.049 C 
ATOM     15  H   LIG d   1       4.775  -1.287  -1.504  0.00  0.00     0.027 H 
ATOM     16  H   LIG d   1       4.033  -0.801  -3.048  0.00  0.00     0.027 H 
BRANCH  14  17
ATOM     17  C   LIG d   1       4.641   0.843  -1.796  0.00  0.00    -0.056 C 
ATOM     18  H   LIG d   1       5.514   1.443  -2.052  0.00  0.00     0.026 H 
ATOM     19  H   LIG d   1       4.527   0.812  -0.714  0.00  0.00     0.026 H 
BRANCH  17  20
ATOM     20  C   LIG d   1       3.392   1.466  -2.423  0.00  0.00    -0.065 C 
ATOM     21  H   LIG d   1       3.117   0.907  -3.318  0.00  0.00     0.023 H 
ATOM     22  H   LIG d   1       2.571   1.434  -1.707  0.00  0.00     0.023 H 
ATOM     23  H   LIG d   1       3.599   2.502  -2.692  0.00  0.00     0.023 H 
ENDBRANCH  17  20
ENDBRANCH  14  17
ENDBRANCH  12  14
BRANCH  12  24
ATOM     24  C   LIG d   1       6.677   0.702  -3.411  0.00  0.00    -0.061 C 
ATOM     25  H   LIG d   1       6.025   1.117  -4.180  0.00  0.00     0.023 H 
ATOM     26  H   LIG d   1       6.661   1.351  -2.535  0.00  0.00     0.023 H 
ATOM     27  H   LIG d   1       7.694   0.635  -3.796  0.00  0.00     0.023 H 
ENDBRANCH  12  24
ENDBRANCH   1  12
BRANCH   1  28
ATOM     28  C   LIG d   1       4.985  -2.622  -4.007  0.00  0.00    -0.033 C 
ATOM     29  H   LIG d   1       5.265  -3.198  -3.125  0.00  0.00     0.028 H 
ATOM     30  H   LIG d   1       4.023  -2.139  -3.835  0.00  0.00     0.028 H 
BRANCH  28  31
ATOM     31  C   LIG d   1       4.880  -3.555  -5.214  0.00  0.00    -0.064 C 
ATOM     32  H   LIG d   1       5.327  -3.075  -6.085  0.00  0.00     0.023 H 
ATOM     33  H   LIG d   1       5.406  -4.485  -5.002  0.00  0.00     0.023 H 
ATOM     34  H   LIG d   1       3.830  -3.769  -5.417  0.00  0.00     0.023 H 
ENDBRANCH  28  31
ENDBRANCH   1  28
TORSDOF 7
ENDMDL
MODEL 10
REMARK VINA RESULT:      -4.7      2.205      3.917
REMARK  7 active torsions:
REMARK  status: ('A' for Active; 'I' for Inactive)
REMARK    1  A    between atoms: C_1  and  C_2 
REMARK    2  A    between atoms: C_2  and  C_3 
REMARK    3  A    between atoms: C_3  and  C_4 
REMARK    4  A    between atoms: C_4  and  C_6 
REMARK    5  A    between atoms: C_4  and  C_7 
REMARK    6  A    between atoms: C_7  and  C_16 
REMARK    7  A    between atoms: C_16  and  C_17 
ROOT
ATOM      1  C   LIG d   1       5.280  -1.120  -4.387  0.00  0.00     0.126 A 
ATOM      2  C   LIG d   1       5.899   0.264  -4.328  0.00  0.00     0.236 A 
ATOM      3  N   LIG d   1       5.680   0.998  -3.217  0.00  0.00    -0.239 N 
ATOM      4  C   LIG d   1       4.948   0.537  -2.195  0.00  0.00     0.312 A 
ATOM      5  O   LIG d   1       4.802   1.265  -1.233  0.00  0.00    -0.252 OA
ATOM      6  N   LIG d   1       4.364  -0.667  -2.157  0.00  0.00    -0.239 N 
ATOM      7  C   LIG d   1       4.469  -1.545  -3.178  0.00  0.00     0.236 A 
ATOM      8  O   LIG d   1       3.935  -2.631  -3.129  0.00  0.00    -0.274 OA
ATOM      9  O   LIG d   1       6.566   0.694  -5.244  0.00  0.00    -0.274 OA
ATOM     10  H   LIG d   1       6.064   1.886  -3.155  0.00  0.00     0.159 HD
ATOM     11  H   LIG d   1       3.851  -0.916  -1.372  0.00  0.00     0.159 HD
ENDROOT
BRANCH   1  12
ATOM     12  C   LIG d   1       6.407  -2.137  -4.585  0.00  0.00    -0.021 C 
ATOM     13  H   LIG d   1       7.076  -1.788  -5.372  0.00  0.00     0.031 H 
BRANCH  12  14
ATOM     14  C   LIG d   1       5.810  -3.488  -4.983  0.00  0.00    -0.049 C 
ATOM     15  H   LIG d   1       5.205  -3.368  -5.881  0.00  0.00     0.027 H 
ATOM     16  H   LIG d   1       5.187  -3.864  -4.171  0.00  0.00     0.027 H 
BRANCH  14  17
ATOM     17  C   LIG d   1       6.940  -4.482  -5.259  0.00  0.00    -0.056 C 
ATOM     18  H   LIG d   1       7.516  -4.641  -4.348  0.00  0.00     0.026 H 
ATOM     19  H   LIG d   1       7.593  -4.084  -6.036  0.00  0.00     0.026 H 
BRANCH  17  20
ATOM     20  C   LIG d   1       6.346  -5.813  -5.725  0.00  0.00    -0.065 C 
ATOM     21  H   LIG d   1       6.538  -5.943  -6.791  0.00  0.00     0.023 H 
ATOM     22  H   LIG d   1       6.805  -6.631  -5.170  0.00  0.00     0.023 H 
ATOM     23  H   LIG d   1       5.270  -5.811  -5.548  0.00  0.00     0.023 H 
ENDBRANCH  17  20
ENDBRANCH  14  17
ENDBRANCH  12  14
BRANCH  12  24
ATOM     24  C   LIG d   1       7.191  -2.290  -3.280  0.00  0.00    -0.061 C 
ATOM     25  H   LIG d   1       7.604  -3.297  -3.220  0.00  0.00     0.023 H 
ATOM     26  H   LIG d   1       8.004  -1.563  -3.258  0.00  0.00     0.023 H 
ATOM     27  H   LIG d   1       6.526  -2.118  -2.434  0.00  0.00     0.023 H 
ENDBRANCH  12  24
ENDBRANCH   1  12
BRANCH   1  28
ATOM     28  C   LIG d   1       4.367  -1.182  -5.613  0.00  0.00    -0.033 C 
ATOM     29  H   LIG d   1       4.951  -0.983  -6.511  0.00  0.00     0.028 H 
ATOM     30  H   LIG d   1       3.919  -2.173  -5.682  0.00  0.00     0.028 H 
BRANCH  28  31
ATOM     31  C   LIG d   1       3.264  -0.131  -5.480  0.00  0.00    -0.064 C 
ATOM     32  H   LIG d   1       2.654  -0.127  -6.384  0.00  0.00     0.023 H 
ATOM     33  H   LIG d   1       2.637  -0.368  -4.620  0.00  0.00     0.023 H 
ATOM     34  H   LIG d   1       3.713   0.852  -5.341  0.00  0.00     0.023 H 
ENDBRANCH  28  31
ENDBRANCH   1  28
TORSDOF 7
ENDMDL
