MODEL 1
REMARK VINA RESULT:      -6.6      0.000      0.000
REMARK  3 active torsions:
REMARK  status: ('A' for Active; 'I' for Inactive)
REMARK    1  A    between atoms: C_1  and  C_2 
REMARK    2  A    between atoms: C_3  and  O_20 
REMARK    3  A    between atoms: C_10  and  C_11 
ROOT
ATOM      1  C   LIG d   1       6.373  -1.039  -4.735  0.00  0.00     0.034 A 
ATOM      2  C   LIG d   1       6.667  -1.536  -3.477  0.00  0.00     0.123 A 
ATOM      3  C   LIG d   1       5.676  -1.634  -2.504  0.00  0.00    -0.019 A 
ATOM      4  C   LIG d   1       4.399  -1.239  -2.783  0.00  0.00    -0.044 A 
ATOM      5  C   LIG d   1       4.087  -0.736  -4.047  0.00  0.00     0.068 A 
ATOM      6  C   LIG d   1       5.079  -0.633  -5.037  0.00  0.00     0.146 A 
ATOM      7  O   LIG d   1       4.543  -0.124  -6.168  0.00  0.00    -0.451 OA
ATOM      8  C   LIG d   1       3.222   0.138  -6.026  0.00  0.00     0.176 A 
ATOM      9  C   LIG d   1       2.401   0.652  -6.975  0.00  0.00    -0.008 C 
ATOM     10  C   LIG d   1       2.842  -0.232  -4.653  0.00  0.00     0.232 A 
ATOM     11  O   LIG d   1       1.743  -0.144  -4.135  0.00  0.00    -0.283 OA
ATOM     12  H   LIG d   1       5.918  -2.023  -1.526  0.00  0.00     0.065 H 
ATOM     13  H   LIG d   1       3.631  -1.315  -2.028  0.00  0.00     0.063 H 
ATOM     14  H   LIG d   1       1.361   0.905  -6.723  0.00  0.00     0.066 H 
ENDROOT
BRANCH   9  15
ATOM     15  C   LIG d   1       2.901   0.872  -8.340  0.00  0.00    -0.019 A 
ATOM     16  C   LIG d   1       2.862  -0.164  -9.278  0.00  0.00    -0.019 A 
ATOM     17  C   LIG d   1       3.330   0.054 -10.559  0.00  0.00     0.124 A 
ATOM     18  H   LIG d   1       2.465  -1.129  -9.003  0.00  0.00     0.065 H 
ATOM     19  C   LIG d   1       3.845   1.291 -10.911  0.00  0.00    -0.026 A 
ATOM     20  F   LIG d   1       3.290  -0.943 -11.471  0.00  0.00    -0.205 F 
ATOM     21  C   LIG d   1       3.891   2.319  -9.985  0.00  0.00    -0.059 A 
ATOM     22  H   LIG d   1       4.214   1.455 -11.914  0.00  0.00     0.065 H 
ATOM     23  C   LIG d   1       3.424   2.119  -8.704  0.00  0.00    -0.054 A 
ATOM     24  H   LIG d   1       4.295   3.280 -10.267  0.00  0.00     0.062 H 
ATOM     25  H   LIG d   1       3.461   2.922  -7.983  0.00  0.00     0.062 H 
ENDBRANCH   9  15
BRANCH   1  26
ATOM     26  C   LIG d   1       7.455  -0.938  -5.779  0.00  0.00    -0.033 C 
ATOM     27  H   LIG d   1       8.285  -1.610  -5.512  0.00  0.00     0.028 H 
ATOM     28  H   LIG d   1       7.823   0.097  -5.828  0.00  0.00     0.028 H 
ATOM     29  H   LIG d   1       7.049  -1.230  -6.759  0.00  0.00     0.028 H 
ENDBRANCH   1  26
BRANCH   2  30
ATOM     30  O   LIG d   1       7.934  -1.931  -3.188  0.00  0.00    -0.506 OA
ATOM     31  H   LIG d   1       8.143  -2.467  -2.252  0.00  0.00     0.292 HD
ENDBRANCH   2  30
TORSDOF 3
ENDMDL
MODEL 2
REMARK VINA RESULT:      -6.5      3.125      6.761
REMARK  3 active torsions:
REMARK  status: ('A' for Active; 'I' for Inactive)
REMARK    1  A    between atoms: C_1  and  C_2 
REMARK    2  A    between atoms: C_3  and  O_20 
REMARK    3  A    between atoms: C_10  and  C_11 
ROOT
ATOM      1  C   LIG d   1       4.436   0.700  -8.699  0.00  0.00     0.034 A 
ATOM      2  C   LIG d   1       4.660   0.758 -10.065  0.00  0.00     0.123 A 
ATOM      3  C   LIG d   1       5.897   0.409 -10.596  0.00  0.00    -0.019 A 
ATOM      4  C   LIG d   1       6.908   0.003  -9.772  0.00  0.00    -0.044 A 
ATOM      5  C   LIG d   1       6.699  -0.060  -8.394  0.00  0.00     0.068 A 
ATOM      6  C   LIG d   1       5.453   0.291  -7.847  0.00  0.00     0.146 A 
ATOM      7  O   LIG d   1       5.489   0.150  -6.503  0.00  0.00    -0.451 OA
ATOM      8  C   LIG d   1       6.700  -0.283  -6.075  0.00  0.00     0.176 A 
ATOM      9  C   LIG d   1       7.055  -0.521  -4.788  0.00  0.00    -0.008 C 
ATOM     10  C   LIG d   1       7.559  -0.440  -7.259  0.00  0.00     0.232 A 
ATOM     11  O   LIG d   1       8.720  -0.806  -7.294  0.00  0.00    -0.283 OA
ATOM     12  H   LIG d   1       6.060   0.458 -11.663  0.00  0.00     0.065 H 
ATOM     13  H   LIG d   1       7.869  -0.267 -10.185  0.00  0.00     0.063 H 
ATOM     14  H   LIG d   1       8.094  -0.788  -4.546  0.00  0.00     0.066 H 
ENDROOT
BRANCH   9  15
ATOM     15  C   LIG d   1       6.053  -0.422  -3.717  0.00  0.00    -0.019 A 
ATOM     16  C   LIG d   1       5.311  -1.547  -3.343  0.00  0.00    -0.019 A 
ATOM     17  C   LIG d   1       4.375  -1.446  -2.333  0.00  0.00     0.124 A 
ATOM     18  H   LIG d   1       5.472  -2.492  -3.840  0.00  0.00     0.065 H 
ATOM     19  C   LIG d   1       4.164  -0.232  -1.698  0.00  0.00    -0.026 A 
ATOM     20  F   LIG d   1       3.659  -2.531  -1.965  0.00  0.00    -0.205 F 
ATOM     21  C   LIG d   1       4.891   0.887  -2.068  0.00  0.00    -0.059 A 
ATOM     22  H   LIG d   1       3.427  -0.157  -0.912  0.00  0.00     0.065 H 
ATOM     23  C   LIG d   1       5.833   0.800  -3.071  0.00  0.00    -0.054 A 
ATOM     24  H   LIG d   1       4.720   1.829  -1.570  0.00  0.00     0.062 H 
ATOM     25  H   LIG d   1       6.399   1.674  -3.358  0.00  0.00     0.062 H 
ENDBRANCH   9  15
BRANCH   1  26
ATOM     26  C   LIG d   1       3.091   1.082  -8.138  0.00  0.00    -0.033 C 
ATOM     27  H   LIG d   1       2.301   0.542  -8.681  0.00  0.00     0.028 H 
ATOM     28  H   LIG d   1       2.939   2.165  -8.251  0.00  0.00     0.028 H 
ATOM     29  H   LIG d   1       3.049   0.815  -7.071  0.00  0.00     0.028 H 
ENDBRANCH   1  26
BRANCH   2  30
ATOM     30  O   LIG d   1       3.661   1.161 -10.894  0.00  0.00    -0.506 OA
ATOM     31  H   LIG d   1       2.625   0.851 -10.696  0.00  0.00     0.292 HD
ENDBRANCH   2  30
TORSDOF 3
ENDMDL
MODEL 3
REMARK VINA RESULT:      -6.5      2.940      6.468
REMARK  3 active torsions:
REMARK  status: ('A' for Active; 'I' for Inactive)
REMARK    1  A    between atoms: C_1  and  C_2 
REMARK    2  A    between atoms: C_3  and  O_20 
REMARK    3  A    between atoms: C_10  and  C_11 
ROOT
ATOM      1  C   LIG d   1       3.271  -2.283  -9.316  0.00  0.00     0.034 A 
ATOM      2  C   LIG d   1       3.091  -2.158 -10.684  0.00  0.00     0.123 A 
ATOM      3  C   LIG d   1       2.852  -0.912 -11.256  0.00  0.00    -0.019 A 
ATOM      4  C   LIG d   1       2.794   0.204 -10.471  0.00  0.00    -0.044 A 
ATOM      5  C   LIG d   1       2.974   0.094  -9.091  0.00  0.00     0.068 A 
ATOM      6  C   LIG d   1       3.215  -1.159  -8.503  0.00  0.00     0.146 A 
ATOM      7  O   LIG d   1       3.356  -1.015  -7.166  0.00  0.00    -0.451 OA
ATOM      8  C   LIG d   1       3.226   0.277  -6.783  0.00  0.00     0.176 A 
ATOM      9  C   LIG d   1       3.314   0.748  -5.514  0.00  0.00    -0.008 C 
ATOM     10  C   LIG d   1       2.965   1.075  -7.991  0.00  0.00     0.232 A 
ATOM     11  O   LIG d   1       2.786   2.277  -8.066  0.00  0.00    -0.283 OA
ATOM     12  H   LIG d   1       2.713  -0.827 -12.323  0.00  0.00     0.065 H 
ATOM     13  H   LIG d   1       2.609   1.170 -10.916  0.00  0.00     0.063 H 
ATOM     14  H   LIG d   1       3.105   1.808  -5.306  0.00  0.00     0.066 H 
ENDROOT
BRANCH   9  15
ATOM     15  C   LIG d   1       3.687  -0.157  -4.417  0.00  0.00    -0.019 A 
ATOM     16  C   LIG d   1       5.026  -0.512  -4.224  0.00  0.00    -0.019 A 
ATOM     17  C   LIG d   1       5.367  -1.360  -3.188  0.00  0.00     0.124 A 
ATOM     18  H   LIG d   1       5.789  -0.124  -4.880  0.00  0.00     0.065 H 
ATOM     19  C   LIG d   1       4.386  -1.863  -2.348  0.00  0.00    -0.026 A 
ATOM     20  F   LIG d   1       6.660  -1.702  -2.995  0.00  0.00    -0.205 F 
ATOM     21  C   LIG d   1       3.059  -1.519  -2.538  0.00  0.00    -0.059 A 
ATOM     22  H   LIG d   1       4.659  -2.529  -1.542  0.00  0.00     0.065 H 
ATOM     23  C   LIG d   1       2.703  -0.670  -3.564  0.00  0.00    -0.054 A 
ATOM     24  H   LIG d   1       2.301  -1.916  -1.880  0.00  0.00     0.062 H 
ATOM     25  H   LIG d   1       1.667  -0.404  -3.710  0.00  0.00     0.062 H 
ENDBRANCH   9  15
BRANCH   1  26
ATOM     26  C   LIG d   1       3.528  -3.639  -8.710  0.00  0.00    -0.033 C 
ATOM     27  H   LIG d   1       2.714  -4.325  -8.987  0.00  0.00     0.028 H 
ATOM     28  H   LIG d   1       3.574  -3.549  -7.614  0.00  0.00     0.028 H 
ATOM     29  H   LIG d   1       4.484  -4.034  -9.085  0.00  0.00     0.028 H 
ENDBRANCH   1  26
BRANCH   2  30
ATOM     30  O   LIG d   1       3.146  -3.262 -11.473  0.00  0.00    -0.506 OA
ATOM     31  H   LIG d   1       3.489  -3.176 -12.515  0.00  0.00     0.292 HD
ENDBRANCH   2  30
TORSDOF 3
ENDMDL
MODEL 4
REMARK VINA RESULT:      -6.3      3.120      5.855
REMARK  3 active torsions:
REMARK  status: ('A' for Active; 'I' for Inactive)
REMARK    1  A    between atoms: C_1  and  C_2 
REMARK    2  A    between atoms: C_3  and  O_20 
REMARK    3  A    between atoms: C_10  and  C_11 
ROOT
ATOM      1  C   LIG d   1       6.727  -0.793  -8.285  0.00  0.00     0.034 A 
ATOM      2  C   LIG d   1       7.074  -0.697  -9.623  0.00  0.00     0.123 A 
ATOM      3  C   LIG d   1       6.184  -0.161 -10.548  0.00  0.00    -0.019 A 
ATOM      4  C   LIG d   1       4.955   0.277 -10.145  0.00  0.00    -0.044 A 
ATOM      5  C   LIG d   1       4.591   0.187  -8.801  0.00  0.00     0.068 A 
ATOM      6  C   LIG d   1       5.481  -0.352  -7.857  0.00  0.00     0.146 A 
ATOM      7  O   LIG d   1       4.913  -0.335  -6.631  0.00  0.00    -0.451 OA
ATOM      8  C   LIG d   1       3.664   0.191  -6.663  0.00  0.00     0.176 A 
ATOM      9  C   LIG d   1       2.834   0.346  -5.603  0.00  0.00    -0.008 C 
ATOM     10  C   LIG d   1       3.371   0.555  -8.059  0.00  0.00     0.232 A 
ATOM     11  O   LIG d   1       2.351   1.051  -8.501  0.00  0.00    -0.283 OA
ATOM     12  H   LIG d   1       6.465  -0.092 -11.589  0.00  0.00     0.065 H 
ATOM     13  H   LIG d   1       4.265   0.693 -10.864  0.00  0.00     0.063 H 
ATOM     14  H   LIG d   1       1.806   0.705  -5.758  0.00  0.00     0.066 H 
ENDROOT
BRANCH   9  15
ATOM     15  C   LIG d   1       3.307   0.034  -4.246  0.00  0.00    -0.019 A 
ATOM     16  C   LIG d   1       3.254  -1.279  -3.768  0.00  0.00    -0.019 A 
ATOM     17  C   LIG d   1       3.705  -1.563  -2.493  0.00  0.00     0.124 A 
ATOM     18  H   LIG d   1       2.865  -2.068  -4.393  0.00  0.00     0.065 H 
ATOM     19  C   LIG d   1       4.199  -0.550  -1.688  0.00  0.00    -0.026 A 
ATOM     20  F   LIG d   1       3.659  -2.831  -2.029  0.00  0.00    -0.205 F 
ATOM     21  C   LIG d   1       4.249   0.753  -2.154  0.00  0.00    -0.059 A 
ATOM     22  H   LIG d   1       4.547  -0.777  -0.690  0.00  0.00     0.065 H 
ATOM     23  C   LIG d   1       3.808   1.052  -3.425  0.00  0.00    -0.054 A 
ATOM     24  H   LIG d   1       4.635   1.537  -1.520  0.00  0.00     0.062 H 
ATOM     25  H   LIG d   1       3.848   2.068  -3.786  0.00  0.00     0.062 H 
ENDBRANCH   9  15
BRANCH   1  26
ATOM     26  C   LIG d   1       7.700  -1.376  -7.293  0.00  0.00    -0.033 C 
ATOM     27  H   LIG d   1       7.197  -1.515  -6.324  0.00  0.00     0.028 H 
ATOM     28  H   LIG d   1       8.552  -0.692  -7.168  0.00  0.00     0.028 H 
ATOM     29  H   LIG d   1       8.061  -2.348  -7.661  0.00  0.00     0.028 H 
ENDBRANCH   1  26
BRANCH   2  30
ATOM     30  O   LIG d   1       8.293  -1.131 -10.035  0.00  0.00    -0.506 OA
ATOM     31  H   LIG d   1       8.368  -1.942 -10.774  0.00  0.00     0.292 HD
ENDBRANCH   2  30
TORSDOF 3
ENDMDL
MODEL 5
REMARK VINA RESULT:      -6.2      3.264      6.639
REMARK  3 active torsions:
REMARK  status: ('A' for Active; 'I' for Inactive)
REMARK    1  A    between atoms: C_1  and  C_2 
REMARK    2  A    between atoms: C_3  and  O_20 
REMARK    3  A    between atoms: C_10  and  C_11 
ROOT
ATOM      1  C   LIG d   1       3.077  -0.889  -8.635  0.00  0.00     0.034 A 
ATOM      2  C   LIG d   1       2.715  -1.375  -9.881  0.00  0.00     0.123 A 
ATOM      3  C   LIG d   1       2.997  -2.690 -10.238  0.00  0.00    -0.019 A 
ATOM      4  C   LIG d   1       3.636  -3.518  -9.360  0.00  0.00    -0.044 A 
ATOM      5  C   LIG d   1       4.008  -3.043  -8.101  0.00  0.00     0.068 A 
ATOM      6  C   LIG d   1       3.729  -1.717  -7.730  0.00  0.00     0.146 A 
ATOM      7  O   LIG d   1       4.179  -1.491  -6.476  0.00  0.00    -0.451 OA
ATOM      8  C   LIG d   1       4.762  -2.591  -5.944  0.00  0.00     0.176 A 
ATOM      9  C   LIG d   1       5.312  -2.688  -4.708  0.00  0.00    -0.008 C 
ATOM     10  C   LIG d   1       4.698  -3.660  -6.954  0.00  0.00     0.232 A 
ATOM     11  O   LIG d   1       5.118  -4.799  -6.861  0.00  0.00    -0.283 OA
ATOM     12  H   LIG d   1       2.709  -3.057 -11.212  0.00  0.00     0.065 H 
ATOM     13  H   LIG d   1       3.855  -4.538  -9.638  0.00  0.00     0.063 H 
ATOM     14  H   LIG d   1       5.837  -3.607  -4.411  0.00  0.00     0.066 H 
ENDROOT
BRANCH   9  15
ATOM     15  C   LIG d   1       5.206  -1.564  -3.766  0.00  0.00    -0.019 A 
ATOM     16  C   LIG d   1       5.995  -0.423  -3.941  0.00  0.00    -0.019 A 
ATOM     17  C   LIG d   1       5.885   0.629  -3.053  0.00  0.00     0.124 A 
ATOM     18  H   LIG d   1       6.686  -0.364  -4.769  0.00  0.00     0.065 H 
ATOM     19  C   LIG d   1       5.003   0.552  -1.987  0.00  0.00    -0.026 A 
ATOM     20  F   LIG d   1       6.643   1.735  -3.221  0.00  0.00    -0.205 F 
ATOM     21  C   LIG d   1       4.223  -0.578  -1.806  0.00  0.00    -0.059 A 
ATOM     22  H   LIG d   1       4.924   1.376  -1.294  0.00  0.00     0.065 H 
ATOM     23  C   LIG d   1       4.317  -1.634  -2.686  0.00  0.00    -0.054 A 
ATOM     24  H   LIG d   1       3.539  -0.631  -0.973  0.00  0.00     0.062 H 
ATOM     25  H   LIG d   1       3.707  -2.513  -2.543  0.00  0.00     0.062 H 
ENDBRANCH   9  15
BRANCH   1  26
ATOM     26  C   LIG d   1       2.766   0.537  -8.262  0.00  0.00    -0.033 C 
ATOM     27  H   LIG d   1       1.766   0.586  -7.805  0.00  0.00     0.028 H 
ATOM     28  H   LIG d   1       2.789   1.167  -9.163  0.00  0.00     0.028 H 
ATOM     29  H   LIG d   1       3.515   0.900  -7.542  0.00  0.00     0.028 H 
ENDBRANCH   1  26
BRANCH   2  30
ATOM     30  O   LIG d   1       2.079  -0.560 -10.762  0.00  0.00    -0.506 OA
ATOM     31  H   LIG d   1       1.513  -0.991 -11.600  0.00  0.00     0.292 HD
ENDBRANCH   2  30
TORSDOF 3
ENDMDL
MODEL 6
REMARK VINA RESULT:      -6.1      1.994      3.288
REMARK  3 active torsions:
REMARK  status: ('A' for Active; 'I' for Inactive)
REMARK    1  A    between atoms: C_1  and  C_2 
REMARK    2  A    between atoms: C_3  and  O_20 
REMARK    3  A    between atoms: C_10  and  C_11 
ROOT
ATOM      1  C   LIG d   1       3.472   0.235  -4.119  0.00  0.00     0.034 A 
ATOM      2  C   LIG d   1       3.827   0.228  -2.781  0.00  0.00     0.123 A 
ATOM      3  C   LIG d   1       4.689  -0.744  -2.281  0.00  0.00    -0.019 A 
ATOM      4  C   LIG d   1       5.194  -1.705  -3.110  0.00  0.00    -0.044 A 
ATOM      5  C   LIG d   1       4.845  -1.711  -4.461  0.00  0.00     0.068 A 
ATOM      6  C   LIG d   1       3.976  -0.736  -4.976  0.00  0.00     0.146 A 
ATOM      7  O   LIG d   1       3.787  -0.944  -6.298  0.00  0.00    -0.451 OA
ATOM      8  C   LIG d   1       4.480  -2.021  -6.741  0.00  0.00     0.176 A 
ATOM      9  C   LIG d   1       4.501  -2.491  -8.013  0.00  0.00    -0.008 C 
ATOM     10  C   LIG d   1       5.200  -2.589  -5.591  0.00  0.00     0.232 A 
ATOM     11  O   LIG d   1       5.930  -3.564  -5.576  0.00  0.00    -0.283 OA
ATOM     12  H   LIG d   1       4.959  -0.738  -1.236  0.00  0.00     0.065 H 
ATOM     13  H   LIG d   1       5.862  -2.459  -2.721  0.00  0.00     0.063 H 
ATOM     14  H   LIG d   1       5.032  -3.426  -8.244  0.00  0.00     0.066 H 
ENDROOT
BRANCH   9  15
ATOM     15  C   LIG d   1       3.814  -1.752  -9.082  0.00  0.00    -0.019 A 
ATOM     16  C   LIG d   1       4.448  -0.675  -9.711  0.00  0.00    -0.019 A 
ATOM     17  C   LIG d   1       3.796   0.010 -10.717  0.00  0.00     0.124 A 
ATOM     18  H   LIG d   1       5.442  -0.382  -9.412  0.00  0.00     0.065 H 
ATOM     19  C   LIG d   1       2.516  -0.362 -11.098  0.00  0.00    -0.026 A 
ATOM     20  F   LIG d   1       4.406   1.049 -11.331  0.00  0.00    -0.205 F 
ATOM     21  C   LIG d   1       1.883  -1.424 -10.475  0.00  0.00    -0.059 A 
ATOM     22  H   LIG d   1       2.010   0.180 -11.883  0.00  0.00     0.065 H 
ATOM     23  C   LIG d   1       2.521  -2.121  -9.473  0.00  0.00    -0.054 A 
ATOM     24  H   LIG d   1       0.885  -1.707 -10.777  0.00  0.00     0.062 H 
ATOM     25  H   LIG d   1       2.025  -2.949  -8.989  0.00  0.00     0.062 H 
ENDBRANCH   9  15
BRANCH   1  26
ATOM     26  C   LIG d   1       2.537   1.293  -4.647  0.00  0.00    -0.033 C 
ATOM     27  H   LIG d   1       3.124   2.102  -5.109  0.00  0.00     0.028 H 
ATOM     28  H   LIG d   1       1.939   1.701  -3.819  0.00  0.00     0.028 H 
ATOM     29  H   LIG d   1       1.869   0.850  -5.400  0.00  0.00     0.028 H 
ENDBRANCH   1  26
BRANCH   2  30
ATOM     30  O   LIG d   1       3.330   1.179  -1.948  0.00  0.00    -0.506 OA
ATOM     31  H   LIG d   1       2.310   1.083  -1.551  0.00  0.00     0.292 HD
ENDBRANCH   2  30
TORSDOF 3
ENDMDL
MODEL 7
REMARK VINA RESULT:      -6.0      4.952      6.982
REMARK  3 active torsions:
REMARK  status: ('A' for Active; 'I' for Inactive)
REMARK    1  A    between atoms: C_1  and  C_2 
REMARK    2  A    between atoms: C_3  and  O_20 
REMARK    3  A    between atoms: C_10  and  C_11 
ROOT
ATOM      1  C   LIG d   1      10.218  -4.277  -3.131  0.00  0.00     0.034 A 
ATOM      2  C   LIG d   1      11.473  -4.730  -3.506  0.00  0.00     0.123 A 
ATOM      3  C   LIG d   1      12.049  -4.311  -4.702  0.00  0.00    -0.019 A 
ATOM      4  C   LIG d   1      11.380  -3.445  -5.520  0.00  0.00    -0.044 A 
ATOM      5  C   LIG d   1      10.115  -2.981  -5.155  0.00  0.00     0.068 A 
ATOM      6  C   LIG d   1       9.524  -3.397  -3.951  0.00  0.00     0.146 A 
ATOM      7  O   LIG d   1       8.310  -2.819  -3.815  0.00  0.00    -0.451 OA
ATOM      8  C   LIG d   1       8.016  -2.015  -4.865  0.00  0.00     0.176 A 
ATOM      9  C   LIG d   1       6.878  -1.296  -5.027  0.00  0.00    -0.008 C 
ATOM     10  C   LIG d   1       9.151  -2.070  -5.799  0.00  0.00     0.232 A 
ATOM     11  O   LIG d   1       9.270  -1.490  -6.863  0.00  0.00    -0.283 OA
ATOM     12  H   LIG d   1      13.027  -4.671  -4.984  0.00  0.00     0.065 H 
ATOM     13  H   LIG d   1      11.828  -3.121  -6.447  0.00  0.00     0.063 H 
ATOM     14  H   LIG d   1       6.707  -0.742  -5.962  0.00  0.00     0.066 H 
ENDROOT
BRANCH   9  15
ATOM     15  C   LIG d   1       5.873  -1.255  -3.955  0.00  0.00    -0.019 A 
ATOM     16  C   LIG d   1       5.789  -0.143  -3.111  0.00  0.00    -0.019 A 
ATOM     17  C   LIG d   1       4.839  -0.112  -2.109  0.00  0.00     0.124 A 
ATOM     18  H   LIG d   1       6.463   0.690  -3.245  0.00  0.00     0.065 H 
ATOM     19  C   LIG d   1       3.978  -1.184  -1.933  0.00  0.00    -0.026 A 
ATOM     20  F   LIG d   1       4.752   0.963  -1.295  0.00  0.00    -0.205 F 
ATOM     21  C   LIG d   1       4.059  -2.290  -2.762  0.00  0.00    -0.059 A 
ATOM     22  H   LIG d   1       3.239  -1.156  -1.146  0.00  0.00     0.065 H 
ATOM     23  C   LIG d   1       4.998  -2.333  -3.770  0.00  0.00    -0.054 A 
ATOM     24  H   LIG d   1       3.385  -3.121  -2.618  0.00  0.00     0.062 H 
ATOM     25  H   LIG d   1       5.060  -3.197  -4.414  0.00  0.00     0.062 H 
ENDBRANCH   9  15
BRANCH   1  26
ATOM     26  C   LIG d   1       9.606  -4.740  -1.834  0.00  0.00    -0.033 C 
ATOM     27  H   LIG d   1       9.998  -5.736  -1.579  0.00  0.00     0.028 H 
ATOM     28  H   LIG d   1       8.513  -4.793  -1.942  0.00  0.00     0.028 H 
ATOM     29  H   LIG d   1       9.861  -4.029  -1.034  0.00  0.00     0.028 H 
ENDBRANCH   1  26
BRANCH   2  30
ATOM     30  O   LIG d   1      12.146  -5.591  -2.700  0.00  0.00    -0.506 OA
ATOM     31  H   LIG d   1      12.046  -5.514  -1.608  0.00  0.00     0.292 HD
ENDBRANCH   2  30
TORSDOF 3
ENDMDL
MODEL 8
REMARK VINA RESULT:      -6.0      4.149      6.052
REMARK  3 active torsions:
REMARK  status: ('A' for Active; 'I' for Inactive)
REMARK    1  A    between atoms: C_1  and  C_2 
REMARK    2  A    between atoms: C_3  and  O_20 
REMARK    3  A    between atoms: C_10  and  C_11 
ROOT
ATOM      1  C   LIG d   1       9.004  -0.867  -6.396  0.00  0.00     0.034 A 
ATOM      2  C   LIG d   1      10.274  -0.650  -6.905  0.00  0.00     0.123 A 
ATOM      3  C   LIG d   1      11.055   0.402  -6.435  0.00  0.00    -0.019 A 
ATOM      4  C   LIG d   1      10.575   1.233  -5.463  0.00  0.00    -0.044 A 
ATOM      5  C   LIG d   1       9.298   1.026  -4.940  0.00  0.00     0.068 A 
ATOM      6  C   LIG d   1       8.500  -0.032  -5.407  0.00  0.00     0.146 A 
ATOM      7  O   LIG d   1       7.316  -0.031  -4.757  0.00  0.00    -0.451 OA
ATOM      8  C   LIG d   1       7.238   0.975  -3.854  0.00  0.00     0.176 A 
ATOM      9  C   LIG d   1       6.183   1.246  -3.046  0.00  0.00    -0.008 C 
ATOM     10  C   LIG d   1       8.502   1.726  -3.916  0.00  0.00     0.232 A 
ATOM     11  O   LIG d   1       8.820   2.704  -3.264  0.00  0.00    -0.283 OA
ATOM     12  H   LIG d   1      12.043   0.561  -6.840  0.00  0.00     0.065 H 
ATOM     13  H   LIG d   1      11.182   2.048  -5.100  0.00  0.00     0.063 H 
ATOM     14  H   LIG d   1       6.194   2.143  -2.410  0.00  0.00     0.066 H 
ENDROOT
BRANCH   9  15
ATOM     15  C   LIG d   1       5.025   0.340  -3.019  0.00  0.00    -0.019 A 
ATOM     16  C   LIG d   1       3.894   0.623  -3.790  0.00  0.00    -0.019 A 
ATOM     17  C   LIG d   1       2.812  -0.236  -3.761  0.00  0.00     0.124 A 
ATOM     18  H   LIG d   1       3.866   1.508  -4.407  0.00  0.00     0.065 H 
ATOM     19  C   LIG d   1       2.845  -1.370  -2.965  0.00  0.00    -0.026 A 
ATOM     20  F   LIG d   1       1.719   0.031  -4.509  0.00  0.00    -0.205 F 
ATOM     21  C   LIG d   1       3.960  -1.652  -2.195  0.00  0.00    -0.059 A 
ATOM     22  H   LIG d   1       1.995  -2.036  -2.943  0.00  0.00     0.065 H 
ATOM     23  C   LIG d   1       5.049  -0.808  -2.217  0.00  0.00    -0.054 A 
ATOM     24  H   LIG d   1       3.977  -2.537  -1.576  0.00  0.00     0.062 H 
ATOM     25  H   LIG d   1       5.918  -1.030  -1.615  0.00  0.00     0.062 H 
ENDBRANCH   9  15
BRANCH   1  26
ATOM     26  C   LIG d   1       8.169  -2.010  -6.914  0.00  0.00    -0.033 C 
ATOM     27  H   LIG d   1       7.131  -1.670  -7.054  0.00  0.00     0.028 H 
ATOM     28  H   LIG d   1       8.189  -2.837  -6.190  0.00  0.00     0.028 H 
ATOM     29  H   LIG d   1       8.575  -2.354  -7.876  0.00  0.00     0.028 H 
ENDBRANCH   1  26
BRANCH   2  30
ATOM     30  O   LIG d   1      10.761  -1.470  -7.872  0.00  0.00    -0.506 OA
ATOM     31  H   LIG d   1      11.686  -1.204  -8.404  0.00  0.00     0.292 HD
ENDBRANCH   2  30
TORSDOF 3
ENDMDL
MODEL 9
REMARK VINA RESULT:      -5.8      2.142      2.782
REMARK  3 active torsions:
REMARK  status: ('A' for Active; 'I' for Inactive)
REMARK    1  A    between atoms: C_1  and  C_2 
REMARK    2  A    between atoms: C_3  and  O_20 
REMARK    3  A    between atoms: C_10  and  C_11 
ROOT
ATOM      1  C   LIG d   1       4.379   0.562  -3.210  0.00  0.00     0.034 A 
ATOM      2  C   LIG d   1       4.531   0.140  -1.900  0.00  0.00     0.123 A 
ATOM      3  C   LIG d   1       4.649  -1.214  -1.601  0.00  0.00    -0.019 A 
ATOM      4  C   LIG d   1       4.615  -2.144  -2.601  0.00  0.00    -0.044 A 
ATOM      5  C   LIG d   1       4.461  -1.734  -3.926  0.00  0.00     0.068 A 
ATOM      6  C   LIG d   1       4.341  -0.370  -4.240  0.00  0.00     0.146 A 
ATOM      7  O   LIG d   1       4.204  -0.220  -5.576  0.00  0.00    -0.451 OA
ATOM      8  C   LIG d   1       4.221  -1.411  -6.220  0.00  0.00     0.176 A 
ATOM      9  C   LIG d   1       4.106  -1.599  -7.558  0.00  0.00    -0.008 C 
ATOM     10  C   LIG d   1       4.380  -2.464  -5.204  0.00  0.00     0.232 A 
ATOM     11  O   LIG d   1       4.437  -3.667  -5.380  0.00  0.00    -0.283 OA
ATOM     12  H   LIG d   1       4.768  -1.530  -0.575  0.00  0.00     0.065 H 
ATOM     13  H   LIG d   1       4.706  -3.194  -2.367  0.00  0.00     0.063 H 
ATOM     14  H   LIG d   1       4.046  -2.619  -7.966  0.00  0.00     0.066 H 
ENDROOT
BRANCH   9  15
ATOM     15  C   LIG d   1       4.061  -0.441  -8.463  0.00  0.00    -0.019 A 
ATOM     16  C   LIG d   1       2.995   0.462  -8.396  0.00  0.00    -0.019 A 
ATOM     17  C   LIG d   1       2.963   1.549  -9.247  0.00  0.00     0.124 A 
ATOM     18  H   LIG d   1       2.201   0.311  -7.680  0.00  0.00     0.065 H 
ATOM     19  C   LIG d   1       3.979   1.741 -10.170  0.00  0.00    -0.026 A 
ATOM     20  F   LIG d   1       1.937   2.426  -9.183  0.00  0.00    -0.205 F 
ATOM     21  C   LIG d   1       5.035   0.847 -10.244  0.00  0.00    -0.059 A 
ATOM     22  H   LIG d   1       3.948   2.591 -10.836  0.00  0.00     0.065 H 
ATOM     23  C   LIG d   1       5.083  -0.240  -9.398  0.00  0.00    -0.054 A 
ATOM     24  H   LIG d   1       5.821   1.003 -10.966  0.00  0.00     0.062 H 
ATOM     25  H   LIG d   1       5.907  -0.935  -9.458  0.00  0.00     0.062 H 
ENDBRANCH   9  15
BRANCH   1  26
ATOM     26  C   LIG d   1       4.252   2.031  -3.521  0.00  0.00    -0.033 C 
ATOM     27  H   LIG d   1       4.418   2.194  -4.596  0.00  0.00     0.028 H 
ATOM     28  H   LIG d   1       5.001   2.594  -2.945  0.00  0.00     0.028 H 
ATOM     29  H   LIG d   1       3.244   2.378  -3.249  0.00  0.00     0.028 H 
ENDBRANCH   1  26
BRANCH   2  30
ATOM     30  O   LIG d   1       4.567   1.057  -0.898  0.00  0.00    -0.506 OA
ATOM     31  H   LIG d   1       4.012   2.001  -0.996  0.00  0.00     0.292 HD
ENDBRANCH   2  30
TORSDOF 3
ENDMDL
