MODEL 1
REMARK VINA RESULT:      -6.9      0.000      0.000
REMARK  10 active torsions:
REMARK  status: ('A' for Active; 'I' for Inactive)
REMARK    1  A    between atoms: C_1  and  C_2 
REMARK    2  A    between atoms: C_2  and  O_3 
REMARK    3  A    between atoms: O_3  and  C_4 
REMARK    4  A    between atoms: C_4  and  C_6 
REMARK    5  A    between atoms: C_9  and  O_12 
REMARK    6  A    between atoms: O_12  and  C_13 
REMARK    7  A    between atoms: C_18  and  O_24 
REMARK    8  A    between atoms: O_24  and  C_25 
REMARK    9  A    between atoms: C_25  and  C_26 
REMARK   10  A    between atoms: C_29  and  C_32 
ROOT
ATOM      1  C   LIG d   1      10.960  -7.921  -2.488  0.00  0.00     0.210 A 
ATOM      2  C   LIG d   1      11.200  -6.612  -2.282  0.00  0.00     0.138 A 
ATOM      3  O   LIG d   1      10.463  -5.644  -2.841  0.00  0.00    -0.459 OA
ATOM      4  C   LIG d   1       9.413  -5.908  -3.646  0.00  0.00     0.142 A 
ATOM      5  C   LIG d   1       8.665  -4.880  -4.205  0.00  0.00     0.023 A 
ATOM      6  C   LIG d   1       7.593  -5.181  -5.027  0.00  0.00     0.124 A 
ATOM      7  C   LIG d   1       7.257  -6.506  -5.299  0.00  0.00    -0.019 A 
ATOM      8  C   LIG d   1       7.983  -7.528  -4.758  0.00  0.00    -0.044 A 
ATOM      9  C   LIG d   1       9.067  -7.241  -3.926  0.00  0.00     0.068 A 
ATOM     10  C   LIG d   1       9.875  -8.314  -3.321  0.00  0.00     0.234 A 
ATOM     11  O   LIG d   1       9.625  -9.490  -3.526  0.00  0.00    -0.283 OA
ATOM     12  H   LIG d   1      12.024  -6.330  -1.644  0.00  0.00     0.107 H 
ATOM     13  H   LIG d   1       8.919  -3.852  -3.998  0.00  0.00     0.069 H 
ATOM     14  H   LIG d   1       6.418  -6.726  -5.942  0.00  0.00     0.065 H 
ATOM     15  H   LIG d   1       7.720  -8.553  -4.971  0.00  0.00     0.063 H 
ENDROOT
BRANCH   1  16
ATOM     16  O   LIG d   1      11.747  -8.863  -1.897  0.00  0.00    -0.449 OA
BRANCH  16  17
ATOM     17  C   LIG d   1      11.870  -8.835  -0.547  0.00  0.00     0.129 A 
ATOM     18  C   LIG d   1      13.066  -8.425   0.033  0.00  0.00    -0.019 A 
ATOM     19  C   LIG d   1      13.194  -8.395   1.403  0.00  0.00    -0.044 A 
ATOM     20  H   LIG d   1      13.893  -8.126  -0.593  0.00  0.00     0.065 H 
ATOM     21  C   LIG d   1      12.121  -8.777   2.212  0.00  0.00     0.059 A 
ATOM     22  H   LIG d   1      14.123  -8.076   1.853  0.00  0.00     0.063 H 
ATOM     23  C   LIG d   1      10.920  -9.189   1.625  0.00  0.00    -0.044 A 
ATOM     24  C   LIG d   1      10.800  -9.216   0.254  0.00  0.00    -0.019 A 
ATOM     25  H   LIG d   1      10.088  -9.485   2.248  0.00  0.00     0.063 H 
ATOM     26  H   LIG d   1       9.872  -9.535  -0.199  0.00  0.00     0.065 H 
BRANCH  21  27
ATOM     27  C   LIG d   1      12.253  -8.747   3.681  0.00  0.00     0.339 C 
ATOM     28  O   LIG d   1      11.587  -7.968   4.334  0.00  0.00    -0.245 OA
BRANCH  27  29
ATOM     29  O   LIG d   1      13.111  -9.583   4.297  0.00  0.00    -0.461 OA
BRANCH  29  30
ATOM     30  C   LIG d   1      13.007 -10.994   3.970  0.00  0.00     0.090 C 
ATOM     31  H   LIG d   1      13.046 -11.120   2.889  0.00  0.00     0.070 H 
ATOM     32  H   LIG d   1      13.833 -11.535   4.430  0.00  0.00     0.070 H 
BRANCH  30  33
ATOM     33  C   LIG d   1      11.680 -11.542   4.500  0.00  0.00    -0.031 C 
ATOM     34  H   LIG d   1      10.922 -11.476   3.719  0.00  0.00     0.026 H 
ATOM     35  H   LIG d   1      11.809 -12.584   4.794  0.00  0.00     0.026 H 
ATOM     36  H   LIG d   1      11.364 -10.957   5.364  0.00  0.00     0.026 H 
ENDBRANCH  30  33
ENDBRANCH  29  30
ENDBRANCH  27  29
ENDBRANCH  21  27
ENDBRANCH  16  17
ENDBRANCH   1  16
BRANCH   6  37
ATOM     37  O   LIG d   1       6.863  -4.176  -5.574  0.00  0.00    -0.487 OA
BRANCH  37  38
ATOM     38  C   LIG d   1       5.482  -4.107  -5.213  0.00  0.00     0.115 C 
ATOM     39  H   LIG d   1       4.877  -3.989  -6.111  0.00  0.00     0.075 H 
ATOM     40  H   LIG d   1       5.194  -5.025  -4.700  0.00  0.00     0.075 H 
BRANCH  38  41
ATOM     41  C   LIG d   1       5.259  -2.929  -4.299  0.00  0.00    -0.010 A 
ATOM     42  C   LIG d   1       6.130  -1.855  -4.337  0.00  0.00    -0.055 A 
ATOM     43  C   LIG d   1       5.933  -0.774  -3.503  0.00  0.00    -0.054 A 
ATOM     44  H   LIG d   1       6.966  -1.862  -5.021  0.00  0.00     0.062 H 
ATOM     45  C   LIG d   1       4.851  -0.766  -2.620  0.00  0.00    -0.026 A 
ATOM     46  H   LIG d   1       6.612   0.065  -3.533  0.00  0.00     0.062 H 
ATOM     47  C   LIG d   1       3.978  -1.853  -2.587  0.00  0.00    -0.054 A 
ATOM     48  C   LIG d   1       4.184  -2.926  -3.431  0.00  0.00    -0.055 A 
ATOM     49  H   LIG d   1       3.140  -1.852  -1.906  0.00  0.00     0.062 H 
ATOM     50  H   LIG d   1       3.505  -3.765  -3.410  0.00  0.00     0.062 H 
BRANCH  45  51
ATOM     51  C   LIG d   1       4.635   0.389  -1.723  0.00  0.00    -0.062 C 
ATOM     52  C   LIG d   1       3.825   1.372  -2.093  0.00  0.00    -0.098 C 
ATOM     53  H   LIG d   1       3.324   1.328  -3.048  0.00  0.00     0.053 H 
ATOM     54  H   LIG d   1       3.667   2.216  -1.438  0.00  0.00     0.053 H 
ATOM     55  H   LIG d   1       5.137   0.433  -0.768  0.00  0.00     0.062 H 
ENDBRANCH  45  51
ENDBRANCH  38  41
ENDBRANCH  37  38
ENDBRANCH   6  37
TORSDOF 10
ENDMDL
MODEL 2
REMARK VINA RESULT:      -6.7      9.499     13.403
REMARK  10 active torsions:
REMARK  status: ('A' for Active; 'I' for Inactive)
REMARK    1  A    between atoms: C_1  and  C_2 
REMARK    2  A    between atoms: C_2  and  O_3 
REMARK    3  A    between atoms: O_3  and  C_4 
REMARK    4  A    between atoms: C_4  and  C_6 
REMARK    5  A    between atoms: C_9  and  O_12 
REMARK    6  A    between atoms: O_12  and  C_13 
REMARK    7  A    between atoms: C_18  and  O_24 
REMARK    8  A    between atoms: O_24  and  C_25 
REMARK    9  A    between atoms: C_25  and  C_26 
REMARK   10  A    between atoms: C_29  and  C_32 
ROOT
ATOM      1  C   LIG d   1      11.153   7.441  -2.251  0.00  0.00     0.210 A 
ATOM      2  C   LIG d   1       9.823   7.229  -2.301  0.00  0.00     0.138 A 
ATOM      3  O   LIG d   1       9.290   6.050  -2.645  0.00  0.00    -0.459 OA
ATOM      4  C   LIG d   1      10.047   4.977  -2.956  0.00  0.00     0.142 A 
ATOM      5  C   LIG d   1       9.462   3.767  -3.302  0.00  0.00     0.023 A 
ATOM      6  C   LIG d   1      10.264   2.683  -3.617  0.00  0.00     0.124 A 
ATOM      7  C   LIG d   1      11.652   2.795  -3.590  0.00  0.00    -0.019 A 
ATOM      8  C   LIG d   1      12.243   3.979  -3.251  0.00  0.00    -0.044 A 
ATOM      9  C   LIG d   1      11.449   5.081  -2.931  0.00  0.00     0.068 A 
ATOM     10  C   LIG d   1      12.046   6.376  -2.560  0.00  0.00     0.234 A 
ATOM     11  O   LIG d   1      13.255   6.530  -2.521  0.00  0.00    -0.283 OA
ATOM     12  H   LIG d   1       9.159   8.045  -2.059  0.00  0.00     0.107 H 
ATOM     13  H   LIG d   1       8.387   3.672  -3.325  0.00  0.00     0.069 H 
ATOM     14  H   LIG d   1      12.265   1.942  -3.837  0.00  0.00     0.065 H 
ATOM     15  H   LIG d   1      13.319   4.062  -3.232  0.00  0.00     0.063 H 
ENDROOT
BRANCH   1  16
ATOM     16  O   LIG d   1      11.639   8.664  -1.900  0.00  0.00    -0.449 OA
BRANCH  16  17
ATOM     17  C   LIG d   1      11.818   8.924  -0.581  0.00  0.00     0.129 A 
ATOM     18  C   LIG d   1      11.290   8.060   0.374  0.00  0.00    -0.019 A 
ATOM     19  C   LIG d   1      11.471   8.320   1.714  0.00  0.00    -0.044 A 
ATOM     20  H   LIG d   1      10.744   7.182   0.063  0.00  0.00     0.065 H 
ATOM     21  C   LIG d   1      12.183   9.454   2.114  0.00  0.00     0.059 A 
ATOM     22  H   LIG d   1      11.061   7.649   2.455  0.00  0.00     0.063 H 
ATOM     23  C   LIG d   1      12.711  10.319   1.151  0.00  0.00    -0.044 A 
ATOM     24  C   LIG d   1      12.528  10.052  -0.187  0.00  0.00    -0.019 A 
ATOM     25  H   LIG d   1      13.263  11.196   1.457  0.00  0.00     0.063 H 
ATOM     26  H   LIG d   1      12.935  10.721  -0.931  0.00  0.00     0.065 H 
BRANCH  21  27
ATOM     27  C   LIG d   1      12.378   9.737   3.548  0.00  0.00     0.339 C 
ATOM     28  O   LIG d   1      12.200  10.861   3.974  0.00  0.00    -0.245 OA
BRANCH  27  29
ATOM     29  O   LIG d   1      12.753   8.750   4.385  0.00  0.00    -0.461 OA
BRANCH  29  30
ATOM     30  C   LIG d   1      11.816   8.383   5.432  0.00  0.00     0.090 C 
ATOM     31  H   LIG d   1      12.319   8.418   6.399  0.00  0.00     0.070 H 
ATOM     32  H   LIG d   1      10.979   9.081   5.433  0.00  0.00     0.070 H 
BRANCH  30  33
ATOM     33  C   LIG d   1      11.298   6.966   5.179  0.00  0.00    -0.031 C 
ATOM     34  H   LIG d   1      11.737   6.283   5.906  0.00  0.00     0.026 H 
ATOM     35  H   LIG d   1      10.212   6.952   5.278  0.00  0.00     0.026 H 
ATOM     36  H   LIG d   1      11.575   6.653   4.171  0.00  0.00     0.026 H 
ENDBRANCH  30  33
ENDBRANCH  29  30
ENDBRANCH  27  29
ENDBRANCH  21  27
ENDBRANCH  16  17
ENDBRANCH   1  16
BRANCH   6  37
ATOM     37  O   LIG d   1       9.691   1.500  -3.956  0.00  0.00    -0.487 OA
BRANCH  37  38
ATOM     38  C   LIG d   1       8.469   1.559  -4.695  0.00  0.00     0.115 C 
ATOM     39  H   LIG d   1       8.161   2.598  -4.804  0.00  0.00     0.075 H 
ATOM     40  H   LIG d   1       8.619   1.119  -5.681  0.00  0.00     0.075 H 
BRANCH  38  41
ATOM     41  C   LIG d   1       7.400   0.792  -3.960  0.00  0.00    -0.010 A 
ATOM     42  C   LIG d   1       7.410  -0.591  -3.977  0.00  0.00    -0.055 A 
ATOM     43  C   LIG d   1       6.434  -1.299  -3.307  0.00  0.00    -0.054 A 
ATOM     44  H   LIG d   1       8.184  -1.118  -4.515  0.00  0.00     0.062 H 
ATOM     45  C   LIG d   1       5.434  -0.616  -2.612  0.00  0.00    -0.026 A 
ATOM     46  H   LIG d   1       6.442  -2.379  -3.321  0.00  0.00     0.062 H 
ATOM     47  C   LIG d   1       5.430   0.778  -2.598  0.00  0.00    -0.054 A 
ATOM     48  C   LIG d   1       6.416   1.475  -3.269  0.00  0.00    -0.055 A 
ATOM     49  H   LIG d   1       4.659   1.312  -2.062  0.00  0.00     0.062 H 
ATOM     50  H   LIG d   1       6.416   2.554  -3.255  0.00  0.00     0.062 H 
BRANCH  45  51
ATOM     51  C   LIG d   1       4.385  -1.369  -1.892  0.00  0.00    -0.062 C 
ATOM     52  C   LIG d   1       3.543  -2.140  -2.567  0.00  0.00    -0.098 C 
ATOM     53  H   LIG d   1       3.624  -2.218  -3.641  0.00  0.00     0.053 H 
ATOM     54  H   LIG d   1       2.776  -2.690  -2.042  0.00  0.00     0.053 H 
ATOM     55  H   LIG d   1       4.303  -1.290  -0.818  0.00  0.00     0.062 H 
ENDBRANCH  45  51
ENDBRANCH  38  41
ENDBRANCH  37  38
ENDBRANCH   6  37
TORSDOF 10
ENDMDL
MODEL 3
REMARK VINA RESULT:      -6.7      7.411     13.711
REMARK  10 active torsions:
REMARK  status: ('A' for Active; 'I' for Inactive)
REMARK    1  A    between atoms: C_1  and  C_2 
REMARK    2  A    between atoms: C_2  and  O_3 
REMARK    3  A    between atoms: O_3  and  C_4 
REMARK    4  A    between atoms: C_4  and  C_6 
REMARK    5  A    between atoms: C_9  and  O_12 
REMARK    6  A    between atoms: O_12  and  C_13 
REMARK    7  A    between atoms: C_18  and  O_24 
REMARK    8  A    between atoms: O_24  and  C_25 
REMARK    9  A    between atoms: C_25  and  C_26 
REMARK   10  A    between atoms: C_29  and  C_32 
ROOT
ATOM      1  C   LIG d   1       1.389  -5.058 -10.506  0.00  0.00     0.210 A 
ATOM      2  C   LIG d   1       1.624  -3.732 -10.465  0.00  0.00     0.138 A 
ATOM      3  O   LIG d   1       2.570  -3.188  -9.689  0.00  0.00    -0.459 OA
ATOM      4  C   LIG d   1       3.369  -3.929  -8.895  0.00  0.00     0.142 A 
ATOM      5  C   LIG d   1       4.344  -3.334  -8.107  0.00  0.00     0.023 A 
ATOM      6  C   LIG d   1       5.150  -4.121  -7.302  0.00  0.00     0.124 A 
ATOM      7  C   LIG d   1       4.992  -5.505  -7.275  0.00  0.00    -0.019 A 
ATOM      8  C   LIG d   1       4.037  -6.106  -8.045  0.00  0.00    -0.044 A 
ATOM      9  C   LIG d   1       3.217  -5.327  -8.862  0.00  0.00     0.068 A 
ATOM     10  C   LIG d   1       2.175  -5.936  -9.708  0.00  0.00     0.234 A 
ATOM     11  O   LIG d   1       1.994  -7.142  -9.723  0.00  0.00    -0.283 OA
ATOM     12  H   LIG d   1       1.022  -3.080 -11.081  0.00  0.00     0.107 H 
ATOM     13  H   LIG d   1       4.473  -2.262  -8.122  0.00  0.00     0.069 H 
ATOM     14  H   LIG d   1       5.628  -6.106  -6.643  0.00  0.00     0.065 H 
ATOM     15  H   LIG d   1       3.918  -7.178  -8.021  0.00  0.00     0.063 H 
ENDROOT
BRANCH   1  16
ATOM     16  O   LIG d   1       0.409  -5.556 -11.311  0.00  0.00    -0.449 OA
BRANCH  16  17
ATOM     17  C   LIG d   1      -0.877  -5.236 -11.022  0.00  0.00     0.129 A 
ATOM     18  C   LIG d   1      -1.452  -5.680  -9.836  0.00  0.00    -0.019 A 
ATOM     19  C   LIG d   1      -2.756  -5.357  -9.538  0.00  0.00    -0.044 A 
ATOM     20  H   LIG d   1      -0.872  -6.275  -9.146  0.00  0.00     0.065 H 
ATOM     21  C   LIG d   1      -3.504  -4.583 -10.430  0.00  0.00     0.059 A 
ATOM     22  H   LIG d   1      -3.202  -5.702  -8.617  0.00  0.00     0.063 H 
ATOM     23  C   LIG d   1      -2.921  -4.138 -11.622  0.00  0.00    -0.044 A 
ATOM     24  C   LIG d   1      -1.616  -4.465 -11.911  0.00  0.00    -0.019 A 
ATOM     25  H   LIG d   1      -3.496  -3.539 -12.313  0.00  0.00     0.063 H 
ATOM     26  H   LIG d   1      -1.166  -4.123 -12.832  0.00  0.00     0.065 H 
BRANCH  21  27
ATOM     27  C   LIG d   1      -4.902  -4.234 -10.116  0.00  0.00     0.339 C 
ATOM     28  O   LIG d   1      -5.160  -3.621  -9.100  0.00  0.00    -0.245 OA
BRANCH  27  29
ATOM     29  O   LIG d   1      -5.891  -4.596 -10.956  0.00  0.00    -0.461 OA
BRANCH  29  30
ATOM     30  C   LIG d   1      -6.839  -3.565 -11.340  0.00  0.00     0.090 C 
ATOM     31  H   LIG d   1      -7.798  -4.024 -11.579  0.00  0.00     0.070 H 
ATOM     32  H   LIG d   1      -6.967  -2.864 -10.515  0.00  0.00     0.070 H 
BRANCH  30  33
ATOM     33  C   LIG d   1      -6.311  -2.819 -12.566  0.00  0.00    -0.031 C 
ATOM     34  H   LIG d   1      -5.337  -3.220 -12.845  0.00  0.00     0.026 H 
ATOM     35  H   LIG d   1      -7.006  -2.946 -13.397  0.00  0.00     0.026 H 
ATOM     36  H   LIG d   1      -6.214  -1.758 -12.332  0.00  0.00     0.026 H 
ENDBRANCH  30  33
ENDBRANCH  29  30
ENDBRANCH  27  29
ENDBRANCH  21  27
ENDBRANCH  16  17
ENDBRANCH   1  16
BRANCH   6  37
ATOM     37  O   LIG d   1       6.103  -3.537  -6.530  0.00  0.00    -0.487 OA
BRANCH  37  38
ATOM     38  C   LIG d   1       6.189  -3.967  -5.170  0.00  0.00     0.115 C 
ATOM     39  H   LIG d   1       5.548  -4.835  -5.023  0.00  0.00     0.075 H 
ATOM     40  H   LIG d   1       7.220  -4.233  -4.937  0.00  0.00     0.075 H 
BRANCH  38  41
ATOM     41  C   LIG d   1       5.740  -2.852  -4.261  0.00  0.00    -0.010 A 
ATOM     42  C   LIG d   1       6.599  -1.804  -3.982  0.00  0.00    -0.055 A 
ATOM     43  C   LIG d   1       6.195  -0.780  -3.150  0.00  0.00    -0.054 A 
ATOM     44  H   LIG d   1       7.587  -1.787  -4.415  0.00  0.00     0.062 H 
ATOM     45  C   LIG d   1       4.916  -0.803  -2.590  0.00  0.00    -0.026 A 
ATOM     46  H   LIG d   1       6.865   0.038  -2.932  0.00  0.00     0.062 H 
ATOM     47  C   LIG d   1       4.055  -1.862  -2.877  0.00  0.00    -0.054 A 
ATOM     48  C   LIG d   1       4.470  -2.878  -3.715  0.00  0.00    -0.055 A 
ATOM     49  H   LIG d   1       3.064  -1.886  -2.447  0.00  0.00     0.062 H 
ATOM     50  H   LIG d   1       3.803  -3.696  -3.941  0.00  0.00     0.062 H 
BRANCH  45  51
ATOM     51  C   LIG d   1       4.477   0.291  -1.698  0.00  0.00    -0.062 C 
ATOM     52  C   LIG d   1       3.790   1.312  -2.191  0.00  0.00    -0.098 C 
ATOM     53  H   LIG d   1       3.550   1.344  -3.242  0.00  0.00     0.053 H 
ATOM     54  H   LIG d   1       3.469   2.111  -1.538  0.00  0.00     0.053 H 
ATOM     55  H   LIG d   1       4.717   0.258  -0.645  0.00  0.00     0.062 H 
ENDBRANCH  45  51
ENDBRANCH  38  41
ENDBRANCH  37  38
ENDBRANCH   6  37
TORSDOF 10
ENDMDL
MODEL 4
REMARK VINA RESULT:      -6.6      7.194     11.063
REMARK  10 active torsions:
REMARK  status: ('A' for Active; 'I' for Inactive)
REMARK    1  A    between atoms: C_1  and  C_2 
REMARK    2  A    between atoms: C_2  and  O_3 
REMARK    3  A    between atoms: O_3  and  C_4 
REMARK    4  A    between atoms: C_4  and  C_6 
REMARK    5  A    between atoms: C_9  and  O_12 
REMARK    6  A    between atoms: O_12  and  C_13 
REMARK    7  A    between atoms: C_18  and  O_24 
REMARK    8  A    between atoms: O_24  and  C_25 
REMARK    9  A    between atoms: C_25  and  C_26 
REMARK   10  A    between atoms: C_29  and  C_32 
ROOT
ATOM      1  C   LIG d   1      11.302   3.387  -4.453  0.00  0.00     0.210 A 
ATOM      2  C   LIG d   1      11.973   2.301  -4.022  0.00  0.00     0.138 A 
ATOM      3  O   LIG d   1      11.578   1.050  -4.293  0.00  0.00    -0.459 OA
ATOM      4  C   LIG d   1      10.481   0.782  -5.030  0.00  0.00     0.142 A 
ATOM      5  C   LIG d   1      10.102  -0.526  -5.298  0.00  0.00     0.023 A 
ATOM      6  C   LIG d   1       8.972  -0.771  -6.057  0.00  0.00     0.124 A 
ATOM      7  C   LIG d   1       8.210   0.283  -6.557  0.00  0.00    -0.019 A 
ATOM      8  C   LIG d   1       8.569   1.576  -6.302  0.00  0.00    -0.044 A 
ATOM      9  C   LIG d   1       9.707   1.840  -5.538  0.00  0.00     0.068 A 
ATOM     10  C   LIG d   1      10.129   3.220  -5.241  0.00  0.00     0.234 A 
ATOM     11  O   LIG d   1       9.498   4.179  -5.653  0.00  0.00    -0.283 OA
ATOM     12  H   LIG d   1      12.865   2.444  -3.429  0.00  0.00     0.107 H 
ATOM     13  H   LIG d   1      10.688  -1.348  -4.914  0.00  0.00     0.069 H 
ATOM     14  H   LIG d   1       7.330   0.077  -7.149  0.00  0.00     0.065 H 
ATOM     15  H   LIG d   1       7.975   2.390  -6.691  0.00  0.00     0.063 H 
ENDROOT
BRANCH   1  16
ATOM     16  O   LIG d   1      11.748   4.636  -4.142  0.00  0.00    -0.449 OA
BRANCH  16  17
ATOM     17  C   LIG d   1      11.615   5.059  -2.860  0.00  0.00     0.129 A 
ATOM     18  C   LIG d   1      10.357   5.389  -2.366  0.00  0.00    -0.019 A 
ATOM     19  C   LIG d   1      10.218   5.818  -1.066  0.00  0.00    -0.044 A 
ATOM     20  H   LIG d   1       9.489   5.303  -3.002  0.00  0.00     0.065 H 
ATOM     21  C   LIG d   1      11.342   5.923  -0.242  0.00  0.00     0.059 A 
ATOM     22  H   LIG d   1       9.241   6.074  -0.682  0.00  0.00     0.063 H 
ATOM     23  C   LIG d   1      12.605   5.591  -0.743  0.00  0.00    -0.044 A 
ATOM     24  C   LIG d   1      12.736   5.161  -2.045  0.00  0.00    -0.019 A 
ATOM     25  H   LIG d   1      13.476   5.670  -0.110  0.00  0.00     0.063 H 
ATOM     26  H   LIG d   1      13.711   4.905  -2.433  0.00  0.00     0.065 H 
BRANCH  21  27
ATOM     27  C   LIG d   1      11.199   6.383   1.152  0.00  0.00     0.339 C 
ATOM     28  O   LIG d   1      10.664   5.666   1.975  0.00  0.00    -0.245 OA
BRANCH  27  29
ATOM     29  O   LIG d   1      11.660   7.596   1.512  0.00  0.00    -0.461 OA
BRANCH  29  30
ATOM     30  C   LIG d   1      11.251   8.725   0.695  0.00  0.00     0.090 C 
ATOM     31  H   LIG d   1      11.696   8.637  -0.296  0.00  0.00     0.070 H 
ATOM     32  H   LIG d   1      10.165   8.736   0.607  0.00  0.00     0.070 H 
BRANCH  30  33
ATOM     33  C   LIG d   1      11.722  10.025   1.350  0.00  0.00    -0.031 C 
ATOM     34  H   LIG d   1      12.367   9.792   2.198  0.00  0.00     0.026 H 
ATOM     35  H   LIG d   1      12.279  10.618   0.624  0.00  0.00     0.026 H 
ATOM     36  H   LIG d   1      10.857  10.592   1.696  0.00  0.00     0.026 H 
ENDBRANCH  30  33
ENDBRANCH  29  30
ENDBRANCH  27  29
ENDBRANCH  21  27
ENDBRANCH  16  17
ENDBRANCH   1  16
BRANCH   6  37
ATOM     37  O   LIG d   1       8.602  -2.051  -6.318  0.00  0.00    -0.487 OA
BRANCH  37  38
ATOM     38  C   LIG d   1       8.454  -2.924  -5.196  0.00  0.00     0.115 C 
ATOM     39  H   LIG d   1       8.464  -3.959  -5.538  0.00  0.00     0.075 H 
ATOM     40  H   LIG d   1       9.277  -2.764  -4.500  0.00  0.00     0.075 H 
BRANCH  38  41
ATOM     41  C   LIG d   1       7.146  -2.637  -4.504  0.00  0.00    -0.010 A 
ATOM     42  C   LIG d   1       7.121  -1.802  -3.401  0.00  0.00    -0.055 A 
ATOM     43  C   LIG d   1       5.928  -1.535  -2.762  0.00  0.00    -0.054 A 
ATOM     44  H   LIG d   1       8.037  -1.358  -3.039  0.00  0.00     0.062 H 
ATOM     45  C   LIG d   1       4.745  -2.109  -3.231  0.00  0.00    -0.026 A 
ATOM     46  H   LIG d   1       5.908  -0.883  -1.901  0.00  0.00     0.062 H 
ATOM     47  C   LIG d   1       4.778  -2.949  -4.344  0.00  0.00    -0.054 A 
ATOM     48  C   LIG d   1       5.978  -3.204  -4.977  0.00  0.00    -0.055 A 
ATOM     49  H   LIG d   1       3.866  -3.396  -4.711  0.00  0.00     0.062 H 
ATOM     50  H   LIG d   1       6.004  -3.851  -5.841  0.00  0.00     0.062 H 
BRANCH  45  51
ATOM     51  C   LIG d   1       3.463  -1.827  -2.550  0.00  0.00    -0.062 C 
ATOM     52  C   LIG d   1       2.680  -0.853  -2.991  0.00  0.00    -0.098 C 
ATOM     53  H   LIG d   1       2.977  -0.267  -3.847  0.00  0.00     0.053 H 
ATOM     54  H   LIG d   1       1.743  -0.647  -2.494  0.00  0.00     0.053 H 
ATOM     55  H   LIG d   1       3.166  -2.414  -1.693  0.00  0.00     0.062 H 
ENDBRANCH  45  51
ENDBRANCH  38  41
ENDBRANCH  37  38
ENDBRANCH   6  37
TORSDOF 10
ENDMDL
MODEL 5
REMARK VINA RESULT:      -6.5      9.880     14.437
REMARK  10 active torsions:
REMARK  status: ('A' for Active; 'I' for Inactive)
REMARK    1  A    between atoms: C_1  and  C_2 
REMARK    2  A    between atoms: C_2  and  O_3 
REMARK    3  A    between atoms: O_3  and  C_4 
REMARK    4  A    between atoms: C_4  and  C_6 
REMARK    5  A    between atoms: C_9  and  O_12 
REMARK    6  A    between atoms: O_12  and  C_13 
REMARK    7  A    between atoms: C_18  and  O_24 
REMARK    8  A    between atoms: O_24  and  C_25 
REMARK    9  A    between atoms: C_25  and  C_26 
REMARK   10  A    between atoms: C_29  and  C_32 
ROOT
ATOM      1  C   LIG d   1      10.125   7.987  -2.801  0.00  0.00     0.210 A 
ATOM      2  C   LIG d   1      10.297   7.238  -1.694  0.00  0.00     0.138 A 
ATOM      3  O   LIG d   1      10.227   5.901  -1.707  0.00  0.00    -0.459 OA
ATOM      4  C   LIG d   1       9.988   5.200  -2.834  0.00  0.00     0.142 A 
ATOM      5  C   LIG d   1       9.927   3.813  -2.813  0.00  0.00     0.023 A 
ATOM      6  C   LIG d   1       9.680   3.120  -3.986  0.00  0.00     0.124 A 
ATOM      7  C   LIG d   1       9.493   3.800  -5.187  0.00  0.00    -0.019 A 
ATOM      8  C   LIG d   1       9.550   5.165  -5.224  0.00  0.00    -0.044 A 
ATOM      9  C   LIG d   1       9.798   5.878  -4.051  0.00  0.00     0.068 A 
ATOM     10  C   LIG d   1       9.868   7.350  -4.047  0.00  0.00     0.234 A 
ATOM     11  O   LIG d   1       9.712   7.995  -5.071  0.00  0.00    -0.283 OA
ATOM     12  H   LIG d   1      10.497   7.736  -0.757  0.00  0.00     0.107 H 
ATOM     13  H   LIG d   1      10.071   3.279  -1.886  0.00  0.00     0.069 H 
ATOM     14  H   LIG d   1       9.302   3.247  -6.094  0.00  0.00     0.065 H 
ATOM     15  H   LIG d   1       9.404   5.688  -6.157  0.00  0.00     0.063 H 
ENDROOT
BRANCH   1  16
ATOM     16  O   LIG d   1      10.203   9.345  -2.728  0.00  0.00    -0.449 OA
BRANCH  16  17
ATOM     17  C   LIG d   1      10.638   9.897  -1.568  0.00  0.00     0.129 A 
ATOM     18  C   LIG d   1       9.718  10.373  -0.639  0.00  0.00    -0.019 A 
ATOM     19  C   LIG d   1      10.155  10.933   0.540  0.00  0.00    -0.044 A 
ATOM     20  H   LIG d   1       8.660  10.298  -0.840  0.00  0.00     0.065 H 
ATOM     21  C   LIG d   1      11.525  11.024   0.803  0.00  0.00     0.059 A 
ATOM     22  H   LIG d   1       9.441  11.302   1.262  0.00  0.00     0.063 H 
ATOM     23  C   LIG d   1      12.447  10.545  -0.134  0.00  0.00    -0.044 A 
ATOM     24  C   LIG d   1      12.001   9.986  -1.310  0.00  0.00    -0.019 A 
ATOM     25  H   LIG d   1      13.506  10.614   0.065  0.00  0.00     0.063 H 
ATOM     26  H   LIG d   1      12.712   9.616  -2.035  0.00  0.00     0.065 H 
BRANCH  21  27
ATOM     27  C   LIG d   1      11.999  11.624   2.064  0.00  0.00     0.339 C 
ATOM     28  O   LIG d   1      12.266  12.809   2.109  0.00  0.00    -0.245 OA
BRANCH  27  29
ATOM     29  O   LIG d   1      12.135  10.859   3.165  0.00  0.00    -0.461 OA
BRANCH  29  30
ATOM     30  C   LIG d   1      13.137  11.270   4.132  0.00  0.00     0.090 C 
ATOM     31  H   LIG d   1      14.124  10.965   3.785  0.00  0.00     0.070 H 
ATOM     32  H   LIG d   1      13.110  12.353   4.246  0.00  0.00     0.070 H 
BRANCH  30  33
ATOM     33  C   LIG d   1      12.845  10.608   5.480  0.00  0.00    -0.031 C 
ATOM     34  H   LIG d   1      12.438   9.610   5.315  0.00  0.00     0.026 H 
ATOM     35  H   LIG d   1      13.767  10.534   6.057  0.00  0.00     0.026 H 
ATOM     36  H   LIG d   1      12.120  11.210   6.030  0.00  0.00     0.026 H 
ENDBRANCH  30  33
ENDBRANCH  29  30
ENDBRANCH  27  29
ENDBRANCH  21  27
ENDBRANCH  16  17
ENDBRANCH   1  16
BRANCH   6  37
ATOM     37  O   LIG d   1       9.619   1.764  -3.964  0.00  0.00    -0.487 OA
BRANCH  37  38
ATOM     38  C   LIG d   1       8.710   1.141  -4.874  0.00  0.00     0.115 C 
ATOM     39  H   LIG d   1       8.342   1.881  -5.583  0.00  0.00     0.075 H 
ATOM     40  H   LIG d   1       9.224   0.345  -5.414  0.00  0.00     0.075 H 
BRANCH  38  41
ATOM     41  C   LIG d   1       7.551   0.559  -4.107  0.00  0.00    -0.010 A 
ATOM     42  C   LIG d   1       7.409  -0.814  -4.012  0.00  0.00    -0.055 A 
ATOM     43  C   LIG d   1       6.350  -1.354  -3.311  0.00  0.00    -0.054 A 
ATOM     44  H   LIG d   1       8.128  -1.465  -4.485  0.00  0.00     0.062 H 
ATOM     45  C   LIG d   1       5.420  -0.511  -2.698  0.00  0.00    -0.026 A 
ATOM     46  H   LIG d   1       6.238  -2.425  -3.237  0.00  0.00     0.062 H 
ATOM     47  C   LIG d   1       5.570   0.872  -2.798  0.00  0.00    -0.054 A 
ATOM     48  C   LIG d   1       6.638   1.399  -3.498  0.00  0.00    -0.055 A 
ATOM     49  H   LIG d   1       4.855   1.530  -2.326  0.00  0.00     0.062 H 
ATOM     50  H   LIG d   1       6.757   2.470  -3.571  0.00  0.00     0.062 H 
BRANCH  45  51
ATOM     51  C   LIG d   1       4.283  -1.082  -1.947  0.00  0.00    -0.062 C 
ATOM     52  C   LIG d   1       3.749  -2.235  -2.329  0.00  0.00    -0.098 C 
ATOM     53  H   LIG d   1       4.147  -2.755  -3.187  0.00  0.00     0.053 H 
ATOM     54  H   LIG d   1       2.918  -2.653  -1.781  0.00  0.00     0.053 H 
ATOM     55  H   LIG d   1       3.886  -0.561  -1.089  0.00  0.00     0.062 H 
ENDBRANCH  45  51
ENDBRANCH  38  41
ENDBRANCH  37  38
ENDBRANCH   6  37
TORSDOF 10
ENDMDL
MODEL 6
REMARK VINA RESULT:      -6.4      7.488     12.041
REMARK  10 active torsions:
REMARK  status: ('A' for Active; 'I' for Inactive)
REMARK    1  A    between atoms: C_1  and  C_2 
REMARK    2  A    between atoms: C_2  and  O_3 
REMARK    3  A    between atoms: O_3  and  C_4 
REMARK    4  A    between atoms: C_4  and  C_6 
REMARK    5  A    between atoms: C_9  and  O_12 
REMARK    6  A    between atoms: O_12  and  C_13 
REMARK    7  A    between atoms: C_18  and  O_24 
REMARK    8  A    between atoms: O_24  and  C_25 
REMARK    9  A    between atoms: C_25  and  C_26 
REMARK   10  A    between atoms: C_29  and  C_32 
ROOT
ATOM      1  C   LIG d   1       9.125   1.570  -5.136  0.00  0.00     0.210 A 
ATOM      2  C   LIG d   1       9.223   1.563  -3.792  0.00  0.00     0.138 A 
ATOM      3  O   LIG d   1       9.432   2.675  -3.076  0.00  0.00    -0.459 OA
ATOM      4  C   LIG d   1       9.551   3.891  -3.646  0.00  0.00     0.142 A 
ATOM      5  C   LIG d   1       9.763   5.025  -2.874  0.00  0.00     0.023 A 
ATOM      6  C   LIG d   1       9.881   6.261  -3.487  0.00  0.00     0.124 A 
ATOM      7  C   LIG d   1       9.789   6.377  -4.872  0.00  0.00    -0.019 A 
ATOM      8  C   LIG d   1       9.582   5.271  -5.646  0.00  0.00    -0.044 A 
ATOM      9  C   LIG d   1       9.460   4.018  -5.043  0.00  0.00     0.068 A 
ATOM     10  C   LIG d   1       9.235   2.800  -5.842  0.00  0.00     0.234 A 
ATOM     11  O   LIG d   1       9.147   2.846  -7.058  0.00  0.00    -0.283 OA
ATOM     12  H   LIG d   1       9.132   0.622  -3.270  0.00  0.00     0.107 H 
ATOM     13  H   LIG d   1       9.834   4.943  -1.800  0.00  0.00     0.069 H 
ATOM     14  H   LIG d   1       9.882   7.347  -5.337  0.00  0.00     0.065 H 
ATOM     15  H   LIG d   1       9.511   5.366  -6.720  0.00  0.00     0.063 H 
ENDROOT
BRANCH   1  16
ATOM     16  O   LIG d   1       8.916   0.407  -5.813  0.00  0.00    -0.449 OA
BRANCH  16  17
ATOM     17  C   LIG d   1       7.883  -0.381  -5.424  0.00  0.00     0.129 A 
ATOM     18  C   LIG d   1       6.587  -0.074  -5.827  0.00  0.00    -0.019 A 
ATOM     19  C   LIG d   1       5.536  -0.871  -5.435  0.00  0.00    -0.044 A 
ATOM     20  H   LIG d   1       6.407   0.787  -6.453  0.00  0.00     0.065 H 
ATOM     21  C   LIG d   1       5.771  -1.989  -4.629  0.00  0.00     0.059 A 
ATOM     22  H   LIG d   1       4.530  -0.633  -5.749  0.00  0.00     0.063 H 
ATOM     23  C   LIG d   1       7.075  -2.293  -4.226  0.00  0.00    -0.044 A 
ATOM     24  C   LIG d   1       8.121  -1.492  -4.623  0.00  0.00    -0.019 A 
ATOM     25  H   LIG d   1       7.260  -3.156  -3.603  0.00  0.00     0.063 H 
ATOM     26  H   LIG d   1       9.128  -1.726  -4.311  0.00  0.00     0.065 H 
BRANCH  21  27
ATOM     27  C   LIG d   1       4.647  -2.845  -4.206  0.00  0.00     0.339 C 
ATOM     28  O   LIG d   1       4.251  -3.732  -4.937  0.00  0.00    -0.245 OA
BRANCH  27  29
ATOM     29  O   LIG d   1       4.061  -2.646  -3.009  0.00  0.00    -0.461 OA
BRANCH  29  30
ATOM     30  C   LIG d   1       3.472  -1.340  -2.775  0.00  0.00     0.090 C 
ATOM     31  H   LIG d   1       3.398  -0.799  -3.718  0.00  0.00     0.070 H 
ATOM     32  H   LIG d   1       2.477  -1.462  -2.347  0.00  0.00     0.070 H 
BRANCH  30  33
ATOM     33  C   LIG d   1       4.351  -0.551  -1.803  0.00  0.00    -0.031 C 
ATOM     34  H   LIG d   1       4.709  -1.215  -1.015  0.00  0.00     0.026 H 
ATOM     35  H   LIG d   1       5.203  -0.132  -2.339  0.00  0.00     0.026 H 
ATOM     36  H   LIG d   1       3.768   0.258  -1.359  0.00  0.00     0.026 H 
ENDBRANCH  30  33
ENDBRANCH  29  30
ENDBRANCH  27  29
ENDBRANCH  21  27
ENDBRANCH  16  17
ENDBRANCH   1  16
BRANCH   6  37
ATOM     37  O   LIG d   1      10.088   7.369  -2.731  0.00  0.00    -0.487 OA
BRANCH  37  38
ATOM     38  C   LIG d   1       9.283   7.515  -1.560  0.00  0.00     0.115 C 
ATOM     39  H   LIG d   1       8.412   8.126  -1.792  0.00  0.00     0.075 H 
ATOM     40  H   LIG d   1       8.956   6.532  -1.219  0.00  0.00     0.075 H 
BRANCH  38  41
ATOM     41  C   LIG d   1      10.089   8.180  -0.474  0.00  0.00    -0.010 A 
ATOM     42  C   LIG d   1      10.864   7.412   0.376  0.00  0.00    -0.055 A 
ATOM     43  C   LIG d   1      11.604   8.014   1.372  0.00  0.00    -0.054 A 
ATOM     44  H   LIG d   1      10.890   6.339   0.261  0.00  0.00     0.062 H 
ATOM     45  C   LIG d   1      11.570   9.402   1.521  0.00  0.00    -0.026 A 
ATOM     46  H   LIG d   1      12.209   7.415   2.037  0.00  0.00     0.062 H 
ATOM     47  C   LIG d   1      10.787  10.171   0.659  0.00  0.00    -0.054 A 
ATOM     48  C   LIG d   1      10.055   9.555  -0.336  0.00  0.00    -0.055 A 
ATOM     49  H   LIG d   1      10.756  11.245   0.769  0.00  0.00     0.062 H 
ATOM     50  H   LIG d   1       9.452  10.150  -1.007  0.00  0.00     0.062 H 
BRANCH  45  51
ATOM     51  C   LIG d   1      12.360  10.054   2.587  0.00  0.00    -0.062 C 
ATOM     52  C   LIG d   1      12.341   9.564   3.819  0.00  0.00    -0.098 C 
ATOM     53  H   LIG d   1      11.749   8.690   4.043  0.00  0.00     0.053 H 
ATOM     54  H   LIG d   1      12.918  10.040   4.598  0.00  0.00     0.053 H 
ATOM     55  H   LIG d   1      12.952  10.929   2.362  0.00  0.00     0.062 H 
ENDBRANCH  45  51
ENDBRANCH  38  41
ENDBRANCH  37  38
ENDBRANCH   6  37
TORSDOF 10
ENDMDL
MODEL 7
REMARK VINA RESULT:      -6.3      6.871     11.537
REMARK  10 active torsions:
REMARK  status: ('A' for Active; 'I' for Inactive)
REMARK    1  A    between atoms: C_1  and  C_2 
REMARK    2  A    between atoms: C_2  and  O_3 
REMARK    3  A    between atoms: O_3  and  C_4 
REMARK    4  A    between atoms: C_4  and  C_6 
REMARK    5  A    between atoms: C_9  and  O_12 
REMARK    6  A    between atoms: O_12  and  C_13 
REMARK    7  A    between atoms: C_18  and  O_24 
REMARK    8  A    between atoms: O_24  and  C_25 
REMARK    9  A    between atoms: C_25  and  C_26 
REMARK   10  A    between atoms: C_29  and  C_32 
ROOT
ATOM      1  C   LIG d   1      10.717   3.354  -5.366  0.00  0.00     0.210 A 
ATOM      2  C   LIG d   1       9.451   3.291  -5.823  0.00  0.00     0.138 A 
ATOM      3  O   LIG d   1       8.820   2.132  -6.051  0.00  0.00    -0.459 OA
ATOM      4  C   LIG d   1       9.402   0.936  -5.827  0.00  0.00     0.142 A 
ATOM      5  C   LIG d   1       8.717  -0.247  -6.068  0.00  0.00     0.023 A 
ATOM      6  C   LIG d   1       9.339  -1.461  -5.829  0.00  0.00     0.124 A 
ATOM      7  C   LIG d   1      10.646  -1.506  -5.349  0.00  0.00    -0.019 A 
ATOM      8  C   LIG d   1      11.334  -0.350  -5.108  0.00  0.00    -0.044 A 
ATOM      9  C   LIG d   1      10.720   0.881  -5.343  0.00  0.00     0.068 A 
ATOM     10  C   LIG d   1      11.426   2.151  -5.095  0.00  0.00     0.234 A 
ATOM     11  O   LIG d   1      12.572   2.168  -4.675  0.00  0.00    -0.283 OA
ATOM     12  H   LIG d   1       8.925   4.214  -6.019  0.00  0.00     0.107 H 
ATOM     13  H   LIG d   1       7.704  -0.220  -6.439  0.00  0.00     0.069 H 
ATOM     14  H   LIG d   1      11.119  -2.459  -5.167  0.00  0.00     0.065 H 
ATOM     15  H   LIG d   1      12.347  -0.390  -4.736  0.00  0.00     0.063 H 
ENDROOT
BRANCH   1  16
ATOM     16  O   LIG d   1      11.311   4.562  -5.158  0.00  0.00    -0.449 OA
BRANCH  16  17
ATOM     17  C   LIG d   1      10.874   5.316  -4.118  0.00  0.00     0.129 A 
ATOM     18  C   LIG d   1      10.947   4.818  -2.821  0.00  0.00    -0.019 A 
ATOM     19  C   LIG d   1      10.506   5.581  -1.764  0.00  0.00    -0.044 A 
ATOM     20  H   LIG d   1      11.355   3.835  -2.644  0.00  0.00     0.065 H 
ATOM     21  C   LIG d   1       9.983   6.857  -1.994  0.00  0.00     0.059 A 
ATOM     22  H   LIG d   1      10.563   5.194  -0.757  0.00  0.00     0.063 H 
ATOM     23  C   LIG d   1       9.911   7.353  -3.300  0.00  0.00    -0.044 A 
ATOM     24  C   LIG d   1      10.356   6.584  -4.352  0.00  0.00    -0.019 A 
ATOM     25  H   LIG d   1       9.508   8.338  -3.482  0.00  0.00     0.063 H 
ATOM     26  H   LIG d   1      10.300   6.967  -5.361  0.00  0.00     0.065 H 
BRANCH  21  27
ATOM     27  C   LIG d   1       9.508   7.677  -0.865  0.00  0.00     0.339 C 
ATOM     28  O   LIG d   1       8.361   8.079  -0.847  0.00  0.00    -0.245 OA
BRANCH  27  29
ATOM     29  O   LIG d   1      10.345   7.981   0.146  0.00  0.00    -0.461 OA
BRANCH  29  30
ATOM     30  C   LIG d   1      11.292   9.057  -0.084  0.00  0.00     0.090 C 
ATOM     31  H   LIG d   1      12.210   8.857   0.469  0.00  0.00     0.070 H 
ATOM     32  H   LIG d   1      11.516   9.123  -1.148  0.00  0.00     0.070 H 
BRANCH  30  33
ATOM     33  C   LIG d   1      10.688  10.378   0.394  0.00  0.00    -0.031 C 
ATOM     34  H   LIG d   1       9.755  10.566  -0.139  0.00  0.00     0.026 H 
ATOM     35  H   LIG d   1      10.489  10.322   1.465  0.00  0.00     0.026 H 
ATOM     36  H   LIG d   1      11.389  11.191   0.197  0.00  0.00     0.026 H 
ENDBRANCH  30  33
ENDBRANCH  29  30
ENDBRANCH  27  29
ENDBRANCH  21  27
ENDBRANCH  16  17
ENDBRANCH   1  16
BRANCH   6  37
ATOM     37  O   LIG d   1       8.669  -2.617  -6.065  0.00  0.00    -0.487 OA
BRANCH  37  38
ATOM     38  C   LIG d   1       8.354  -3.427  -4.931  0.00  0.00     0.115 C 
ATOM     39  H   LIG d   1       8.272  -4.469  -5.240  0.00  0.00     0.075 H 
ATOM     40  H   LIG d   1       9.143  -3.331  -4.185  0.00  0.00     0.075 H 
BRANCH  38  41
ATOM     41  C   LIG d   1       7.044  -2.975  -4.338  0.00  0.00    -0.010 A 
ATOM     42  C   LIG d   1       5.858  -3.525  -4.790  0.00  0.00    -0.055 A 
ATOM     43  C   LIG d   1       4.655  -3.115  -4.252  0.00  0.00    -0.054 A 
ATOM     44  H   LIG d   1       5.872  -4.278  -5.563  0.00  0.00     0.062 H 
ATOM     45  C   LIG d   1       4.638  -2.142  -3.250  0.00  0.00    -0.026 A 
ATOM     46  H   LIG d   1       3.730  -3.545  -4.603  0.00  0.00     0.062 H 
ATOM     47  C   LIG d   1       5.838  -1.591  -2.800  0.00  0.00    -0.054 A 
ATOM     48  C   LIG d   1       7.034  -2.015  -3.344  0.00  0.00    -0.055 A 
ATOM     49  H   LIG d   1       5.831  -0.838  -2.026  0.00  0.00     0.062 H 
ATOM     50  H   LIG d   1       7.964  -1.592  -2.993  0.00  0.00     0.062 H 
BRANCH  45  51
ATOM     51  C   LIG d   1       3.353  -1.698  -2.670  0.00  0.00    -0.062 C 
ATOM     52  C   LIG d   1       2.797  -0.566  -3.081  0.00  0.00    -0.098 C 
ATOM     53  H   LIG d   1       3.283   0.030  -3.839  0.00  0.00     0.053 H 
ATOM     54  H   LIG d   1       1.858  -0.241  -2.658  0.00  0.00     0.053 H 
ATOM     55  H   LIG d   1       2.868  -2.294  -1.912  0.00  0.00     0.062 H 
ENDBRANCH  45  51
ENDBRANCH  38  41
ENDBRANCH  37  38
ENDBRANCH   6  37
TORSDOF 10
ENDMDL
MODEL 8
REMARK VINA RESULT:      -6.2      7.556     12.947
REMARK  10 active torsions:
REMARK  status: ('A' for Active; 'I' for Inactive)
REMARK    1  A    between atoms: C_1  and  C_2 
REMARK    2  A    between atoms: C_2  and  O_3 
REMARK    3  A    between atoms: O_3  and  C_4 
REMARK    4  A    between atoms: C_4  and  C_6 
REMARK    5  A    between atoms: C_9  and  O_12 
REMARK    6  A    between atoms: O_12  and  C_13 
REMARK    7  A    between atoms: C_18  and  O_24 
REMARK    8  A    between atoms: O_24  and  C_25 
REMARK    9  A    between atoms: C_25  and  C_26 
REMARK   10  A    between atoms: C_29  and  C_32 
ROOT
ATOM      1  C   LIG d   1       1.346  -4.313 -10.544  0.00  0.00     0.210 A 
ATOM      2  C   LIG d   1       1.988  -5.452 -10.216  0.00  0.00     0.138 A 
ATOM      3  O   LIG d   1       3.092  -5.468  -9.460  0.00  0.00    -0.459 OA
ATOM      4  C   LIG d   1       3.642  -4.344  -8.958  0.00  0.00     0.142 A 
ATOM      5  C   LIG d   1       4.785  -4.396  -8.172  0.00  0.00     0.023 A 
ATOM      6  C   LIG d   1       5.327  -3.225  -7.670  0.00  0.00     0.124 A 
ATOM      7  C   LIG d   1       4.736  -1.994  -7.945  0.00  0.00    -0.019 A 
ATOM      8  C   LIG d   1       3.611  -1.925  -8.717  0.00  0.00    -0.044 A 
ATOM      9  C   LIG d   1       3.052  -3.097  -9.230  0.00  0.00     0.068 A 
ATOM     10  C   LIG d   1       1.839  -3.066 -10.067  0.00  0.00     0.234 A 
ATOM     11  O   LIG d   1       1.282  -2.016 -10.339  0.00  0.00    -0.283 OA
ATOM     12  H   LIG d   1       1.598  -6.390 -10.582  0.00  0.00     0.107 H 
ATOM     13  H   LIG d   1       5.249  -5.346  -7.954  0.00  0.00     0.069 H 
ATOM     14  H   LIG d   1       5.169  -1.089  -7.547  0.00  0.00     0.065 H 
ATOM     15  H   LIG d   1       3.156  -0.969  -8.929  0.00  0.00     0.063 H 
ENDROOT
BRANCH   1  16
ATOM     16  O   LIG d   1       0.228  -4.356 -11.321  0.00  0.00    -0.449 OA
BRANCH  16  17
ATOM     17  C   LIG d   1      -0.655  -5.364 -11.113  0.00  0.00     0.129 A 
ATOM     18  C   LIG d   1      -1.515  -5.317 -10.020  0.00  0.00    -0.019 A 
ATOM     19  C   LIG d   1      -2.414  -6.338  -9.806  0.00  0.00    -0.044 A 
ATOM     20  H   LIG d   1      -1.482  -4.477  -9.344  0.00  0.00     0.065 H 
ATOM     21  C   LIG d   1      -2.459  -7.424 -10.686  0.00  0.00     0.059 A 
ATOM     22  H   LIG d   1      -3.082  -6.301  -8.958  0.00  0.00     0.063 H 
ATOM     23  C   LIG d   1      -1.592  -7.467 -11.782  0.00  0.00    -0.044 A 
ATOM     24  C   LIG d   1      -0.697  -6.441 -11.990  0.00  0.00    -0.019 A 
ATOM     25  H   LIG d   1      -1.624  -8.303 -12.464  0.00  0.00     0.063 H 
ATOM     26  H   LIG d   1      -0.027  -6.475 -12.836  0.00  0.00     0.065 H 
BRANCH  21  27
ATOM     27  C   LIG d   1      -3.419  -8.520 -10.459  0.00  0.00     0.339 C 
ATOM     28  O   LIG d   1      -4.557  -8.425 -10.876  0.00  0.00    -0.245 OA
BRANCH  27  29
ATOM     29  O   LIG d   1      -3.034  -9.625  -9.792  0.00  0.00    -0.461 OA
BRANCH  29  30
ATOM     30  C   LIG d   1      -3.168 -10.894 -10.487  0.00  0.00     0.090 C 
ATOM     31  H   LIG d   1      -3.877 -11.527  -9.954  0.00  0.00     0.070 H 
ATOM     32  H   LIG d   1      -3.527 -10.717 -11.500  0.00  0.00     0.070 H 
BRANCH  30  33
ATOM     33  C   LIG d   1      -1.806 -11.589 -10.543  0.00  0.00    -0.031 C 
ATOM     34  H   LIG d   1      -1.066 -10.906 -10.960  0.00  0.00     0.026 H 
ATOM     35  H   LIG d   1      -1.505 -11.881  -9.536  0.00  0.00     0.026 H 
ATOM     36  H   LIG d   1      -1.877 -12.477 -11.173  0.00  0.00     0.026 H 
ENDBRANCH  30  33
ENDBRANCH  29  30
ENDBRANCH  27  29
ENDBRANCH  21  27
ENDBRANCH  16  17
ENDBRANCH   1  16
BRANCH   6  37
ATOM     37  O   LIG d   1       6.446  -3.278  -6.902  0.00  0.00    -0.487 OA
BRANCH  37  38
ATOM     38  C   LIG d   1       6.344  -3.967  -5.655  0.00  0.00     0.115 C 
ATOM     39  H   LIG d   1       5.655  -4.804  -5.757  0.00  0.00     0.075 H 
ATOM     40  H   LIG d   1       7.327  -4.339  -5.363  0.00  0.00     0.075 H 
BRANCH  38  41
ATOM     41  C   LIG d   1       5.831  -3.021  -4.599  0.00  0.00    -0.010 A 
ATOM     42  C   LIG d   1       6.614  -1.957  -4.190  0.00  0.00    -0.055 A 
ATOM     43  C   LIG d   1       6.152  -1.088  -3.223  0.00  0.00    -0.054 A 
ATOM     44  H   LIG d   1       7.589  -1.804  -4.628  0.00  0.00     0.062 H 
ATOM     45  C   LIG d   1       4.890  -1.285  -2.657  0.00  0.00    -0.026 A 
ATOM     46  H   LIG d   1       6.763  -0.257  -2.904  0.00  0.00     0.062 H 
ATOM     47  C   LIG d   1       4.106  -2.361  -3.075  0.00  0.00    -0.054 A 
ATOM     48  C   LIG d   1       4.579  -3.220  -4.046  0.00  0.00    -0.055 A 
ATOM     49  H   LIG d   1       3.130  -2.519  -2.641  0.00  0.00     0.062 H 
ATOM     50  H   LIG d   1       3.971  -4.050  -4.373  0.00  0.00     0.062 H 
BRANCH  45  51
ATOM     51  C   LIG d   1       4.389  -0.358  -1.621  0.00  0.00    -0.062 C 
ATOM     52  C   LIG d   1       4.640   0.940  -1.717  0.00  0.00    -0.098 C 
ATOM     53  H   LIG d   1       5.208   1.320  -2.552  0.00  0.00     0.053 H 
ATOM     54  H   LIG d   1       4.273   1.618  -0.960  0.00  0.00     0.053 H 
ATOM     55  H   LIG d   1       3.821  -0.739  -0.785  0.00  0.00     0.062 H 
ENDBRANCH  45  51
ENDBRANCH  38  41
ENDBRANCH  37  38
ENDBRANCH   6  37
TORSDOF 10
ENDMDL
MODEL 9
REMARK VINA RESULT:      -6.2      8.994     13.531
REMARK  10 active torsions:
REMARK  status: ('A' for Active; 'I' for Inactive)
REMARK    1  A    between atoms: C_1  and  C_2 
REMARK    2  A    between atoms: C_2  and  O_3 
REMARK    3  A    between atoms: O_3  and  C_4 
REMARK    4  A    between atoms: C_4  and  C_6 
REMARK    5  A    between atoms: C_9  and  O_12 
REMARK    6  A    between atoms: O_12  and  C_13 
REMARK    7  A    between atoms: C_18  and  O_24 
REMARK    8  A    between atoms: O_24  and  C_25 
REMARK    9  A    between atoms: C_25  and  C_26 
REMARK   10  A    between atoms: C_29  and  C_32 
ROOT
ATOM      1  C   LIG d   1       2.685   0.424  -9.240  0.00  0.00     0.210 A 
ATOM      2  C   LIG d   1       1.664  -0.428  -9.458  0.00  0.00     0.138 A 
ATOM      3  O   LIG d   1       1.535  -1.128 -10.591  0.00  0.00    -0.459 OA
ATOM      4  C   LIG d   1       2.426  -1.042 -11.600  0.00  0.00     0.142 A 
ATOM      5  C   LIG d   1       2.266  -1.787 -12.761  0.00  0.00     0.023 A 
ATOM      6  C   LIG d   1       3.197  -1.679 -13.780  0.00  0.00     0.124 A 
ATOM      7  C   LIG d   1       4.294  -0.829 -13.652  0.00  0.00    -0.019 A 
ATOM      8  C   LIG d   1       4.466  -0.089 -12.516  0.00  0.00    -0.044 A 
ATOM      9  C   LIG d   1       3.536  -0.188 -11.480  0.00  0.00     0.068 A 
ATOM     10  C   LIG d   1       3.685   0.592 -10.238  0.00  0.00     0.234 A 
ATOM     11  O   LIG d   1       4.626   1.351 -10.075  0.00  0.00    -0.283 OA
ATOM     12  H   LIG d   1       0.916  -0.548  -8.688  0.00  0.00     0.107 H 
ATOM     13  H   LIG d   1       1.419  -2.448 -12.867  0.00  0.00     0.069 H 
ATOM     14  H   LIG d   1       5.012  -0.755 -14.454  0.00  0.00     0.065 H 
ATOM     15  H   LIG d   1       5.317   0.568 -12.421  0.00  0.00     0.063 H 
ENDROOT
BRANCH   1  16
ATOM     16  O   LIG d   1       2.763   1.115  -8.068  0.00  0.00    -0.449 OA
BRANCH  16  17
ATOM     17  C   LIG d   1       3.167   0.446  -6.960  0.00  0.00     0.129 A 
ATOM     18  C   LIG d   1       4.301  -0.358  -7.011  0.00  0.00    -0.019 A 
ATOM     19  C   LIG d   1       4.716  -1.037  -5.888  0.00  0.00    -0.044 A 
ATOM     20  H   LIG d   1       4.860  -0.445  -7.930  0.00  0.00     0.065 H 
ATOM     21  C   LIG d   1       3.995  -0.920  -4.696  0.00  0.00     0.059 A 
ATOM     22  H   LIG d   1       5.596  -1.662  -5.927  0.00  0.00     0.063 H 
ATOM     23  C   LIG d   1       2.855  -0.111  -4.649  0.00  0.00    -0.044 A 
ATOM     24  C   LIG d   1       2.448   0.567  -5.777  0.00  0.00    -0.019 A 
ATOM     25  H   LIG d   1       2.296  -0.017  -3.730  0.00  0.00     0.063 H 
ATOM     26  H   LIG d   1       1.567   1.191  -5.742  0.00  0.00     0.065 H 
BRANCH  21  27
ATOM     27  C   LIG d   1       4.434  -1.647  -3.490  0.00  0.00     0.339 C 
ATOM     28  O   LIG d   1       3.915  -2.706  -3.198  0.00  0.00    -0.245 OA
BRANCH  27  29
ATOM     29  O   LIG d   1       5.409  -1.136  -2.714  0.00  0.00    -0.461 OA
BRANCH  29  30
ATOM     30  C   LIG d   1       5.541   0.310  -2.686  0.00  0.00     0.090 C 
ATOM     31  H   LIG d   1       6.582   0.577  -2.504  0.00  0.00     0.070 H 
ATOM     32  H   LIG d   1       5.221   0.722  -3.643  0.00  0.00     0.070 H 
BRANCH  30  33
ATOM     33  C   LIG d   1       4.666   0.879  -1.568  0.00  0.00    -0.031 C 
ATOM     34  H   LIG d   1       4.982   1.898  -1.342  0.00  0.00     0.026 H 
ATOM     35  H   LIG d   1       3.624   0.886  -1.888  0.00  0.00     0.026 H 
ATOM     36  H   LIG d   1       4.768   0.260  -0.675  0.00  0.00     0.026 H 
ENDBRANCH  30  33
ENDBRANCH  29  30
ENDBRANCH  27  29
ENDBRANCH  21  27
ENDBRANCH  16  17
ENDBRANCH   1  16
BRANCH   6  37
ATOM     37  O   LIG d   1       3.039  -2.407 -14.914  0.00  0.00    -0.487 OA
BRANCH  37  38
ATOM     38  C   LIG d   1       3.761  -1.974 -16.068  0.00  0.00     0.115 C 
ATOM     39  H   LIG d   1       4.719  -1.555 -15.761  0.00  0.00     0.075 H 
ATOM     40  H   LIG d   1       3.933  -2.824 -16.730  0.00  0.00     0.075 H 
BRANCH  38  41
ATOM     41  C   LIG d   1       2.963  -0.924 -16.797  0.00  0.00    -0.010 A 
ATOM     42  C   LIG d   1       3.515   0.324 -17.026  0.00  0.00    -0.055 A 
ATOM     43  C   LIG d   1       2.790   1.290 -17.692  0.00  0.00    -0.054 A 
ATOM     44  H   LIG d   1       4.516   0.542 -16.685  0.00  0.00     0.062 H 
ATOM     45  C   LIG d   1       1.496   1.007 -18.134  0.00  0.00    -0.026 A 
ATOM     46  H   LIG d   1       3.221   2.264 -17.872  0.00  0.00     0.062 H 
ATOM     47  C   LIG d   1       0.946  -0.253 -17.900  0.00  0.00    -0.054 A 
ATOM     48  C   LIG d   1       1.685  -1.213 -17.237  0.00  0.00    -0.055 A 
ATOM     49  H   LIG d   1      -0.054  -0.478 -18.239  0.00  0.00     0.062 H 
ATOM     50  H   LIG d   1       1.261  -2.190 -17.058  0.00  0.00     0.062 H 
BRANCH  45  51
ATOM     51  C   LIG d   1       0.713   2.038 -18.848  0.00  0.00    -0.062 C 
ATOM     52  C   LIG d   1       1.330   2.916 -19.627  0.00  0.00    -0.098 C 
ATOM     53  H   LIG d   1       2.403   2.876 -19.742  0.00  0.00     0.053 H 
ATOM     54  H   LIG d   1       0.758   3.669 -20.149  0.00  0.00     0.053 H 
ATOM     55  H   LIG d   1      -0.360   2.078 -18.732  0.00  0.00     0.062 H 
ENDBRANCH  45  51
ENDBRANCH  38  41
ENDBRANCH  37  38
ENDBRANCH   6  37
TORSDOF 10
ENDMDL
