MODEL 1
REMARK VINA RESULT:      -6.1      0.000      0.000
REMARK  6 active torsions:
REMARK  status: ('A' for Active; 'I' for Inactive)
REMARK    1  A    between atoms: C_1  and  C_2 
REMARK    2  A    between atoms: C_3  and  O_22 
REMARK    3  A    between atoms: C_7  and  O_8 
REMARK    4  A    between atoms: C_12  and  C_14 
REMARK    5  A    between atoms: C_17  and  O_21 
REMARK    6  A    between atoms: C_18  and  O_20 
ROOT
ATOM      1  C   LIG d   1      10.832   7.538  -0.049  0.00  0.00     0.033 A 
ATOM      2  C   LIG d   1      10.804   8.768  -0.697  0.00  0.00     0.127 A 
ATOM      3  C   LIG d   1      10.563   8.844  -2.059  0.00  0.00     0.023 A 
ATOM      4  C   LIG d   1      10.345   7.687  -2.792  0.00  0.00     0.146 A 
ATOM      5  C   LIG d   1      10.372   6.443  -2.139  0.00  0.00     0.106 A 
ATOM      6  C   LIG d   1      10.618   6.373  -0.762  0.00  0.00     0.138 A 
ATOM      7  C   LIG d   1      10.138   5.227  -2.937  0.00  0.00     0.197 A 
ATOM      8  O   LIG d   1      10.150   4.119  -2.424  0.00  0.00    -0.287 OA
ATOM      9  C   LIG d   1       9.892   5.393  -4.321  0.00  0.00     0.029 A 
ATOM     10  C   LIG d   1       9.892   6.643  -4.856  0.00  0.00     0.139 A 
ATOM     11  O   LIG d   1      10.107   7.745  -4.119  0.00  0.00    -0.454 OA
ATOM     12  H   LIG d   1      10.543   9.806  -2.551  0.00  0.00     0.069 H 
ATOM     13  H   LIG d   1       9.711   4.533  -4.947  0.00  0.00     0.069 H 
ENDROOT
BRANCH  10  14
ATOM     14  C   LIG d   1       9.639   6.796  -6.301  0.00  0.00     0.021 A 
ATOM     15  C   LIG d   1       9.190   8.018  -6.809  0.00  0.00    -0.006 A 
ATOM     16  C   LIG d   1       8.955   8.156  -8.163  0.00  0.00     0.159 A 
ATOM     17  H   LIG d   1       9.022   8.852  -6.143  0.00  0.00     0.066 H 
ATOM     18  C   LIG d   1       9.166   7.078  -9.021  0.00  0.00     0.158 A 
ATOM     19  C   LIG d   1       9.612   5.864  -8.516  0.00  0.00    -0.016 A 
ATOM     20  C   LIG d   1       9.849   5.718  -7.167  0.00  0.00    -0.047 A 
ATOM     21  H   LIG d   1       9.775   5.030  -9.185  0.00  0.00     0.066 H 
ATOM     22  H   LIG d   1      10.195   4.773  -6.777  0.00  0.00     0.063 H 
BRANCH  16  23
ATOM     23  O   LIG d   1       8.518   9.344  -8.660  0.00  0.00    -0.503 OA
ATOM     24  H   LIG d   1       7.909   9.815  -8.076  0.00  0.00     0.292 HD
ENDBRANCH  16  23
BRANCH  18  25
ATOM     25  O   LIG d   1       8.935   7.214 -10.352  0.00  0.00    -0.503 OA
ATOM     26  H   LIG d   1       9.496   6.656 -10.908  0.00  0.00     0.292 HD
ENDBRANCH  18  25
ENDBRANCH  10  14
BRANCH   6  27
ATOM     27  O   LIG d   1      10.646   5.170  -0.133  0.00  0.00    -0.505 OA
ATOM     28  H   LIG d   1      11.132   5.176   0.703  0.00  0.00     0.292 HD
ENDBRANCH   6  27
BRANCH   2  29
ATOM     29  O   LIG d   1      11.016   9.905   0.013  0.00  0.00    -0.506 OA
ATOM     30  H   LIG d   1      10.916  10.717  -0.504  0.00  0.00     0.292 HD
ENDBRANCH   2  29
BRANCH   1  31
ATOM     31  C   LIG d   1      11.097   7.473   1.433  0.00  0.00    -0.033 C 
ATOM     32  H   LIG d   1      12.111   7.818   1.636  0.00  0.00     0.028 H 
ATOM     33  H   LIG d   1      10.384   8.109   1.958  0.00  0.00     0.028 H 
ATOM     34  H   LIG d   1      10.987   6.444   1.776  0.00  0.00     0.028 H 
ENDBRANCH   1  31
TORSDOF 6
ENDMDL
MODEL 2
REMARK VINA RESULT:      -6.1      1.690      7.822
REMARK  6 active torsions:
REMARK  status: ('A' for Active; 'I' for Inactive)
REMARK    1  A    between atoms: C_1  and  C_2 
REMARK    2  A    between atoms: C_3  and  O_22 
REMARK    3  A    between atoms: C_7  and  O_8 
REMARK    4  A    between atoms: C_12  and  C_14 
REMARK    5  A    between atoms: C_17  and  O_21 
REMARK    6  A    between atoms: C_18  and  O_20 
ROOT
ATOM      1  C   LIG d   1       9.320   6.177 -10.137  0.00  0.00     0.033 A 
ATOM      2  C   LIG d   1       9.429   4.895  -9.610  0.00  0.00     0.127 A 
ATOM      3  C   LIG d   1       9.585   4.703  -8.246  0.00  0.00     0.023 A 
ATOM      4  C   LIG d   1       9.633   5.793  -7.392  0.00  0.00     0.146 A 
ATOM      5  C   LIG d   1       9.522   7.090  -7.922  0.00  0.00     0.106 A 
ATOM      6  C   LIG d   1       9.366   7.278  -9.302  0.00  0.00     0.138 A 
ATOM      7  C   LIG d   1       9.575   8.234  -6.996  0.00  0.00     0.197 A 
ATOM      8  O   LIG d   1       9.484   9.382  -7.400  0.00  0.00    -0.287 OA
ATOM      9  C   LIG d   1       9.730   7.950  -5.618  0.00  0.00     0.029 A 
ATOM     10  C   LIG d   1       9.833   6.658  -5.208  0.00  0.00     0.139 A 
ATOM     11  O   LIG d   1       9.784   5.623  -6.062  0.00  0.00    -0.454 OA
ATOM     12  H   LIG d   1       9.669   3.701  -7.848  0.00  0.00     0.069 H 
ATOM     13  H   LIG d   1       9.770   8.755  -4.899  0.00  0.00     0.069 H 
ENDROOT
BRANCH  10  14
ATOM     14  C   LIG d   1       9.999   6.382  -3.768  0.00  0.00     0.021 A 
ATOM     15  C   LIG d   1      10.476   5.139  -3.344  0.00  0.00    -0.006 A 
ATOM     16  C   LIG d   1      10.630   4.886  -1.994  0.00  0.00     0.159 A 
ATOM     17  H   LIG d   1      10.719   4.376  -4.069  0.00  0.00     0.066 H 
ATOM     18  C   LIG d   1      10.310   5.869  -1.059  0.00  0.00     0.158 A 
ATOM     19  C   LIG d   1       9.837   7.104  -1.482  0.00  0.00    -0.016 A 
ATOM     20  C   LIG d   1       9.681   7.364  -2.825  0.00  0.00    -0.047 A 
ATOM     21  H   LIG d   1       9.591   7.864  -0.754  0.00  0.00     0.066 H 
ATOM     22  H   LIG d   1       9.311   8.325  -3.151  0.00  0.00     0.063 H 
BRANCH  16  23
ATOM     23  O   LIG d   1      11.094   3.677  -1.577  0.00  0.00    -0.503 OA
ATOM     24  H   LIG d   1      12.035   3.671  -1.357  0.00  0.00     0.292 HD
ENDBRANCH  16  23
BRANCH  18  25
ATOM     25  O   LIG d   1      10.462   5.619   0.267  0.00  0.00    -0.503 OA
ATOM     26  H   LIG d   1      11.282   5.158   0.489  0.00  0.00     0.292 HD
ENDBRANCH  18  25
ENDBRANCH  10  14
BRANCH   6  27
ATOM     27  O   LIG d   1       9.260   8.531  -9.813  0.00  0.00    -0.505 OA
ATOM     28  H   LIG d   1      10.110   8.941 -10.025  0.00  0.00     0.292 HD
ENDBRANCH   6  27
BRANCH   2  29
ATOM     29  O   LIG d   1       9.383   3.822 -10.440  0.00  0.00    -0.506 OA
ATOM     30  H   LIG d   1      10.229   3.609 -10.857  0.00  0.00     0.292 HD
ENDBRANCH   2  29
BRANCH   1  31
ATOM     31  C   LIG d   1       9.150   6.368 -11.622  0.00  0.00    -0.033 C 
ATOM     32  H   LIG d   1       9.948   7.010 -11.999  0.00  0.00     0.028 H 
ATOM     33  H   LIG d   1       9.195   5.401 -12.122  0.00  0.00     0.028 H 
ATOM     34  H   LIG d   1       8.185   6.834 -11.820  0.00  0.00     0.028 H 
ENDBRANCH   1  31
TORSDOF 6
ENDMDL
MODEL 3
REMARK VINA RESULT:      -6.0     10.574     13.245
REMARK  6 active torsions:
REMARK  status: ('A' for Active; 'I' for Inactive)
REMARK    1  A    between atoms: C_1  and  C_2 
REMARK    2  A    between atoms: C_3  and  O_22 
REMARK    3  A    between atoms: C_7  and  O_8 
REMARK    4  A    between atoms: C_12  and  C_14 
REMARK    5  A    between atoms: C_17  and  O_21 
REMARK    6  A    between atoms: C_18  and  O_20 
ROOT
ATOM      1  C   LIG d   1       6.174  -7.377  -6.797  0.00  0.00     0.033 A 
ATOM      2  C   LIG d   1       4.808  -7.130  -6.714  0.00  0.00     0.127 A 
ATOM      3  C   LIG d   1       4.334  -5.990  -6.085  0.00  0.00     0.023 A 
ATOM      4  C   LIG d   1       5.222  -5.081  -5.531  0.00  0.00     0.146 A 
ATOM      5  C   LIG d   1       6.603  -5.328  -5.615  0.00  0.00     0.106 A 
ATOM      6  C   LIG d   1       7.076  -6.483  -6.251  0.00  0.00     0.138 A 
ATOM      7  C   LIG d   1       7.528  -4.349  -5.020  0.00  0.00     0.197 A 
ATOM      8  O   LIG d   1       8.737  -4.512  -5.063  0.00  0.00    -0.287 OA
ATOM      9  C   LIG d   1       6.962  -3.209  -4.402  0.00  0.00     0.029 A 
ATOM     10  C   LIG d   1       5.610  -3.066  -4.370  0.00  0.00     0.139 A 
ATOM     11  O   LIG d   1       4.775  -3.966  -4.916  0.00  0.00    -0.454 OA
ATOM     12  H   LIG d   1       3.270  -5.809  -6.027  0.00  0.00     0.069 H 
ATOM     13  H   LIG d   1       7.598  -2.460  -3.955  0.00  0.00     0.069 H 
ENDROOT
BRANCH  10  14
ATOM     14  C   LIG d   1       5.037  -1.873  -3.718  0.00  0.00     0.021 A 
ATOM     15  C   LIG d   1       5.817  -0.727  -3.544  0.00  0.00    -0.006 A 
ATOM     16  C   LIG d   1       5.275   0.387  -2.933  0.00  0.00     0.159 A 
ATOM     17  H   LIG d   1       6.843  -0.714  -3.882  0.00  0.00     0.066 H 
ATOM     18  C   LIG d   1       3.953   0.367  -2.491  0.00  0.00     0.158 A 
ATOM     19  C   LIG d   1       3.179  -0.772  -2.664  0.00  0.00    -0.016 A 
ATOM     20  C   LIG d   1       3.712  -1.887  -3.273  0.00  0.00    -0.047 A 
ATOM     21  H   LIG d   1       2.154  -0.783  -2.322  0.00  0.00     0.066 H 
ATOM     22  H   LIG d   1       3.107  -2.772  -3.406  0.00  0.00     0.063 H 
BRANCH  16  23
ATOM     23  O   LIG d   1       6.032   1.504  -2.762  0.00  0.00    -0.503 OA
ATOM     24  H   LIG d   1       6.374   1.615  -1.865  0.00  0.00     0.292 HD
ENDBRANCH  16  23
BRANCH  18  25
ATOM     25  O   LIG d   1       3.422   1.463  -1.890  0.00  0.00    -0.503 OA
ATOM     26  H   LIG d   1       3.304   1.369  -0.935  0.00  0.00     0.292 HD
ENDBRANCH  18  25
ENDBRANCH  10  14
BRANCH   6  27
ATOM     27  O   LIG d   1       8.410  -6.721  -6.330  0.00  0.00    -0.505 OA
ATOM     28  H   LIG d   1       8.639  -7.660  -6.385  0.00  0.00     0.292 HD
ENDBRANCH   6  27
BRANCH   2  29
ATOM     29  O   LIG d   1       3.932  -8.015  -7.254  0.00  0.00    -0.506 OA
ATOM     30  H   LIG d   1       3.218  -7.603  -7.761  0.00  0.00     0.292 HD
ENDBRANCH   2  29
BRANCH   1  31
ATOM     31  C   LIG d   1       6.674  -8.621  -7.485  0.00  0.00    -0.033 C 
ATOM     32  H   LIG d   1       7.364  -9.148  -6.826  0.00  0.00     0.028 H 
ATOM     33  H   LIG d   1       5.830  -9.270  -7.722  0.00  0.00     0.028 H 
ATOM     34  H   LIG d   1       7.189  -8.345  -8.405  0.00  0.00     0.028 H 
ENDBRANCH   1  31
TORSDOF 6
ENDMDL
MODEL 4
REMARK VINA RESULT:      -5.8      1.491      7.179
REMARK  6 active torsions:
REMARK  status: ('A' for Active; 'I' for Inactive)
REMARK    1  A    between atoms: C_1  and  C_2 
REMARK    2  A    between atoms: C_3  and  O_22 
REMARK    3  A    between atoms: C_7  and  O_8 
REMARK    4  A    between atoms: C_12  and  C_14 
REMARK    5  A    between atoms: C_17  and  O_21 
REMARK    6  A    between atoms: C_18  and  O_20 
ROOT
ATOM      1  C   LIG d   1       9.394   7.040  -7.888  0.00  0.00     0.033 A 
ATOM      2  C   LIG d   1       9.224   8.301  -7.326  0.00  0.00     0.127 A 
ATOM      3  C   LIG d   1       9.473   8.512  -5.979  0.00  0.00     0.023 A 
ATOM      4  C   LIG d   1       9.896   7.463  -5.178  0.00  0.00     0.146 A 
ATOM      5  C   LIG d   1      10.069   6.189  -5.744  0.00  0.00     0.106 A 
ATOM      6  C   LIG d   1       9.815   5.981  -7.105  0.00  0.00     0.138 A 
ATOM      7  C   LIG d   1      10.520   5.090  -4.874  0.00  0.00     0.197 A 
ATOM      8  O   LIG d   1      10.686   3.962  -5.311  0.00  0.00    -0.287 OA
ATOM      9  C   LIG d   1      10.758   5.392  -3.512  0.00  0.00     0.029 A 
ATOM     10  C   LIG d   1      10.555   6.659  -3.061  0.00  0.00     0.139 A 
ATOM     11  O   LIG d   1      10.144   7.654  -3.864  0.00  0.00    -0.454 OA
ATOM     12  H   LIG d   1       9.338   9.496  -5.553  0.00  0.00     0.069 H 
ATOM     13  H   LIG d   1      11.093   4.621  -2.834  0.00  0.00     0.069 H 
ENDROOT
BRANCH  10  14
ATOM     14  C   LIG d   1      10.804   6.954  -1.638  0.00  0.00     0.021 A 
ATOM     15  C   LIG d   1      10.604   5.965  -0.672  0.00  0.00    -0.006 A 
ATOM     16  C   LIG d   1      10.838   6.247   0.660  0.00  0.00     0.159 A 
ATOM     17  H   LIG d   1      10.261   4.983  -0.965  0.00  0.00     0.066 H 
ATOM     18  C   LIG d   1      11.275   7.516   1.038  0.00  0.00     0.158 A 
ATOM     19  C   LIG d   1      11.473   8.498   0.078  0.00  0.00    -0.016 A 
ATOM     20  C   LIG d   1      11.241   8.225  -1.252  0.00  0.00    -0.047 A 
ATOM     21  H   LIG d   1      11.812   9.480   0.375  0.00  0.00     0.066 H 
ATOM     22  H   LIG d   1      11.396   8.991  -1.997  0.00  0.00     0.063 H 
BRANCH  16  23
ATOM     23  O   LIG d   1      10.645   5.286   1.603  0.00  0.00    -0.503 OA
ATOM     24  H   LIG d   1      10.431   4.416   1.241  0.00  0.00     0.292 HD
ENDBRANCH  16  23
BRANCH  18  25
ATOM     25  O   LIG d   1      11.505   7.792   2.348  0.00  0.00    -0.503 OA
ATOM     26  H   LIG d   1      10.807   8.313   2.769  0.00  0.00     0.292 HD
ENDBRANCH  18  25
ENDBRANCH  10  14
BRANCH   6  27
ATOM     27  O   LIG d   1       9.980   4.749  -7.651  0.00  0.00    -0.505 OA
ATOM     28  H   LIG d   1      10.873   4.391  -7.548  0.00  0.00     0.292 HD
ENDBRANCH   6  27
BRANCH   2  29
ATOM     29  O   LIG d   1       8.811   9.333  -8.104  0.00  0.00    -0.506 OA
ATOM     30  H   LIG d   1       9.102   9.274  -9.024  0.00  0.00     0.292 HD
ENDBRANCH   2  29
BRANCH   1  31
ATOM     31  C   LIG d   1       9.119   6.827  -9.355  0.00  0.00    -0.033 C 
ATOM     32  H   LIG d   1       8.826   7.774  -9.811  0.00  0.00     0.028 H 
ATOM     33  H   LIG d   1      10.018   6.451  -9.843  0.00  0.00     0.028 H 
ATOM     34  H   LIG d   1       8.312   6.103  -9.471  0.00  0.00     0.028 H 
ENDBRANCH   1  31
TORSDOF 6
ENDMDL
MODEL 5
REMARK VINA RESULT:      -5.8      2.003      7.420
REMARK  6 active torsions:
REMARK  status: ('A' for Active; 'I' for Inactive)
REMARK    1  A    between atoms: C_1  and  C_2 
REMARK    2  A    between atoms: C_3  and  O_22 
REMARK    3  A    between atoms: C_7  and  O_8 
REMARK    4  A    between atoms: C_12  and  C_14 
REMARK    5  A    between atoms: C_17  and  O_21 
REMARK    6  A    between atoms: C_18  and  O_20 
ROOT
ATOM      1  C   LIG d   1       9.417   6.231 -10.371  0.00  0.00     0.033 A 
ATOM      2  C   LIG d   1       9.558   7.458  -9.730  0.00  0.00     0.127 A 
ATOM      3  C   LIG d   1       9.695   7.524  -8.353  0.00  0.00     0.023 A 
ATOM      4  C   LIG d   1       9.693   6.361  -7.598  0.00  0.00     0.146 A 
ATOM      5  C   LIG d   1       9.552   5.120  -8.243  0.00  0.00     0.106 A 
ATOM      6  C   LIG d   1       9.412   5.060  -9.635  0.00  0.00     0.138 A 
ATOM      7  C   LIG d   1       9.554   3.898  -7.421  0.00  0.00     0.197 A 
ATOM      8  O   LIG d   1       9.434   2.793  -7.927  0.00  0.00    -0.287 OA
ATOM      9  C   LIG d   1       9.705   4.053  -6.023  0.00  0.00     0.029 A 
ATOM     10  C   LIG d   1       9.830   5.301  -5.497  0.00  0.00     0.139 A 
ATOM     11  O   LIG d   1       9.827   6.409  -6.256  0.00  0.00    -0.454 OA
ATOM     12  H   LIG d   1       9.804   8.483  -7.867  0.00  0.00     0.069 H 
ATOM     13  H   LIG d   1       9.717   3.187  -5.378  0.00  0.00     0.069 H 
ENDROOT
BRANCH  10  14
ATOM     14  C   LIG d   1       9.983   5.443  -4.036  0.00  0.00     0.021 A 
ATOM     15  C   LIG d   1       9.321   6.471  -3.360  0.00  0.00    -0.006 A 
ATOM     16  C   LIG d   1       9.466   6.600  -1.992  0.00  0.00     0.159 A 
ATOM     17  H   LIG d   1       8.700   7.167  -3.906  0.00  0.00     0.066 H 
ATOM     18  C   LIG d   1      10.272   5.705  -1.289  0.00  0.00     0.158 A 
ATOM     19  C   LIG d   1      10.929   4.684  -1.962  0.00  0.00    -0.016 A 
ATOM     20  C   LIG d   1      10.789   4.549  -3.326  0.00  0.00    -0.047 A 
ATOM     21  H   LIG d   1      11.552   3.992  -1.414  0.00  0.00     0.066 H 
ATOM     22  H   LIG d   1      11.302   3.754  -3.847  0.00  0.00     0.063 H 
BRANCH  16  23
ATOM     23  O   LIG d   1       8.823   7.599  -1.330  0.00  0.00    -0.503 OA
ATOM     24  H   LIG d   1       7.987   7.329  -0.926  0.00  0.00     0.292 HD
ENDBRANCH  16  23
BRANCH  18  25
ATOM     25  O   LIG d   1      10.414   5.832   0.055  0.00  0.00    -0.503 OA
ATOM     26  H   LIG d   1      11.311   5.657   0.374  0.00  0.00     0.292 HD
ENDBRANCH  18  25
ENDBRANCH  10  14
BRANCH   6  27
ATOM     27  O   LIG d   1       9.274   3.862 -10.257  0.00  0.00    -0.505 OA
ATOM     28  H   LIG d   1       8.823   3.912 -11.112  0.00  0.00     0.292 HD
ENDBRANCH   6  27
BRANCH   2  29
ATOM     29  O   LIG d   1       9.560   8.601 -10.462  0.00  0.00    -0.506 OA
ATOM     30  H   LIG d   1       8.678   8.944 -10.660  0.00  0.00     0.292 HD
ENDBRANCH   2  29
BRANCH   1  31
ATOM     31  C   LIG d   1       9.269   6.177 -11.869  0.00  0.00    -0.033 C 
ATOM     32  H   LIG d   1       9.579   7.130 -12.300  0.00  0.00     0.028 H 
ATOM     33  H   LIG d   1       9.892   5.377 -12.268  0.00  0.00     0.028 H 
ATOM     34  H   LIG d   1       8.226   5.986 -12.124  0.00  0.00     0.028 H 
ENDBRANCH   1  31
TORSDOF 6
ENDMDL
MODEL 6
REMARK VINA RESULT:      -5.7      1.934      7.613
REMARK  6 active torsions:
REMARK  status: ('A' for Active; 'I' for Inactive)
REMARK    1  A    between atoms: C_1  and  C_2 
REMARK    2  A    between atoms: C_3  and  O_22 
REMARK    3  A    between atoms: C_7  and  O_8 
REMARK    4  A    between atoms: C_12  and  C_14 
REMARK    5  A    between atoms: C_17  and  O_21 
REMARK    6  A    between atoms: C_18  and  O_20 
ROOT
ATOM      1  C   LIG d   1       9.427   6.181 -10.485  0.00  0.00     0.033 A 
ATOM      2  C   LIG d   1       9.571   7.430  -9.890  0.00  0.00     0.127 A 
ATOM      3  C   LIG d   1       9.695   7.547  -8.514  0.00  0.00     0.023 A 
ATOM      4  C   LIG d   1       9.677   6.414  -7.716  0.00  0.00     0.146 A 
ATOM      5  C   LIG d   1       9.532   5.151  -8.315  0.00  0.00     0.106 A 
ATOM      6  C   LIG d   1       9.406   5.039  -9.706  0.00  0.00     0.138 A 
ATOM      7  C   LIG d   1       9.516   3.961  -7.448  0.00  0.00     0.197 A 
ATOM      8  O   LIG d   1       9.392   2.838  -7.913  0.00  0.00    -0.287 OA
ATOM      9  C   LIG d   1       9.654   4.167  -6.055  0.00  0.00     0.029 A 
ATOM     10  C   LIG d   1       9.784   5.433  -5.575  0.00  0.00     0.139 A 
ATOM     11  O   LIG d   1       9.797   6.511  -6.375  0.00  0.00    -0.454 OA
ATOM     12  H   LIG d   1       9.807   8.523  -8.063  0.00  0.00     0.069 H 
ATOM     13  H   LIG d   1       9.652   3.326  -5.378  0.00  0.00     0.069 H 
ENDROOT
BRANCH  10  14
ATOM     14  C   LIG d   1       9.922   5.629  -4.119  0.00  0.00     0.021 A 
ATOM     15  C   LIG d   1      10.530   4.646  -3.334  0.00  0.00    -0.006 A 
ATOM     16  C   LIG d   1      10.658   4.836  -1.972  0.00  0.00     0.159 A 
ATOM     17  H   LIG d   1      10.895   3.738  -3.791  0.00  0.00     0.066 H 
ATOM     18  C   LIG d   1      10.181   6.006  -1.383  0.00  0.00     0.158 A 
ATOM     19  C   LIG d   1       9.577   6.982  -2.163  0.00  0.00    -0.016 A 
ATOM     20  C   LIG d   1       9.446   6.800  -3.522  0.00  0.00    -0.047 A 
ATOM     21  H   LIG d   1       9.209   7.888  -1.703  0.00  0.00     0.066 H 
ATOM     22  H   LIG d   1       8.975   7.561  -4.127  0.00  0.00     0.063 H 
BRANCH  16  23
ATOM     23  O   LIG d   1      11.250   3.881  -1.205  0.00  0.00    -0.503 OA
ATOM     24  H   LIG d   1      12.091   3.560  -1.555  0.00  0.00     0.292 HD
ENDBRANCH  16  23
BRANCH  18  25
ATOM     25  O   LIG d   1      10.307   6.191  -0.043  0.00  0.00    -0.503 OA
ATOM     26  H   LIG d   1      11.149   5.882   0.319  0.00  0.00     0.292 HD
ENDBRANCH  18  25
ENDBRANCH  10  14
BRANCH   6  27
ATOM     27  O   LIG d   1       9.264   3.819 -10.283  0.00  0.00    -0.505 OA
ATOM     28  H   LIG d   1      10.103   3.380 -10.483  0.00  0.00     0.292 HD
ENDBRANCH   6  27
BRANCH   2  29
ATOM     29  O   LIG d   1       9.590   8.544 -10.664  0.00  0.00    -0.506 OA
ATOM     30  H   LIG d   1      10.297   8.553 -11.324  0.00  0.00     0.292 HD
ENDBRANCH   2  29
BRANCH   1  31
ATOM     31  C   LIG d   1       9.294   6.072 -11.981  0.00  0.00    -0.033 C 
ATOM     32  H   LIG d   1       8.437   6.658 -12.314  0.00  0.00     0.028 H 
ATOM     33  H   LIG d   1      10.199   6.449 -12.456  0.00  0.00     0.028 H 
ATOM     34  H   LIG d   1       9.148   5.027 -12.257  0.00  0.00     0.028 H 
ENDBRANCH   1  31
TORSDOF 6
ENDMDL
MODEL 7
REMARK VINA RESULT:      -5.6      5.938      9.192
REMARK  6 active torsions:
REMARK  status: ('A' for Active; 'I' for Inactive)
REMARK    1  A    between atoms: C_1  and  C_2 
REMARK    2  A    between atoms: C_3  and  O_22 
REMARK    3  A    between atoms: C_7  and  O_8 
REMARK    4  A    between atoms: C_12  and  C_14 
REMARK    5  A    between atoms: C_17  and  O_21 
REMARK    6  A    between atoms: C_18  and  O_20 
ROOT
ATOM      1  C   LIG d   1       9.678   3.436  -7.767  0.00  0.00     0.033 A 
ATOM      2  C   LIG d   1       8.804   2.633  -8.492  0.00  0.00     0.127 A 
ATOM      3  C   LIG d   1       7.929   1.777  -7.843  0.00  0.00     0.023 A 
ATOM      4  C   LIG d   1       7.917   1.713  -6.459  0.00  0.00     0.146 A 
ATOM      5  C   LIG d   1       8.799   2.524  -5.724  0.00  0.00     0.106 A 
ATOM      6  C   LIG d   1       9.682   3.387  -6.385  0.00  0.00     0.138 A 
ATOM      7  C   LIG d   1       8.769   2.440  -4.254  0.00  0.00     0.197 A 
ATOM      8  O   LIG d   1       9.512   3.121  -3.564  0.00  0.00    -0.287 OA
ATOM      9  C   LIG d   1       7.841   1.545  -3.670  0.00  0.00     0.029 A 
ATOM     10  C   LIG d   1       7.034   0.800  -4.472  0.00  0.00     0.139 A 
ATOM     11  O   LIG d   1       7.070   0.885  -5.812  0.00  0.00    -0.454 OA
ATOM     12  H   LIG d   1       7.254   1.158  -8.418  0.00  0.00     0.069 H 
ATOM     13  H   LIG d   1       7.778   1.451  -2.597  0.00  0.00     0.069 H 
ENDROOT
BRANCH  10  14
ATOM     14  C   LIG d   1       6.076  -0.131  -3.847  0.00  0.00     0.021 A 
ATOM     15  C   LIG d   1       5.766  -1.341  -4.472  0.00  0.00    -0.006 A 
ATOM     16  C   LIG d   1       4.868  -2.210  -3.881  0.00  0.00     0.159 A 
ATOM     17  H   LIG d   1       6.223  -1.596  -5.417  0.00  0.00     0.066 H 
ATOM     18  C   LIG d   1       4.275  -1.879  -2.664  0.00  0.00     0.158 A 
ATOM     19  C   LIG d   1       4.583  -0.676  -2.044  0.00  0.00    -0.016 A 
ATOM     20  C   LIG d   1       5.477   0.195  -2.626  0.00  0.00    -0.047 A 
ATOM     21  H   LIG d   1       4.121  -0.423  -1.100  0.00  0.00     0.066 H 
ATOM     22  H   LIG d   1       5.715   1.131  -2.142  0.00  0.00     0.063 H 
BRANCH  16  23
ATOM     23  O   LIG d   1       4.565  -3.390  -4.487  0.00  0.00    -0.503 OA
ATOM     24  H   LIG d   1       4.962  -4.163  -4.064  0.00  0.00     0.292 HD
ENDBRANCH  16  23
BRANCH  18  25
ATOM     25  O   LIG d   1       3.393  -2.734  -2.085  0.00  0.00    -0.503 OA
ATOM     26  H   LIG d   1       2.693  -2.295  -1.580  0.00  0.00     0.292 HD
ENDBRANCH  18  25
ENDBRANCH  10  14
BRANCH   6  27
ATOM     27  O   LIG d   1      10.535   4.168  -5.674  0.00  0.00    -0.505 OA
ATOM     28  H   LIG d   1      10.128   4.971  -5.320  0.00  0.00     0.292 HD
ENDBRANCH   6  27
BRANCH   2  29
ATOM     29  O   LIG d   1       8.809   2.690  -9.848  0.00  0.00    -0.506 OA
ATOM     30  H   LIG d   1       8.329   3.446 -10.212  0.00  0.00     0.292 HD
ENDBRANCH   2  29
BRANCH   1  31
ATOM     31  C   LIG d   1      10.623   4.362  -8.488  0.00  0.00    -0.033 C 
ATOM     32  H   LIG d   1      10.486   5.379  -8.121  0.00  0.00     0.028 H 
ATOM     33  H   LIG d   1      11.651   4.046  -8.307  0.00  0.00     0.028 H 
ATOM     34  H   LIG d   1      10.417   4.330  -9.558  0.00  0.00     0.028 H 
ENDBRANCH   1  31
TORSDOF 6
ENDMDL
MODEL 8
REMARK VINA RESULT:      -5.4     15.592     18.492
REMARK  6 active torsions:
REMARK  status: ('A' for Active; 'I' for Inactive)
REMARK    1  A    between atoms: C_1  and  C_2 
REMARK    2  A    between atoms: C_3  and  O_22 
REMARK    3  A    between atoms: C_7  and  O_8 
REMARK    4  A    between atoms: C_12  and  C_14 
REMARK    5  A    between atoms: C_17  and  O_21 
REMARK    6  A    between atoms: C_18  and  O_20 
ROOT
ATOM      1  C   LIG d   1      -6.466   2.399 -13.487  0.00  0.00     0.033 A 
ATOM      2  C   LIG d   1      -5.110   2.210 -13.245  0.00  0.00     0.127 A 
ATOM      3  C   LIG d   1      -4.197   3.218 -13.512  0.00  0.00     0.023 A 
ATOM      4  C   LIG d   1      -4.631   4.430 -14.025  0.00  0.00     0.146 A 
ATOM      5  C   LIG d   1      -6.001   4.624 -14.270  0.00  0.00     0.106 A 
ATOM      6  C   LIG d   1      -6.919   3.601 -14.000  0.00  0.00     0.138 A 
ATOM      7  C   LIG d   1      -6.440   5.920 -14.816  0.00  0.00     0.197 A 
ATOM      8  O   LIG d   1      -7.618   6.144 -15.048  0.00  0.00    -0.287 OA
ATOM      9  C   LIG d   1      -5.445   6.898 -15.054  0.00  0.00     0.029 A 
ATOM     10  C   LIG d   1      -4.144   6.608 -14.787  0.00  0.00     0.139 A 
ATOM     11  O   LIG d   1      -3.755   5.422 -14.290  0.00  0.00    -0.454 OA
ATOM     12  H   LIG d   1      -3.145   3.060 -13.319  0.00  0.00     0.069 H 
ATOM     13  H   LIG d   1      -5.717   7.865 -15.450  0.00  0.00     0.069 H 
ENDROOT
BRANCH  10  14
ATOM     14  C   LIG d   1      -3.120   7.638 -15.046  0.00  0.00     0.021 A 
ATOM     15  C   LIG d   1      -1.775   7.372 -14.775  0.00  0.00    -0.006 A 
ATOM     16  C   LIG d   1      -0.820   8.340 -15.020  0.00  0.00     0.159 A 
ATOM     17  H   LIG d   1      -1.483   6.414 -14.369  0.00  0.00     0.066 H 
ATOM     18  C   LIG d   1      -1.198   9.578 -15.538  0.00  0.00     0.158 A 
ATOM     19  C   LIG d   1      -2.534   9.841 -15.807  0.00  0.00    -0.016 A 
ATOM     20  C   LIG d   1      -3.492   8.881 -15.566  0.00  0.00    -0.047 A 
ATOM     21  H   LIG d   1      -2.823  10.801 -16.209  0.00  0.00     0.066 H 
ATOM     22  H   LIG d   1      -4.531   9.088 -15.775  0.00  0.00     0.063 H 
BRANCH  16  23
ATOM     23  O   LIG d   1       0.490   8.085 -14.757  0.00  0.00    -0.503 OA
ATOM     24  H   LIG d   1       1.100   8.742 -15.120  0.00  0.00     0.292 HD
ENDBRANCH  16  23
BRANCH  18  25
ATOM     25  O   LIG d   1      -0.258  10.529 -15.778  0.00  0.00    -0.503 OA
ATOM     26  H   LIG d   1      -0.574  11.266 -16.320  0.00  0.00     0.292 HD
ENDBRANCH  18  25
ENDBRANCH  10  14
BRANCH   6  27
ATOM     27  O   LIG d   1      -8.242   3.789 -14.238  0.00  0.00    -0.505 OA
ATOM     28  H   LIG d   1      -8.815   3.518 -13.507  0.00  0.00     0.292 HD
ENDBRANCH   6  27
BRANCH   2  29
ATOM     29  O   LIG d   1      -4.676   1.027 -12.741  0.00  0.00    -0.506 OA
ATOM     30  H   LIG d   1      -3.741   0.847 -12.907  0.00  0.00     0.292 HD
ENDBRANCH   2  29
BRANCH   1  31
ATOM     31  C   LIG d   1      -7.445   1.293 -13.191  0.00  0.00    -0.033 C 
ATOM     32  H   LIG d   1      -8.237   1.298 -13.940  0.00  0.00     0.028 H 
ATOM     33  H   LIG d   1      -6.928   0.334 -13.214  0.00  0.00     0.028 H 
ATOM     34  H   LIG d   1      -7.879   1.447 -12.202  0.00  0.00     0.028 H 
ENDBRANCH   1  31
TORSDOF 6
ENDMDL
MODEL 9
REMARK VINA RESULT:      -5.3      1.448      7.473
REMARK  6 active torsions:
REMARK  status: ('A' for Active; 'I' for Inactive)
REMARK    1  A    between atoms: C_1  and  C_2 
REMARK    2  A    between atoms: C_3  and  O_22 
REMARK    3  A    between atoms: C_7  and  O_8 
REMARK    4  A    between atoms: C_12  and  C_14 
REMARK    5  A    between atoms: C_17  and  O_21 
REMARK    6  A    between atoms: C_18  and  O_20 
ROOT
ATOM      1  C   LIG d   1       9.444   7.048  -8.275  0.00  0.00     0.033 A 
ATOM      2  C   LIG d   1       9.736   5.802  -7.731  0.00  0.00     0.127 A 
ATOM      3  C   LIG d   1       9.997   5.666  -6.377  0.00  0.00     0.023 A 
ATOM      4  C   LIG d   1       9.968   6.777  -5.549  0.00  0.00     0.146 A 
ATOM      5  C   LIG d   1       9.672   8.038  -6.096  0.00  0.00     0.106 A 
ATOM      6  C   LIG d   1       9.412   8.169  -7.466  0.00  0.00     0.138 A 
ATOM      7  C   LIG d   1       9.647   9.204  -5.198  0.00  0.00     0.197 A 
ATOM      8  O   LIG d   1       9.397  10.323  -5.617  0.00  0.00    -0.287 OA
ATOM      9  C   LIG d   1       9.918   8.978  -3.827  0.00  0.00     0.029 A 
ATOM     10  C   LIG d   1      10.198   7.718  -3.399  0.00  0.00     0.139 A 
ATOM     11  O   LIG d   1      10.219   6.661  -4.228  0.00  0.00    -0.454 OA
ATOM     12  H   LIG d   1      10.221   4.692  -5.966  0.00  0.00     0.069 H 
ATOM     13  H   LIG d   1       9.908   9.800  -3.128  0.00  0.00     0.069 H 
ENDROOT
BRANCH  10  14
ATOM     14  C   LIG d   1      10.483   7.501  -1.968  0.00  0.00     0.021 A 
ATOM     15  C   LIG d   1      10.653   8.594  -1.114  0.00  0.00    -0.006 A 
ATOM     16  C   LIG d   1      10.919   8.385   0.225  0.00  0.00     0.159 A 
ATOM     17  H   LIG d   1      10.581   9.600  -1.502  0.00  0.00     0.066 H 
ATOM     18  C   LIG d   1      11.016   7.087   0.723  0.00  0.00     0.158 A 
ATOM     19  C   LIG d   1      10.847   6.002  -0.126  0.00  0.00    -0.016 A 
ATOM     20  C   LIG d   1      10.581   6.201  -1.462  0.00  0.00    -0.047 A 
ATOM     21  H   LIG d   1      10.923   4.996   0.264  0.00  0.00     0.066 H 
ATOM     22  H   LIG d   1      10.451   5.355  -2.121  0.00  0.00     0.063 H 
BRANCH  16  23
ATOM     23  O   LIG d   1      11.084   9.447   1.059  0.00  0.00    -0.503 OA
ATOM     24  H   LIG d   1      12.001   9.741   1.146  0.00  0.00     0.292 HD
ENDBRANCH  16  23
BRANCH  18  25
ATOM     25  O   LIG d   1      11.278   6.883   2.040  0.00  0.00    -0.503 OA
ATOM     26  H   LIG d   1      12.211   6.718   2.235  0.00  0.00     0.292 HD
ENDBRANCH  18  25
ENDBRANCH  10  14
BRANCH   6  27
ATOM     27  O   LIG d   1       9.128   9.387  -7.994  0.00  0.00    -0.505 OA
ATOM     28  H   LIG d   1       8.509   9.359  -8.737  0.00  0.00     0.292 HD
ENDBRANCH   6  27
BRANCH   2  29
ATOM     29  O   LIG d   1       9.765   4.709  -8.535  0.00  0.00    -0.506 OA
ATOM     30  H   LIG d   1      10.543   4.149  -8.410  0.00  0.00     0.292 HD
ENDBRANCH   2  29
BRANCH   1  31
ATOM     31  C   LIG d   1       9.163   7.179  -9.750  0.00  0.00    -0.033 C 
ATOM     32  H   LIG d   1       9.355   6.225 -10.242  0.00  0.00     0.028 H 
ATOM     33  H   LIG d   1       8.121   7.463  -9.899  0.00  0.00     0.028 H 
ATOM     34  H   LIG d   1       9.812   7.945 -10.176  0.00  0.00     0.028 H 
ENDBRANCH   1  31
TORSDOF 6
ENDMDL
MODEL 10
REMARK VINA RESULT:      -5.3      1.756      7.025
REMARK  6 active torsions:
REMARK  status: ('A' for Active; 'I' for Inactive)
REMARK    1  A    between atoms: C_1  and  C_2 
REMARK    2  A    between atoms: C_3  and  O_22 
REMARK    3  A    between atoms: C_7  and  O_8 
REMARK    4  A    between atoms: C_12  and  C_14 
REMARK    5  A    between atoms: C_17  and  O_21 
REMARK    6  A    between atoms: C_18  and  O_20 
ROOT
ATOM      1  C   LIG d   1       9.429   7.171  -7.670  0.00  0.00     0.033 A 
ATOM      2  C   LIG d   1       9.176   8.538  -7.620  0.00  0.00     0.127 A 
ATOM      3  C   LIG d   1       9.346   9.245  -6.440  0.00  0.00     0.023 A 
ATOM      4  C   LIG d   1       9.772   8.591  -5.294  0.00  0.00     0.146 A 
ATOM      5  C   LIG d   1      10.028   7.211  -5.342  0.00  0.00     0.106 A 
ATOM      6  C   LIG d   1       9.853   6.501  -6.537  0.00  0.00     0.138 A 
ATOM      7  C   LIG d   1      10.480   6.537  -4.113  0.00  0.00     0.197 A 
ATOM      8  O   LIG d   1      10.717   5.340  -4.096  0.00  0.00    -0.287 OA
ATOM      9  C   LIG d   1      10.634   7.333  -2.953  0.00  0.00     0.029 A 
ATOM     10  C   LIG d   1      10.355   8.662  -3.010  0.00  0.00     0.139 A 
ATOM     11  O   LIG d   1       9.943   9.266  -4.137  0.00  0.00    -0.454 OA
ATOM     12  H   LIG d   1       9.147  10.307  -6.413  0.00  0.00     0.069 H 
ATOM     13  H   LIG d   1      10.967   6.887  -2.028  0.00  0.00     0.069 H 
ENDROOT
BRANCH  10  14
ATOM     14  C   LIG d   1      10.517   9.475  -1.790  0.00  0.00     0.021 A 
ATOM     15  C   LIG d   1      10.130  10.818  -1.786  0.00  0.00    -0.006 A 
ATOM     16  C   LIG d   1      10.283  11.574  -0.640  0.00  0.00     0.159 A 
ATOM     17  H   LIG d   1       9.716  11.265  -2.678  0.00  0.00     0.066 H 
ATOM     18  C   LIG d   1      10.822  10.998   0.509  0.00  0.00     0.158 A 
ATOM     19  C   LIG d   1      11.206   9.664   0.504  0.00  0.00    -0.016 A 
ATOM     20  C   LIG d   1      11.056   8.903  -0.634  0.00  0.00    -0.047 A 
ATOM     21  H   LIG d   1      11.623   9.221   1.397  0.00  0.00     0.066 H 
ATOM     22  H   LIG d   1      11.357   7.866  -0.635  0.00  0.00     0.063 H 
BRANCH  16  23
ATOM     23  O   LIG d   1       9.907  12.881  -0.633  0.00  0.00    -0.503 OA
ATOM     24  H   LIG d   1      10.478  13.453  -0.101  0.00  0.00     0.292 HD
ENDBRANCH  16  23
BRANCH  18  25
ATOM     25  O   LIG d   1      10.973  11.743   1.635  0.00  0.00    -0.503 OA
ATOM     26  H   LIG d   1      10.142  12.081   1.997  0.00  0.00     0.292 HD
ENDBRANCH  18  25
ENDBRANCH  10  14
BRANCH   6  27
ATOM     27  O   LIG d   1      10.099   5.167  -6.583  0.00  0.00    -0.505 OA
ATOM     28  H   LIG d   1      10.947   4.938  -6.989  0.00  0.00     0.292 HD
ENDBRANCH   6  27
BRANCH   2  29
ATOM     29  O   LIG d   1       8.760   9.185  -8.738  0.00  0.00    -0.506 OA
ATOM     30  H   LIG d   1       7.800   9.287  -8.799  0.00  0.00     0.292 HD
ENDBRANCH   2  29
BRANCH   1  31
ATOM     31  C   LIG d   1       9.239   6.418  -8.961  0.00  0.00    -0.033 C 
ATOM     32  H   LIG d   1      10.212   6.130  -9.360  0.00  0.00     0.028 H 
ATOM     33  H   LIG d   1       8.643   5.524  -8.777  0.00  0.00     0.028 H 
ATOM     34  H   LIG d   1       8.725   7.055  -9.681  0.00  0.00     0.028 H 
ENDBRANCH   1  31
TORSDOF 6
ENDMDL
