MODEL 1
REMARK VINA RESULT:      -7.5      0.000      0.000
REMARK  5 active torsions:
REMARK  status: ('A' for Active; 'I' for Inactive)
REMARK    1  A    between atoms: C_1  and  C_2 
REMARK    2  A    between atoms: C_7  and  C_9 
REMARK    3  A    between atoms: C_7  and  C_10 
REMARK    4  A    between atoms: N_31  and  C_38 
REMARK    5  A    between atoms: N_34  and  C_37 
ROOT
ATOM      1  C   LIG d   1      11.451   8.392  -2.167  0.00  0.00    -0.010 C 
ATOM      2  C   LIG d   1      12.685   9.195  -1.655  0.00  0.00    -0.027 C 
ATOM      3  C   LIG d   1      12.202   9.539  -0.225  0.00  0.00     0.026 C 
ATOM      4  H   LIG d   1      13.036   9.824   0.428  0.00  0.00     0.050 H 
ATOM      5  C   LIG d   1      11.165  10.649  -0.333  0.00  0.00    -0.029 C 
ATOM      6  C   LIG d   1      10.072  10.407  -1.352  0.00  0.00    -0.033 C 
ATOM      7  C   LIG d   1      10.374   9.447  -2.484  0.00  0.00    -0.041 C 
ATOM      8  N   LIG d   1      11.575   8.298   0.235  0.00  0.00    -0.307 N 
ATOM      9  C   LIG d   1      10.988   7.608  -0.938  0.00  0.00     0.053 C 
ATOM     10  H   LIG d   1       9.889   7.644  -0.859  0.00  0.00     0.052 H 
ATOM     11  C   LIG d   1      11.426   6.153  -0.844  0.00  0.00     0.147 A 
ATOM     12  C   LIG d   1      10.884   5.566   0.473  0.00  0.00    -0.000 C 
ATOM     13  C   LIG d   1      11.142   6.437   1.664  0.00  0.00    -0.005 A 
ATOM     14  C   LIG d   1      11.495   7.791   1.522  0.00  0.00     0.126 A 
ATOM     15  N   LIG d   1      11.739   8.551   2.564  0.00  0.00    -0.232 NA
ATOM     16  C   LIG d   1      11.660   8.080   3.814  0.00  0.00     0.077 A 
ATOM     17  C   LIG d   1      11.943   8.932   4.903  0.00  0.00     0.010 A 
ATOM     18  C   LIG d   1      11.857   8.397   6.159  0.00  0.00     0.168 A 
ATOM     19  C   LIG d   1      11.490   7.046   6.373  0.00  0.00     0.167 A 
ATOM     20  C   LIG d   1      11.201   6.203   5.338  0.00  0.00    -0.007 A 
ATOM     21  C   LIG d   1      11.297   6.730   4.031  0.00  0.00     0.004 A 
ATOM     22  C   LIG d   1      11.036   5.904   2.918  0.00  0.00    -0.046 A 
ATOM     23  O   LIG d   1      11.486   6.809   7.708  0.00  0.00    -0.453 OA
ATOM     24  C   LIG d   1      12.257   7.883   8.283  0.00  0.00     0.233 C 
ATOM     25  O   LIG d   1      12.071   8.977   7.363  0.00  0.00    -0.453 OA
ATOM     26  C   LIG d   1      12.919   6.034  -0.842  0.00  0.00     0.240 A 
ATOM     27  O   LIG d   1      13.572   6.690  -0.058  0.00  0.00    -0.274 OA
ATOM     28  N   LIG d   1      13.571   5.211  -1.678  0.00  0.00    -0.228 N 
ATOM     29  C   LIG d   1      12.914   4.456  -2.571  0.00  0.00     0.317 A 
ATOM     30  O   LIG d   1      13.543   3.707  -3.293  0.00  0.00    -0.252 OA
ATOM     31  N   LIG d   1      11.580   4.511  -2.701  0.00  0.00    -0.228 N 
ATOM     32  C   LIG d   1      10.823   5.322  -1.947  0.00  0.00     0.240 A 
ATOM     33  O   LIG d   1       9.634   5.379  -2.157  0.00  0.00    -0.274 OA
ATOM     34  H   LIG d   1      13.580   8.573  -1.644  0.00  0.00     0.029 H 
ATOM     35  H   LIG d   1      12.842  10.093  -2.255  0.00  0.00     0.029 H 
ATOM     36  H   LIG d   1      10.706  10.798   0.657  0.00  0.00     0.029 H 
ATOM     37  H   LIG d   1      11.679  11.590  -0.576  0.00  0.00     0.029 H 
ATOM     38  H   LIG d   1      10.698  10.012  -3.372  0.00  0.00     0.028 H 
ATOM     39  H   LIG d   1       9.445   8.928  -2.775  0.00  0.00     0.028 H 
ATOM     40  H   LIG d   1       9.810   5.419   0.364  0.00  0.00     0.033 H 
ATOM     41  H   LIG d   1      11.349   4.592   0.634  0.00  0.00     0.033 H 
ATOM     42  H   LIG d   1      12.213   9.968   4.755  0.00  0.00     0.068 H 
ATOM     43  H   LIG d   1      10.915   5.177   5.506  0.00  0.00     0.066 H 
ATOM     44  H   LIG d   1      10.754   4.870   3.047  0.00  0.00     0.063 H 
ATOM     45  H   LIG d   1      11.872   8.141   9.269  0.00  0.00     0.117 H 
ATOM     46  H   LIG d   1      13.307   7.605   8.349  0.00  0.00     0.117 H 
ENDROOT
BRANCH   1  47
ATOM     47  C   LIG d   1      11.800   7.563  -3.412  0.00  0.00    -0.058 C 
ATOM     48  H   LIG d   1      12.133   6.571  -3.106  0.00  0.00     0.024 H 
ATOM     49  H   LIG d   1      10.916   7.470  -4.045  0.00  0.00     0.024 H 
ATOM     50  H   LIG d   1      12.595   8.059  -3.967  0.00  0.00     0.024 H 
ENDBRANCH   1  47
BRANCH  31  51
ATOM     51  C   LIG d   1      10.924   3.659  -3.696  0.00  0.00     0.012 C 
ATOM     52  H   LIG d   1      11.228   3.969  -4.695  0.00  0.00     0.043 H 
ATOM     53  H   LIG d   1      11.213   2.621  -3.533  0.00  0.00     0.043 H 
ATOM     54  H   LIG d   1       9.843   3.755  -3.599  0.00  0.00     0.043 H 
ENDBRANCH  31  51
BRANCH  28  55
ATOM     55  C   LIG d   1      15.031   5.135  -1.612  0.00  0.00     0.012 C 
ATOM     56  H   LIG d   1      15.428   4.910  -2.602  0.00  0.00     0.043 H 
ATOM     57  H   LIG d   1      15.429   6.089  -1.268  0.00  0.00     0.043 H 
ATOM     58  H   LIG d   1      15.323   4.347  -0.917  0.00  0.00     0.043 H 
ENDBRANCH  28  55
BRANCH   6  59
ATOM     59  C   LIG d   1       8.793   9.970  -0.615  0.00  0.00    -0.060 C 
ATOM     60  H   LIG d   1       9.057   9.321   0.220  0.00  0.00     0.024 H 
ATOM     61  H   LIG d   1       8.271  10.851  -0.240  0.00  0.00     0.024 H 
ATOM     62  H   LIG d   1       8.144   9.430  -1.303  0.00  0.00     0.024 H 
ENDBRANCH   6  59
BRANCH   6  63
ATOM     63  C   LIG d   1       9.743  11.782  -1.995  0.00  0.00    -0.060 C 
ATOM     64  H   LIG d   1      10.172  11.827  -2.996  0.00  0.00     0.024 H 
ATOM     65  H   LIG d   1       8.662  11.905  -2.057  0.00  0.00     0.024 H 
ATOM     66  H   LIG d   1      10.164  12.579  -1.382  0.00  0.00     0.024 H 
ENDBRANCH   6  63
TORSDOF 5
ENDMDL
MODEL 2
REMARK VINA RESULT:      -6.8      7.207     12.038
REMARK  5 active torsions:
REMARK  status: ('A' for Active; 'I' for Inactive)
REMARK    1  A    between atoms: C_1  and  C_2 
REMARK    2  A    between atoms: C_7  and  C_9 
REMARK    3  A    between atoms: C_7  and  C_10 
REMARK    4  A    between atoms: N_31  and  C_38 
REMARK    5  A    between atoms: N_34  and  C_37 
ROOT
ATOM      1  C   LIG d   1       6.204  -2.988  -5.592  0.00  0.00    -0.010 C 
ATOM      2  C   LIG d   1       5.829  -2.561  -4.141  0.00  0.00    -0.027 C 
ATOM      3  C   LIG d   1       7.098  -1.757  -3.766  0.00  0.00     0.026 C 
ATOM      4  H   LIG d   1       6.922  -1.096  -2.909  0.00  0.00     0.050 H 
ATOM      5  C   LIG d   1       8.219  -2.750  -3.490  0.00  0.00    -0.029 C 
ATOM      6  C   LIG d   1       8.408  -3.814  -4.551  0.00  0.00    -0.033 C 
ATOM      7  C   LIG d   1       7.221  -4.134  -5.437  0.00  0.00    -0.041 C 
ATOM      8  N   LIG d   1       7.387  -0.985  -4.976  0.00  0.00    -0.307 N 
ATOM      9  C   LIG d   1       6.949  -1.775  -6.151  0.00  0.00     0.053 C 
ATOM     10  H   LIG d   1       7.839  -2.104  -6.711  0.00  0.00     0.052 H 
ATOM     11  C   LIG d   1       6.153  -0.825  -7.035  0.00  0.00     0.147 A 
ATOM     12  C   LIG d   1       7.076   0.334  -7.459  0.00  0.00    -0.000 C 
ATOM     13  C   LIG d   1       7.838   0.936  -6.318  0.00  0.00    -0.005 A 
ATOM     14  C   LIG d   1       7.970   0.267  -5.089  0.00  0.00     0.126 A 
ATOM     15  N   LIG d   1       8.622   0.801  -4.082  0.00  0.00    -0.232 NA
ATOM     16  C   LIG d   1       9.199   2.005  -4.175  0.00  0.00     0.077 A 
ATOM     17  C   LIG d   1       9.879   2.544  -3.062  0.00  0.00     0.010 A 
ATOM     18  C   LIG d   1      10.441   3.783  -3.209  0.00  0.00     0.168 A 
ATOM     19  C   LIG d   1      10.359   4.503  -4.425  0.00  0.00     0.167 A 
ATOM     20  C   LIG d   1       9.716   4.000  -5.520  0.00  0.00    -0.007 A 
ATOM     21  C   LIG d   1       9.116   2.729  -5.388  0.00  0.00     0.004 A 
ATOM     22  C   LIG d   1       8.414   2.165  -6.474  0.00  0.00    -0.046 A 
ATOM     23  O   LIG d   1      11.007   5.684  -4.269  0.00  0.00    -0.453 OA
ATOM     24  C   LIG d   1      11.114   5.869  -2.843  0.00  0.00     0.233 C 
ATOM     25  O   LIG d   1      11.140   4.526  -2.319  0.00  0.00    -0.453 OA
ATOM     26  C   LIG d   1       4.977  -0.256  -6.301  0.00  0.00     0.240 A 
ATOM     27  O   LIG d   1       5.142   0.264  -5.218  0.00  0.00    -0.274 OA
ATOM     28  N   LIG d   1       3.735  -0.289  -6.808  0.00  0.00    -0.228 N 
ATOM     29  C   LIG d   1       3.480  -0.848  -8.000  0.00  0.00     0.317 A 
ATOM     30  O   LIG d   1       2.343  -0.835  -8.431  0.00  0.00    -0.252 OA
ATOM     31  N   LIG d   1       4.442  -1.433  -8.730  0.00  0.00    -0.228 N 
ATOM     32  C   LIG d   1       5.715  -1.494  -8.312  0.00  0.00     0.240 A 
ATOM     33  O   LIG d   1       6.524  -2.095  -8.980  0.00  0.00    -0.274 OA
ATOM     34  H   LIG d   1       4.935  -1.937  -4.134  0.00  0.00     0.029 H 
ATOM     35  H   LIG d   1       5.700  -3.434  -3.498  0.00  0.00     0.029 H 
ATOM     36  H   LIG d   1       9.161  -2.192  -3.370  0.00  0.00     0.029 H 
ATOM     37  H   LIG d   1       8.029  -3.238  -2.524  0.00  0.00     0.029 H 
ATOM     38  H   LIG d   1       6.690  -5.013  -5.039  0.00  0.00     0.028 H 
ATOM     39  H   LIG d   1       7.585  -4.423  -6.437  0.00  0.00     0.028 H 
ATOM     40  H   LIG d   1       7.780  -0.045  -8.198  0.00  0.00     0.033 H 
ATOM     41  H   LIG d   1       6.466   1.106  -7.930  0.00  0.00     0.033 H 
ATOM     42  H   LIG d   1       9.960   2.001  -2.131  0.00  0.00     0.068 H 
ATOM     43  H   LIG d   1       9.662   4.549  -6.446  0.00  0.00     0.066 H 
ATOM     44  H   LIG d   1       8.333   2.688  -7.415  0.00  0.00     0.063 H 
ATOM     45  H   LIG d   1      12.037   6.394  -2.597  0.00  0.00     0.117 H 
ATOM     46  H   LIG d   1      10.254   6.417  -2.465  0.00  0.00     0.117 H 
ENDROOT
BRANCH   1  47
ATOM     47  C   LIG d   1       4.966  -3.448  -6.377  0.00  0.00    -0.058 C 
ATOM     48  H   LIG d   1       4.505  -4.292  -5.865  0.00  0.00     0.024 H 
ATOM     49  H   LIG d   1       4.251  -2.627  -6.440  0.00  0.00     0.024 H 
ATOM     50  H   LIG d   1       5.263  -3.749  -7.380  0.00  0.00     0.024 H 
ENDBRANCH   1  47
BRANCH  31  51
ATOM     51  C   LIG d   1       4.095  -2.024 -10.025  0.00  0.00     0.012 C 
ATOM     52  H   LIG d   1       4.217  -1.277 -10.808  0.00  0.00     0.043 H 
ATOM     53  H   LIG d   1       4.751  -2.871 -10.224  0.00  0.00     0.043 H 
ATOM     54  H   LIG d   1       3.059  -2.362 -10.003  0.00  0.00     0.043 H 
ENDBRANCH  31  51
BRANCH  28  55
ATOM     55  C   LIG d   1       2.635   0.298  -6.042  0.00  0.00     0.012 C 
ATOM     56  H   LIG d   1       2.941   1.270  -5.655  0.00  0.00     0.043 H 
ATOM     57  H   LIG d   1       1.767   0.421  -6.688  0.00  0.00     0.043 H 
ATOM     58  H   LIG d   1       2.380  -0.359  -5.210  0.00  0.00     0.043 H 
ENDBRANCH  28  55
BRANCH   6  59
ATOM     59  C   LIG d   1       9.628  -3.443  -5.415  0.00  0.00    -0.060 C 
ATOM     60  H   LIG d   1       9.640  -2.367  -5.586  0.00  0.00     0.024 H 
ATOM     61  H   LIG d   1      10.541  -3.739  -4.898  0.00  0.00     0.024 H 
ATOM     62  H   LIG d   1       9.567  -3.963  -6.371  0.00  0.00     0.024 H 
ENDBRANCH   6  59
BRANCH   6  63
ATOM     63  C   LIG d   1       8.793  -5.124  -3.812  0.00  0.00    -0.060 C 
ATOM     64  H   LIG d   1       8.147  -5.255  -2.944  0.00  0.00     0.024 H 
ATOM     65  H   LIG d   1       8.671  -5.971  -4.487  0.00  0.00     0.024 H 
ATOM     66  H   LIG d   1       9.832  -5.066  -3.487  0.00  0.00     0.024 H 
ENDBRANCH   6  63
TORSDOF 5
ENDMDL
MODEL 3
REMARK VINA RESULT:      -6.6      9.647     14.353
REMARK  5 active torsions:
REMARK  status: ('A' for Active; 'I' for Inactive)
REMARK    1  A    between atoms: C_1  and  C_2 
REMARK    2  A    between atoms: C_7  and  C_9 
REMARK    3  A    between atoms: C_7  and  C_10 
REMARK    4  A    between atoms: N_31  and  C_38 
REMARK    5  A    between atoms: N_34  and  C_37 
ROOT
ATOM      1  C   LIG d   1       6.604   0.112  -3.995  0.00  0.00    -0.010 C 
ATOM      2  C   LIG d   1       6.811  -1.116  -3.058  0.00  0.00    -0.027 C 
ATOM      3  C   LIG d   1       5.808  -2.108  -3.696  0.00  0.00     0.026 C 
ATOM      4  H   LIG d   1       6.017  -3.143  -3.400  0.00  0.00     0.050 H 
ATOM      5  C   LIG d   1       4.403  -1.679  -3.295  0.00  0.00    -0.029 C 
ATOM      6  C   LIG d   1       4.097  -0.211  -3.508  0.00  0.00    -0.033 C 
ATOM      7  C   LIG d   1       5.270   0.746  -3.557  0.00  0.00    -0.041 C 
ATOM      8  N   LIG d   1       6.008  -1.922  -5.135  0.00  0.00    -0.307 N 
ATOM      9  C   LIG d   1       6.392  -0.511  -5.376  0.00  0.00     0.053 C 
ATOM     10  H   LIG d   1       5.565  -0.001  -5.898  0.00  0.00     0.052 H 
ATOM     11  C   LIG d   1       7.595  -0.547  -6.308  0.00  0.00     0.147 A 
ATOM     12  C   LIG d   1       7.176  -1.239  -7.619  0.00  0.00    -0.000 C 
ATOM     13  C   LIG d   1       6.438  -2.525  -7.403  0.00  0.00    -0.005 A 
ATOM     14  C   LIG d   1       5.875  -2.848  -6.157  0.00  0.00     0.126 A 
ATOM     15  N   LIG d   1       5.243  -3.983  -5.962  0.00  0.00    -0.232 NA
ATOM     16  C   LIG d   1       5.098  -4.886  -6.938  0.00  0.00     0.077 A 
ATOM     17  C   LIG d   1       4.423  -6.097  -6.678  0.00  0.00     0.010 A 
ATOM     18  C   LIG d   1       4.312  -6.989  -7.709  0.00  0.00     0.168 A 
ATOM     19  C   LIG d   1       4.842  -6.718  -8.994  0.00  0.00     0.167 A 
ATOM     20  C   LIG d   1       5.491  -5.550  -9.275  0.00  0.00    -0.007 A 
ATOM     21  C   LIG d   1       5.629  -4.619  -8.222  0.00  0.00     0.004 A 
ATOM     22  C   LIG d   1       6.313  -3.405  -8.441  0.00  0.00    -0.046 A 
ATOM     23  O   LIG d   1       4.576  -7.775  -9.800  0.00  0.00    -0.453 OA
ATOM     24  C   LIG d   1       4.264  -8.862  -8.905  0.00  0.00     0.233 C 
ATOM     25  O   LIG d   1       3.723  -8.208  -7.739  0.00  0.00    -0.453 OA
ATOM     26  C   LIG d   1       8.729  -1.317  -5.702  0.00  0.00     0.240 A 
ATOM     27  O   LIG d   1       8.533  -2.434  -5.274  0.00  0.00    -0.274 OA
ATOM     28  N   LIG d   1       9.971  -0.815  -5.624  0.00  0.00    -0.228 N 
ATOM     29  C   LIG d   1      10.260   0.414  -6.077  0.00  0.00     0.317 A 
ATOM     30  O   LIG d   1      11.404   0.819  -6.007  0.00  0.00    -0.252 OA
ATOM     31  N   LIG d   1       9.320   1.217  -6.597  0.00  0.00    -0.228 N 
ATOM     32  C   LIG d   1       8.037   0.842  -6.694  0.00  0.00     0.240 A 
ATOM     33  O   LIG d   1       7.222   1.634  -7.106  0.00  0.00    -0.274 OA
ATOM     34  H   LIG d   1       7.837  -1.482  -3.114  0.00  0.00     0.029 H 
ATOM     35  H   LIG d   1       6.539  -0.872  -2.030  0.00  0.00     0.029 H 
ATOM     36  H   LIG d   1       3.677  -2.282  -3.862  0.00  0.00     0.029 H 
ATOM     37  H   LIG d   1       4.247  -1.927  -2.237  0.00  0.00     0.029 H 
ATOM     38  H   LIG d   1       5.416   1.202  -2.565  0.00  0.00     0.028 H 
ATOM     39  H   LIG d   1       5.030   1.577  -4.243  0.00  0.00     0.028 H 
ATOM     40  H   LIG d   1       6.541  -0.552  -8.178  0.00  0.00     0.033 H 
ATOM     41  H   LIG d   1       8.073  -1.434  -8.207  0.00  0.00     0.033 H 
ATOM     42  H   LIG d   1       4.003  -6.313  -5.706  0.00  0.00     0.068 H 
ATOM     43  H   LIG d   1       5.886  -5.344 -10.257  0.00  0.00     0.066 H 
ATOM     44  H   LIG d   1       6.728  -3.168  -9.408  0.00  0.00     0.063 H 
ATOM     45  H   LIG d   1       3.522  -9.522  -9.354  0.00  0.00     0.117 H 
ATOM     46  H   LIG d   1       5.164  -9.420  -8.655  0.00  0.00     0.117 H 
ENDROOT
BRANCH   1  47
ATOM     47  C   LIG d   1       7.762   1.114  -3.871  0.00  0.00    -0.058 C 
ATOM     48  H   LIG d   1       7.363   2.128  -3.846  0.00  0.00     0.024 H 
ATOM     49  H   LIG d   1       8.313   0.918  -2.950  0.00  0.00     0.024 H 
ATOM     50  H   LIG d   1       8.429   1.005  -4.725  0.00  0.00     0.024 H 
ENDBRANCH   1  47
BRANCH  31  51
ATOM     51  C   LIG d   1       9.703   2.548  -7.074  0.00  0.00     0.012 C 
ATOM     52  H   LIG d   1      10.567   2.462  -7.733  0.00  0.00     0.043 H 
ATOM     53  H   LIG d   1       8.872   2.992  -7.620  0.00  0.00     0.043 H 
ATOM     54  H   LIG d   1       9.957   3.180  -6.222  0.00  0.00     0.043 H 
ENDBRANCH  31  51
BRANCH  28  55
ATOM     55  C   LIG d   1      11.034  -1.629  -5.032  0.00  0.00     0.012 C 
ATOM     56  H   LIG d   1      11.680  -0.995  -4.424  0.00  0.00     0.043 H 
ATOM     57  H   LIG d   1      10.593  -2.404  -4.406  0.00  0.00     0.043 H 
ATOM     58  H   LIG d   1      11.622  -2.092  -5.825  0.00  0.00     0.043 H 
ENDBRANCH  28  55
BRANCH   6  59
ATOM     59  C   LIG d   1       3.239  -0.061  -4.778  0.00  0.00    -0.060 C 
ATOM     60  H   LIG d   1       2.451   0.671  -4.602  0.00  0.00     0.024 H 
ATOM     61  H   LIG d   1       3.868   0.274  -5.603  0.00  0.00     0.024 H 
ATOM     62  H   LIG d   1       2.793  -1.023  -5.030  0.00  0.00     0.024 H 
ENDBRANCH   6  59
BRANCH   6  63
ATOM     63  C   LIG d   1       3.191   0.236  -2.328  0.00  0.00    -0.060 C 
ATOM     64  H   LIG d   1       2.191   0.455  -2.701  0.00  0.00     0.024 H 
ATOM     65  H   LIG d   1       3.137  -0.563  -1.590  0.00  0.00     0.024 H 
ATOM     66  H   LIG d   1       3.611   1.129  -1.866  0.00  0.00     0.024 H 
ENDBRANCH   6  63
TORSDOF 5
ENDMDL
MODEL 4
REMARK VINA RESULT:      -6.5      9.641     14.892
REMARK  5 active torsions:
REMARK  status: ('A' for Active; 'I' for Inactive)
REMARK    1  A    between atoms: C_1  and  C_2 
REMARK    2  A    between atoms: C_7  and  C_9 
REMARK    3  A    between atoms: C_7  and  C_10 
REMARK    4  A    between atoms: N_31  and  C_38 
REMARK    5  A    between atoms: N_34  and  C_37 
ROOT
ATOM      1  C   LIG d   1       6.906  -1.242  -4.526  0.00  0.00    -0.010 C 
ATOM      2  C   LIG d   1       6.742  -2.750  -4.883  0.00  0.00    -0.027 C 
ATOM      3  C   LIG d   1       5.365  -2.707  -5.588  0.00  0.00     0.026 C 
ATOM      4  H   LIG d   1       5.196  -3.598  -6.204  0.00  0.00     0.050 H 
ATOM      5  C   LIG d   1       4.293  -2.550  -4.518  0.00  0.00    -0.029 C 
ATOM      6  C   LIG d   1       4.549  -1.446  -3.514  0.00  0.00    -0.033 C 
ATOM      7  C   LIG d   1       5.983  -1.000  -3.317  0.00  0.00    -0.041 C 
ATOM      8  N   LIG d   1       5.439  -1.502  -6.417  0.00  0.00    -0.307 N 
ATOM      9  C   LIG d   1       6.302  -0.513  -5.727  0.00  0.00     0.053 C 
ATOM     10  H   LIG d   1       5.676   0.327  -5.383  0.00  0.00     0.052 H 
ATOM     11  C   LIG d   1       7.273   0.014  -6.774  0.00  0.00     0.147 A 
ATOM     12  C   LIG d   1       6.461   0.678  -7.902  0.00  0.00    -0.000 C 
ATOM     13  C   LIG d   1       5.320  -0.163  -8.388  0.00  0.00    -0.005 A 
ATOM     14  C   LIG d   1       4.836  -1.248  -7.638  0.00  0.00     0.126 A 
ATOM     15  N   LIG d   1       3.848  -1.997  -8.071  0.00  0.00    -0.232 NA
ATOM     16  C   LIG d   1       3.247  -1.763  -9.244  0.00  0.00     0.077 A 
ATOM     17  C   LIG d   1       2.197  -2.602  -9.673  0.00  0.00     0.010 A 
ATOM     18  C   LIG d   1       1.626  -2.324 -10.884  0.00  0.00     0.168 A 
ATOM     19  C   LIG d   1       2.055  -1.235 -11.682  0.00  0.00     0.167 A 
ATOM     20  C   LIG d   1       3.061  -0.402 -11.285  0.00  0.00    -0.007 A 
ATOM     21  C   LIG d   1       3.676  -0.678 -10.044  0.00  0.00     0.004 A 
ATOM     22  C   LIG d   1       4.739   0.129  -9.590  0.00  0.00    -0.046 A 
ATOM     23  O   LIG d   1       1.306  -1.210 -12.812  0.00  0.00    -0.453 OA
ATOM     24  C   LIG d   1       0.716  -2.523 -12.902  0.00  0.00     0.233 C 
ATOM     25  O   LIG d   1       0.617  -2.955 -11.530  0.00  0.00    -0.453 OA
ATOM     26  C   LIG d   1       8.092  -1.096  -7.362  0.00  0.00     0.240 A 
ATOM     27  O   LIG d   1       7.538  -2.080  -7.804  0.00  0.00    -0.274 OA
ATOM     28  N   LIG d   1       9.431  -1.035  -7.431  0.00  0.00    -0.228 N 
ATOM     29  C   LIG d   1      10.109   0.022  -6.962  0.00  0.00     0.317 A 
ATOM     30  O   LIG d   1      11.320   0.045  -7.067  0.00  0.00    -0.252 OA
ATOM     31  N   LIG d   1       9.492   1.056  -6.371  0.00  0.00    -0.228 N 
ATOM     32  C   LIG d   1       8.161   1.094  -6.211  0.00  0.00     0.240 A 
ATOM     33  O   LIG d   1       7.668   2.018  -5.608  0.00  0.00    -0.274 OA
ATOM     34  H   LIG d   1       7.534  -3.082  -5.555  0.00  0.00     0.029 H 
ATOM     35  H   LIG d   1       6.715  -3.364  -3.980  0.00  0.00     0.029 H 
ATOM     36  H   LIG d   1       3.327  -2.367  -5.013  0.00  0.00     0.029 H 
ATOM     37  H   LIG d   1       4.186  -3.504  -3.983  0.00  0.00     0.029 H 
ATOM     38  H   LIG d   1       6.415  -1.518  -2.446  0.00  0.00     0.028 H 
ATOM     39  H   LIG d   1       5.996   0.075  -3.070  0.00  0.00     0.028 H 
ATOM     40  H   LIG d   1       6.074   1.626  -7.530  0.00  0.00     0.033 H 
ATOM     41  H   LIG d   1       7.134   0.885  -8.735  0.00  0.00     0.033 H 
ATOM     42  H   LIG d   1       1.851  -3.429  -9.070  0.00  0.00     0.068 H 
ATOM     43  H   LIG d   1       3.380   0.430 -11.893  0.00  0.00     0.066 H 
ATOM     44  H   LIG d   1       5.090   0.967 -10.174  0.00  0.00     0.063 H 
ATOM     45  H   LIG d   1      -0.272  -2.464 -13.358  0.00  0.00     0.117 H 
ATOM     46  H   LIG d   1       1.357  -3.190 -13.474  0.00  0.00     0.117 H 
ENDROOT
BRANCH   1  47
ATOM     47  C   LIG d   1       8.365  -0.902  -4.187  0.00  0.00    -0.058 C 
ATOM     48  H   LIG d   1       8.656   0.010  -4.709  0.00  0.00     0.024 H 
ATOM     49  H   LIG d   1       8.462  -0.752  -3.111  0.00  0.00     0.024 H 
ATOM     50  H   LIG d   1       9.011  -1.721  -4.499  0.00  0.00     0.024 H 
ENDBRANCH   1  47
BRANCH  31  51
ATOM     51  C   LIG d   1      10.293   2.180  -5.882  0.00  0.00     0.012 C 
ATOM     52  H   LIG d   1      11.284   1.825  -5.601  0.00  0.00     0.043 H 
ATOM     53  H   LIG d   1      10.384   2.930  -6.667  0.00  0.00     0.043 H 
ATOM     54  H   LIG d   1       9.806   2.622  -5.012  0.00  0.00     0.043 H 
ENDBRANCH  31  51
BRANCH  28  55
ATOM     55  C   LIG d   1      10.166  -2.150  -8.031  0.00  0.00     0.012 C 
ATOM     56  H   LIG d   1      11.234  -1.940  -7.998  0.00  0.00     0.043 H 
ATOM     57  H   LIG d   1       9.957  -3.064  -7.476  0.00  0.00     0.043 H 
ATOM     58  H   LIG d   1       9.853  -2.274  -9.068  0.00  0.00     0.043 H 
ENDBRANCH  28  55
BRANCH   6  59
ATOM     59  C   LIG d   1       3.663  -0.237  -3.867  0.00  0.00    -0.060 C 
ATOM     60  H   LIG d   1       4.249   0.679  -3.792  0.00  0.00     0.024 H 
ATOM     61  H   LIG d   1       3.289  -0.347  -4.886  0.00  0.00     0.024 H 
ATOM     62  H   LIG d   1       2.822  -0.189  -3.176  0.00  0.00     0.024 H 
ENDBRANCH   6  59
BRANCH   6  63
ATOM     63  C   LIG d   1       4.038  -1.960  -2.140  0.00  0.00    -0.060 C 
ATOM     64  H   LIG d   1       2.951  -2.034  -2.162  0.00  0.00     0.024 H 
ATOM     65  H   LIG d   1       4.465  -2.942  -1.938  0.00  0.00     0.024 H 
ATOM     66  H   LIG d   1       4.340  -1.265  -1.357  0.00  0.00     0.024 H 
ENDBRANCH   6  63
TORSDOF 5
ENDMDL
MODEL 5
REMARK VINA RESULT:      -6.5      6.267      9.199
REMARK  5 active torsions:
REMARK  status: ('A' for Active; 'I' for Inactive)
REMARK    1  A    between atoms: C_1  and  C_2 
REMARK    2  A    between atoms: C_7  and  C_9 
REMARK    3  A    between atoms: C_7  and  C_10 
REMARK    4  A    between atoms: N_31  and  C_38 
REMARK    5  A    between atoms: N_34  and  C_37 
ROOT
ATOM      1  C   LIG d   1      11.963   4.250  -4.582  0.00  0.00    -0.010 C 
ATOM      2  C   LIG d   1      11.942   3.693  -3.126  0.00  0.00    -0.027 C 
ATOM      3  C   LIG d   1      10.414   3.535  -2.927  0.00  0.00     0.026 C 
ATOM      4  H   LIG d   1      10.181   2.859  -2.095  0.00  0.00     0.050 H 
ATOM      5  C   LIG d   1       9.823   4.922  -2.709  0.00  0.00    -0.029 C 
ATOM      6  C   LIG d   1      10.246   5.964  -3.723  0.00  0.00    -0.033 C 
ATOM      7  C   LIG d   1      11.545   5.728  -4.465  0.00  0.00    -0.041 C 
ATOM      8  N   LIG d   1       9.955   2.979  -4.201  0.00  0.00    -0.307 N 
ATOM      9  C   LIG d   1      10.829   3.498  -5.280  0.00  0.00     0.053 C 
ATOM     10  H   LIG d   1      10.246   4.192  -5.907  0.00  0.00     0.052 H 
ATOM     11  C   LIG d   1      11.220   2.299  -6.132  0.00  0.00     0.147 A 
ATOM     12  C   LIG d   1       9.936   1.673  -6.710  0.00  0.00    -0.000 C 
ATOM     13  C   LIG d   1       8.861   1.466  -5.687  0.00  0.00    -0.005 A 
ATOM     14  C   LIG d   1       8.897   2.118  -4.442  0.00  0.00     0.126 A 
ATOM     15  N   LIG d   1       7.966   1.923  -3.537  0.00  0.00    -0.232 NA
ATOM     16  C   LIG d   1       6.932   1.101  -3.755  0.00  0.00     0.077 A 
ATOM     17  C   LIG d   1       5.962   0.914  -2.748  0.00  0.00     0.010 A 
ATOM     18  C   LIG d   1       4.932   0.056  -3.019  0.00  0.00     0.168 A 
ATOM     19  C   LIG d   1       4.827  -0.619  -4.259  0.00  0.00     0.167 A 
ATOM     20  C   LIG d   1       5.747  -0.448  -5.254  0.00  0.00    -0.007 A 
ATOM     21  C   LIG d   1       6.826   0.423  -4.992  0.00  0.00     0.004 A 
ATOM     22  C   LIG d   1       7.824   0.622  -5.969  0.00  0.00    -0.046 A 
ATOM     23  O   LIG d   1       3.712  -1.390  -4.236  0.00  0.00    -0.453 OA
ATOM     24  C   LIG d   1       3.370  -1.516  -2.840  0.00  0.00     0.233 C 
ATOM     25  O   LIG d   1       3.880  -0.304  -2.247  0.00  0.00    -0.453 OA
ATOM     26  C   LIG d   1      11.931   1.262  -5.316  0.00  0.00     0.240 A 
ATOM     27  O   LIG d   1      11.431   0.863  -4.286  0.00  0.00    -0.274 OA
ATOM     28  N   LIG d   1      13.110   0.743  -5.693  0.00  0.00    -0.228 N 
ATOM     29  C   LIG d   1      13.721   1.137  -6.820  0.00  0.00     0.317 A 
ATOM     30  O   LIG d   1      14.776   0.622  -7.135  0.00  0.00    -0.252 OA
ATOM     31  N   LIG d   1      13.206   2.092  -7.609  0.00  0.00    -0.228 N 
ATOM     32  C   LIG d   1      12.052   2.710  -7.319  0.00  0.00     0.240 A 
ATOM     33  O   LIG d   1      11.674   3.612  -8.029  0.00  0.00    -0.274 OA
ATOM     34  H   LIG d   1      12.461   2.737  -3.065  0.00  0.00     0.029 H 
ATOM     35  H   LIG d   1      12.368   4.414  -2.426  0.00  0.00     0.029 H 
ATOM     36  H   LIG d   1       8.725   4.840  -2.716  0.00  0.00     0.029 H 
ATOM     37  H   LIG d   1      10.097   5.269  -1.703  0.00  0.00     0.029 H 
ATOM     38  H   LIG d   1      12.360   6.277  -3.968  0.00  0.00     0.028 H 
ATOM     39  H   LIG d   1      11.463   6.155  -5.480  0.00  0.00     0.028 H 
ATOM     40  H   LIG d   1       9.561   2.330  -7.494  0.00  0.00     0.033 H 
ATOM     41  H   LIG d   1      10.193   0.713  -7.160  0.00  0.00     0.033 H 
ATOM     42  H   LIG d   1       6.022   1.431  -1.801  0.00  0.00     0.068 H 
ATOM     43  H   LIG d   1       5.659  -0.959  -6.200  0.00  0.00     0.066 H 
ATOM     44  H   LIG d   1       7.774   0.123  -6.924  0.00  0.00     0.063 H 
ATOM     45  H   LIG d   1       2.290  -1.578  -2.719  0.00  0.00     0.117 H 
ATOM     46  H   LIG d   1       3.851  -2.391  -2.409  0.00  0.00     0.117 H 
ENDROOT
BRANCH   1  47
ATOM     47  C   LIG d   1      13.358   4.117  -5.212  0.00  0.00    -0.058 C 
ATOM     48  H   LIG d   1      13.356   4.580  -6.198  0.00  0.00     0.024 H 
ATOM     49  H   LIG d   1      14.092   4.615  -4.577  0.00  0.00     0.024 H 
ATOM     50  H   LIG d   1      13.614   3.062  -5.305  0.00  0.00     0.024 H 
ENDBRANCH   1  47
BRANCH  31  51
ATOM     51  C   LIG d   1      13.924   2.475  -8.827  0.00  0.00     0.012 C 
ATOM     52  H   LIG d   1      14.407   1.597  -9.255  0.00  0.00     0.043 H 
ATOM     53  H   LIG d   1      13.220   2.890  -9.548  0.00  0.00     0.043 H 
ATOM     54  H   LIG d   1      14.679   3.223  -8.584  0.00  0.00     0.043 H 
ENDBRANCH  31  51
BRANCH  28  55
ATOM     55  C   LIG d   1      13.742  -0.277  -4.854  0.00  0.00     0.012 C 
ATOM     56  H   LIG d   1      14.789  -0.018  -4.695  0.00  0.00     0.043 H 
ATOM     57  H   LIG d   1      13.230  -0.327  -3.895  0.00  0.00     0.043 H 
ATOM     58  H   LIG d   1      13.680  -1.245  -5.351  0.00  0.00     0.043 H 
ENDBRANCH  28  55
BRANCH   6  59
ATOM     59  C   LIG d   1       9.096   6.179  -4.724  0.00  0.00    -0.060 C 
ATOM     60  H   LIG d   1       8.244   5.561  -4.440  0.00  0.00     0.024 H 
ATOM     61  H   LIG d   1       8.801   7.229  -4.718  0.00  0.00     0.024 H 
ATOM     62  H   LIG d   1       9.429   5.902  -5.724  0.00  0.00     0.024 H 
ENDBRANCH   6  59
BRANCH   6  63
ATOM     63  C   LIG d   1      10.396   7.305  -2.954  0.00  0.00    -0.060 C 
ATOM     64  H   LIG d   1       9.441   7.573  -2.502  0.00  0.00     0.024 H 
ATOM     65  H   LIG d   1      11.149   7.194  -2.174  0.00  0.00     0.024 H 
ATOM     66  H   LIG d   1      10.704   8.088  -3.646  0.00  0.00     0.024 H 
ENDBRANCH   6  63
TORSDOF 5
ENDMDL
MODEL 6
REMARK VINA RESULT:      -6.4      4.824      9.788
REMARK  5 active torsions:
REMARK  status: ('A' for Active; 'I' for Inactive)
REMARK    1  A    between atoms: C_1  and  C_2 
REMARK    2  A    between atoms: C_7  and  C_9 
REMARK    3  A    between atoms: C_7  and  C_10 
REMARK    4  A    between atoms: N_31  and  C_38 
REMARK    5  A    between atoms: N_34  and  C_37 
ROOT
ATOM      1  C   LIG d   1      11.154   9.827  -2.117  0.00  0.00    -0.010 C 
ATOM      2  C   LIG d   1      12.528   9.214  -2.523  0.00  0.00    -0.027 C 
ATOM      3  C   LIG d   1      12.040   7.970  -3.307  0.00  0.00     0.026 C 
ATOM      4  H   LIG d   1      12.826   7.565  -3.956  0.00  0.00     0.050 H 
ATOM      5  C   LIG d   1      11.556   6.939  -2.296  0.00  0.00    -0.029 C 
ATOM      6  C   LIG d   1      10.600   7.469  -1.249  0.00  0.00    -0.033 C 
ATOM      7  C   LIG d   1      10.639   8.955  -0.957  0.00  0.00    -0.041 C 
ATOM      8  N   LIG d   1      10.916   8.478  -4.096  0.00  0.00    -0.307 N 
ATOM      9  C   LIG d   1      10.261   9.566  -3.330  0.00  0.00     0.053 C 
ATOM     10  H   LIG d   1       9.267   9.220  -3.000  0.00  0.00     0.052 H 
ATOM     11  C   LIG d   1      10.066  10.719  -4.304  0.00  0.00     0.147 A 
ATOM     12  C   LIG d   1       9.168  10.236  -5.459  0.00  0.00    -0.000 C 
ATOM     13  C   LIG d   1       9.595   8.919  -6.033  0.00  0.00    -0.005 A 
ATOM     14  C   LIG d   1      10.473   8.066  -5.342  0.00  0.00     0.126 A 
ATOM     15  N   LIG d   1      10.862   6.921  -5.852  0.00  0.00    -0.232 NA
ATOM     16  C   LIG d   1      10.439   6.503  -7.051  0.00  0.00     0.077 A 
ATOM     17  C   LIG d   1      10.895   5.270  -7.563  0.00  0.00     0.010 A 
ATOM     18  C   LIG d   1      10.439   4.895  -8.798  0.00  0.00     0.168 A 
ATOM     19  C   LIG d   1       9.539   5.699  -9.539  0.00  0.00     0.167 A 
ATOM     20  C   LIG d   1       9.076   6.892  -9.062  0.00  0.00    -0.007 A 
ATOM     21  C   LIG d   1       9.543   7.305  -7.795  0.00  0.00     0.004 A 
ATOM     22  C   LIG d   1       9.123   8.540  -7.258  0.00  0.00    -0.046 A 
ATOM     23  O   LIG d   1       9.267   5.072 -10.709  0.00  0.00    -0.453 OA
ATOM     24  C   LIG d   1      10.321   4.100 -10.870  0.00  0.00     0.233 C 
ATOM     25  O   LIG d   1      10.708   3.781  -9.518  0.00  0.00    -0.453 OA
ATOM     26  C   LIG d   1      11.374  11.176  -4.874  0.00  0.00     0.240 A 
ATOM     27  O   LIG d   1      12.125  10.366  -5.374  0.00  0.00    -0.274 OA
ATOM     28  N   LIG d   1      11.746  12.466  -4.863  0.00  0.00    -0.228 N 
ATOM     29  C   LIG d   1      10.965  13.415  -4.327  0.00  0.00     0.317 A 
ATOM     30  O   LIG d   1      11.331  14.574  -4.360  0.00  0.00    -0.252 OA
ATOM     31  N   LIG d   1       9.793  13.124  -3.744  0.00  0.00    -0.228 N 
ATOM     32  C   LIG d   1       9.331  11.868  -3.661  0.00  0.00     0.240 A 
ATOM     33  O   LIG d   1       8.302  11.658  -3.062  0.00  0.00    -0.274 OA
ATOM     34  H   LIG d   1      13.091   9.899  -3.158  0.00  0.00     0.029 H 
ATOM     35  H   LIG d   1      13.107   8.934  -1.642  0.00  0.00     0.029 H 
ATOM     36  H   LIG d   1      11.069   6.115  -2.841  0.00  0.00     0.029 H 
ATOM     37  H   LIG d   1      12.429   6.499  -1.794  0.00  0.00     0.029 H 
ATOM     38  H   LIG d   1      11.274   9.142  -0.077  0.00  0.00     0.028 H 
ATOM     39  H   LIG d   1       9.626   9.295  -0.680  0.00  0.00     0.028 H 
ATOM     40  H   LIG d   1       8.149  10.148  -5.084  0.00  0.00     0.033 H 
ATOM     41  H   LIG d   1       9.181  10.991  -6.245  0.00  0.00     0.033 H 
ATOM     42  H   LIG d   1      11.572   4.640  -7.004  0.00  0.00     0.068 H 
ATOM     43  H   LIG d   1       8.385   7.498  -9.627  0.00  0.00     0.066 H 
ATOM     44  H   LIG d   1       8.438   9.176  -7.797  0.00  0.00     0.063 H 
ATOM     45  H   LIG d   1       9.945   3.214 -11.380  0.00  0.00     0.117 H 
ATOM     46  H   LIG d   1      11.154   4.530 -11.421  0.00  0.00     0.117 H 
ENDROOT
BRANCH   1  47
ATOM     47  C   LIG d   1      11.302  11.294  -1.684  0.00  0.00    -0.058 C 
ATOM     48  H   LIG d   1      10.435  11.587  -1.093  0.00  0.00     0.024 H 
ATOM     49  H   LIG d   1      12.206  11.406  -1.083  0.00  0.00     0.024 H 
ATOM     50  H   LIG d   1      11.372  11.928  -2.567  0.00  0.00     0.024 H 
ENDBRANCH   1  47
BRANCH  31  51
ATOM     51  C   LIG d   1       8.988  14.209  -3.178  0.00  0.00     0.012 C 
ATOM     52  H   LIG d   1       9.644  15.017  -2.855  0.00  0.00     0.043 H 
ATOM     53  H   LIG d   1       8.298  14.582  -3.934  0.00  0.00     0.043 H 
ATOM     54  H   LIG d   1       8.424  13.835  -2.324  0.00  0.00     0.043 H 
ENDBRANCH  31  51
BRANCH  28  55
ATOM     55  C   LIG d   1      13.033  12.843  -5.450  0.00  0.00     0.012 C 
ATOM     56  H   LIG d   1      13.296  12.133  -6.234  0.00  0.00     0.043 H 
ATOM     57  H   LIG d   1      12.959  13.843  -5.876  0.00  0.00     0.043 H 
ATOM     58  H   LIG d   1      13.802  12.832  -4.677  0.00  0.00     0.043 H 
ENDBRANCH  28  55
BRANCH   6  59
ATOM     59  C   LIG d   1       9.168   7.040  -1.620  0.00  0.00    -0.060 C 
ATOM     60  H   LIG d   1       8.856   7.557  -2.526  0.00  0.00     0.024 H 
ATOM     61  H   LIG d   1       9.145   5.963  -1.789  0.00  0.00     0.024 H 
ATOM     62  H   LIG d   1       8.491   7.293  -0.805  0.00  0.00     0.024 H 
ENDBRANCH   6  59
BRANCH   6  63
ATOM     63  C   LIG d   1      10.933   6.734   0.078  0.00  0.00    -0.060 C 
ATOM     64  H   LIG d   1      11.580   7.363   0.689  0.00  0.00     0.024 H 
ATOM     65  H   LIG d   1      10.011   6.526   0.620  0.00  0.00     0.024 H 
ATOM     66  H   LIG d   1      11.442   5.796  -0.144  0.00  0.00     0.024 H 
ENDBRANCH   6  63
TORSDOF 5
ENDMDL
MODEL 7
REMARK VINA RESULT:      -6.4      7.739     10.351
REMARK  5 active torsions:
REMARK  status: ('A' for Active; 'I' for Inactive)
REMARK    1  A    between atoms: C_1  and  C_2 
REMARK    2  A    between atoms: C_7  and  C_9 
REMARK    3  A    between atoms: C_7  and  C_10 
REMARK    4  A    between atoms: N_31  and  C_38 
REMARK    5  A    between atoms: N_34  and  C_37 
ROOT
ATOM      1  C   LIG d   1      12.281   2.091  -6.849  0.00  0.00    -0.010 C 
ATOM      2  C   LIG d   1      11.612   1.053  -7.800  0.00  0.00    -0.027 C 
ATOM      3  C   LIG d   1      10.873   0.178  -6.758  0.00  0.00     0.026 C 
ATOM      4  H   LIG d   1      10.078  -0.420  -7.220  0.00  0.00     0.050 H 
ATOM      5  C   LIG d   1      11.906  -0.698  -6.061  0.00  0.00    -0.029 C 
ATOM      6  C   LIG d   1      13.128   0.037  -5.551  0.00  0.00    -0.033 C 
ATOM      7  C   LIG d   1      13.474   1.357  -6.208  0.00  0.00    -0.041 C 
ATOM      8  N   LIG d   1      10.317   1.156  -5.819  0.00  0.00    -0.307 N 
ATOM      9  C   LIG d   1      11.233   2.320  -5.759  0.00  0.00     0.053 C 
ATOM     10  H   LIG d   1      11.717   2.341  -4.769  0.00  0.00     0.052 H 
ATOM     11  C   LIG d   1      10.361   3.560  -5.890  0.00  0.00     0.147 A 
ATOM     12  C   LIG d   1       9.362   3.580  -4.718  0.00  0.00    -0.000 C 
ATOM     13  C   LIG d   1       8.664   2.270  -4.509  0.00  0.00    -0.005 A 
ATOM     14  C   LIG d   1       9.151   1.080  -5.075  0.00  0.00     0.126 A 
ATOM     15  N   LIG d   1       8.530  -0.065  -4.908  0.00  0.00    -0.232 NA
ATOM     16  C   LIG d   1       7.407  -0.159  -4.186  0.00  0.00     0.077 A 
ATOM     17  C   LIG d   1       6.768  -1.410  -4.044  0.00  0.00     0.010 A 
ATOM     18  C   LIG d   1       5.618  -1.447  -3.305  0.00  0.00     0.168 A 
ATOM     19  C   LIG d   1       5.083  -0.288  -2.693  0.00  0.00     0.167 A 
ATOM     20  C   LIG d   1       5.687   0.932  -2.806  0.00  0.00    -0.007 A 
ATOM     21  C   LIG d   1       6.868   0.998  -3.576  0.00  0.00     0.004 A 
ATOM     22  C   LIG d   1       7.526   2.233  -3.754  0.00  0.00    -0.046 A 
ATOM     23  O   LIG d   1       3.952  -0.635  -2.031  0.00  0.00    -0.453 OA
ATOM     24  C   LIG d   1       3.567  -1.909  -2.586  0.00  0.00     0.233 C 
ATOM     25  O   LIG d   1       4.814  -2.496  -3.010  0.00  0.00    -0.453 OA
ATOM     26  C   LIG d   1       9.590   3.549  -7.175  0.00  0.00     0.240 A 
ATOM     27  O   LIG d   1       8.931   2.575  -7.470  0.00  0.00    -0.274 OA
ATOM     28  N   LIG d   1       9.592   4.593  -8.018  0.00  0.00    -0.228 N 
ATOM     29  C   LIG d   1      10.299   5.703  -7.757  0.00  0.00     0.317 A 
ATOM     30  O   LIG d   1      10.253   6.634  -8.537  0.00  0.00    -0.252 OA
ATOM     31  N   LIG d   1      11.066   5.814  -6.662  0.00  0.00    -0.228 N 
ATOM     32  C   LIG d   1      11.173   4.824  -5.764  0.00  0.00     0.240 A 
ATOM     33  O   LIG d   1      11.934   4.954  -4.834  0.00  0.00    -0.274 OA
ATOM     34  H   LIG d   1      10.919   1.540  -8.487  0.00  0.00     0.029 H 
ATOM     35  H   LIG d   1      12.365   0.481  -8.345  0.00  0.00     0.029 H 
ATOM     36  H   LIG d   1      11.419  -1.212  -5.218  0.00  0.00     0.029 H 
ATOM     37  H   LIG d   1      12.226  -1.486  -6.757  0.00  0.00     0.029 H 
ATOM     38  H   LIG d   1      14.235   1.194  -6.987  0.00  0.00     0.028 H 
ATOM     39  H   LIG d   1      13.939   2.022  -5.461  0.00  0.00     0.028 H 
ATOM     40  H   LIG d   1       9.906   3.843  -3.811  0.00  0.00     0.033 H 
ATOM     41  H   LIG d   1       8.619   4.355  -4.910  0.00  0.00     0.033 H 
ATOM     42  H   LIG d   1       7.171  -2.305  -4.495  0.00  0.00     0.068 H 
ATOM     43  H   LIG d   1       5.279   1.811  -2.332  0.00  0.00     0.066 H 
ATOM     44  H   LIG d   1       7.144   3.135  -3.301  0.00  0.00     0.063 H 
ATOM     45  H   LIG d   1       3.091  -2.526  -1.824  0.00  0.00     0.117 H 
ATOM     46  H   LIG d   1       2.896  -1.768  -3.432  0.00  0.00     0.117 H 
ENDROOT
BRANCH   1  47
ATOM     47  C   LIG d   1      12.745   3.337  -7.619  0.00  0.00    -0.058 C 
ATOM     48  H   LIG d   1      11.877   3.856  -8.027  0.00  0.00     0.024 H 
ATOM     49  H   LIG d   1      13.281   4.003  -6.942  0.00  0.00     0.024 H 
ATOM     50  H   LIG d   1      13.404   3.037  -8.432  0.00  0.00     0.024 H 
ENDBRANCH   1  47
BRANCH  31  51
ATOM     51  C   LIG d   1      11.811   7.054  -6.436  0.00  0.00     0.012 C 
ATOM     52  H   LIG d   1      12.878   6.862  -6.548  0.00  0.00     0.043 H 
ATOM     53  H   LIG d   1      11.498   7.804  -7.161  0.00  0.00     0.043 H 
ATOM     54  H   LIG d   1      11.612   7.418  -5.427  0.00  0.00     0.043 H 
ENDBRANCH  31  51
BRANCH  28  55
ATOM     55  C   LIG d   1       8.805   4.519  -9.250  0.00  0.00     0.012 C 
ATOM     56  H   LIG d   1       9.220   3.748  -9.899  0.00  0.00     0.043 H 
ATOM     57  H   LIG d   1       7.772   4.272  -9.007  0.00  0.00     0.043 H 
ATOM     58  H   LIG d   1       8.839   5.481  -9.762  0.00  0.00     0.043 H 
ENDBRANCH  28  55
BRANCH   6  59
ATOM     59  C   LIG d   1      12.996   0.223  -4.028  0.00  0.00    -0.060 C 
ATOM     60  H   LIG d   1      12.107   0.813  -3.809  0.00  0.00     0.024 H 
ATOM     61  H   LIG d   1      12.911  -0.753  -3.550  0.00  0.00     0.024 H 
ATOM     62  H   LIG d   1      13.878   0.738  -3.648  0.00  0.00     0.024 H 
ENDBRANCH   6  59
BRANCH   6  63
ATOM     63  C   LIG d   1      14.341  -0.909  -5.760  0.00  0.00    -0.060 C 
ATOM     64  H   LIG d   1      14.926  -0.958  -4.842  0.00  0.00     0.024 H 
ATOM     65  H   LIG d   1      13.985  -1.906  -6.017  0.00  0.00     0.024 H 
ATOM     66  H   LIG d   1      14.965  -0.528  -6.569  0.00  0.00     0.024 H 
ENDBRANCH   6  63
TORSDOF 5
ENDMDL
MODEL 8
REMARK VINA RESULT:      -6.3      3.055      4.998
REMARK  5 active torsions:
REMARK  status: ('A' for Active; 'I' for Inactive)
REMARK    1  A    between atoms: C_1  and  C_2 
REMARK    2  A    between atoms: C_7  and  C_9 
REMARK    3  A    between atoms: C_7  and  C_10 
REMARK    4  A    between atoms: N_31  and  C_38 
REMARK    5  A    between atoms: N_34  and  C_37 
ROOT
ATOM      1  C   LIG d   1      10.988   4.964  -6.328  0.00  0.00    -0.010 C 
ATOM      2  C   LIG d   1      12.445   5.518  -6.305  0.00  0.00    -0.027 C 
ATOM      3  C   LIG d   1      12.262   6.699  -5.321  0.00  0.00     0.026 C 
ATOM      4  H   LIG d   1      13.221   7.035  -4.907  0.00  0.00     0.050 H 
ATOM      5  C   LIG d   1      11.543   7.820  -6.060  0.00  0.00    -0.029 C 
ATOM      6  C   LIG d   1      10.299   7.396  -6.811  0.00  0.00    -0.033 C 
ATOM      7  C   LIG d   1      10.189   5.939  -7.212  0.00  0.00    -0.041 C 
ATOM      8  N   LIG d   1      11.402   6.146  -4.273  0.00  0.00    -0.307 N 
ATOM      9  C   LIG d   1      10.506   5.138  -4.887  0.00  0.00     0.053 C 
ATOM     10  H   LIG d   1       9.474   5.527  -4.879  0.00  0.00     0.052 H 
ATOM     11  C   LIG d   1      10.561   3.910  -3.989  0.00  0.00     0.147 A 
ATOM     12  C   LIG d   1      10.066   4.310  -2.586  0.00  0.00    -0.000 C 
ATOM     13  C   LIG d   1      10.697   5.567  -2.068  0.00  0.00    -0.005 A 
ATOM     14  C   LIG d   1      11.366   6.459  -2.924  0.00  0.00     0.126 A 
ATOM     15  N   LIG d   1      11.935   7.551  -2.468  0.00  0.00    -0.232 NA
ATOM     16  C   LIG d   1      11.903   7.874  -1.170  0.00  0.00     0.077 A 
ATOM     17  C   LIG d   1      12.540   9.053  -0.726  0.00  0.00     0.010 A 
ATOM     18  C   LIG d   1      12.485   9.329   0.613  0.00  0.00     0.168 A 
ATOM     19  C   LIG d   1      11.814   8.481   1.526  0.00  0.00     0.167 A 
ATOM     20  C   LIG d   1      11.181   7.341   1.121  0.00  0.00    -0.007 A 
ATOM     21  C   LIG d   1      11.235   7.027  -0.255  0.00  0.00     0.004 A 
ATOM     22  C   LIG d   1      10.624   5.850  -0.734  0.00  0.00    -0.046 A 
ATOM     23  O   LIG d   1      11.926   9.013   2.768  0.00  0.00    -0.453 OA
ATOM     24  C   LIG d   1      13.019   9.950   2.679  0.00  0.00     0.233 C 
ATOM     25  O   LIG d   1      13.002  10.375   1.301  0.00  0.00    -0.453 OA
ATOM     26  C   LIG d   1      11.959   3.385  -3.871  0.00  0.00     0.240 A 
ATOM     27  O   LIG d   1      12.857   4.138  -3.559  0.00  0.00    -0.274 OA
ATOM     28  N   LIG d   1      12.258   2.095  -4.089  0.00  0.00    -0.228 N 
ATOM     29  C   LIG d   1      11.315   1.207  -4.438  0.00  0.00     0.317 A 
ATOM     30  O   LIG d   1      11.627   0.043  -4.602  0.00  0.00    -0.252 OA
ATOM     31  N   LIG d   1      10.036   1.566  -4.621  0.00  0.00    -0.228 N 
ATOM     32  C   LIG d   1       9.622   2.832  -4.468  0.00  0.00     0.240 A 
ATOM     33  O   LIG d   1       8.472   3.108  -4.715  0.00  0.00    -0.274 OA
ATOM     34  H   LIG d   1      13.142   4.773  -5.920  0.00  0.00     0.029 H 
ATOM     35  H   LIG d   1      12.748   5.861  -7.296  0.00  0.00     0.029 H 
ATOM     36  H   LIG d   1      11.274   8.603  -5.334  0.00  0.00     0.029 H 
ATOM     37  H   LIG d   1      12.246   8.286  -6.765  0.00  0.00     0.029 H 
ATOM     38  H   LIG d   1      10.528   5.816  -8.253  0.00  0.00     0.028 H 
ATOM     39  H   LIG d   1       9.127   5.640  -7.199  0.00  0.00     0.028 H 
ATOM     40  H   LIG d   1       8.986   4.446  -2.632  0.00  0.00     0.033 H 
ATOM     41  H   LIG d   1      10.280   3.491  -1.898  0.00  0.00     0.033 H 
ATOM     42  H   LIG d   1      13.047   9.716  -1.412  0.00  0.00     0.068 H 
ATOM     43  H   LIG d   1      10.665   6.702   1.819  0.00  0.00     0.066 H 
ATOM     44  H   LIG d   1      10.104   5.182  -0.064  0.00  0.00     0.063 H 
ATOM     45  H   LIG d   1      12.847  10.796   3.344  0.00  0.00     0.117 H 
ATOM     46  H   LIG d   1      13.960   9.461   2.923  0.00  0.00     0.117 H 
ENDROOT
BRANCH   1  47
ATOM     47  C   LIG d   1      10.942   3.536  -6.894  0.00  0.00    -0.058 C 
ATOM     48  H   LIG d   1      10.019   3.400  -7.458  0.00  0.00     0.024 H 
ATOM     49  H   LIG d   1      11.797   3.379  -7.552  0.00  0.00     0.024 H 
ATOM     50  H   LIG d   1      10.976   2.820  -6.075  0.00  0.00     0.024 H 
ENDBRANCH   1  47
BRANCH  31  51
ATOM     51  C   LIG d   1       9.056   0.545  -5.000  0.00  0.00     0.012 C 
ATOM     52  H   LIG d   1       8.441   0.919  -5.818  0.00  0.00     0.043 H 
ATOM     53  H   LIG d   1       9.576  -0.357  -5.319  0.00  0.00     0.043 H 
ATOM     54  H   LIG d   1       8.421   0.316  -4.144  0.00  0.00     0.043 H 
ENDBRANCH  31  51
BRANCH  28  55
ATOM     55  C   LIG d   1      13.644   1.648  -3.943  0.00  0.00     0.012 C 
ATOM     56  H   LIG d   1      13.894   1.583  -2.884  0.00  0.00     0.043 H 
ATOM     57  H   LIG d   1      13.762   0.669  -4.405  0.00  0.00     0.043 H 
ATOM     58  H   LIG d   1      14.309   2.362  -4.429  0.00  0.00     0.043 H 
ENDBRANCH  28  55
BRANCH   6  59
ATOM     59  C   LIG d   1       9.060   7.816  -5.999  0.00  0.00    -0.060 C 
ATOM     60  H   LIG d   1       8.305   7.033  -6.054  0.00  0.00     0.024 H 
ATOM     61  H   LIG d   1       9.345   7.973  -4.958  0.00  0.00     0.024 H 
ATOM     62  H   LIG d   1       8.655   8.741  -6.408  0.00  0.00     0.024 H 
ENDBRANCH   6  59
BRANCH   6  63
ATOM     63  C   LIG d   1      10.255   8.234  -8.118  0.00  0.00    -0.060 C 
ATOM     64  H   LIG d   1      10.275   7.566  -8.979  0.00  0.00     0.024 H 
ATOM     65  H   LIG d   1       9.341   8.826  -8.139  0.00  0.00     0.024 H 
ATOM     66  H   LIG d   1      11.118   8.898  -8.153  0.00  0.00     0.024 H 
ENDBRANCH   6  63
TORSDOF 5
ENDMDL
MODEL 9
REMARK VINA RESULT:      -6.3      3.602      7.616
REMARK  5 active torsions:
REMARK  status: ('A' for Active; 'I' for Inactive)
REMARK    1  A    between atoms: C_1  and  C_2 
REMARK    2  A    between atoms: C_7  and  C_9 
REMARK    3  A    between atoms: C_7  and  C_10 
REMARK    4  A    between atoms: N_31  and  C_38 
REMARK    5  A    between atoms: N_34  and  C_37 
ROOT
ATOM      1  C   LIG d   1      11.638   1.158  -5.823  0.00  0.00    -0.010 C 
ATOM      2  C   LIG d   1      11.919   0.569  -4.408  0.00  0.00    -0.027 C 
ATOM      3  C   LIG d   1      12.497   1.824  -3.710  0.00  0.00     0.026 C 
ATOM      4  H   LIG d   1      12.467   1.731  -2.617  0.00  0.00     0.050 H 
ATOM      5  C   LIG d   1      13.918   2.032  -4.218  0.00  0.00    -0.029 C 
ATOM      6  C   LIG d   1      14.070   1.992  -5.724  0.00  0.00    -0.033 C 
ATOM      7  C   LIG d   1      13.012   1.250  -6.514  0.00  0.00    -0.041 C 
ATOM      8  N   LIG d   1      11.626   2.907  -4.170  0.00  0.00    -0.307 N 
ATOM      9  C   LIG d   1      11.161   2.583  -5.540  0.00  0.00     0.053 C 
ATOM     10  H   LIG d   1      11.629   3.285  -6.250  0.00  0.00     0.052 H 
ATOM     11  C   LIG d   1       9.658   2.822  -5.552  0.00  0.00     0.147 A 
ATOM     12  C   LIG d   1       9.398   4.303  -5.214  0.00  0.00    -0.000 C 
ATOM     13  C   LIG d   1      10.159   4.782  -4.015  0.00  0.00    -0.005 A 
ATOM     14  C   LIG d   1      11.257   4.066  -3.508  0.00  0.00     0.126 A 
ATOM     15  N   LIG d   1      11.913   4.476  -2.447  0.00  0.00    -0.232 NA
ATOM     16  C   LIG d   1      11.576   5.597  -1.798  0.00  0.00     0.077 A 
ATOM     17  C   LIG d   1      12.304   5.990  -0.655  0.00  0.00     0.010 A 
ATOM     18  C   LIG d   1      11.910   7.139  -0.024  0.00  0.00     0.168 A 
ATOM     19  C   LIG d   1      10.824   7.916  -0.494  0.00  0.00     0.167 A 
ATOM     20  C   LIG d   1      10.109   7.563  -1.603  0.00  0.00    -0.007 A 
ATOM     21  C   LIG d   1      10.489   6.374  -2.263  0.00  0.00     0.004 A 
ATOM     22  C   LIG d   1       9.775   5.940  -3.399  0.00  0.00    -0.046 A 
ATOM     23  O   LIG d   1      10.676   8.986   0.325  0.00  0.00    -0.453 OA
ATOM     24  C   LIG d   1      11.391   8.640   1.529  0.00  0.00     0.233 C 
ATOM     25  O   LIG d   1      12.421   7.740   1.076  0.00  0.00    -0.453 OA
ATOM     26  C   LIG d   1       8.965   1.970  -4.533  0.00  0.00     0.240 A 
ATOM     27  O   LIG d   1       9.352   1.975  -3.384  0.00  0.00    -0.274 OA
ATOM     28  N   LIG d   1       7.910   1.201  -4.845  0.00  0.00    -0.228 N 
ATOM     29  C   LIG d   1       7.428   1.146  -6.095  0.00  0.00     0.317 A 
ATOM     30  O   LIG d   1       6.457   0.454  -6.328  0.00  0.00    -0.252 OA
ATOM     31  N   LIG d   1       7.993   1.827  -7.104  0.00  0.00    -0.228 N 
ATOM     32  C   LIG d   1       9.073   2.601  -6.923  0.00  0.00     0.240 A 
ATOM     33  O   LIG d   1       9.581   3.135  -7.882  0.00  0.00    -0.274 OA
ATOM     34  H   LIG d   1      10.997   0.229  -3.935  0.00  0.00     0.029 H 
ATOM     35  H   LIG d   1      12.652  -0.238  -4.460  0.00  0.00     0.029 H 
ATOM     36  H   LIG d   1      14.285   3.002  -3.846  0.00  0.00     0.029 H 
ATOM     37  H   LIG d   1      14.568   1.267  -3.772  0.00  0.00     0.029 H 
ATOM     38  H   LIG d   1      13.359   0.226  -6.725  0.00  0.00     0.028 H 
ATOM     39  H   LIG d   1      12.884   1.738  -7.494  0.00  0.00     0.028 H 
ATOM     40  H   LIG d   1       9.678   4.904  -6.078  0.00  0.00     0.033 H 
ATOM     41  H   LIG d   1       8.330   4.433  -5.036  0.00  0.00     0.033 H 
ATOM     42  H   LIG d   1      13.142   5.414  -0.292  0.00  0.00     0.068 H 
ATOM     43  H   LIG d   1       9.287   8.162  -1.961  0.00  0.00     0.066 H 
ATOM     44  H   LIG d   1       8.942   6.509  -3.782  0.00  0.00     0.063 H 
ATOM     45  H   LIG d   1      11.829   9.531   1.979  0.00  0.00     0.117 H 
ATOM     46  H   LIG d   1      10.727   8.147   2.237  0.00  0.00     0.117 H 
ENDROOT
BRANCH   1  47
ATOM     47  C   LIG d   1      10.676   0.264  -6.620  0.00  0.00    -0.058 C 
ATOM     48  H   LIG d   1      10.855  -0.781  -6.364  0.00  0.00     0.024 H 
ATOM     49  H   LIG d   1       9.647   0.527  -6.373  0.00  0.00     0.024 H 
ATOM     50  H   LIG d   1      10.842   0.411  -7.686  0.00  0.00     0.024 H 
ENDBRANCH   1  47
BRANCH  31  51
ATOM     51  C   LIG d   1       7.416   1.724  -8.446  0.00  0.00     0.012 C 
ATOM     52  H   LIG d   1       8.198   1.464  -9.158  0.00  0.00     0.043 H 
ATOM     53  H   LIG d   1       6.646   0.954  -8.453  0.00  0.00     0.043 H 
ATOM     54  H   LIG d   1       6.975   2.682  -8.725  0.00  0.00     0.043 H 
ENDBRANCH  31  51
BRANCH  28  55
ATOM     55  C   LIG d   1       7.272   0.403  -3.796  0.00  0.00     0.012 C 
ATOM     56  H   LIG d   1       8.005  -0.277  -3.361  0.00  0.00     0.043 H 
ATOM     57  H   LIG d   1       6.886   1.065  -3.021  0.00  0.00     0.043 H 
ATOM     58  H   LIG d   1       6.452  -0.173  -4.226  0.00  0.00     0.043 H 
ENDBRANCH  28  55
BRANCH   6  59
ATOM     59  C   LIG d   1      14.207   3.434  -6.248  0.00  0.00    -0.060 C 
ATOM     60  H   LIG d   1      13.290   3.724  -6.761  0.00  0.00     0.024 H 
ATOM     61  H   LIG d   1      14.384   4.109  -5.411  0.00  0.00     0.024 H 
ATOM     62  H   LIG d   1      15.045   3.489  -6.942  0.00  0.00     0.024 H 
ENDBRANCH   6  59
BRANCH   6  63
ATOM     63  C   LIG d   1      15.429   1.302  -6.020  0.00  0.00    -0.060 C 
ATOM     64  H   LIG d   1      16.239   1.900  -5.603  0.00  0.00     0.024 H 
ATOM     65  H   LIG d   1      15.440   0.311  -5.568  0.00  0.00     0.024 H 
ATOM     66  H   LIG d   1      15.563   1.210  -7.098  0.00  0.00     0.024 H 
ENDBRANCH   6  63
TORSDOF 5
ENDMDL
MODEL 10
REMARK VINA RESULT:      -6.2     11.272     15.643
REMARK  5 active torsions:
REMARK  status: ('A' for Active; 'I' for Inactive)
REMARK    1  A    between atoms: C_1  and  C_2 
REMARK    2  A    between atoms: C_7  and  C_9 
REMARK    3  A    between atoms: C_7  and  C_10 
REMARK    4  A    between atoms: N_31  and  C_38 
REMARK    5  A    between atoms: N_34  and  C_37 
ROOT
ATOM      1  C   LIG d   1       5.288  -2.942 -11.495  0.00  0.00    -0.010 C 
ATOM      2  C   LIG d   1       5.871  -3.973 -10.482  0.00  0.00    -0.027 C 
ATOM      3  C   LIG d   1       6.243  -3.020  -9.320  0.00  0.00     0.026 C 
ATOM      4  H   LIG d   1       6.375  -3.562  -8.376  0.00  0.00     0.050 H 
ATOM      5  C   LIG d   1       7.505  -2.265  -9.717  0.00  0.00    -0.029 C 
ATOM      6  C   LIG d   1       7.468  -1.636 -11.093  0.00  0.00    -0.033 C 
ATOM      7  C   LIG d   1       6.507  -2.225 -12.105  0.00  0.00    -0.041 C 
ATOM      8  N   LIG d   1       5.103  -2.104  -9.246  0.00  0.00    -0.307 N 
ATOM      9  C   LIG d   1       4.549  -1.936 -10.611  0.00  0.00     0.053 C 
ATOM     10  H   LIG d   1       4.755  -0.909 -10.955  0.00  0.00     0.052 H 
ATOM     11  C   LIG d   1       3.041  -2.105 -10.486  0.00  0.00     0.147 A 
ATOM     12  C   LIG d   1       2.507  -1.019  -9.533  0.00  0.00    -0.000 C 
ATOM     13  C   LIG d   1       3.291  -0.905  -8.261  0.00  0.00    -0.005 A 
ATOM     14  C   LIG d   1       4.576  -1.461  -8.138  0.00  0.00     0.126 A 
ATOM     15  N   LIG d   1       5.257  -1.378  -7.018  0.00  0.00    -0.232 NA
ATOM     16  C   LIG d   1       4.767  -0.754  -5.940  0.00  0.00     0.077 A 
ATOM     17  C   LIG d   1       5.531  -0.701  -4.755  0.00  0.00     0.010 A 
ATOM     18  C   LIG d   1       4.978  -0.060  -3.680  0.00  0.00     0.168 A 
ATOM     19  C   LIG d   1       3.696   0.537  -3.743  0.00  0.00     0.167 A 
ATOM     20  C   LIG d   1       2.940   0.508  -4.880  0.00  0.00    -0.007 A 
ATOM     21  C   LIG d   1       3.485  -0.159  -5.999  0.00  0.00     0.004 A 
ATOM     22  C   LIG d   1       2.744  -0.248  -7.196  0.00  0.00    -0.046 A 
ATOM     23  O   LIG d   1       3.422   1.094  -2.537  0.00  0.00    -0.453 OA
ATOM     24  C   LIG d   1       4.344   0.473  -1.618  0.00  0.00     0.233 C 
ATOM     25  O   LIG d   1       5.481   0.138  -2.439  0.00  0.00    -0.453 OA
ATOM     26  C   LIG d   1       2.690  -3.449  -9.925  0.00  0.00     0.240 A 
ATOM     27  O   LIG d   1       3.211  -3.824  -8.896  0.00  0.00    -0.274 OA
ATOM     28  N   LIG d   1       1.800  -4.260 -10.519  0.00  0.00    -0.228 N 
ATOM     29  C   LIG d   1       1.185  -3.910 -11.658  0.00  0.00     0.317 A 
ATOM     30  O   LIG d   1       0.368  -4.665 -12.148  0.00  0.00    -0.252 OA
ATOM     31  N   LIG d   1       1.452  -2.753 -12.282  0.00  0.00    -0.228 N 
ATOM     32  C   LIG d   1       2.348  -1.877 -11.805  0.00  0.00     0.240 A 
ATOM     33  O   LIG d   1       2.598  -0.883 -12.447  0.00  0.00    -0.274 OA
ATOM     34  H   LIG d   1       5.116  -4.701 -10.185  0.00  0.00     0.029 H 
ATOM     35  H   LIG d   1       6.751  -4.470 -10.895  0.00  0.00     0.029 H 
ATOM     36  H   LIG d   1       7.695  -1.480  -8.968  0.00  0.00     0.029 H 
ATOM     37  H   LIG d   1       8.360  -2.953  -9.661  0.00  0.00     0.029 H 
ATOM     38  H   LIG d   1       7.041  -2.943 -12.747  0.00  0.00     0.028 H 
ATOM     39  H   LIG d   1       6.149  -1.423 -12.773  0.00  0.00     0.028 H 
ATOM     40  H   LIG d   1       2.534  -0.064 -10.056  0.00  0.00     0.033 H 
ATOM     41  H   LIG d   1       1.468  -1.251  -9.294  0.00  0.00     0.033 H 
ATOM     42  H   LIG d   1       6.515  -1.141  -4.696  0.00  0.00     0.068 H 
ATOM     43  H   LIG d   1       1.967   0.971  -4.925  0.00  0.00     0.066 H 
ATOM     44  H   LIG d   1       1.764   0.197  -7.276  0.00  0.00     0.063 H 
ATOM     45  H   LIG d   1       4.630   1.176  -0.835  0.00  0.00     0.117 H 
ATOM     46  H   LIG d   1       3.903  -0.421  -1.182  0.00  0.00     0.117 H 
ENDROOT
BRANCH   1  47
ATOM     47  C   LIG d   1       4.452  -3.636 -12.581  0.00  0.00    -0.058 C 
ATOM     48  H   LIG d   1       3.465  -3.873 -12.183  0.00  0.00     0.024 H 
ATOM     49  H   LIG d   1       4.347  -2.971 -13.439  0.00  0.00     0.024 H 
ATOM     50  H   LIG d   1       4.949  -4.554 -12.891  0.00  0.00     0.024 H 
ENDBRANCH   1  47
BRANCH  31  51
ATOM     51  C   LIG d   1       0.744  -2.431 -13.523  0.00  0.00     0.012 C 
ATOM     52  H   LIG d   1       1.274  -1.638 -14.048  0.00  0.00     0.043 H 
ATOM     53  H   LIG d   1       0.696  -3.318 -14.154  0.00  0.00     0.043 H 
ATOM     54  H   LIG d   1      -0.267  -2.097 -13.288  0.00  0.00     0.043 H 
ENDBRANCH  31  51
BRANCH  28  55
ATOM     55  C   LIG d   1       1.494  -5.554  -9.907  0.00  0.00     0.012 C 
ATOM     56  H   LIG d   1       1.823  -5.551  -8.868  0.00  0.00     0.043 H 
ATOM     57  H   LIG d   1       0.420  -5.730  -9.948  0.00  0.00     0.043 H 
ATOM     58  H   LIG d   1       2.013  -6.344 -10.450  0.00  0.00     0.043 H 
ENDBRANCH  28  55
BRANCH   6  59
ATOM     59  C   LIG d   1       7.215  -0.124 -10.942  0.00  0.00    -0.060 C 
ATOM     60  H   LIG d   1       6.406   0.178 -11.606  0.00  0.00     0.024 H 
ATOM     61  H   LIG d   1       6.939   0.096  -9.910  0.00  0.00     0.024 H 
ATOM     62  H   LIG d   1       8.121   0.423 -11.199  0.00  0.00     0.024 H 
ENDBRANCH   6  59
BRANCH   6  63
ATOM     63  C   LIG d   1       8.896  -1.769 -11.688  0.00  0.00    -0.060 C 
ATOM     64  H   LIG d   1       8.828  -2.068 -12.734  0.00  0.00     0.024 H 
ATOM     65  H   LIG d   1       9.411  -0.812 -11.617  0.00  0.00     0.024 H 
ATOM     66  H   LIG d   1       9.453  -2.523 -11.131  0.00  0.00     0.024 H 
ENDBRANCH   6  63
TORSDOF 5
ENDMDL
