MODEL 1
REMARK VINA RESULT:      -4.8      0.000      0.000
REMARK  32 active torsions:
REMARK  status: ('A' for Active; 'I' for Inactive)
REMARK    1  A    between atoms: C_1  and  O_2 
REMARK    2  A    between atoms: O_2  and  C_3 
REMARK    3  A    between atoms: C_3  and  C_5 
REMARK    4  A    between atoms: C_5  and  C_6 
REMARK    5  A    between atoms: C_6  and  C_7 
REMARK    6  A    between atoms: C_7  and  C_8 
REMARK    7  A    between atoms: C_8  and  C_9 
REMARK    8  A    between atoms: C_9  and  C_10 
REMARK    9  A    between atoms: C_10  and  C_11 
REMARK   10  A    between atoms: C_11  and  C_12 
REMARK   11  A    between atoms: C_12  and  C_13 
REMARK   12  A    between atoms: C_13  and  C_14 
REMARK   13  A    between atoms: C_14  and  C_15 
REMARK   14  A    between atoms: C_15  and  C_16 
REMARK   15  A    between atoms: C_16  and  C_17 
REMARK   16  A    between atoms: C_17  and  C_18 
REMARK   17  A    between atoms: C_18  and  C_19 
REMARK   18  A    between atoms: C_19  and  C_20 
REMARK   19  A    between atoms: C_20  and  C_21 
REMARK   20  A    between atoms: C_21  and  C_22 
REMARK   21  A    between atoms: C_22  and  C_23 
REMARK   22  A    between atoms: C_23  and  C_24 
REMARK   23  A    between atoms: C_24  and  C_25 
REMARK   24  A    between atoms: C_25  and  C_26 
REMARK   25  A    between atoms: C_26  and  C_27 
REMARK   26  A    between atoms: C_27  and  C_28 
REMARK   27  A    between atoms: C_28  and  C_29 
REMARK   28  A    between atoms: C_29  and  C_30 
REMARK   29  A    between atoms: C_30  and  C_31 
REMARK   30  A    between atoms: C_31  and  C_32 
REMARK   31  A    between atoms: C_32  and  C_33 
REMARK   32  A    between atoms: C_33  and  O_34 
ROOT
ATOM      1  C   LIG d   1       7.306   1.174  -7.581  0.00  0.00    -0.053 C 
ATOM      2  H   LIG d   1       6.792   2.133  -7.517  0.00  0.00     0.026 H 
ATOM      3  H   LIG d   1       8.248   1.302  -8.114  0.00  0.00     0.026 H 
ENDROOT
BRANCH   1   4
ATOM      4  C   LIG d   1       7.585   0.648  -6.172  0.00  0.00    -0.053 C 
ATOM      5  H   LIG d   1       8.347  -0.131  -6.219  0.00  0.00     0.026 H 
ATOM      6  H   LIG d   1       6.669   0.235  -5.750  0.00  0.00     0.026 H 
BRANCH   4   7
ATOM      7  C   LIG d   1       8.082   1.794  -5.290  0.00  0.00    -0.053 C 
ATOM      8  H   LIG d   1       7.530   2.703  -5.529  0.00  0.00     0.026 H 
ATOM      9  H   LIG d   1       9.144   1.957  -5.467  0.00  0.00     0.026 H 
BRANCH   7  10
ATOM     10  C   LIG d   1       7.861   1.437  -3.817  0.00  0.00    -0.053 C 
ATOM     11  H   LIG d   1       7.772   2.352  -3.231  0.00  0.00     0.026 H 
ATOM     12  H   LIG d   1       8.707   0.853  -3.454  0.00  0.00     0.026 H 
BRANCH  10  13
ATOM     13  C   LIG d   1       6.578   0.616  -3.679  0.00  0.00    -0.053 C 
ATOM     14  H   LIG d   1       6.794  -0.310  -3.147  0.00  0.00     0.026 H 
ATOM     15  H   LIG d   1       6.187   0.384  -4.670  0.00  0.00     0.026 H 
BRANCH  13  16
ATOM     16  C   LIG d   1       5.538   1.423  -2.897  0.00  0.00    -0.053 C 
ATOM     17  H   LIG d   1       4.878   1.937  -3.595  0.00  0.00     0.026 H 
ATOM     18  H   LIG d   1       6.045   2.154  -2.269  0.00  0.00     0.026 H 
BRANCH  16  19
ATOM     19  C   LIG d   1       4.716   0.478  -2.019  0.00  0.00    -0.053 C 
ATOM     20  H   LIG d   1       4.738   0.829  -0.987  0.00  0.00     0.026 H 
ATOM     21  H   LIG d   1       5.138  -0.526  -2.071  0.00  0.00     0.026 H 
BRANCH  19  22
ATOM     22  C   LIG d   1       3.269   0.448  -2.517  0.00  0.00    -0.053 C 
ATOM     23  H   LIG d   1       3.167   1.108  -3.378  0.00  0.00     0.026 H 
ATOM     24  H   LIG d   1       2.605   0.784  -1.720  0.00  0.00     0.026 H 
BRANCH  22  25
ATOM     25  C   LIG d   1       2.898  -0.980  -2.922  0.00  0.00    -0.053 C 
ATOM     26  H   LIG d   1       2.769  -1.029  -4.003  0.00  0.00     0.026 H 
ATOM     27  H   LIG d   1       1.968  -1.265  -2.432  0.00  0.00     0.026 H 
BRANCH  25  28
ATOM     28  C   LIG d   1       4.013  -1.937  -2.496  0.00  0.00    -0.053 C 
ATOM     29  H   LIG d   1       3.708  -2.476  -1.600  0.00  0.00     0.026 H 
ATOM     30  H   LIG d   1       4.920  -1.368  -2.287  0.00  0.00     0.026 H 
BRANCH  28  31
ATOM     31  C   LIG d   1       4.286  -2.935  -3.623  0.00  0.00    -0.053 C 
ATOM     32  H   LIG d   1       3.618  -2.731  -4.459  0.00  0.00     0.026 H 
ATOM     33  H   LIG d   1       4.115  -3.949  -3.260  0.00  0.00     0.026 H 
BRANCH  31  34
ATOM     34  C   LIG d   1       5.738  -2.798  -4.085  0.00  0.00    -0.053 C 
ATOM     35  H   LIG d   1       6.403  -2.896  -3.226  0.00  0.00     0.026 H 
ATOM     36  H   LIG d   1       5.883  -1.823  -4.548  0.00  0.00     0.026 H 
BRANCH  34  37
ATOM     37  C   LIG d   1       6.056  -3.898  -5.101  0.00  0.00    -0.043 C 
ATOM     38  H   LIG d   1       6.946  -4.440  -4.783  0.00  0.00     0.027 H 
ATOM     39  H   LIG d   1       6.233  -3.450  -6.078  0.00  0.00     0.027 H 
BRANCH  37  40
ATOM     40  C   LIG d   1       4.875  -4.867  -5.190  0.00  0.00     0.045 C 
ATOM     41  H   LIG d   1       3.994  -4.408  -4.739  0.00  0.00     0.038 H 
ATOM     42  H   LIG d   1       5.118  -5.786  -4.657  0.00  0.00     0.038 H 
BRANCH  40  43
ATOM     43  C   LIG d   1       4.592  -5.183  -6.635  0.00  0.00     0.307 C 
ATOM     44  O   LIG d   1       3.451  -5.287  -7.019  0.00  0.00    -0.251 OA
BRANCH  43  45
ATOM     45  O   LIG d   1       5.608  -5.347  -7.498  0.00  0.00    -0.468 OA
BRANCH  45  46
ATOM     46  C   LIG d   1       5.375  -4.962  -8.854  0.00  0.00     0.082 C 
ATOM     47  H   LIG d   1       5.696  -3.931  -9.000  0.00  0.00     0.066 H 
ATOM     48  H   LIG d   1       5.941  -5.615  -9.519  0.00  0.00     0.066 H 
ATOM     49  H   LIG d   1       4.312  -5.047  -9.079  0.00  0.00     0.066 H 
ENDBRANCH  45  46
ENDBRANCH  43  45
ENDBRANCH  40  43
ENDBRANCH  37  40
ENDBRANCH  34  37
ENDBRANCH  31  34
ENDBRANCH  28  31
ENDBRANCH  25  28
ENDBRANCH  22  25
ENDBRANCH  19  22
ENDBRANCH  16  19
ENDBRANCH  13  16
ENDBRANCH  10  13
ENDBRANCH   7  10
ENDBRANCH   4   7
ENDBRANCH   1   4
BRANCH   1  50
ATOM     50  C   LIG d   1       6.426   0.173  -8.334  0.00  0.00    -0.053 C 
ATOM     51  H   LIG d   1       5.462   0.630  -8.553  0.00  0.00     0.026 H 
ATOM     52  H   LIG d   1       6.916  -0.110  -9.266  0.00  0.00     0.026 H 
BRANCH  50  53
ATOM     53  C   LIG d   1       6.216  -1.072  -7.470  0.00  0.00    -0.053 C 
ATOM     54  H   LIG d   1       6.757  -1.912  -7.904  0.00  0.00     0.026 H 
ATOM     55  H   LIG d   1       6.588  -0.882  -6.463  0.00  0.00     0.026 H 
BRANCH  53  56
ATOM     56  C   LIG d   1       4.723  -1.404  -7.409  0.00  0.00    -0.053 C 
ATOM     57  H   LIG d   1       4.288  -1.306  -8.403  0.00  0.00     0.026 H 
ATOM     58  H   LIG d   1       4.593  -2.427  -7.054  0.00  0.00     0.026 H 
BRANCH  56  59
ATOM     59  C   LIG d   1       4.026  -0.439  -6.448  0.00  0.00    -0.053 C 
ATOM     60  H   LIG d   1       3.772  -0.963  -5.527  0.00  0.00     0.026 H 
ATOM     61  H   LIG d   1       4.693   0.393  -6.221  0.00  0.00     0.026 H 
BRANCH  59  62
ATOM     62  C   LIG d   1       2.749   0.095  -7.099  0.00  0.00    -0.053 C 
ATOM     63  H   LIG d   1       2.461  -0.558  -7.923  0.00  0.00     0.026 H 
ATOM     64  H   LIG d   1       1.947   0.122  -6.359  0.00  0.00     0.026 H 
BRANCH  62  65
ATOM     65  C   LIG d   1       3.000   1.507  -7.631  0.00  0.00    -0.053 C 
ATOM     66  H   LIG d   1       2.424   2.224  -7.045  0.00  0.00     0.026 H 
ATOM     67  H   LIG d   1       4.061   1.742  -7.552  0.00  0.00     0.026 H 
BRANCH  65  68
ATOM     68  C   LIG d   1       2.568   1.584  -9.097  0.00  0.00    -0.053 C 
ATOM     69  H   LIG d   1       2.277   0.592  -9.442  0.00  0.00     0.026 H 
ATOM     70  H   LIG d   1       1.721   2.265  -9.191  0.00  0.00     0.026 H 
BRANCH  68  71
ATOM     71  C   LIG d   1       3.733   2.097  -9.946  0.00  0.00    -0.053 C 
ATOM     72  H   LIG d   1       3.456   3.048 -10.404  0.00  0.00     0.026 H 
ATOM     73  H   LIG d   1       4.608   2.240  -9.314  0.00  0.00     0.026 H 
BRANCH  71  74
ATOM     74  C   LIG d   1       4.053   1.079 -11.041  0.00  0.00    -0.053 C 
ATOM     75  H   LIG d   1       4.031   1.571 -12.013  0.00  0.00     0.026 H 
ATOM     76  H   LIG d   1       5.044   0.659 -10.868  0.00  0.00     0.026 H 
BRANCH  74  77
ATOM     77  C   LIG d   1       3.013  -0.043 -11.015  0.00  0.00    -0.053 C 
ATOM     78  H   LIG d   1       2.734  -0.256  -9.982  0.00  0.00     0.026 H 
ATOM     79  H   LIG d   1       2.130   0.268 -11.572  0.00  0.00     0.026 H 
BRANCH  77  80
ATOM     80  C   LIG d   1       3.603  -1.301 -11.653  0.00  0.00    -0.053 C 
ATOM     81  H   LIG d   1       3.080  -1.514 -12.586  0.00  0.00     0.026 H 
ATOM     82  H   LIG d   1       4.661  -1.143 -11.860  0.00  0.00     0.026 H 
BRANCH  80  83
ATOM     83  C   LIG d   1       3.441  -2.484 -10.697  0.00  0.00    -0.053 C 
ATOM     84  H   LIG d   1       3.393  -3.411 -11.270  0.00  0.00     0.026 H 
ATOM     85  H   LIG d   1       4.292  -2.520 -10.017  0.00  0.00     0.026 H 
BRANCH  83  86
ATOM     86  C   LIG d   1       2.150  -2.316  -9.891  0.00  0.00    -0.051 C 
ATOM     87  H   LIG d   1       2.349  -2.529  -8.841  0.00  0.00     0.027 H 
ATOM     88  H   LIG d   1       1.790  -1.293  -9.992  0.00  0.00     0.027 H 
BRANCH  86  89
ATOM     89  C   LIG d   1       1.091  -3.286 -10.417  0.00  0.00    -0.030 C 
ATOM     90  H   LIG d   1       0.257  -3.329  -9.715  0.00  0.00     0.029 H 
ATOM     91  H   LIG d   1       0.732  -2.941 -11.387  0.00  0.00     0.029 H 
BRANCH  89  92
ATOM     92  C   LIG d   1       1.705  -4.680 -10.565  0.00  0.00     0.044 C 
ATOM     93  H   LIG d   1       1.097  -5.272 -11.250  0.00  0.00     0.056 H 
ATOM     94  H   LIG d   1       2.716  -4.592 -10.961  0.00  0.00     0.056 H 
BRANCH  92  95
ATOM     95  O   LIG d   1       1.745  -5.320  -9.289  0.00  0.00    -0.395 OA
ATOM     96  H   LIG d   1       1.118  -6.050  -9.195  0.00  0.00     0.209 HD
ENDBRANCH  92  95
ENDBRANCH  89  92
ENDBRANCH  86  89
ENDBRANCH  83  86
ENDBRANCH  80  83
ENDBRANCH  77  80
ENDBRANCH  74  77
ENDBRANCH  71  74
ENDBRANCH  68  71
ENDBRANCH  65  68
ENDBRANCH  62  65
ENDBRANCH  59  62
ENDBRANCH  56  59
ENDBRANCH  53  56
ENDBRANCH  50  53
ENDBRANCH   1  50
TORSDOF 32
ENDMDL
MODEL 2
REMARK VINA RESULT:      -4.6      4.442      7.907
REMARK  32 active torsions:
REMARK  status: ('A' for Active; 'I' for Inactive)
REMARK    1  A    between atoms: C_1  and  O_2 
REMARK    2  A    between atoms: O_2  and  C_3 
REMARK    3  A    between atoms: C_3  and  C_5 
REMARK    4  A    between atoms: C_5  and  C_6 
REMARK    5  A    between atoms: C_6  and  C_7 
REMARK    6  A    between atoms: C_7  and  C_8 
REMARK    7  A    between atoms: C_8  and  C_9 
REMARK    8  A    between atoms: C_9  and  C_10 
REMARK    9  A    between atoms: C_10  and  C_11 
REMARK   10  A    between atoms: C_11  and  C_12 
REMARK   11  A    between atoms: C_12  and  C_13 
REMARK   12  A    between atoms: C_13  and  C_14 
REMARK   13  A    between atoms: C_14  and  C_15 
REMARK   14  A    between atoms: C_15  and  C_16 
REMARK   15  A    between atoms: C_16  and  C_17 
REMARK   16  A    between atoms: C_17  and  C_18 
REMARK   17  A    between atoms: C_18  and  C_19 
REMARK   18  A    between atoms: C_19  and  C_20 
REMARK   19  A    between atoms: C_20  and  C_21 
REMARK   20  A    between atoms: C_21  and  C_22 
REMARK   21  A    between atoms: C_22  and  C_23 
REMARK   22  A    between atoms: C_23  and  C_24 
REMARK   23  A    between atoms: C_24  and  C_25 
REMARK   24  A    between atoms: C_25  and  C_26 
REMARK   25  A    between atoms: C_26  and  C_27 
REMARK   26  A    between atoms: C_27  and  C_28 
REMARK   27  A    between atoms: C_28  and  C_29 
REMARK   28  A    between atoms: C_29  and  C_30 
REMARK   29  A    between atoms: C_30  and  C_31 
REMARK   30  A    between atoms: C_31  and  C_32 
REMARK   31  A    between atoms: C_32  and  C_33 
REMARK   32  A    between atoms: C_33  and  O_34 
ROOT
ATOM      1  C   LIG d   1       5.896   0.998  -9.781  0.00  0.00    -0.053 C 
ATOM      2  H   LIG d   1       6.497   0.922 -10.688  0.00  0.00     0.026 H 
ATOM      3  H   LIG d   1       5.875   0.032  -9.277  0.00  0.00     0.026 H 
ENDROOT
BRANCH   1   4
ATOM      4  C   LIG d   1       6.509   2.046  -8.849  0.00  0.00    -0.053 C 
ATOM      5  H   LIG d   1       5.716   2.546  -8.295  0.00  0.00     0.026 H 
ATOM      6  H   LIG d   1       7.059   2.779  -9.439  0.00  0.00     0.026 H 
BRANCH   4   7
ATOM      7  C   LIG d   1       7.463   1.360  -7.870  0.00  0.00    -0.053 C 
ATOM      8  H   LIG d   1       7.599   1.992  -6.992  0.00  0.00     0.026 H 
ATOM      9  H   LIG d   1       8.425   1.197  -8.353  0.00  0.00     0.026 H 
BRANCH   7  10
ATOM     10  C   LIG d   1       6.873   0.014  -7.442  0.00  0.00    -0.053 C 
ATOM     11  H   LIG d   1       7.607  -0.774  -7.612  0.00  0.00     0.026 H 
ATOM     12  H   LIG d   1       5.976  -0.192  -8.026  0.00  0.00     0.026 H 
BRANCH  10  13
ATOM     13  C   LIG d   1       6.513   0.065  -5.956  0.00  0.00    -0.053 C 
ATOM     14  H   LIG d   1       5.800  -0.727  -5.727  0.00  0.00     0.026 H 
ATOM     15  H   LIG d   1       6.070   1.033  -5.722  0.00  0.00     0.026 H 
BRANCH  13  16
ATOM     16  C   LIG d   1       7.779  -0.133  -5.118  0.00  0.00    -0.053 C 
ATOM     17  H   LIG d   1       8.632   0.297  -5.642  0.00  0.00     0.026 H 
ATOM     18  H   LIG d   1       7.947  -1.198  -4.961  0.00  0.00     0.026 H 
BRANCH  16  19
ATOM     19  C   LIG d   1       7.608   0.562  -3.766  0.00  0.00    -0.053 C 
ATOM     20  H   LIG d   1       8.461   0.332  -3.128  0.00  0.00     0.026 H 
ATOM     21  H   LIG d   1       6.692   0.210  -3.290  0.00  0.00     0.026 H 
BRANCH  19  22
ATOM     22  C   LIG d   1       7.524   2.075  -3.977  0.00  0.00    -0.053 C 
ATOM     23  H   LIG d   1       6.884   2.514  -3.212  0.00  0.00     0.026 H 
ATOM     24  H   LIG d   1       7.106   2.281  -4.963  0.00  0.00     0.026 H 
BRANCH  22  25
ATOM     25  C   LIG d   1       8.925   2.683  -3.881  0.00  0.00    -0.053 C 
ATOM     26  H   LIG d   1       9.645   1.900  -3.648  0.00  0.00     0.026 H 
ATOM     27  H   LIG d   1       8.939   3.437  -3.093  0.00  0.00     0.026 H 
BRANCH  25  28
ATOM     28  C   LIG d   1       9.291   3.334  -5.216  0.00  0.00    -0.053 C 
ATOM     29  H   LIG d   1       8.506   3.136  -5.945  0.00  0.00     0.026 H 
ATOM     30  H   LIG d   1      10.234   2.921  -5.575  0.00  0.00     0.026 H 
BRANCH  28  31
ATOM     31  C   LIG d   1       9.437   4.845  -5.023  0.00  0.00    -0.053 C 
ATOM     32  H   LIG d   1       8.493   5.334  -5.259  0.00  0.00     0.026 H 
ATOM     33  H   LIG d   1      10.217   5.222  -5.686  0.00  0.00     0.026 H 
BRANCH  31  34
ATOM     34  C   LIG d   1       9.817   5.139  -3.571  0.00  0.00    -0.053 C 
ATOM     35  H   LIG d   1      10.841   4.812  -3.389  0.00  0.00     0.026 H 
ATOM     36  H   LIG d   1       9.141   4.606  -2.903  0.00  0.00     0.026 H 
BRANCH  34  37
ATOM     37  C   LIG d   1       9.709   6.643  -3.311  0.00  0.00    -0.043 C 
ATOM     38  H   LIG d   1       8.931   7.067  -3.945  0.00  0.00     0.027 H 
ATOM     39  H   LIG d   1      10.662   7.121  -3.537  0.00  0.00     0.027 H 
BRANCH  37  40
ATOM     40  C   LIG d   1       9.354   6.883  -1.841  0.00  0.00     0.045 C 
ATOM     41  H   LIG d   1       8.581   6.177  -1.536  0.00  0.00     0.038 H 
ATOM     42  H   LIG d   1       8.986   7.901  -1.717  0.00  0.00     0.038 H 
BRANCH  40  43
ATOM     43  C   LIG d   1      10.581   6.684  -0.990  0.00  0.00     0.307 C 
ATOM     44  O   LIG d   1      11.504   7.458  -1.069  0.00  0.00    -0.251 OA
BRANCH  43  45
ATOM     45  O   LIG d   1      10.647   5.646  -0.141  0.00  0.00    -0.468 OA
BRANCH  45  46
ATOM     46  C   LIG d   1      11.114   5.918   1.182  0.00  0.00     0.082 C 
ATOM     47  H   LIG d   1      11.838   5.158   1.475  0.00  0.00     0.066 H 
ATOM     48  H   LIG d   1      11.588   6.899   1.205  0.00  0.00     0.066 H 
ATOM     49  H   LIG d   1      10.273   5.904   1.874  0.00  0.00     0.066 H 
ENDBRANCH  45  46
ENDBRANCH  43  45
ENDBRANCH  40  43
ENDBRANCH  37  40
ENDBRANCH  34  37
ENDBRANCH  31  34
ENDBRANCH  28  31
ENDBRANCH  25  28
ENDBRANCH  22  25
ENDBRANCH  19  22
ENDBRANCH  16  19
ENDBRANCH  13  16
ENDBRANCH  10  13
ENDBRANCH   7  10
ENDBRANCH   4   7
ENDBRANCH   1   4
BRANCH   1  50
ATOM     50  C   LIG d   1       4.470   1.413 -10.148  0.00  0.00    -0.053 C 
ATOM     51  H   LIG d   1       4.449   1.774 -11.176  0.00  0.00     0.026 H 
ATOM     52  H   LIG d   1       3.806   0.554 -10.050  0.00  0.00     0.026 H 
BRANCH  50  53
ATOM     53  C   LIG d   1       4.005   2.526  -9.206  0.00  0.00    -0.053 C 
ATOM     54  H   LIG d   1       4.795   2.751  -8.491  0.00  0.00     0.026 H 
ATOM     55  H   LIG d   1       3.774   3.419  -9.787  0.00  0.00     0.026 H 
BRANCH  53  56
ATOM     56  C   LIG d   1       2.752   2.068  -8.456  0.00  0.00    -0.053 C 
ATOM     57  H   LIG d   1       2.793   2.427  -7.428  0.00  0.00     0.026 H 
ATOM     58  H   LIG d   1       1.866   2.473  -8.947  0.00  0.00     0.026 H 
BRANCH  56  59
ATOM     59  C   LIG d   1       2.684   0.540  -8.462  0.00  0.00    -0.053 C 
ATOM     60  H   LIG d   1       1.675   0.221  -8.721  0.00  0.00     0.026 H 
ATOM     61  H   LIG d   1       3.389   0.148  -9.195  0.00  0.00     0.026 H 
BRANCH  59  62
ATOM     62  C   LIG d   1       3.046   0.008  -7.073  0.00  0.00    -0.053 C 
ATOM     63  H   LIG d   1       2.490  -0.909  -6.879  0.00  0.00     0.026 H 
ATOM     64  H   LIG d   1       4.116  -0.201  -7.032  0.00  0.00     0.026 H 
BRANCH  62  65
ATOM     65  C   LIG d   1       2.689   1.055  -6.018  0.00  0.00    -0.053 C 
ATOM     66  H   LIG d   1       3.483   1.800  -5.961  0.00  0.00     0.026 H 
ATOM     67  H   LIG d   1       1.752   1.541  -6.289  0.00  0.00     0.026 H 
BRANCH  65  68
ATOM     68  C   LIG d   1       2.533   0.373  -4.656  0.00  0.00    -0.053 C 
ATOM     69  H   LIG d   1       1.498   0.459  -4.323  0.00  0.00     0.026 H 
ATOM     70  H   LIG d   1       2.801  -0.680  -4.744  0.00  0.00     0.026 H 
BRANCH  68  71
ATOM     71  C   LIG d   1       3.452   1.051  -3.638  0.00  0.00    -0.053 C 
ATOM     72  H   LIG d   1       4.393   1.320  -4.121  0.00  0.00     0.026 H 
ATOM     73  H   LIG d   1       2.971   1.950  -3.255  0.00  0.00     0.026 H 
BRANCH  71  74
ATOM     74  C   LIG d   1       3.730   0.089  -2.482  0.00  0.00    -0.053 C 
ATOM     75  H   LIG d   1       4.799  -0.121  -2.433  0.00  0.00     0.026 H 
ATOM     76  H   LIG d   1       3.406   0.542  -1.545  0.00  0.00     0.026 H 
BRANCH  74  77
ATOM     77  C   LIG d   1       2.965  -1.216  -2.709  0.00  0.00    -0.053 C 
ATOM     78  H   LIG d   1       2.190  -1.320  -1.948  0.00  0.00     0.026 H 
ATOM     79  H   LIG d   1       2.503  -1.199  -3.696  0.00  0.00     0.026 H 
BRANCH  77  80
ATOM     80  C   LIG d   1       3.931  -2.398  -2.617  0.00  0.00    -0.053 C 
ATOM     81  H   LIG d   1       4.103  -2.646  -1.570  0.00  0.00     0.026 H 
ATOM     82  H   LIG d   1       3.501  -3.259  -3.128  0.00  0.00     0.026 H 
BRANCH  80  83
ATOM     83  C   LIG d   1       5.260  -2.024  -3.277  0.00  0.00    -0.053 C 
ATOM     84  H   LIG d   1       5.146  -1.081  -3.814  0.00  0.00     0.026 H 
ATOM     85  H   LIG d   1       6.028  -1.915  -2.512  0.00  0.00     0.026 H 
BRANCH  83  86
ATOM     86  C   LIG d   1       5.670  -3.124  -4.259  0.00  0.00    -0.051 C 
ATOM     87  H   LIG d   1       6.637  -2.876  -4.697  0.00  0.00     0.027 H 
ATOM     88  H   LIG d   1       5.744  -4.073  -3.729  0.00  0.00     0.027 H 
BRANCH  86  89
ATOM     89  C   LIG d   1       4.621  -3.236  -5.366  0.00  0.00    -0.030 C 
ATOM     90  H   LIG d   1       3.645  -2.952  -4.972  0.00  0.00     0.029 H 
ATOM     91  H   LIG d   1       4.889  -2.574  -6.189  0.00  0.00     0.029 H 
BRANCH  89  92
ATOM     92  C   LIG d   1       4.566  -4.681  -5.870  0.00  0.00     0.044 C 
ATOM     93  H   LIG d   1       5.184  -4.777  -6.763  0.00  0.00     0.056 H 
ATOM     94  H   LIG d   1       4.937  -5.351  -5.095  0.00  0.00     0.056 H 
BRANCH  92  95
ATOM     95  O   LIG d   1       3.215  -5.022  -6.188  0.00  0.00    -0.395 OA
ATOM     96  H   LIG d   1       3.076  -5.253  -7.116  0.00  0.00     0.209 HD
ENDBRANCH  92  95
ENDBRANCH  89  92
ENDBRANCH  86  89
ENDBRANCH  83  86
ENDBRANCH  80  83
ENDBRANCH  77  80
ENDBRANCH  74  77
ENDBRANCH  71  74
ENDBRANCH  68  71
ENDBRANCH  65  68
ENDBRANCH  62  65
ENDBRANCH  59  62
ENDBRANCH  56  59
ENDBRANCH  53  56
ENDBRANCH  50  53
ENDBRANCH   1  50
TORSDOF 32
ENDMDL
MODEL 3
REMARK VINA RESULT:      -4.6      2.176      6.726
REMARK  32 active torsions:
REMARK  status: ('A' for Active; 'I' for Inactive)
REMARK    1  A    between atoms: C_1  and  O_2 
REMARK    2  A    between atoms: O_2  and  C_3 
REMARK    3  A    between atoms: C_3  and  C_5 
REMARK    4  A    between atoms: C_5  and  C_6 
REMARK    5  A    between atoms: C_6  and  C_7 
REMARK    6  A    between atoms: C_7  and  C_8 
REMARK    7  A    between atoms: C_8  and  C_9 
REMARK    8  A    between atoms: C_9  and  C_10 
REMARK    9  A    between atoms: C_10  and  C_11 
REMARK   10  A    between atoms: C_11  and  C_12 
REMARK   11  A    between atoms: C_12  and  C_13 
REMARK   12  A    between atoms: C_13  and  C_14 
REMARK   13  A    between atoms: C_14  and  C_15 
REMARK   14  A    between atoms: C_15  and  C_16 
REMARK   15  A    between atoms: C_16  and  C_17 
REMARK   16  A    between atoms: C_17  and  C_18 
REMARK   17  A    between atoms: C_18  and  C_19 
REMARK   18  A    between atoms: C_19  and  C_20 
REMARK   19  A    between atoms: C_20  and  C_21 
REMARK   20  A    between atoms: C_21  and  C_22 
REMARK   21  A    between atoms: C_22  and  C_23 
REMARK   22  A    between atoms: C_23  and  C_24 
REMARK   23  A    between atoms: C_24  and  C_25 
REMARK   24  A    between atoms: C_25  and  C_26 
REMARK   25  A    between atoms: C_26  and  C_27 
REMARK   26  A    between atoms: C_27  and  C_28 
REMARK   27  A    between atoms: C_28  and  C_29 
REMARK   28  A    between atoms: C_29  and  C_30 
REMARK   29  A    between atoms: C_30  and  C_31 
REMARK   30  A    between atoms: C_31  and  C_32 
REMARK   31  A    between atoms: C_32  and  C_33 
REMARK   32  A    between atoms: C_33  and  O_34 
ROOT
ATOM      1  C   LIG d   1       3.190   0.442  -7.321  0.00  0.00    -0.053 C 
ATOM      2  H   LIG d   1       2.692   1.410  -7.258  0.00  0.00     0.026 H 
ATOM      3  H   LIG d   1       2.566  -0.251  -7.886  0.00  0.00     0.026 H 
ENDROOT
BRANCH   1   4
ATOM      4  C   LIG d   1       4.537   0.606  -8.027  0.00  0.00    -0.053 C 
ATOM      5  H   LIG d   1       4.772  -0.306  -8.577  0.00  0.00     0.026 H 
ATOM      6  H   LIG d   1       5.315   0.794  -7.287  0.00  0.00     0.026 H 
BRANCH   4   7
ATOM      7  C   LIG d   1       4.463   1.784  -9.000  0.00  0.00    -0.053 C 
ATOM      8  H   LIG d   1       5.426   1.909  -9.495  0.00  0.00     0.026 H 
ATOM      9  H   LIG d   1       4.214   2.692  -8.453  0.00  0.00     0.026 H 
BRANCH   7  10
ATOM     10  C   LIG d   1       3.383   1.510 -10.050  0.00  0.00    -0.053 C 
ATOM     11  H   LIG d   1       2.969   2.456 -10.400  0.00  0.00     0.026 H 
ATOM     12  H   LIG d   1       2.589   0.909  -9.607  0.00  0.00     0.026 H 
BRANCH  10  13
ATOM     13  C   LIG d   1       3.998   0.754 -11.229  0.00  0.00    -0.053 C 
ATOM     14  H   LIG d   1       5.042   0.530 -11.012  0.00  0.00     0.026 H 
ATOM     15  H   LIG d   1       3.937   1.369 -12.127  0.00  0.00     0.026 H 
BRANCH  13  16
ATOM     16  C   LIG d   1       3.232  -0.552 -11.452  0.00  0.00    -0.053 C 
ATOM     17  H   LIG d   1       3.856  -1.395 -11.154  0.00  0.00     0.026 H 
ATOM     18  H   LIG d   1       2.973  -0.645 -12.506  0.00  0.00     0.026 H 
BRANCH  16  19
ATOM     19  C   LIG d   1       1.953  -0.543 -10.612  0.00  0.00    -0.053 C 
ATOM     20  H   LIG d   1       1.093  -0.372 -11.260  0.00  0.00     0.026 H 
ATOM     21  H   LIG d   1       2.012   0.253  -9.869  0.00  0.00     0.026 H 
BRANCH  19  22
ATOM     22  C   LIG d   1       1.798  -1.891  -9.904  0.00  0.00    -0.053 C 
ATOM     23  H   LIG d   1       0.996  -2.459 -10.374  0.00  0.00     0.026 H 
ATOM     24  H   LIG d   1       1.558  -1.723  -8.854  0.00  0.00     0.026 H 
BRANCH  22  25
ATOM     25  C   LIG d   1       3.108  -2.676 -10.009  0.00  0.00    -0.053 C 
ATOM     26  H   LIG d   1       3.856  -2.068 -10.518  0.00  0.00     0.026 H 
ATOM     27  H   LIG d   1       2.937  -3.592 -10.574  0.00  0.00     0.026 H 
BRANCH  25  28
ATOM     28  C   LIG d   1       3.604  -3.028  -8.605  0.00  0.00    -0.053 C 
ATOM     29  H   LIG d   1       3.296  -4.042  -8.353  0.00  0.00     0.026 H 
ATOM     30  H   LIG d   1       3.179  -2.329  -7.884  0.00  0.00     0.026 H 
BRANCH  28  31
ATOM     31  C   LIG d   1       5.131  -2.934  -8.566  0.00  0.00    -0.053 C 
ATOM     32  H   LIG d   1       5.439  -2.375  -7.682  0.00  0.00     0.026 H 
ATOM     33  H   LIG d   1       5.487  -2.423  -9.461  0.00  0.00     0.026 H 
BRANCH  31  34
ATOM     34  C   LIG d   1       5.727  -4.342  -8.512  0.00  0.00    -0.053 C 
ATOM     35  H   LIG d   1       6.685  -4.312  -7.992  0.00  0.00     0.026 H 
ATOM     36  H   LIG d   1       5.875  -4.713  -9.526  0.00  0.00     0.026 H 
BRANCH  34  37
ATOM     37  C   LIG d   1       4.770  -5.272  -7.763  0.00  0.00    -0.043 C 
ATOM     38  H   LIG d   1       4.252  -5.912  -8.477  0.00  0.00     0.027 H 
ATOM     39  H   LIG d   1       4.041  -4.678  -7.214  0.00  0.00     0.027 H 
BRANCH  37  40
ATOM     40  C   LIG d   1       5.564  -6.139  -6.783  0.00  0.00     0.045 C 
ATOM     41  H   LIG d   1       6.403  -5.565  -6.389  0.00  0.00     0.038 H 
ATOM     42  H   LIG d   1       5.939  -7.022  -7.301  0.00  0.00     0.038 H 
BRANCH  40  43
ATOM     43  C   LIG d   1       4.668  -6.563  -5.649  0.00  0.00     0.307 C 
ATOM     44  O   LIG d   1       3.933  -5.759  -5.127  0.00  0.00    -0.251 OA
BRANCH  43  45
ATOM     45  O   LIG d   1       4.687  -7.835  -5.218  0.00  0.00    -0.468 OA
BRANCH  45  46
ATOM     46  C   LIG d   1       4.927  -8.848  -6.197  0.00  0.00     0.082 C 
ATOM     47  H   LIG d   1       5.397  -8.402  -7.073  0.00  0.00     0.066 H 
ATOM     48  H   LIG d   1       5.587  -9.607  -5.779  0.00  0.00     0.066 H 
ATOM     49  H   LIG d   1       3.981  -9.306  -6.485  0.00  0.00     0.066 H 
ENDBRANCH  45  46
ENDBRANCH  43  45
ENDBRANCH  40  43
ENDBRANCH  37  40
ENDBRANCH  34  37
ENDBRANCH  31  34
ENDBRANCH  28  31
ENDBRANCH  25  28
ENDBRANCH  22  25
ENDBRANCH  19  22
ENDBRANCH  16  19
ENDBRANCH  13  16
ENDBRANCH  10  13
ENDBRANCH   7  10
ENDBRANCH   4   7
ENDBRANCH   1   4
BRANCH   1  50
ATOM     50  C   LIG d   1       3.416  -0.108  -5.911  0.00  0.00    -0.053 C 
ATOM     51  H   LIG d   1       3.235  -1.183  -5.907  0.00  0.00     0.026 H 
ATOM     52  H   LIG d   1       4.443   0.090  -5.606  0.00  0.00     0.026 H 
BRANCH  50  53
ATOM     53  C   LIG d   1       2.454   0.574  -4.937  0.00  0.00    -0.053 C 
ATOM     54  H   LIG d   1       2.610   1.652  -4.966  0.00  0.00     0.026 H 
ATOM     55  H   LIG d   1       1.427   0.347  -5.223  0.00  0.00     0.026 H 
BRANCH  53  56
ATOM     56  C   LIG d   1       2.714   0.060  -3.519  0.00  0.00    -0.053 C 
ATOM     57  H   LIG d   1       1.765  -0.070  -3.000  0.00  0.00     0.026 H 
ATOM     58  H   LIG d   1       3.235  -0.896  -3.570  0.00  0.00     0.026 H 
BRANCH  56  59
ATOM     59  C   LIG d   1       3.577   1.071  -2.761  0.00  0.00    -0.053 C 
ATOM     60  H   LIG d   1       4.146   1.669  -3.472  0.00  0.00     0.026 H 
ATOM     61  H   LIG d   1       2.936   1.722  -2.167  0.00  0.00     0.026 H 
BRANCH  59  62
ATOM     62  C   LIG d   1       4.541   0.325  -1.835  0.00  0.00    -0.053 C 
ATOM     63  H   LIG d   1       5.567   0.555  -2.119  0.00  0.00     0.026 H 
ATOM     64  H   LIG d   1       4.369   0.638  -0.804  0.00  0.00     0.026 H 
BRANCH  62  65
ATOM     65  C   LIG d   1       4.303  -1.181  -1.958  0.00  0.00    -0.053 C 
ATOM     66  H   LIG d   1       4.256  -1.624  -0.963  0.00  0.00     0.026 H 
ATOM     67  H   LIG d   1       3.364  -1.360  -2.481  0.00  0.00     0.026 H 
BRANCH  65  68
ATOM     68  C   LIG d   1       5.453  -1.816  -2.743  0.00  0.00    -0.053 C 
ATOM     69  H   LIG d   1       6.066  -1.032  -3.188  0.00  0.00     0.026 H 
ATOM     70  H   LIG d   1       6.063  -2.419  -2.071  0.00  0.00     0.026 H 
BRANCH  68  71
ATOM     71  C   LIG d   1       4.883  -2.706  -3.851  0.00  0.00    -0.053 C 
ATOM     72  H   LIG d   1       4.560  -3.656  -3.423  0.00  0.00     0.026 H 
ATOM     73  H   LIG d   1       4.033  -2.208  -4.315  0.00  0.00     0.026 H 
BRANCH  71  74
ATOM     74  C   LIG d   1       5.963  -2.962  -4.904  0.00  0.00    -0.053 C 
ATOM     75  H   LIG d   1       6.388  -3.954  -4.754  0.00  0.00     0.026 H 
ATOM     76  H   LIG d   1       5.522  -2.902  -5.900  0.00  0.00     0.026 H 
BRANCH  74  77
ATOM     77  C   LIG d   1       7.066  -1.910  -4.771  0.00  0.00    -0.053 C 
ATOM     78  H   LIG d   1       6.781  -1.178  -4.014  0.00  0.00     0.026 H 
ATOM     79  H   LIG d   1       7.996  -2.395  -4.475  0.00  0.00     0.026 H 
BRANCH  77  80
ATOM     80  C   LIG d   1       7.263  -1.205  -6.113  0.00  0.00    -0.053 C 
ATOM     81  H   LIG d   1       8.072  -1.688  -6.662  0.00  0.00     0.026 H 
ATOM     82  H   LIG d   1       6.344  -1.266  -6.695  0.00  0.00     0.026 H 
BRANCH  80  83
ATOM     83  C   LIG d   1       7.617   0.264  -5.872  0.00  0.00    -0.053 C 
ATOM     84  H   LIG d   1       8.677   0.346  -5.624  0.00  0.00     0.026 H 
ATOM     85  H   LIG d   1       7.409   0.841  -6.772  0.00  0.00     0.026 H 
BRANCH  83  86
ATOM     86  C   LIG d   1       6.779   0.807  -4.712  0.00  0.00    -0.051 C 
ATOM     87  H   LIG d   1       5.978   1.431  -5.106  0.00  0.00     0.027 H 
ATOM     88  H   LIG d   1       6.351  -0.024  -4.154  0.00  0.00     0.027 H 
BRANCH  86  89
ATOM     89  C   LIG d   1       7.668   1.641  -3.787  0.00  0.00    -0.030 C 
ATOM     90  H   LIG d   1       7.203   2.612  -3.615  0.00  0.00     0.029 H 
ATOM     91  H   LIG d   1       7.791   1.122  -2.836  0.00  0.00     0.029 H 
BRANCH  89  92
ATOM     92  C   LIG d   1       9.037   1.841  -4.441  0.00  0.00     0.044 C 
ATOM     93  H   LIG d   1       9.205   1.055  -5.178  0.00  0.00     0.056 H 
ATOM     94  H   LIG d   1       9.067   2.813  -4.933  0.00  0.00     0.056 H 
BRANCH  92  95
ATOM     95  O   LIG d   1      10.055   1.781  -3.440  0.00  0.00    -0.395 OA
ATOM     96  H   LIG d   1      10.324   2.645  -3.100  0.00  0.00     0.209 HD
ENDBRANCH  92  95
ENDBRANCH  89  92
ENDBRANCH  86  89
ENDBRANCH  83  86
ENDBRANCH  80  83
ENDBRANCH  77  80
ENDBRANCH  74  77
ENDBRANCH  71  74
ENDBRANCH  68  71
ENDBRANCH  65  68
ENDBRANCH  62  65
ENDBRANCH  59  62
ENDBRANCH  56  59
ENDBRANCH  53  56
ENDBRANCH  50  53
ENDBRANCH   1  50
TORSDOF 32
ENDMDL
MODEL 4
REMARK VINA RESULT:      -4.5      3.986      8.799
REMARK  32 active torsions:
REMARK  status: ('A' for Active; 'I' for Inactive)
REMARK    1  A    between atoms: C_1  and  O_2 
REMARK    2  A    between atoms: O_2  and  C_3 
REMARK    3  A    between atoms: C_3  and  C_5 
REMARK    4  A    between atoms: C_5  and  C_6 
REMARK    5  A    between atoms: C_6  and  C_7 
REMARK    6  A    between atoms: C_7  and  C_8 
REMARK    7  A    between atoms: C_8  and  C_9 
REMARK    8  A    between atoms: C_9  and  C_10 
REMARK    9  A    between atoms: C_10  and  C_11 
REMARK   10  A    between atoms: C_11  and  C_12 
REMARK   11  A    between atoms: C_12  and  C_13 
REMARK   12  A    between atoms: C_13  and  C_14 
REMARK   13  A    between atoms: C_14  and  C_15 
REMARK   14  A    between atoms: C_15  and  C_16 
REMARK   15  A    between atoms: C_16  and  C_17 
REMARK   16  A    between atoms: C_17  and  C_18 
REMARK   17  A    between atoms: C_18  and  C_19 
REMARK   18  A    between atoms: C_19  and  C_20 
REMARK   19  A    between atoms: C_20  and  C_21 
REMARK   20  A    between atoms: C_21  and  C_22 
REMARK   21  A    between atoms: C_22  and  C_23 
REMARK   22  A    between atoms: C_23  and  C_24 
REMARK   23  A    between atoms: C_24  and  C_25 
REMARK   24  A    between atoms: C_25  and  C_26 
REMARK   25  A    between atoms: C_26  and  C_27 
REMARK   26  A    between atoms: C_27  and  C_28 
REMARK   27  A    between atoms: C_28  and  C_29 
REMARK   28  A    between atoms: C_29  and  C_30 
REMARK   29  A    between atoms: C_30  and  C_31 
REMARK   30  A    between atoms: C_31  and  C_32 
REMARK   31  A    between atoms: C_32  and  C_33 
REMARK   32  A    between atoms: C_33  and  O_34 
ROOT
ATOM      1  C   LIG d   1       2.726  -0.455  -3.636  0.00  0.00    -0.053 C 
ATOM      2  H   LIG d   1       1.743  -0.802  -3.319  0.00  0.00     0.026 H 
ATOM      3  H   LIG d   1       3.399  -1.308  -3.730  0.00  0.00     0.026 H 
ENDROOT
BRANCH   1   4
ATOM      4  C   LIG d   1       2.608   0.251  -4.988  0.00  0.00    -0.053 C 
ATOM      5  H   LIG d   1       2.360   1.301  -4.828  0.00  0.00     0.026 H 
ATOM      6  H   LIG d   1       1.822  -0.222  -5.577  0.00  0.00     0.026 H 
BRANCH   4   7
ATOM      7  C   LIG d   1       3.938   0.148  -5.735  0.00  0.00    -0.053 C 
ATOM      8  H   LIG d   1       4.743   0.513  -5.098  0.00  0.00     0.026 H 
ATOM      9  H   LIG d   1       3.893   0.748  -6.643  0.00  0.00     0.026 H 
BRANCH   7  10
ATOM     10  C   LIG d   1       4.203  -1.314  -6.104  0.00  0.00    -0.053 C 
ATOM     11  H   LIG d   1       3.343  -1.715  -6.640  0.00  0.00     0.026 H 
ATOM     12  H   LIG d   1       4.369  -1.893  -5.196  0.00  0.00     0.026 H 
BRANCH  10  13
ATOM     13  C   LIG d   1       5.443  -1.397  -6.996  0.00  0.00    -0.053 C 
ATOM     14  H   LIG d   1       6.152  -2.105  -6.567  0.00  0.00     0.026 H 
ATOM     15  H   LIG d   1       5.908  -0.413  -7.065  0.00  0.00     0.026 H 
BRANCH  13  16
ATOM     16  C   LIG d   1       5.035  -1.868  -8.394  0.00  0.00    -0.053 C 
ATOM     17  H   LIG d   1       5.721  -2.645  -8.730  0.00  0.00     0.026 H 
ATOM     18  H   LIG d   1       5.073  -1.026  -9.085  0.00  0.00     0.026 H 
BRANCH  16  19
ATOM     19  C   LIG d   1       3.612  -2.427  -8.348  0.00  0.00    -0.053 C 
ATOM     20  H   LIG d   1       3.150  -2.169  -7.396  0.00  0.00     0.026 H 
ATOM     21  H   LIG d   1       3.644  -3.511  -8.455  0.00  0.00     0.026 H 
BRANCH  19  22
ATOM     22  C   LIG d   1       2.792  -1.826  -9.492  0.00  0.00    -0.053 C 
ATOM     23  H   LIG d   1       2.061  -2.557  -9.838  0.00  0.00     0.026 H 
ATOM     24  H   LIG d   1       3.456  -1.559 -10.314  0.00  0.00     0.026 H 
BRANCH  22  25
ATOM     25  C   LIG d   1       2.064  -0.574  -8.996  0.00  0.00    -0.053 C 
ATOM     26  H   LIG d   1       2.250  -0.445  -7.930  0.00  0.00     0.026 H 
ATOM     27  H   LIG d   1       0.994  -0.685  -9.169  0.00  0.00     0.026 H 
BRANCH  25  28
ATOM     28  C   LIG d   1       2.580   0.649  -9.756  0.00  0.00    -0.053 C 
ATOM     29  H   LIG d   1       1.851   0.943 -10.511  0.00  0.00     0.026 H 
ATOM     30  H   LIG d   1       3.525   0.404 -10.241  0.00  0.00     0.026 H 
BRANCH  28  31
ATOM     31  C   LIG d   1       2.795   1.805  -8.777  0.00  0.00    -0.053 C 
ATOM     32  H   LIG d   1       2.907   1.410  -7.768  0.00  0.00     0.026 H 
ATOM     33  H   LIG d   1       1.935   2.475  -8.811  0.00  0.00     0.026 H 
BRANCH  31  34
ATOM     34  C   LIG d   1       4.057   2.576  -9.167  0.00  0.00    -0.053 C 
ATOM     35  H   LIG d   1       4.390   3.178  -8.321  0.00  0.00     0.026 H 
ATOM     36  H   LIG d   1       3.840   3.226 -10.014  0.00  0.00     0.026 H 
BRANCH  34  37
ATOM     37  C   LIG d   1       5.159   1.587  -9.552  0.00  0.00    -0.043 C 
ATOM     38  H   LIG d   1       5.451   1.754 -10.589  0.00  0.00     0.027 H 
ATOM     39  H   LIG d   1       4.790   0.568  -9.440  0.00  0.00     0.027 H 
BRANCH  37  40
ATOM     40  C   LIG d   1       6.372   1.793  -8.642  0.00  0.00     0.045 C 
ATOM     41  H   LIG d   1       6.271   1.167  -7.755  0.00  0.00     0.038 H 
ATOM     42  H   LIG d   1       6.428   2.840  -8.343  0.00  0.00     0.038 H 
BRANCH  40  43
ATOM     43  C   LIG d   1       7.627   1.414  -9.384  0.00  0.00     0.307 C 
ATOM     44  O   LIG d   1       8.371   2.274  -9.792  0.00  0.00    -0.251 OA
BRANCH  43  45
ATOM     45  O   LIG d   1       7.919   0.120  -9.591  0.00  0.00    -0.468 OA
BRANCH  45  46
ATOM     46  C   LIG d   1       8.684  -0.542  -8.581  0.00  0.00     0.082 C 
ATOM     47  H   LIG d   1       9.053  -1.491  -8.969  0.00  0.00     0.066 H 
ATOM     48  H   LIG d   1       9.527   0.086  -8.295  0.00  0.00     0.066 H 
ATOM     49  H   LIG d   1       8.054  -0.725  -7.711  0.00  0.00     0.066 H 
ENDBRANCH  45  46
ENDBRANCH  43  45
ENDBRANCH  40  43
ENDBRANCH  37  40
ENDBRANCH  34  37
ENDBRANCH  31  34
ENDBRANCH  28  31
ENDBRANCH  25  28
ENDBRANCH  22  25
ENDBRANCH  19  22
ENDBRANCH  16  19
ENDBRANCH  13  16
ENDBRANCH  10  13
ENDBRANCH   7  10
ENDBRANCH   4   7
ENDBRANCH   1   4
BRANCH   1  50
ATOM     50  C   LIG d   1       3.283   0.521  -2.597  0.00  0.00    -0.053 C 
ATOM     51  H   LIG d   1       3.610   1.433  -3.094  0.00  0.00     0.026 H 
ATOM     52  H   LIG d   1       2.506   0.760  -1.871  0.00  0.00     0.026 H 
BRANCH  50  53
ATOM     53  C   LIG d   1       4.471  -0.123  -1.879  0.00  0.00    -0.053 C 
ATOM     54  H   LIG d   1       5.368   0.471  -2.054  0.00  0.00     0.026 H 
ATOM     55  H   LIG d   1       4.268  -0.167  -0.808  0.00  0.00     0.026 H 
BRANCH  53  56
ATOM     56  C   LIG d   1       4.685  -1.540  -2.416  0.00  0.00    -0.053 C 
ATOM     57  H   LIG d   1       4.601  -2.255  -1.598  0.00  0.00     0.026 H 
ATOM     58  H   LIG d   1       3.928  -1.760  -3.170  0.00  0.00     0.026 H 
BRANCH  56  59
ATOM     59  C   LIG d   1       6.076  -1.642  -3.045  0.00  0.00    -0.053 C 
ATOM     60  H   LIG d   1       6.733  -2.205  -2.383  0.00  0.00     0.026 H 
ATOM     61  H   LIG d   1       6.003  -2.152  -4.006  0.00  0.00     0.026 H 
BRANCH  59  62
ATOM     62  C   LIG d   1       6.644  -0.237  -3.255  0.00  0.00    -0.053 C 
ATOM     63  H   LIG d   1       5.851   0.429  -3.593  0.00  0.00     0.026 H 
ATOM     64  H   LIG d   1       7.054   0.133  -2.315  0.00  0.00     0.026 H 
BRANCH  62  65
ATOM     65  C   LIG d   1       7.751  -0.289  -4.310  0.00  0.00    -0.053 C 
ATOM     66  H   LIG d   1       8.723  -0.318  -3.815  0.00  0.00     0.026 H 
ATOM     67  H   LIG d   1       7.628  -1.180  -4.924  0.00  0.00     0.026 H 
BRANCH  65  68
ATOM     68  C   LIG d   1       7.668   0.956  -5.196  0.00  0.00    -0.053 C 
ATOM     69  H   LIG d   1       8.360   0.853  -6.032  0.00  0.00     0.026 H 
ATOM     70  H   LIG d   1       6.652   1.066  -5.576  0.00  0.00     0.026 H 
BRANCH  68  71
ATOM     71  C   LIG d   1       8.043   2.193  -4.376  0.00  0.00    -0.053 C 
ATOM     72  H   LIG d   1       7.974   3.081  -5.006  0.00  0.00     0.026 H 
ATOM     73  H   LIG d   1       7.359   2.291  -3.534  0.00  0.00     0.026 H 
BRANCH  71  74
ATOM     74  C   LIG d   1       9.474   2.046  -3.857  0.00  0.00    -0.053 C 
ATOM     75  H   LIG d   1       9.533   1.187  -3.189  0.00  0.00     0.026 H 
ATOM     76  H   LIG d   1      10.153   1.901  -4.698  0.00  0.00     0.026 H 
BRANCH  74  77
ATOM     77  C   LIG d   1       9.872   3.311  -3.094  0.00  0.00    -0.053 C 
ATOM     78  H   LIG d   1       9.242   3.416  -2.210  0.00  0.00     0.026 H 
ATOM     79  H   LIG d   1      10.916   3.238  -2.789  0.00  0.00     0.026 H 
BRANCH  77  80
ATOM     80  C   LIG d   1       9.689   4.532  -3.997  0.00  0.00    -0.053 C 
ATOM     81  H   LIG d   1      10.513   4.584  -4.709  0.00  0.00     0.026 H 
ATOM     82  H   LIG d   1       8.748   4.445  -4.539  0.00  0.00     0.026 H 
BRANCH  80  83
ATOM     83  C   LIG d   1       9.671   5.801  -3.144  0.00  0.00    -0.053 C 
ATOM     84  H   LIG d   1      10.162   6.610  -3.687  0.00  0.00     0.026 H 
ATOM     85  H   LIG d   1       8.640   6.081  -2.929  0.00  0.00     0.026 H 
BRANCH  83  86
ATOM     86  C   LIG d   1      10.414   5.544  -1.831  0.00  0.00    -0.051 C 
ATOM     87  H   LIG d   1      10.088   4.594  -1.410  0.00  0.00     0.027 H 
ATOM     88  H   LIG d   1      11.486   5.508  -2.022  0.00  0.00     0.027 H 
BRANCH  86  89
ATOM     89  C   LIG d   1      10.109   6.672  -0.843  0.00  0.00    -0.030 C 
ATOM     90  H   LIG d   1       9.511   6.281  -0.019  0.00  0.00     0.029 H 
ATOM     91  H   LIG d   1      11.042   7.078  -0.455  0.00  0.00     0.029 H 
BRANCH  89  92
ATOM     92  C   LIG d   1       9.328   7.777  -1.558  0.00  0.00     0.044 C 
ATOM     93  H   LIG d   1       9.886   8.712  -1.497  0.00  0.00     0.056 H 
ATOM     94  H   LIG d   1       9.186   7.505  -2.603  0.00  0.00     0.056 H 
BRANCH  92  95
ATOM     95  O   LIG d   1       8.054   7.941  -0.931  0.00  0.00    -0.395 OA
ATOM     96  H   LIG d   1       7.454   7.195  -1.059  0.00  0.00     0.209 HD
ENDBRANCH  92  95
ENDBRANCH  89  92
ENDBRANCH  86  89
ENDBRANCH  83  86
ENDBRANCH  80  83
ENDBRANCH  77  80
ENDBRANCH  74  77
ENDBRANCH  71  74
ENDBRANCH  68  71
ENDBRANCH  65  68
ENDBRANCH  62  65
ENDBRANCH  59  62
ENDBRANCH  56  59
ENDBRANCH  53  56
ENDBRANCH  50  53
ENDBRANCH   1  50
TORSDOF 32
ENDMDL
MODEL 5
REMARK VINA RESULT:      -4.5      3.618      8.326
REMARK  32 active torsions:
REMARK  status: ('A' for Active; 'I' for Inactive)
REMARK    1  A    between atoms: C_1  and  O_2 
REMARK    2  A    between atoms: O_2  and  C_3 
REMARK    3  A    between atoms: C_3  and  C_5 
REMARK    4  A    between atoms: C_5  and  C_6 
REMARK    5  A    between atoms: C_6  and  C_7 
REMARK    6  A    between atoms: C_7  and  C_8 
REMARK    7  A    between atoms: C_8  and  C_9 
REMARK    8  A    between atoms: C_9  and  C_10 
REMARK    9  A    between atoms: C_10  and  C_11 
REMARK   10  A    between atoms: C_11  and  C_12 
REMARK   11  A    between atoms: C_12  and  C_13 
REMARK   12  A    between atoms: C_13  and  C_14 
REMARK   13  A    between atoms: C_14  and  C_15 
REMARK   14  A    between atoms: C_15  and  C_16 
REMARK   15  A    between atoms: C_16  and  C_17 
REMARK   16  A    between atoms: C_17  and  C_18 
REMARK   17  A    between atoms: C_18  and  C_19 
REMARK   18  A    between atoms: C_19  and  C_20 
REMARK   19  A    between atoms: C_20  and  C_21 
REMARK   20  A    between atoms: C_21  and  C_22 
REMARK   21  A    between atoms: C_22  and  C_23 
REMARK   22  A    between atoms: C_23  and  C_24 
REMARK   23  A    between atoms: C_24  and  C_25 
REMARK   24  A    between atoms: C_25  and  C_26 
REMARK   25  A    between atoms: C_26  and  C_27 
REMARK   26  A    between atoms: C_27  and  C_28 
REMARK   27  A    between atoms: C_28  and  C_29 
REMARK   28  A    between atoms: C_29  and  C_30 
REMARK   29  A    between atoms: C_30  and  C_31 
REMARK   30  A    between atoms: C_31  and  C_32 
REMARK   31  A    between atoms: C_32  and  C_33 
REMARK   32  A    between atoms: C_33  and  O_34 
ROOT
ATOM      1  C   LIG d   1       2.786   0.065  -3.512  0.00  0.00    -0.053 C 
ATOM      2  H   LIG d   1       1.802  -0.146  -3.093  0.00  0.00     0.026 H 
ATOM      3  H   LIG d   1       3.315  -0.872  -3.686  0.00  0.00     0.026 H 
ENDROOT
BRANCH   1   4
ATOM      4  C   LIG d   1       2.627   0.814  -4.837  0.00  0.00    -0.053 C 
ATOM      5  H   LIG d   1       3.154   1.767  -4.781  0.00  0.00     0.026 H 
ATOM      6  H   LIG d   1       1.569   0.994  -5.027  0.00  0.00     0.026 H 
BRANCH   4   7
ATOM      7  C   LIG d   1       3.214  -0.028  -5.971  0.00  0.00    -0.053 C 
ATOM      8  H   LIG d   1       2.761  -1.019  -5.960  0.00  0.00     0.026 H 
ATOM      9  H   LIG d   1       4.291  -0.118  -5.838  0.00  0.00     0.026 H 
BRANCH   7  10
ATOM     10  C   LIG d   1       2.922   0.650  -7.313  0.00  0.00    -0.053 C 
ATOM     11  H   LIG d   1       3.843   1.071  -7.715  0.00  0.00     0.026 H 
ATOM     12  H   LIG d   1       2.192   1.447  -7.166  0.00  0.00     0.026 H 
BRANCH  10  13
ATOM     13  C   LIG d   1       2.361  -0.381  -8.293  0.00  0.00    -0.053 C 
ATOM     14  H   LIG d   1       1.366  -0.688  -7.969  0.00  0.00     0.026 H 
ATOM     15  H   LIG d   1       3.018  -1.251  -8.322  0.00  0.00     0.026 H 
BRANCH  13  16
ATOM     16  C   LIG d   1       2.273   0.239  -9.690  0.00  0.00    -0.053 C 
ATOM     17  H   LIG d   1       1.256   0.587  -9.869  0.00  0.00     0.026 H 
ATOM     18  H   LIG d   1       2.538  -0.510 -10.436  0.00  0.00     0.026 H 
BRANCH  16  19
ATOM     19  C   LIG d   1       3.242   1.419  -9.786  0.00  0.00    -0.053 C 
ATOM     20  H   LIG d   1       3.643   1.641  -8.797  0.00  0.00     0.026 H 
ATOM     21  H   LIG d   1       2.714   2.292 -10.170  0.00  0.00     0.026 H 
BRANCH  19  22
ATOM     22  C   LIG d   1       4.390   1.061 -10.732  0.00  0.00    -0.053 C 
ATOM     23  H   LIG d   1       4.544   1.873 -11.441  0.00  0.00     0.026 H 
ATOM     24  H   LIG d   1       4.142   0.147 -11.274  0.00  0.00     0.026 H 
BRANCH  22  25
ATOM     25  C   LIG d   1       5.670   0.841  -9.922  0.00  0.00    -0.053 C 
ATOM     26  H   LIG d   1       5.539   1.247  -8.919  0.00  0.00     0.026 H 
ATOM     27  H   LIG d   1       6.500   1.348 -10.414  0.00  0.00     0.026 H 
BRANCH  25  28
ATOM     28  C   LIG d   1       5.966  -0.657  -9.834  0.00  0.00    -0.053 C 
ATOM     29  H   LIG d   1       6.920  -0.869 -10.316  0.00  0.00     0.026 H 
ATOM     30  H   LIG d   1       5.174  -1.214 -10.335  0.00  0.00     0.026 H 
BRANCH  28  31
ATOM     31  C   LIG d   1       6.033  -1.077  -8.363  0.00  0.00    -0.053 C 
ATOM     32  H   LIG d   1       5.149  -0.714  -7.841  0.00  0.00     0.026 H 
ATOM     33  H   LIG d   1       6.926  -0.651  -7.905  0.00  0.00     0.026 H 
BRANCH  31  34
ATOM     34  C   LIG d   1       6.091  -2.603  -8.272  0.00  0.00    -0.053 C 
ATOM     35  H   LIG d   1       6.761  -2.893  -7.462  0.00  0.00     0.026 H 
ATOM     36  H   LIG d   1       6.459  -3.010  -9.213  0.00  0.00     0.026 H 
BRANCH  34  37
ATOM     37  C   LIG d   1       4.689  -3.150  -7.992  0.00  0.00    -0.043 C 
ATOM     38  H   LIG d   1       4.514  -4.032  -8.608  0.00  0.00     0.027 H 
ATOM     39  H   LIG d   1       3.948  -2.389  -8.230  0.00  0.00     0.027 H 
BRANCH  37  40
ATOM     40  C   LIG d   1       4.576  -3.530  -6.514  0.00  0.00     0.045 C 
ATOM     41  H   LIG d   1       3.846  -2.882  -6.028  0.00  0.00     0.038 H 
ATOM     42  H   LIG d   1       5.545  -3.411  -6.032  0.00  0.00     0.038 H 
BRANCH  40  43
ATOM     43  C   LIG d   1       4.129  -4.964  -6.398  0.00  0.00     0.307 C 
ATOM     44  O   LIG d   1       3.911  -5.443  -5.311  0.00  0.00    -0.251 OA
BRANCH  43  45
ATOM     45  O   LIG d   1       3.972  -5.710  -7.503  0.00  0.00    -0.468 OA
BRANCH  45  46
ATOM     46  C   LIG d   1       4.379  -7.078  -7.427  0.00  0.00     0.082 C 
ATOM     47  H   LIG d   1       4.408  -7.505  -8.428  0.00  0.00     0.066 H 
ATOM     48  H   LIG d   1       5.371  -7.136  -6.978  0.00  0.00     0.066 H 
ATOM     49  H   LIG d   1       3.670  -7.634  -6.814  0.00  0.00     0.066 H 
ENDBRANCH  45  46
ENDBRANCH  43  45
ENDBRANCH  40  43
ENDBRANCH  37  40
ENDBRANCH  34  37
ENDBRANCH  31  34
ENDBRANCH  28  31
ENDBRANCH  25  28
ENDBRANCH  22  25
ENDBRANCH  19  22
ENDBRANCH  16  19
ENDBRANCH  13  16
ENDBRANCH  10  13
ENDBRANCH   7  10
ENDBRANCH   4   7
ENDBRANCH   1   4
BRANCH   1  50
ATOM     50  C   LIG d   1       3.585   0.927  -2.531  0.00  0.00    -0.053 C 
ATOM     51  H   LIG d   1       4.090   1.724  -3.076  0.00  0.00     0.026 H 
ATOM     52  H   LIG d   1       2.908   1.360  -1.795  0.00  0.00     0.026 H 
BRANCH  50  53
ATOM     53  C   LIG d   1       4.624   0.058  -1.819  0.00  0.00    -0.053 C 
ATOM     54  H   LIG d   1       5.615   0.280  -2.213  0.00  0.00     0.026 H 
ATOM     55  H   LIG d   1       4.602   0.269  -0.750  0.00  0.00     0.026 H 
BRANCH  53  56
ATOM     56  C   LIG d   1       4.300  -1.419  -2.054  0.00  0.00    -0.053 C 
ATOM     57  H   LIG d   1       4.163  -1.917  -1.095  0.00  0.00     0.026 H 
ATOM     58  H   LIG d   1       3.385  -1.501  -2.640  0.00  0.00     0.026 H 
BRANCH  56  59
ATOM     59  C   LIG d   1       5.453  -2.079  -2.813  0.00  0.00    -0.053 C 
ATOM     60  H   LIG d   1       5.915  -2.839  -2.184  0.00  0.00     0.026 H 
ATOM     61  H   LIG d   1       5.071  -2.541  -3.723  0.00  0.00     0.026 H 
BRANCH  59  62
ATOM     62  C   LIG d   1       6.494  -1.019  -3.180  0.00  0.00    -0.053 C 
ATOM     63  H   LIG d   1       6.155  -0.042  -2.837  0.00  0.00     0.026 H 
ATOM     64  H   LIG d   1       7.444  -1.262  -2.700  0.00  0.00     0.026 H 
BRANCH  62  65
ATOM     65  C   LIG d   1       6.681  -0.992  -4.697  0.00  0.00    -0.053 C 
ATOM     66  H   LIG d   1       7.553  -1.588  -4.967  0.00  0.00     0.026 H 
ATOM     67  H   LIG d   1       5.795  -1.402  -5.181  0.00  0.00     0.026 H 
BRANCH  65  68
ATOM     68  C   LIG d   1       6.890   0.453  -5.159  0.00  0.00    -0.053 C 
ATOM     69  H   LIG d   1       7.613   0.472  -5.975  0.00  0.00     0.026 H 
ATOM     70  H   LIG d   1       5.942   0.866  -5.502  0.00  0.00     0.026 H 
BRANCH  68  71
ATOM     71  C   LIG d   1       7.419   1.290  -3.992  0.00  0.00    -0.053 C 
ATOM     72  H   LIG d   1       6.579   1.688  -3.421  0.00  0.00     0.026 H 
ATOM     73  H   LIG d   1       8.033   0.664  -3.345  0.00  0.00     0.026 H 
BRANCH  71  74
ATOM     74  C   LIG d   1       8.261   2.446  -4.534  0.00  0.00    -0.053 C 
ATOM     75  H   LIG d   1       8.754   2.136  -5.455  0.00  0.00     0.026 H 
ATOM     76  H   LIG d   1       7.616   3.302  -4.736  0.00  0.00     0.026 H 
BRANCH  74  77
ATOM     77  C   LIG d   1       9.317   2.837  -3.499  0.00  0.00    -0.053 C 
ATOM     78  H   LIG d   1       8.894   2.749  -2.497  0.00  0.00     0.026 H 
ATOM     79  H   LIG d   1      10.177   2.175  -3.588  0.00  0.00     0.026 H 
BRANCH  77  80
ATOM     80  C   LIG d   1       9.758   4.282  -3.740  0.00  0.00    -0.053 C 
ATOM     81  H   LIG d   1      10.673   4.288  -4.332  0.00  0.00     0.026 H 
ATOM     82  H   LIG d   1       8.975   4.816  -4.278  0.00  0.00     0.026 H 
BRANCH  80  83
ATOM     83  C   LIG d   1      10.014   4.969  -2.398  0.00  0.00    -0.053 C 
ATOM     84  H   LIG d   1       9.447   4.461  -1.616  0.00  0.00     0.026 H 
ATOM     85  H   LIG d   1      11.077   4.924  -2.163  0.00  0.00     0.026 H 
BRANCH  83  86
ATOM     86  C   LIG d   1       9.572   6.432  -2.479  0.00  0.00    -0.051 C 
ATOM     87  H   LIG d   1       9.897   6.856  -3.429  0.00  0.00     0.027 H 
ATOM     88  H   LIG d   1       8.486   6.487  -2.411  0.00  0.00     0.027 H 
BRANCH  86  89
ATOM     89  C   LIG d   1      10.197   7.219  -1.327  0.00  0.00    -0.030 C 
ATOM     90  H   LIG d   1      10.300   6.569  -0.457  0.00  0.00     0.029 H 
ATOM     91  H   LIG d   1      11.179   7.585  -1.626  0.00  0.00     0.029 H 
BRANCH  89  92
ATOM     92  C   LIG d   1       9.296   8.405  -0.972  0.00  0.00     0.044 C 
ATOM     93  H   LIG d   1       9.569   8.784   0.013  0.00  0.00     0.056 H 
ATOM     94  H   LIG d   1       9.423   9.193  -1.713  0.00  0.00     0.056 H 
BRANCH  92  95
ATOM     95  O   LIG d   1       7.932   7.979  -0.958  0.00  0.00    -0.395 OA
ATOM     96  H   LIG d   1       7.364   8.499  -0.374  0.00  0.00     0.209 HD
ENDBRANCH  92  95
ENDBRANCH  89  92
ENDBRANCH  86  89
ENDBRANCH  83  86
ENDBRANCH  80  83
ENDBRANCH  77  80
ENDBRANCH  74  77
ENDBRANCH  71  74
ENDBRANCH  68  71
ENDBRANCH  65  68
ENDBRANCH  62  65
ENDBRANCH  59  62
ENDBRANCH  56  59
ENDBRANCH  53  56
ENDBRANCH  50  53
ENDBRANCH   1  50
TORSDOF 32
ENDMDL
MODEL 6
REMARK VINA RESULT:      -4.5      4.484      8.095
REMARK  32 active torsions:
REMARK  status: ('A' for Active; 'I' for Inactive)
REMARK    1  A    between atoms: C_1  and  O_2 
REMARK    2  A    between atoms: O_2  and  C_3 
REMARK    3  A    between atoms: C_3  and  C_5 
REMARK    4  A    between atoms: C_5  and  C_6 
REMARK    5  A    between atoms: C_6  and  C_7 
REMARK    6  A    between atoms: C_7  and  C_8 
REMARK    7  A    between atoms: C_8  and  C_9 
REMARK    8  A    between atoms: C_9  and  C_10 
REMARK    9  A    between atoms: C_10  and  C_11 
REMARK   10  A    between atoms: C_11  and  C_12 
REMARK   11  A    between atoms: C_12  and  C_13 
REMARK   12  A    between atoms: C_13  and  C_14 
REMARK   13  A    between atoms: C_14  and  C_15 
REMARK   14  A    between atoms: C_15  and  C_16 
REMARK   15  A    between atoms: C_16  and  C_17 
REMARK   16  A    between atoms: C_17  and  C_18 
REMARK   17  A    between atoms: C_18  and  C_19 
REMARK   18  A    between atoms: C_19  and  C_20 
REMARK   19  A    between atoms: C_20  and  C_21 
REMARK   20  A    between atoms: C_21  and  C_22 
REMARK   21  A    between atoms: C_22  and  C_23 
REMARK   22  A    between atoms: C_23  and  C_24 
REMARK   23  A    between atoms: C_24  and  C_25 
REMARK   24  A    between atoms: C_25  and  C_26 
REMARK   25  A    between atoms: C_26  and  C_27 
REMARK   26  A    between atoms: C_27  and  C_28 
REMARK   27  A    between atoms: C_28  and  C_29 
REMARK   28  A    between atoms: C_29  and  C_30 
REMARK   29  A    between atoms: C_30  and  C_31 
REMARK   30  A    between atoms: C_31  and  C_32 
REMARK   31  A    between atoms: C_32  and  C_33 
REMARK   32  A    between atoms: C_33  and  O_34 
ROOT
ATOM      1  C   LIG d   1       2.805   1.807  -8.340  0.00  0.00    -0.053 C 
ATOM      2  H   LIG d   1       3.493   2.075  -7.538  0.00  0.00     0.026 H 
ATOM      3  H   LIG d   1       1.852   2.312  -8.185  0.00  0.00     0.026 H 
ENDROOT
BRANCH   1   4
ATOM      4  C   LIG d   1       3.396   2.237  -9.685  0.00  0.00    -0.053 C 
ATOM      5  H   LIG d   1       3.614   3.304  -9.660  0.00  0.00     0.026 H 
ATOM      6  H   LIG d   1       2.677   2.030 -10.479  0.00  0.00     0.026 H 
BRANCH   4   7
ATOM      7  C   LIG d   1       4.685   1.458  -9.948  0.00  0.00    -0.053 C 
ATOM      8  H   LIG d   1       4.968   1.565 -10.995  0.00  0.00     0.026 H 
ATOM      9  H   LIG d   1       4.526   0.404  -9.720  0.00  0.00     0.026 H 
BRANCH   7  10
ATOM     10  C   LIG d   1       5.804   2.008  -9.059  0.00  0.00    -0.053 C 
ATOM     11  H   LIG d   1       5.397   2.772  -8.396  0.00  0.00     0.026 H 
ATOM     12  H   LIG d   1       6.582   2.446  -9.685  0.00  0.00     0.026 H 
BRANCH  10  13
ATOM     13  C   LIG d   1       6.398   0.872  -8.226  0.00  0.00    -0.053 C 
ATOM     14  H   LIG d   1       6.181  -0.083  -8.705  0.00  0.00     0.026 H 
ATOM     15  H   LIG d   1       5.961   0.886  -7.227  0.00  0.00     0.026 H 
BRANCH  13  16
ATOM     16  C   LIG d   1       7.914   1.056  -8.122  0.00  0.00    -0.053 C 
ATOM     17  H   LIG d   1       8.250   1.750  -8.892  0.00  0.00     0.026 H 
ATOM     18  H   LIG d   1       8.406   0.094  -8.259  0.00  0.00     0.026 H 
BRANCH  16  19
ATOM     19  C   LIG d   1       8.266   1.616  -6.742  0.00  0.00    -0.053 C 
ATOM     20  H   LIG d   1       7.471   1.373  -6.038  0.00  0.00     0.026 H 
ATOM     21  H   LIG d   1       8.376   2.699  -6.807  0.00  0.00     0.026 H 
BRANCH  19  22
ATOM     22  C   LIG d   1       9.580   0.998  -6.261  0.00  0.00    -0.053 C 
ATOM     23  H   LIG d   1      10.418   1.574  -6.653  0.00  0.00     0.026 H 
ATOM     24  H   LIG d   1       9.649  -0.031  -6.615  0.00  0.00     0.026 H 
BRANCH  22  25
ATOM     25  C   LIG d   1       9.621   1.014  -4.731  0.00  0.00    -0.053 C 
ATOM     26  H   LIG d   1      10.634   0.796  -4.393  0.00  0.00     0.026 H 
ATOM     27  H   LIG d   1       8.938   0.259  -4.342  0.00  0.00     0.026 H 
BRANCH  25  28
ATOM     28  C   LIG d   1       9.199   2.394  -4.224  0.00  0.00    -0.053 C 
ATOM     29  H   LIG d   1       8.161   2.359  -3.895  0.00  0.00     0.026 H 
ATOM     30  H   LIG d   1       9.302   3.123  -5.028  0.00  0.00     0.026 H 
BRANCH  28  31
ATOM     31  C   LIG d   1      10.092   2.801  -3.050  0.00  0.00    -0.053 C 
ATOM     32  H   LIG d   1      11.132   2.584  -3.292  0.00  0.00     0.026 H 
ATOM     33  H   LIG d   1       9.802   2.239  -2.161  0.00  0.00     0.026 H 
BRANCH  31  34
ATOM     34  C   LIG d   1       9.931   4.298  -2.782  0.00  0.00    -0.053 C 
ATOM     35  H   LIG d   1       8.963   4.482  -2.314  0.00  0.00     0.026 H 
ATOM     36  H   LIG d   1       9.990   4.845  -3.723  0.00  0.00     0.026 H 
BRANCH  34  37
ATOM     37  C   LIG d   1      11.046   4.771  -1.847  0.00  0.00    -0.043 C 
ATOM     38  H   LIG d   1      12.007   4.417  -2.219  0.00  0.00     0.027 H 
ATOM     39  H   LIG d   1      10.875   4.374  -0.847  0.00  0.00     0.027 H 
BRANCH  37  40
ATOM     40  C   LIG d   1      11.053   6.301  -1.794  0.00  0.00     0.045 C 
ATOM     41  H   LIG d   1      10.698   6.698  -2.746  0.00  0.00     0.038 H 
ATOM     42  H   LIG d   1      12.067   6.654  -1.609  0.00  0.00     0.038 H 
BRANCH  40  43
ATOM     43  C   LIG d   1      10.146   6.769  -0.686  0.00  0.00     0.307 C 
ATOM     44  O   LIG d   1      10.429   6.536   0.465  0.00  0.00    -0.251 OA
BRANCH  43  45
ATOM     45  O   LIG d   1       9.025   7.447  -0.978  0.00  0.00    -0.468 OA
BRANCH  45  46
ATOM     46  C   LIG d   1       9.115   8.874  -0.995  0.00  0.00     0.082 C 
ATOM     47  H   LIG d   1       9.869   9.199  -0.280  0.00  0.00     0.066 H 
ATOM     48  H   LIG d   1       9.395   9.207  -1.994  0.00  0.00     0.066 H 
ATOM     49  H   LIG d   1       8.150   9.302  -0.725  0.00  0.00     0.066 H 
ENDBRANCH  45  46
ENDBRANCH  43  45
ENDBRANCH  40  43
ENDBRANCH  37  40
ENDBRANCH  34  37
ENDBRANCH  31  34
ENDBRANCH  28  31
ENDBRANCH  25  28
ENDBRANCH  22  25
ENDBRANCH  19  22
ENDBRANCH  16  19
ENDBRANCH  13  16
ENDBRANCH  10  13
ENDBRANCH   7  10
ENDBRANCH   4   7
ENDBRANCH   1   4
BRANCH   1  50
ATOM     50  C   LIG d   1       2.586   0.292  -8.340  0.00  0.00    -0.053 C 
ATOM     51  H   LIG d   1       1.521   0.079  -8.422  0.00  0.00     0.026 H 
ATOM     52  H   LIG d   1       3.113  -0.150  -9.185  0.00  0.00     0.026 H 
BRANCH  50  53
ATOM     53  C   LIG d   1       3.126  -0.301  -7.037  0.00  0.00    -0.053 C 
ATOM     54  H   LIG d   1       2.645  -1.259  -6.846  0.00  0.00     0.026 H 
ATOM     55  H   LIG d   1       4.203  -0.445  -7.122  0.00  0.00     0.026 H 
BRANCH  53  56
ATOM     56  C   LIG d   1       2.830   0.657  -5.880  0.00  0.00    -0.053 C 
ATOM     57  H   LIG d   1       3.764   1.083  -5.514  0.00  0.00     0.026 H 
ATOM     58  H   LIG d   1       2.178   1.458  -6.230  0.00  0.00     0.026 H 
BRANCH  56  59
ATOM     59  C   LIG d   1       2.138  -0.107  -4.750  0.00  0.00    -0.053 C 
ATOM     60  H   LIG d   1       1.098   0.212  -4.680  0.00  0.00     0.026 H 
ATOM     61  H   LIG d   1       2.179  -1.176  -4.956  0.00  0.00     0.026 H 
BRANCH  59  62
ATOM     62  C   LIG d   1       2.850   0.184  -3.427  0.00  0.00    -0.053 C 
ATOM     63  H   LIG d   1       3.776   0.723  -3.624  0.00  0.00     0.026 H 
ATOM     64  H   LIG d   1       2.203   0.793  -2.793  0.00  0.00     0.026 H 
BRANCH  62  65
ATOM     65  C   LIG d   1       3.166  -1.134  -2.718  0.00  0.00    -0.053 C 
ATOM     66  H   LIG d   1       2.423  -1.316  -1.942  0.00  0.00     0.026 H 
ATOM     67  H   LIG d   1       3.146  -1.949  -3.440  0.00  0.00     0.026 H 
BRANCH  65  68
ATOM     68  C   LIG d   1       4.556  -1.050  -2.083  0.00  0.00    -0.053 C 
ATOM     69  H   LIG d   1       4.456  -0.981  -1.000  0.00  0.00     0.026 H 
ATOM     70  H   LIG d   1       5.128  -1.942  -2.339  0.00  0.00     0.026 H 
BRANCH  68  71
ATOM     71  C   LIG d   1       5.282   0.191  -2.607  0.00  0.00    -0.053 C 
ATOM     72  H   LIG d   1       4.621   0.743  -3.277  0.00  0.00     0.026 H 
ATOM     73  H   LIG d   1       5.564   0.828  -1.769  0.00  0.00     0.026 H 
BRANCH  71  74
ATOM     74  C   LIG d   1       6.538  -0.237  -3.368  0.00  0.00    -0.053 C 
ATOM     75  H   LIG d   1       7.217   0.611  -3.454  0.00  0.00     0.026 H 
ATOM     76  H   LIG d   1       7.032  -1.046  -2.830  0.00  0.00     0.026 H 
BRANCH  74  77
ATOM     77  C   LIG d   1       6.147  -0.719  -4.766  0.00  0.00    -0.053 C 
ATOM     78  H   LIG d   1       5.073  -0.904  -4.800  0.00  0.00     0.026 H 
ATOM     79  H   LIG d   1       6.407   0.044  -5.500  0.00  0.00     0.026 H 
BRANCH  77  80
ATOM     80  C   LIG d   1       6.897  -2.013  -5.088  0.00  0.00    -0.053 C 
ATOM     81  H   LIG d   1       7.081  -2.068  -6.161  0.00  0.00     0.026 H 
ATOM     82  H   LIG d   1       7.848  -2.023  -4.557  0.00  0.00     0.026 H 
BRANCH  80  83
ATOM     83  C   LIG d   1       6.055  -3.213  -4.652  0.00  0.00    -0.053 C 
ATOM     84  H   LIG d   1       6.592  -4.135  -4.880  0.00  0.00     0.026 H 
ATOM     85  H   LIG d   1       5.869  -3.157  -3.580  0.00  0.00     0.026 H 
BRANCH  83  86
ATOM     86  C   LIG d   1       4.721  -3.202  -5.403  0.00  0.00    -0.051 C 
ATOM     87  H   LIG d   1       4.044  -3.925  -4.949  0.00  0.00     0.027 H 
ATOM     88  H   LIG d   1       4.281  -2.207  -5.345  0.00  0.00     0.027 H 
BRANCH  86  89
ATOM     89  C   LIG d   1       4.957  -3.573  -6.868  0.00  0.00    -0.030 C 
ATOM     90  H   LIG d   1       4.847  -2.684  -7.490  0.00  0.00     0.029 H 
ATOM     91  H   LIG d   1       5.963  -3.976  -6.984  0.00  0.00     0.029 H 
BRANCH  89  92
ATOM     92  C   LIG d   1       3.932  -4.625  -7.298  0.00  0.00     0.044 C 
ATOM     93  H   LIG d   1       3.267  -4.197  -8.048  0.00  0.00     0.056 H 
ATOM     94  H   LIG d   1       4.450  -5.486  -7.720  0.00  0.00     0.056 H 
BRANCH  92  95
ATOM     95  O   LIG d   1       3.168  -5.037  -6.163  0.00  0.00    -0.395 OA
ATOM     96  H   LIG d   1       2.217  -5.090  -6.328  0.00  0.00     0.209 HD
ENDBRANCH  92  95
ENDBRANCH  89  92
ENDBRANCH  86  89
ENDBRANCH  83  86
ENDBRANCH  80  83
ENDBRANCH  77  80
ENDBRANCH  74  77
ENDBRANCH  71  74
ENDBRANCH  68  71
ENDBRANCH  65  68
ENDBRANCH  62  65
ENDBRANCH  59  62
ENDBRANCH  56  59
ENDBRANCH  53  56
ENDBRANCH  50  53
ENDBRANCH   1  50
TORSDOF 32
ENDMDL
MODEL 7
REMARK VINA RESULT:      -4.4      2.385      6.941
REMARK  32 active torsions:
REMARK  status: ('A' for Active; 'I' for Inactive)
REMARK    1  A    between atoms: C_1  and  O_2 
REMARK    2  A    between atoms: O_2  and  C_3 
REMARK    3  A    between atoms: C_3  and  C_5 
REMARK    4  A    between atoms: C_5  and  C_6 
REMARK    5  A    between atoms: C_6  and  C_7 
REMARK    6  A    between atoms: C_7  and  C_8 
REMARK    7  A    between atoms: C_8  and  C_9 
REMARK    8  A    between atoms: C_9  and  C_10 
REMARK    9  A    between atoms: C_10  and  C_11 
REMARK   10  A    between atoms: C_11  and  C_12 
REMARK   11  A    between atoms: C_12  and  C_13 
REMARK   12  A    between atoms: C_13  and  C_14 
REMARK   13  A    between atoms: C_14  and  C_15 
REMARK   14  A    between atoms: C_15  and  C_16 
REMARK   15  A    between atoms: C_16  and  C_17 
REMARK   16  A    between atoms: C_17  and  C_18 
REMARK   17  A    between atoms: C_18  and  C_19 
REMARK   18  A    between atoms: C_19  and  C_20 
REMARK   19  A    between atoms: C_20  and  C_21 
REMARK   20  A    between atoms: C_21  and  C_22 
REMARK   21  A    between atoms: C_22  and  C_23 
REMARK   22  A    between atoms: C_23  and  C_24 
REMARK   23  A    between atoms: C_24  and  C_25 
REMARK   24  A    between atoms: C_25  and  C_26 
REMARK   25  A    between atoms: C_26  and  C_27 
REMARK   26  A    between atoms: C_27  and  C_28 
REMARK   27  A    between atoms: C_28  and  C_29 
REMARK   28  A    between atoms: C_29  and  C_30 
REMARK   29  A    between atoms: C_30  and  C_31 
REMARK   30  A    between atoms: C_31  and  C_32 
REMARK   31  A    between atoms: C_32  and  C_33 
REMARK   32  A    between atoms: C_33  and  O_34 
ROOT
ATOM      1  C   LIG d   1       3.788  -0.825  -5.362  0.00  0.00    -0.053 C 
ATOM      2  H   LIG d   1       3.574  -1.891  -5.436  0.00  0.00     0.026 H 
ATOM      3  H   LIG d   1       4.661  -0.673  -4.726  0.00  0.00     0.026 H 
ENDROOT
BRANCH   1   4
ATOM      4  C   LIG d   1       4.070  -0.262  -6.756  0.00  0.00    -0.053 C 
ATOM      5  H   LIG d   1       4.703  -0.958  -7.307  0.00  0.00     0.026 H 
ATOM      6  H   LIG d   1       4.580   0.697  -6.664  0.00  0.00     0.026 H 
BRANCH   4   7
ATOM      7  C   LIG d   1       2.751  -0.069  -7.505  0.00  0.00    -0.053 C 
ATOM      8  H   LIG d   1       2.702   0.945  -7.901  0.00  0.00     0.026 H 
ATOM      9  H   LIG d   1       1.918  -0.233  -6.822  0.00  0.00     0.026 H 
BRANCH   7  10
ATOM     10  C   LIG d   1       2.668  -1.072  -8.659  0.00  0.00    -0.053 C 
ATOM     11  H   LIG d   1       2.274  -2.018  -8.289  0.00  0.00     0.026 H 
ATOM     12  H   LIG d   1       3.663  -1.229  -9.075  0.00  0.00     0.026 H 
BRANCH  10  13
ATOM     13  C   LIG d   1       1.741  -0.522  -9.745  0.00  0.00    -0.053 C 
ATOM     14  H   LIG d   1       1.719   0.566  -9.688  0.00  0.00     0.026 H 
ATOM     15  H   LIG d   1       0.735  -0.915  -9.598  0.00  0.00     0.026 H 
BRANCH  13  16
ATOM     16  C   LIG d   1       2.259  -0.950 -11.121  0.00  0.00    -0.053 C 
ATOM     17  H   LIG d   1       1.435  -0.952 -11.834  0.00  0.00     0.026 H 
ATOM     18  H   LIG d   1       2.684  -1.951 -11.053  0.00  0.00     0.026 H 
BRANCH  16  19
ATOM     19  C   LIG d   1       3.336   0.031 -11.587  0.00  0.00    -0.053 C 
ATOM     20  H   LIG d   1       3.706   0.598 -10.733  0.00  0.00     0.026 H 
ATOM     21  H   LIG d   1       2.910   0.716 -12.321  0.00  0.00     0.026 H 
BRANCH  19  22
ATOM     22  C   LIG d   1       4.491  -0.744 -12.224  0.00  0.00    -0.053 C 
ATOM     23  H   LIG d   1       5.423  -0.201 -12.069  0.00  0.00     0.026 H 
ATOM     24  H   LIG d   1       4.308  -0.855 -13.293  0.00  0.00     0.026 H 
BRANCH  22  25
ATOM     25  C   LIG d   1       4.594  -2.128 -11.578  0.00  0.00    -0.053 C 
ATOM     26  H   LIG d   1       4.325  -2.891 -12.308  0.00  0.00     0.026 H 
ATOM     27  H   LIG d   1       3.915  -2.183 -10.728  0.00  0.00     0.026 H 
BRANCH  25  28
ATOM     28  C   LIG d   1       6.029  -2.362 -11.100  0.00  0.00    -0.053 C 
ATOM     29  H   LIG d   1       6.717  -1.786 -11.718  0.00  0.00     0.026 H 
ATOM     30  H   LIG d   1       6.270  -3.422 -11.179  0.00  0.00     0.026 H 
BRANCH  28  31
ATOM     31  C   LIG d   1       6.159  -1.917  -9.641  0.00  0.00    -0.053 C 
ATOM     32  H   LIG d   1       5.753  -2.690  -8.989  0.00  0.00     0.026 H 
ATOM     33  H   LIG d   1       5.605  -0.989  -9.494  0.00  0.00     0.026 H 
BRANCH  31  34
ATOM     34  C   LIG d   1       7.634  -1.689  -9.308  0.00  0.00    -0.053 C 
ATOM     35  H   LIG d   1       8.256  -2.242 -10.012  0.00  0.00     0.026 H 
ATOM     36  H   LIG d   1       7.836  -2.035  -8.294  0.00  0.00     0.026 H 
BRANCH  34  37
ATOM     37  C   LIG d   1       7.954  -0.196  -9.410  0.00  0.00    -0.043 C 
ATOM     38  H   LIG d   1       7.768   0.147 -10.427  0.00  0.00     0.027 H 
ATOM     39  H   LIG d   1       9.000  -0.030  -9.157  0.00  0.00     0.027 H 
BRANCH  37  40
ATOM     40  C   LIG d   1       7.065   0.585  -8.439  0.00  0.00     0.045 C 
ATOM     41  H   LIG d   1       7.647   0.867  -7.561  0.00  0.00     0.038 H 
ATOM     42  H   LIG d   1       6.225  -0.039  -8.133  0.00  0.00     0.038 H 
BRANCH  40  43
ATOM     43  C   LIG d   1       6.548   1.826  -9.118  0.00  0.00     0.307 C 
ATOM     44  O   LIG d   1       7.215   2.833  -9.126  0.00  0.00    -0.251 OA
BRANCH  43  45
ATOM     45  O   LIG d   1       5.346   1.812  -9.717  0.00  0.00    -0.468 OA
BRANCH  45  46
ATOM     46  C   LIG d   1       4.371   2.739  -9.233  0.00  0.00     0.082 C 
ATOM     47  H   LIG d   1       4.265   3.558  -9.943  0.00  0.00     0.066 H 
ATOM     48  H   LIG d   1       3.413   2.231  -9.119  0.00  0.00     0.066 H 
ATOM     49  H   LIG d   1       4.691   3.133  -8.269  0.00  0.00     0.066 H 
ENDBRANCH  45  46
ENDBRANCH  43  45
ENDBRANCH  40  43
ENDBRANCH  37  40
ENDBRANCH  34  37
ENDBRANCH  31  34
ENDBRANCH  28  31
ENDBRANCH  25  28
ENDBRANCH  22  25
ENDBRANCH  19  22
ENDBRANCH  16  19
ENDBRANCH  13  16
ENDBRANCH  10  13
ENDBRANCH   7  10
ENDBRANCH   4   7
ENDBRANCH   1   4
BRANCH   1  50
ATOM     50  C   LIG d   1       2.583  -0.103  -4.754  0.00  0.00    -0.053 C 
ATOM     51  H   LIG d   1       2.739   0.974  -4.810  0.00  0.00     0.026 H 
ATOM     52  H   LIG d   1       1.684  -0.370  -5.308  0.00  0.00     0.026 H 
BRANCH  50  53
ATOM     53  C   LIG d   1       2.424  -0.520  -3.291  0.00  0.00    -0.053 C 
ATOM     54  H   LIG d   1       2.508   0.358  -2.650  0.00  0.00     0.026 H 
ATOM     55  H   LIG d   1       1.446  -0.981  -3.149  0.00  0.00     0.026 H 
BRANCH  53  56
ATOM     56  C   LIG d   1       3.519  -1.525  -2.925  0.00  0.00    -0.053 C 
ATOM     57  H   LIG d   1       3.064  -2.419  -2.501  0.00  0.00     0.026 H 
ATOM     58  H   LIG d   1       4.081  -1.792  -3.821  0.00  0.00     0.026 H 
BRANCH  56  59
ATOM     59  C   LIG d   1       4.465  -0.897  -1.899  0.00  0.00    -0.053 C 
ATOM     60  H   LIG d   1       4.277  -1.331  -0.918  0.00  0.00     0.026 H 
ATOM     61  H   LIG d   1       5.497  -1.089  -2.191  0.00  0.00     0.026 H 
BRANCH  59  62
ATOM     62  C   LIG d   1       4.226   0.614  -1.843  0.00  0.00    -0.053 C 
ATOM     63  H   LIG d   1       3.242   0.841  -2.252  0.00  0.00     0.026 H 
ATOM     64  H   LIG d   1       4.275   0.951  -0.806  0.00  0.00     0.026 H 
BRANCH  62  65
ATOM     65  C   LIG d   1       5.298   1.330  -2.665  0.00  0.00    -0.053 C 
ATOM     66  H   LIG d   1       4.870   1.662  -3.611  0.00  0.00     0.026 H 
ATOM     67  H   LIG d   1       5.666   2.193  -2.110  0.00  0.00     0.026 H 
BRANCH  65  68
ATOM     68  C   LIG d   1       6.457   0.369  -2.940  0.00  0.00    -0.053 C 
ATOM     69  H   LIG d   1       7.257   0.549  -2.222  0.00  0.00     0.026 H 
ATOM     70  H   LIG d   1       6.107  -0.659  -2.844  0.00  0.00     0.026 H 
BRANCH  68  71
ATOM     71  C   LIG d   1       6.984   0.598  -4.358  0.00  0.00    -0.053 C 
ATOM     72  H   LIG d   1       6.169   0.937  -4.998  0.00  0.00     0.026 H 
ATOM     73  H   LIG d   1       7.767   1.355  -4.336  0.00  0.00     0.026 H 
BRANCH  71  74
ATOM     74  C   LIG d   1       7.554  -0.710  -4.908  0.00  0.00    -0.053 C 
ATOM     75  H   LIG d   1       6.963  -1.032  -5.765  0.00  0.00     0.026 H 
ATOM     76  H   LIG d   1       8.588  -0.556  -5.217  0.00  0.00     0.026 H 
BRANCH  74  77
ATOM     77  C   LIG d   1       7.502  -1.786  -3.822  0.00  0.00    -0.053 C 
ATOM     78  H   LIG d   1       8.486  -1.884  -3.360  0.00  0.00     0.026 H 
ATOM     79  H   LIG d   1       6.773  -1.502  -3.063  0.00  0.00     0.026 H 
BRANCH  77  80
ATOM     80  C   LIG d   1       7.096  -3.122  -4.445  0.00  0.00    -0.053 C 
ATOM     81  H   LIG d   1       7.841  -3.879  -4.199  0.00  0.00     0.026 H 
ATOM     82  H   LIG d   1       6.127  -3.427  -4.050  0.00  0.00     0.026 H 
BRANCH  80  83
ATOM     83  C   LIG d   1       7.004  -2.971  -5.964  0.00  0.00    -0.053 C 
ATOM     84  H   LIG d   1       6.909  -1.914  -6.218  0.00  0.00     0.026 H 
ATOM     85  H   LIG d   1       7.905  -3.375  -6.425  0.00  0.00     0.026 H 
BRANCH  83  86
ATOM     86  C   LIG d   1       5.781  -3.732  -6.481  0.00  0.00    -0.051 C 
ATOM     87  H   LIG d   1       5.100  -3.035  -6.968  0.00  0.00     0.027 H 
ATOM     88  H   LIG d   1       6.101  -4.487  -7.198  0.00  0.00     0.027 H 
BRANCH  86  89
ATOM     89  C   LIG d   1       5.068  -4.408  -5.309  0.00  0.00    -0.030 C 
ATOM     90  H   LIG d   1       5.805  -4.727  -4.571  0.00  0.00     0.029 H 
ATOM     91  H   LIG d   1       4.375  -3.704  -4.849  0.00  0.00     0.029 H 
BRANCH  89  92
ATOM     92  C   LIG d   1       4.297  -5.628  -5.817  0.00  0.00     0.044 C 
ATOM     93  H   LIG d   1       4.908  -6.168  -6.540  0.00  0.00     0.056 H 
ATOM     94  H   LIG d   1       4.060  -6.284  -4.979  0.00  0.00     0.056 H 
BRANCH  92  95
ATOM     95  O   LIG d   1       3.086  -5.198  -6.443  0.00  0.00    -0.395 OA
ATOM     96  H   LIG d   1       2.699  -4.406  -6.047  0.00  0.00     0.209 HD
ENDBRANCH  92  95
ENDBRANCH  89  92
ENDBRANCH  86  89
ENDBRANCH  83  86
ENDBRANCH  80  83
ENDBRANCH  77  80
ENDBRANCH  74  77
ENDBRANCH  71  74
ENDBRANCH  68  71
ENDBRANCH  65  68
ENDBRANCH  62  65
ENDBRANCH  59  62
ENDBRANCH  56  59
ENDBRANCH  53  56
ENDBRANCH  50  53
ENDBRANCH   1  50
TORSDOF 32
ENDMDL
MODEL 8
REMARK VINA RESULT:      -4.4      3.421      5.659
REMARK  32 active torsions:
REMARK  status: ('A' for Active; 'I' for Inactive)
REMARK    1  A    between atoms: C_1  and  O_2 
REMARK    2  A    between atoms: O_2  and  C_3 
REMARK    3  A    between atoms: C_3  and  C_5 
REMARK    4  A    between atoms: C_5  and  C_6 
REMARK    5  A    between atoms: C_6  and  C_7 
REMARK    6  A    between atoms: C_7  and  C_8 
REMARK    7  A    between atoms: C_8  and  C_9 
REMARK    8  A    between atoms: C_9  and  C_10 
REMARK    9  A    between atoms: C_10  and  C_11 
REMARK   10  A    between atoms: C_11  and  C_12 
REMARK   11  A    between atoms: C_12  and  C_13 
REMARK   12  A    between atoms: C_13  and  C_14 
REMARK   13  A    between atoms: C_14  and  C_15 
REMARK   14  A    between atoms: C_15  and  C_16 
REMARK   15  A    between atoms: C_16  and  C_17 
REMARK   16  A    between atoms: C_17  and  C_18 
REMARK   17  A    between atoms: C_18  and  C_19 
REMARK   18  A    between atoms: C_19  and  C_20 
REMARK   19  A    between atoms: C_20  and  C_21 
REMARK   20  A    between atoms: C_21  and  C_22 
REMARK   21  A    between atoms: C_22  and  C_23 
REMARK   22  A    between atoms: C_23  and  C_24 
REMARK   23  A    between atoms: C_24  and  C_25 
REMARK   24  A    between atoms: C_25  and  C_26 
REMARK   25  A    between atoms: C_26  and  C_27 
REMARK   26  A    between atoms: C_27  and  C_28 
REMARK   27  A    between atoms: C_28  and  C_29 
REMARK   28  A    between atoms: C_29  and  C_30 
REMARK   29  A    between atoms: C_30  and  C_31 
REMARK   30  A    between atoms: C_31  and  C_32 
REMARK   31  A    between atoms: C_32  and  C_33 
REMARK   32  A    between atoms: C_33  and  O_34 
ROOT
ATOM      1  C   LIG d   1       6.601  -1.248  -6.513  0.00  0.00    -0.053 C 
ATOM      2  H   LIG d   1       7.259  -0.657  -5.877  0.00  0.00     0.026 H 
ATOM      3  H   LIG d   1       7.166  -1.633  -7.362  0.00  0.00     0.026 H 
ENDROOT
BRANCH   1   4
ATOM      4  C   LIG d   1       6.028  -2.418  -5.710  0.00  0.00    -0.053 C 
ATOM      5  H   LIG d   1       6.062  -3.324  -6.315  0.00  0.00     0.026 H 
ATOM      6  H   LIG d   1       4.995  -2.200  -5.438  0.00  0.00     0.026 H 
BRANCH   4   7
ATOM      7  C   LIG d   1       6.858  -2.620  -4.442  0.00  0.00    -0.053 C 
ATOM      8  H   LIG d   1       7.682  -1.906  -4.428  0.00  0.00     0.026 H 
ATOM      9  H   LIG d   1       7.256  -3.634  -4.425  0.00  0.00     0.026 H 
BRANCH   7  10
ATOM     10  C   LIG d   1       5.973  -2.399  -3.212  0.00  0.00    -0.053 C 
ATOM     11  H   LIG d   1       6.020  -1.352  -2.914  0.00  0.00     0.026 H 
ATOM     12  H   LIG d   1       6.326  -3.027  -2.394  0.00  0.00     0.026 H 
BRANCH  10  13
ATOM     13  C   LIG d   1       4.528  -2.769  -3.553  0.00  0.00    -0.053 C 
ATOM     14  H   LIG d   1       4.378  -3.836  -3.390  0.00  0.00     0.026 H 
ATOM     15  H   LIG d   1       4.327  -2.528  -4.597  0.00  0.00     0.026 H 
BRANCH  13  16
ATOM     16  C   LIG d   1       3.574  -1.977  -2.654  0.00  0.00    -0.053 C 
ATOM     17  H   LIG d   1       3.039  -2.664  -1.999  0.00  0.00     0.026 H 
ATOM     18  H   LIG d   1       2.861  -1.434  -3.273  0.00  0.00     0.026 H 
BRANCH  16  19
ATOM     19  C   LIG d   1       4.376  -0.985  -1.810  0.00  0.00    -0.053 C 
ATOM     20  H   LIG d   1       5.437  -1.093  -2.032  0.00  0.00     0.026 H 
ATOM     21  H   LIG d   1       4.203  -1.186  -0.752  0.00  0.00     0.026 H 
BRANCH  19  22
ATOM     22  C   LIG d   1       3.928   0.441  -2.137  0.00  0.00    -0.053 C 
ATOM     23  H   LIG d   1       3.293   0.816  -1.335  0.00  0.00     0.026 H 
ATOM     24  H   LIG d   1       3.369   0.440  -3.073  0.00  0.00     0.026 H 
BRANCH  22  25
ATOM     25  C   LIG d   1       5.157   1.342  -2.278  0.00  0.00    -0.053 C 
ATOM     26  H   LIG d   1       5.880   1.094  -1.501  0.00  0.00     0.026 H 
ATOM     27  H   LIG d   1       4.856   2.384  -2.175  0.00  0.00     0.026 H 
BRANCH  25  28
ATOM     28  C   LIG d   1       5.791   1.127  -3.654  0.00  0.00    -0.053 C 
ATOM     29  H   LIG d   1       5.574   1.983  -4.292  0.00  0.00     0.026 H 
ATOM     30  H   LIG d   1       5.381   0.224  -4.105  0.00  0.00     0.026 H 
BRANCH  28  31
ATOM     31  C   LIG d   1       7.306   0.977  -3.500  0.00  0.00    -0.053 C 
ATOM     32  H   LIG d   1       7.590  -0.058  -3.688  0.00  0.00     0.026 H 
ATOM     33  H   LIG d   1       7.597   1.255  -2.486  0.00  0.00     0.026 H 
BRANCH  31  34
ATOM     34  C   LIG d   1       8.013   1.891  -4.501  0.00  0.00    -0.053 C 
ATOM     35  H   LIG d   1       7.279   2.532  -4.991  0.00  0.00     0.026 H 
ATOM     36  H   LIG d   1       8.524   1.286  -5.250  0.00  0.00     0.026 H 
BRANCH  34  37
ATOM     37  C   LIG d   1       9.035   2.760  -3.765  0.00  0.00    -0.043 C 
ATOM     38  H   LIG d   1       9.980   2.222  -3.686  0.00  0.00     0.027 H 
ATOM     39  H   LIG d   1       8.665   2.992  -2.768  0.00  0.00     0.027 H 
BRANCH  37  40
ATOM     40  C   LIG d   1       9.254   4.060  -4.543  0.00  0.00     0.045 C 
ATOM     41  H   LIG d   1       8.303   4.584  -4.649  0.00  0.00     0.038 H 
ATOM     42  H   LIG d   1       9.655   3.831  -5.530  0.00  0.00     0.038 H 
BRANCH  40  43
ATOM     43  C   LIG d   1      10.227   4.935  -3.795  0.00  0.00     0.307 C 
ATOM     44  O   LIG d   1      11.203   5.370  -4.357  0.00  0.00    -0.251 OA
BRANCH  43  45
ATOM     45  O   LIG d   1      10.007   5.232  -2.504  0.00  0.00    -0.468 OA
BRANCH  45  46
ATOM     46  C   LIG d   1       9.527   6.547  -2.214  0.00  0.00     0.082 C 
ATOM     47  H   LIG d   1       9.652   6.753  -1.152  0.00  0.00     0.066 H 
ATOM     48  H   LIG d   1      10.093   7.276  -2.794  0.00  0.00     0.066 H 
ATOM     49  H   LIG d   1       8.472   6.614  -2.476  0.00  0.00     0.066 H 
ENDBRANCH  45  46
ENDBRANCH  43  45
ENDBRANCH  40  43
ENDBRANCH  37  40
ENDBRANCH  34  37
ENDBRANCH  31  34
ENDBRANCH  28  31
ENDBRANCH  25  28
ENDBRANCH  22  25
ENDBRANCH  19  22
ENDBRANCH  16  19
ENDBRANCH  13  16
ENDBRANCH  10  13
ENDBRANCH   7  10
ENDBRANCH   4   7
ENDBRANCH   1   4
BRANCH   1  50
ATOM     50  C   LIG d   1       5.456  -0.368  -7.020  0.00  0.00    -0.053 C 
ATOM     51  H   LIG d   1       5.688   0.678  -6.826  0.00  0.00     0.026 H 
ATOM     52  H   LIG d   1       5.329  -0.520  -8.092  0.00  0.00     0.026 H 
BRANCH  50  53
ATOM     53  C   LIG d   1       4.162  -0.747  -6.296  0.00  0.00    -0.053 C 
ATOM     54  H   LIG d   1       3.753  -1.657  -6.733  0.00  0.00     0.026 H 
ATOM     55  H   LIG d   1       4.374  -0.914  -5.240  0.00  0.00     0.026 H 
BRANCH  53  56
ATOM     56  C   LIG d   1       3.147   0.389  -6.439  0.00  0.00    -0.053 C 
ATOM     57  H   LIG d   1       2.254   0.152  -5.860  0.00  0.00     0.026 H 
ATOM     58  H   LIG d   1       3.585   1.316  -6.069  0.00  0.00     0.026 H 
BRANCH  56  59
ATOM     59  C   LIG d   1       2.772   0.555  -7.913  0.00  0.00    -0.053 C 
ATOM     60  H   LIG d   1       3.412  -0.081  -8.524  0.00  0.00     0.026 H 
ATOM     61  H   LIG d   1       1.730   0.270  -8.057  0.00  0.00     0.026 H 
BRANCH  59  62
ATOM     62  C   LIG d   1       2.962   2.017  -8.325  0.00  0.00    -0.053 C 
ATOM     63  H   LIG d   1       2.058   2.579  -8.094  0.00  0.00     0.026 H 
ATOM     64  H   LIG d   1       3.804   2.442  -7.778  0.00  0.00     0.026 H 
BRANCH  62  65
ATOM     65  C   LIG d   1       3.238   2.090  -9.827  0.00  0.00    -0.053 C 
ATOM     66  H   LIG d   1       2.411   1.635 -10.372  0.00  0.00     0.026 H 
ATOM     67  H   LIG d   1       3.343   3.132 -10.128  0.00  0.00     0.026 H 
BRANCH  65  68
ATOM     68  C   LIG d   1       4.532   1.336 -10.145  0.00  0.00    -0.053 C 
ATOM     69  H   LIG d   1       5.316   2.050 -10.395  0.00  0.00     0.026 H 
ATOM     70  H   LIG d   1       4.835   0.752  -9.275  0.00  0.00     0.026 H 
BRANCH  68  71
ATOM     71  C   LIG d   1       4.298   0.399 -11.332  0.00  0.00    -0.053 C 
ATOM     72  H   LIG d   1       4.428   0.954 -12.263  0.00  0.00     0.026 H 
ATOM     73  H   LIG d   1       5.014  -0.420 -11.295  0.00  0.00     0.026 H 
BRANCH  71  74
ATOM     74  C   LIG d   1       2.876  -0.161 -11.268  0.00  0.00    -0.053 C 
ATOM     75  H   LIG d   1       2.612  -0.361 -10.229  0.00  0.00     0.026 H 
ATOM     76  H   LIG d   1       2.180   0.565 -11.687  0.00  0.00     0.026 H 
BRANCH  74  77
ATOM     77  C   LIG d   1       2.803  -1.461 -12.071  0.00  0.00    -0.053 C 
ATOM     78  H   LIG d   1       1.771  -1.647 -12.368  0.00  0.00     0.026 H 
ATOM     79  H   LIG d   1       3.427  -1.374 -12.960  0.00  0.00     0.026 H 
BRANCH  77  80
ATOM     80  C   LIG d   1       3.302  -2.622 -11.209  0.00  0.00    -0.053 C 
ATOM     81  H   LIG d   1       3.102  -3.565 -11.719  0.00  0.00     0.026 H 
ATOM     82  H   LIG d   1       4.374  -2.519 -11.046  0.00  0.00     0.026 H 
BRANCH  80  83
ATOM     83  C   LIG d   1       2.577  -2.608  -9.862  0.00  0.00    -0.053 C 
ATOM     84  H   LIG d   1       2.267  -1.588  -9.628  0.00  0.00     0.026 H 
ATOM     85  H   LIG d   1       1.698  -3.251  -9.915  0.00  0.00     0.026 H 
BRANCH  83  86
ATOM     86  C   LIG d   1       3.518  -3.119  -8.769  0.00  0.00    -0.051 C 
ATOM     87  H   LIG d   1       4.543  -2.847  -9.018  0.00  0.00     0.027 H 
ATOM     88  H   LIG d   1       3.244  -2.669  -7.816  0.00  0.00     0.027 H 
BRANCH  86  89
ATOM     89  C   LIG d   1       3.403  -4.641  -8.668  0.00  0.00    -0.030 C 
ATOM     90  H   LIG d   1       2.351  -4.926  -8.660  0.00  0.00     0.029 H 
ATOM     91  H   LIG d   1       3.898  -5.100  -9.523  0.00  0.00     0.029 H 
BRANCH  89  92
ATOM     92  C   LIG d   1       4.069  -5.117  -7.375  0.00  0.00     0.044 C 
ATOM     93  H   LIG d   1       4.423  -6.140  -7.506  0.00  0.00     0.056 H 
ATOM     94  H   LIG d   1       4.913  -4.468  -7.140  0.00  0.00     0.056 H 
BRANCH  92  95
ATOM     95  O   LIG d   1       3.121  -5.074  -6.307  0.00  0.00    -0.395 OA
ATOM     96  H   LIG d   1       2.247  -4.757  -6.571  0.00  0.00     0.209 HD
ENDBRANCH  92  95
ENDBRANCH  89  92
ENDBRANCH  86  89
ENDBRANCH  83  86
ENDBRANCH  80  83
ENDBRANCH  77  80
ENDBRANCH  74  77
ENDBRANCH  71  74
ENDBRANCH  68  71
ENDBRANCH  65  68
ENDBRANCH  62  65
ENDBRANCH  59  62
ENDBRANCH  56  59
ENDBRANCH  53  56
ENDBRANCH  50  53
ENDBRANCH   1  50
TORSDOF 32
ENDMDL
MODEL 9
REMARK VINA RESULT:      -4.4      2.182      5.617
REMARK  32 active torsions:
REMARK  status: ('A' for Active; 'I' for Inactive)
REMARK    1  A    between atoms: C_1  and  O_2 
REMARK    2  A    between atoms: O_2  and  C_3 
REMARK    3  A    between atoms: C_3  and  C_5 
REMARK    4  A    between atoms: C_5  and  C_6 
REMARK    5  A    between atoms: C_6  and  C_7 
REMARK    6  A    between atoms: C_7  and  C_8 
REMARK    7  A    between atoms: C_8  and  C_9 
REMARK    8  A    between atoms: C_9  and  C_10 
REMARK    9  A    between atoms: C_10  and  C_11 
REMARK   10  A    between atoms: C_11  and  C_12 
REMARK   11  A    between atoms: C_12  and  C_13 
REMARK   12  A    between atoms: C_13  and  C_14 
REMARK   13  A    between atoms: C_14  and  C_15 
REMARK   14  A    between atoms: C_15  and  C_16 
REMARK   15  A    between atoms: C_16  and  C_17 
REMARK   16  A    between atoms: C_17  and  C_18 
REMARK   17  A    between atoms: C_18  and  C_19 
REMARK   18  A    between atoms: C_19  and  C_20 
REMARK   19  A    between atoms: C_20  and  C_21 
REMARK   20  A    between atoms: C_21  and  C_22 
REMARK   21  A    between atoms: C_22  and  C_23 
REMARK   22  A    between atoms: C_23  and  C_24 
REMARK   23  A    between atoms: C_24  and  C_25 
REMARK   24  A    between atoms: C_25  and  C_26 
REMARK   25  A    between atoms: C_26  and  C_27 
REMARK   26  A    between atoms: C_27  and  C_28 
REMARK   27  A    between atoms: C_28  and  C_29 
REMARK   28  A    between atoms: C_29  and  C_30 
REMARK   29  A    between atoms: C_30  and  C_31 
REMARK   30  A    between atoms: C_31  and  C_32 
REMARK   31  A    between atoms: C_32  and  C_33 
REMARK   32  A    between atoms: C_33  and  O_34 
ROOT
ATOM      1  C   LIG d   1       3.730  -1.693 -10.521  0.00  0.00    -0.053 C 
ATOM      2  H   LIG d   1       3.979  -2.424 -11.290  0.00  0.00     0.026 H 
ATOM      3  H   LIG d   1       4.645  -1.345 -10.042  0.00  0.00     0.026 H 
ENDROOT
BRANCH   1   4
ATOM      4  C   LIG d   1       3.007  -0.505 -11.161  0.00  0.00    -0.053 C 
ATOM      5  H   LIG d   1       2.241  -0.136 -10.479  0.00  0.00     0.026 H 
ATOM      6  H   LIG d   1       2.541  -0.824 -12.093  0.00  0.00     0.026 H 
BRANCH   4   7
ATOM      7  C   LIG d   1       4.014   0.609 -11.449  0.00  0.00    -0.053 C 
ATOM      8  H   LIG d   1       3.534   1.391 -12.036  0.00  0.00     0.026 H 
ATOM      9  H   LIG d   1       4.858   0.202 -12.006  0.00  0.00     0.026 H 
BRANCH   7  10
ATOM     10  C   LIG d   1       4.514   1.199 -10.127  0.00  0.00    -0.053 C 
ATOM     11  H   LIG d   1       5.551   1.514 -10.240  0.00  0.00     0.026 H 
ATOM     12  H   LIG d   1       4.447   0.443  -9.344  0.00  0.00     0.026 H 
BRANCH  10  13
ATOM     13  C   LIG d   1       3.652   2.404  -9.749  0.00  0.00    -0.053 C 
ATOM     14  H   LIG d   1       2.954   2.621 -10.558  0.00  0.00     0.026 H 
ATOM     15  H   LIG d   1       4.292   3.270  -9.578  0.00  0.00     0.026 H 
BRANCH  13  16
ATOM     16  C   LIG d   1       2.869   2.089  -8.471  0.00  0.00    -0.053 C 
ATOM     17  H   LIG d   1       1.850   1.802  -8.732  0.00  0.00     0.026 H 
ATOM     18  H   LIG d   1       2.846   2.973  -7.834  0.00  0.00     0.026 H 
BRANCH  16  19
ATOM     19  C   LIG d   1       3.549   0.940  -7.727  0.00  0.00    -0.053 C 
ATOM     20  H   LIG d   1       4.359   1.333  -7.112  0.00  0.00     0.026 H 
ATOM     21  H   LIG d   1       3.952   0.228  -8.447  0.00  0.00     0.026 H 
BRANCH  19  22
ATOM     22  C   LIG d   1       2.526   0.235  -6.833  0.00  0.00    -0.053 C 
ATOM     23  H   LIG d   1       2.543  -0.835  -7.034  0.00  0.00     0.026 H 
ATOM     24  H   LIG d   1       1.531   0.628  -7.041  0.00  0.00     0.026 H 
BRANCH  22  25
ATOM     25  C   LIG d   1       2.875   0.484  -5.364  0.00  0.00    -0.053 C 
ATOM     26  H   LIG d   1       2.646   1.517  -5.106  0.00  0.00     0.026 H 
ATOM     27  H   LIG d   1       3.937   0.296  -5.207  0.00  0.00     0.026 H 
BRANCH  25  28
ATOM     28  C   LIG d   1       2.055  -0.458  -4.479  0.00  0.00    -0.053 C 
ATOM     29  H   LIG d   1       2.175  -1.483  -4.829  0.00  0.00     0.026 H 
ATOM     30  H   LIG d   1       1.003  -0.178  -4.528  0.00  0.00     0.026 H 
BRANCH  28  31
ATOM     31  C   LIG d   1       2.544  -0.353  -3.033  0.00  0.00    -0.053 C 
ATOM     32  H   LIG d   1       1.688  -0.249  -2.367  0.00  0.00     0.026 H 
ATOM     33  H   LIG d   1       3.192   0.518  -2.931  0.00  0.00     0.026 H 
BRANCH  31  34
ATOM     34  C   LIG d   1       3.325  -1.615  -2.666  0.00  0.00    -0.053 C 
ATOM     35  H   LIG d   1       3.568  -2.169  -3.573  0.00  0.00     0.026 H 
ATOM     36  H   LIG d   1       2.721  -2.240  -2.009  0.00  0.00     0.026 H 
BRANCH  34  37
ATOM     37  C   LIG d   1       4.619  -1.223  -1.949  0.00  0.00    -0.043 C 
ATOM     38  H   LIG d   1       5.468  -1.693  -2.447  0.00  0.00     0.027 H 
ATOM     39  H   LIG d   1       4.577  -1.556  -0.913  0.00  0.00     0.027 H 
BRANCH  37  40
ATOM     40  C   LIG d   1       4.785   0.298  -1.990  0.00  0.00     0.045 C 
ATOM     41  H   LIG d   1       5.147   0.649  -1.023  0.00  0.00     0.038 H 
ATOM     42  H   LIG d   1       3.824   0.763  -2.209  0.00  0.00     0.038 H 
BRANCH  40  43
ATOM     43  C   LIG d   1       5.777   0.666  -3.061  0.00  0.00     0.307 C 
ATOM     44  O   LIG d   1       6.236   1.783  -3.101  0.00  0.00    -0.251 OA
BRANCH  43  45
ATOM     45  O   LIG d   1       6.153  -0.247  -3.971  0.00  0.00    -0.468 OA
BRANCH  45  46
ATOM     46  C   LIG d   1       7.543  -0.306  -4.295  0.00  0.00     0.082 C 
ATOM     47  H   LIG d   1       7.984  -1.194  -3.843  0.00  0.00     0.066 H 
ATOM     48  H   LIG d   1       7.662  -0.353  -5.378  0.00  0.00     0.066 H 
ATOM     49  H   LIG d   1       8.043   0.584  -3.913  0.00  0.00     0.066 H 
ENDBRANCH  45  46
ENDBRANCH  43  45
ENDBRANCH  40  43
ENDBRANCH  37  40
ENDBRANCH  34  37
ENDBRANCH  31  34
ENDBRANCH  28  31
ENDBRANCH  25  28
ENDBRANCH  22  25
ENDBRANCH  19  22
ENDBRANCH  16  19
ENDBRANCH  13  16
ENDBRANCH  10  13
ENDBRANCH   7  10
ENDBRANCH   4   7
ENDBRANCH   1   4
BRANCH   1  50
ATOM     50  C   LIG d   1       2.821  -2.341  -9.475  0.00  0.00    -0.053 C 
ATOM     51  H   LIG d   1       2.145  -1.590  -9.066  0.00  0.00     0.026 H 
ATOM     52  H   LIG d   1       2.241  -3.137  -9.942  0.00  0.00     0.026 H 
BRANCH  50  53
ATOM     53  C   LIG d   1       3.675  -2.925  -8.349  0.00  0.00    -0.053 C 
ATOM     54  H   LIG d   1       3.227  -2.681  -7.386  0.00  0.00     0.026 H 
ATOM     55  H   LIG d   1       3.731  -4.009  -8.460  0.00  0.00     0.026 H 
BRANCH  53  56
ATOM     56  C   LIG d   1       5.085  -2.334  -8.419  0.00  0.00    -0.053 C 
ATOM     57  H   LIG d   1       5.743  -3.024  -8.946  0.00  0.00     0.026 H 
ATOM     58  H   LIG d   1       5.054  -1.383  -8.952  0.00  0.00     0.026 H 
BRANCH  56  59
ATOM     59  C   LIG d   1       5.613  -2.106  -7.001  0.00  0.00    -0.053 C 
ATOM     60  H   LIG d   1       6.613  -2.530  -6.913  0.00  0.00     0.026 H 
ATOM     61  H   LIG d   1       5.651  -1.036  -6.796  0.00  0.00     0.026 H 
BRANCH  59  62
ATOM     62  C   LIG d   1       4.681  -2.784  -5.995  0.00  0.00    -0.053 C 
ATOM     63  H   LIG d   1       4.084  -2.028  -5.486  0.00  0.00     0.026 H 
ATOM     64  H   LIG d   1       4.021  -3.476  -6.520  0.00  0.00     0.026 H 
BRANCH  62  65
ATOM     65  C   LIG d   1       5.513  -3.553  -4.968  0.00  0.00    -0.053 C 
ATOM     66  H   LIG d   1       6.469  -3.048  -4.822  0.00  0.00     0.026 H 
ATOM     67  H   LIG d   1       4.976  -3.594  -4.021  0.00  0.00     0.026 H 
BRANCH  65  68
ATOM     68  C   LIG d   1       5.762  -4.975  -5.475  0.00  0.00    -0.053 C 
ATOM     69  H   LIG d   1       6.426  -4.942  -6.339  0.00  0.00     0.026 H 
ATOM     70  H   LIG d   1       6.223  -5.568  -4.685  0.00  0.00     0.026 H 
BRANCH  68  71
ATOM     71  C   LIG d   1       4.431  -5.612  -5.881  0.00  0.00    -0.053 C 
ATOM     72  H   LIG d   1       4.067  -6.242  -5.068  0.00  0.00     0.026 H 
ATOM     73  H   LIG d   1       3.702  -4.830  -6.088  0.00  0.00     0.026 H 
BRANCH  71  74
ATOM     74  C   LIG d   1       4.635  -6.465  -7.134  0.00  0.00    -0.053 C 
ATOM     75  H   LIG d   1       4.442  -7.511  -6.897  0.00  0.00     0.026 H 
ATOM     76  H   LIG d   1       3.949  -6.136  -7.914  0.00  0.00     0.026 H 
BRANCH  74  77
ATOM     77  C   LIG d   1       6.076  -6.313  -7.626  0.00  0.00    -0.053 C 
ATOM     78  H   LIG d   1       6.621  -5.648  -6.955  0.00  0.00     0.026 H 
ATOM     79  H   LIG d   1       6.560  -7.290  -7.640  0.00  0.00     0.026 H 
BRANCH  77  80
ATOM     80  C   LIG d   1       6.075  -5.724  -9.037  0.00  0.00    -0.053 C 
ATOM     81  H   LIG d   1       5.896  -4.650  -8.982  0.00  0.00     0.026 H 
ATOM     82  H   LIG d   1       7.040  -5.907  -9.508  0.00  0.00     0.026 H 
BRANCH  80  83
ATOM     83  C   LIG d   1       4.970  -6.383  -9.865  0.00  0.00    -0.053 C 
ATOM     84  H   LIG d   1       5.333  -7.329 -10.268  0.00  0.00     0.026 H 
ATOM     85  H   LIG d   1       4.102  -6.568  -9.232  0.00  0.00     0.026 H 
BRANCH  83  86
ATOM     86  C   LIG d   1       4.573  -5.456 -11.017  0.00  0.00    -0.051 C 
ATOM     87  H   LIG d   1       4.882  -4.438 -10.785  0.00  0.00     0.027 H 
ATOM     88  H   LIG d   1       5.063  -5.785 -11.932  0.00  0.00     0.027 H 
BRANCH  86  89
ATOM     89  C   LIG d   1       3.056  -5.499 -11.206  0.00  0.00    -0.030 C 
ATOM     90  H   LIG d   1       2.645  -4.497 -11.081  0.00  0.00     0.029 H 
ATOM     91  H   LIG d   1       2.824  -5.864 -12.206  0.00  0.00     0.029 H 
BRANCH  89  92
ATOM     92  C   LIG d   1       2.438  -6.435 -10.165  0.00  0.00     0.044 C 
ATOM     93  H   LIG d   1       1.848  -7.200 -10.670  0.00  0.00     0.056 H 
ATOM     94  H   LIG d   1       3.231  -6.911  -9.587  0.00  0.00     0.056 H 
BRANCH  92  95
ATOM     95  O   LIG d   1       1.596  -5.683  -9.289  0.00  0.00    -0.395 OA
ATOM     96  H   LIG d   1       0.913  -6.210  -8.852  0.00  0.00     0.209 HD
ENDBRANCH  92  95
ENDBRANCH  89  92
ENDBRANCH  86  89
ENDBRANCH  83  86
ENDBRANCH  80  83
ENDBRANCH  77  80
ENDBRANCH  74  77
ENDBRANCH  71  74
ENDBRANCH  68  71
ENDBRANCH  65  68
ENDBRANCH  62  65
ENDBRANCH  59  62
ENDBRANCH  56  59
ENDBRANCH  53  56
ENDBRANCH  50  53
ENDBRANCH   1  50
TORSDOF 32
ENDMDL
MODEL 10
REMARK VINA RESULT:      -4.4      2.722      6.091
REMARK  32 active torsions:
REMARK  status: ('A' for Active; 'I' for Inactive)
REMARK    1  A    between atoms: C_1  and  O_2 
REMARK    2  A    between atoms: O_2  and  C_3 
REMARK    3  A    between atoms: C_3  and  C_5 
REMARK    4  A    between atoms: C_5  and  C_6 
REMARK    5  A    between atoms: C_6  and  C_7 
REMARK    6  A    between atoms: C_7  and  C_8 
REMARK    7  A    between atoms: C_8  and  C_9 
REMARK    8  A    between atoms: C_9  and  C_10 
REMARK    9  A    between atoms: C_10  and  C_11 
REMARK   10  A    between atoms: C_11  and  C_12 
REMARK   11  A    between atoms: C_12  and  C_13 
REMARK   12  A    between atoms: C_13  and  C_14 
REMARK   13  A    between atoms: C_14  and  C_15 
REMARK   14  A    between atoms: C_15  and  C_16 
REMARK   15  A    between atoms: C_16  and  C_17 
REMARK   16  A    between atoms: C_17  and  C_18 
REMARK   17  A    between atoms: C_18  and  C_19 
REMARK   18  A    between atoms: C_19  and  C_20 
REMARK   19  A    between atoms: C_20  and  C_21 
REMARK   20  A    between atoms: C_21  and  C_22 
REMARK   21  A    between atoms: C_22  and  C_23 
REMARK   22  A    between atoms: C_23  and  C_24 
REMARK   23  A    between atoms: C_24  and  C_25 
REMARK   24  A    between atoms: C_25  and  C_26 
REMARK   25  A    between atoms: C_26  and  C_27 
REMARK   26  A    between atoms: C_27  and  C_28 
REMARK   27  A    between atoms: C_28  and  C_29 
REMARK   28  A    between atoms: C_29  and  C_30 
REMARK   29  A    between atoms: C_30  and  C_31 
REMARK   30  A    between atoms: C_31  and  C_32 
REMARK   31  A    between atoms: C_32  and  C_33 
REMARK   32  A    between atoms: C_33  and  O_34 
ROOT
ATOM      1  C   LIG d   1       3.315  -0.057  -5.464  0.00  0.00    -0.053 C 
ATOM      2  H   LIG d   1       4.234   0.436  -5.148  0.00  0.00     0.026 H 
ATOM      3  H   LIG d   1       3.527  -1.098  -5.707  0.00  0.00     0.026 H 
ENDROOT
BRANCH   1   4
ATOM      4  C   LIG d   1       2.287   0.004  -4.332  0.00  0.00    -0.053 C 
ATOM      5  H   LIG d   1       1.514  -0.745  -4.504  0.00  0.00     0.026 H 
ATOM      6  H   LIG d   1       1.835   0.995  -4.306  0.00  0.00     0.026 H 
BRANCH   4   7
ATOM      7  C   LIG d   1       2.982  -0.276  -2.998  0.00  0.00    -0.053 C 
ATOM      8  H   LIG d   1       3.806  -0.971  -3.155  0.00  0.00     0.026 H 
ATOM      9  H   LIG d   1       2.267  -0.710  -2.300  0.00  0.00     0.026 H 
BRANCH   7  10
ATOM     10  C   LIG d   1       3.524   1.035  -2.421  0.00  0.00    -0.053 C 
ATOM     11  H   LIG d   1       2.937   1.317  -1.547  0.00  0.00     0.026 H 
ATOM     12  H   LIG d   1       3.455   1.819  -3.175  0.00  0.00     0.026 H 
BRANCH  10  13
ATOM     13  C   LIG d   1       4.987   0.845  -2.015  0.00  0.00    -0.053 C 
ATOM     14  H   LIG d   1       5.153  -0.192  -1.727  0.00  0.00     0.026 H 
ATOM     15  H   LIG d   1       5.218   1.498  -1.173  0.00  0.00     0.026 H 
BRANCH  13  16
ATOM     16  C   LIG d   1       5.894   1.197  -3.197  0.00  0.00    -0.053 C 
ATOM     17  H   LIG d   1       6.342   2.177  -3.032  0.00  0.00     0.026 H 
ATOM     18  H   LIG d   1       5.304   1.217  -4.113  0.00  0.00     0.026 H 
BRANCH  16  19
ATOM     19  C   LIG d   1       6.997   0.146  -3.323  0.00  0.00    -0.053 C 
ATOM     20  H   LIG d   1       7.200  -0.287  -2.344  0.00  0.00     0.026 H 
ATOM     21  H   LIG d   1       7.903   0.614  -3.709  0.00  0.00     0.026 H 
BRANCH  19  22
ATOM     22  C   LIG d   1       6.545  -0.956  -4.284  0.00  0.00    -0.053 C 
ATOM     23  H   LIG d   1       7.343  -1.172  -4.993  0.00  0.00     0.026 H 
ATOM     24  H   LIG d   1       5.658  -0.623  -4.825  0.00  0.00     0.026 H 
BRANCH  22  25
ATOM     25  C   LIG d   1       6.212  -2.221  -3.490  0.00  0.00    -0.053 C 
ATOM     26  H   LIG d   1       5.853  -1.943  -2.499  0.00  0.00     0.026 H 
ATOM     27  H   LIG d   1       7.108  -2.834  -3.393  0.00  0.00     0.026 H 
BRANCH  25  28
ATOM     28  C   LIG d   1       5.128  -3.013  -4.224  0.00  0.00    -0.053 C 
ATOM     29  H   LIG d   1       4.242  -2.391  -4.346  0.00  0.00     0.026 H 
ATOM     30  H   LIG d   1       4.872  -3.900  -3.644  0.00  0.00     0.026 H 
BRANCH  28  31
ATOM     31  C   LIG d   1       5.649  -3.435  -5.599  0.00  0.00    -0.053 C 
ATOM     32  H   LIG d   1       6.558  -2.881  -5.829  0.00  0.00     0.026 H 
ATOM     33  H   LIG d   1       4.892  -3.222  -6.355  0.00  0.00     0.026 H 
BRANCH  31  34
ATOM     34  C   LIG d   1       5.953  -4.934  -5.591  0.00  0.00    -0.053 C 
ATOM     35  H   LIG d   1       6.563  -5.176  -4.720  0.00  0.00     0.026 H 
ATOM     36  H   LIG d   1       6.493  -5.201  -6.499  0.00  0.00     0.026 H 
BRANCH  34  37
ATOM     37  C   LIG d   1       4.641  -5.720  -5.527  0.00  0.00    -0.043 C 
ATOM     38  H   LIG d   1       3.827  -5.099  -5.902  0.00  0.00     0.027 H 
ATOM     39  H   LIG d   1       4.437  -6.003  -4.496  0.00  0.00     0.027 H 
BRANCH  37  40
ATOM     40  C   LIG d   1       4.759  -6.979  -6.389  0.00  0.00     0.045 C 
ATOM     41  H   LIG d   1       5.548  -6.840  -7.129  0.00  0.00     0.038 H 
ATOM     42  H   LIG d   1       3.812  -7.162  -6.897  0.00  0.00     0.038 H 
BRANCH  40  43
ATOM     43  C   LIG d   1       5.096  -8.157  -5.513  0.00  0.00     0.307 C 
ATOM     44  O   LIG d   1       6.209  -8.625  -5.532  0.00  0.00    -0.251 OA
BRANCH  43  45
ATOM     45  O   LIG d   1       4.158  -8.687  -4.710  0.00  0.00    -0.468 OA
BRANCH  45  46
ATOM     46  C   LIG d   1       4.539  -9.822  -3.930  0.00  0.00     0.082 C 
ATOM     47  H   LIG d   1       5.559 -10.110  -4.181  0.00  0.00     0.066 H 
ATOM     48  H   LIG d   1       4.483  -9.569  -2.871  0.00  0.00     0.066 H 
ATOM     49  H   LIG d   1       3.864 -10.651  -4.142  0.00  0.00     0.066 H 
ENDBRANCH  45  46
ENDBRANCH  43  45
ENDBRANCH  40  43
ENDBRANCH  37  40
ENDBRANCH  34  37
ENDBRANCH  31  34
ENDBRANCH  28  31
ENDBRANCH  25  28
ENDBRANCH  22  25
ENDBRANCH  19  22
ENDBRANCH  16  19
ENDBRANCH  13  16
ENDBRANCH  10  13
ENDBRANCH   7  10
ENDBRANCH   4   7
ENDBRANCH   1   4
BRANCH   1  50
ATOM     50  C   LIG d   1       2.755   0.651  -6.700  0.00  0.00    -0.053 C 
ATOM     51  H   LIG d   1       1.763   1.041  -6.477  0.00  0.00     0.026 H 
ATOM     52  H   LIG d   1       3.416   1.473  -6.977  0.00  0.00     0.026 H 
BRANCH  50  53
ATOM     53  C   LIG d   1       2.665  -0.343  -7.859  0.00  0.00    -0.053 C 
ATOM     54  H   LIG d   1       3.622  -0.849  -7.981  0.00  0.00     0.026 H 
ATOM     55  H   LIG d   1       1.889  -1.079  -7.646  0.00  0.00     0.026 H 
BRANCH  53  56
ATOM     56  C   LIG d   1       2.317   0.406  -9.148  0.00  0.00    -0.053 C 
ATOM     57  H   LIG d   1       2.828  -0.061  -9.989  0.00  0.00     0.026 H 
ATOM     58  H   LIG d   1       1.239   0.367  -9.310  0.00  0.00     0.026 H 
BRANCH  56  59
ATOM     59  C   LIG d   1       2.761   1.865  -9.025  0.00  0.00    -0.053 C 
ATOM     60  H   LIG d   1       1.939   2.520  -9.310  0.00  0.00     0.026 H 
ATOM     61  H   LIG d   1       3.051   2.070  -7.994  0.00  0.00     0.026 H 
BRANCH  59  62
ATOM     62  C   LIG d   1       3.956   2.113  -9.948  0.00  0.00    -0.053 C 
ATOM     63  H   LIG d   1       4.029   1.303 -10.674  0.00  0.00     0.026 H 
ATOM     64  H   LIG d   1       3.819   3.060 -10.473  0.00  0.00     0.026 H 
BRANCH  62  65
ATOM     65  C   LIG d   1       5.239   2.170  -9.118  0.00  0.00    -0.053 C 
ATOM     66  H   LIG d   1       5.870   2.983  -9.479  0.00  0.00     0.026 H 
ATOM     67  H   LIG d   1       4.988   2.342  -8.071  0.00  0.00     0.026 H 
BRANCH  65  68
ATOM     68  C   LIG d   1       5.992   0.845  -9.251  0.00  0.00    -0.053 C 
ATOM     69  H   LIG d   1       5.381   0.134  -9.807  0.00  0.00     0.026 H 
ATOM     70  H   LIG d   1       6.931   1.011  -9.781  0.00  0.00     0.026 H 
BRANCH  68  71
ATOM     71  C   LIG d   1       6.285   0.282  -7.858  0.00  0.00    -0.053 C 
ATOM     72  H   LIG d   1       6.235   1.087  -7.124  0.00  0.00     0.026 H 
ATOM     73  H   LIG d   1       5.548  -0.480  -7.612  0.00  0.00     0.026 H 
BRANCH  71  74
ATOM     74  C   LIG d   1       7.685  -0.335  -7.841  0.00  0.00    -0.053 C 
ATOM     75  H   LIG d   1       7.712  -1.154  -7.123  0.00  0.00     0.026 H 
ATOM     76  H   LIG d   1       7.927  -0.714  -8.835  0.00  0.00     0.026 H 
BRANCH  74  77
ATOM     77  C   LIG d   1       8.707   0.729  -7.439  0.00  0.00    -0.053 C 
ATOM     78  H   LIG d   1       9.595   0.244  -7.030  0.00  0.00     0.026 H 
ATOM     79  H   LIG d   1       8.985   1.316  -8.314  0.00  0.00     0.026 H 
BRANCH  77  80
ATOM     80  C   LIG d   1       8.097   1.649  -6.380  0.00  0.00    -0.053 C 
ATOM     81  H   LIG d   1       7.195   2.114  -6.779  0.00  0.00     0.026 H 
ATOM     82  H   LIG d   1       7.842   1.067  -5.495  0.00  0.00     0.026 H 
BRANCH  80  83
ATOM     83  C   LIG d   1       9.106   2.735  -6.003  0.00  0.00    -0.053 C 
ATOM     84  H   LIG d   1      10.102   2.295  -5.932  0.00  0.00     0.026 H 
ATOM     85  H   LIG d   1       9.107   3.512  -6.767  0.00  0.00     0.026 H 
BRANCH  83  86
ATOM     86  C   LIG d   1       8.721   3.346  -4.654  0.00  0.00    -0.051 C 
ATOM     87  H   LIG d   1       8.093   4.221  -4.819  0.00  0.00     0.027 H 
ATOM     88  H   LIG d   1       8.171   2.610  -4.067  0.00  0.00     0.027 H 
BRANCH  86  89
ATOM     89  C   LIG d   1       9.986   3.759  -3.901  0.00  0.00    -0.030 C 
ATOM     90  H   LIG d   1      10.720   4.147  -4.608  0.00  0.00     0.029 H 
ATOM     91  H   LIG d   1       9.740   4.530  -3.172  0.00  0.00     0.029 H 
BRANCH  89  92
ATOM     92  C   LIG d   1      10.570   2.541  -3.180  0.00  0.00     0.044 C 
ATOM     93  H   LIG d   1       9.820   1.750  -3.140  0.00  0.00     0.056 H 
ATOM     94  H   LIG d   1      11.447   2.185  -3.719  0.00  0.00     0.056 H 
BRANCH  92  95
ATOM     95  O   LIG d   1      10.945   2.910  -1.851  0.00  0.00    -0.395 OA
ATOM     96  H   LIG d   1      11.879   3.138  -1.755  0.00  0.00     0.209 HD
ENDBRANCH  92  95
ENDBRANCH  89  92
ENDBRANCH  86  89
ENDBRANCH  83  86
ENDBRANCH  80  83
ENDBRANCH  77  80
ENDBRANCH  74  77
ENDBRANCH  71  74
ENDBRANCH  68  71
ENDBRANCH  65  68
ENDBRANCH  62  65
ENDBRANCH  59  62
ENDBRANCH  56  59
ENDBRANCH  53  56
ENDBRANCH  50  53
ENDBRANCH   1  50
TORSDOF 32
ENDMDL
