MODEL 1
REMARK VINA RESULT:      -4.0      0.000      0.000
REMARK  5 active torsions:
REMARK  status: ('A' for Active; 'I' for Inactive)
REMARK    1  A    between atoms: C_1  and  C_2 
REMARK    2  A    between atoms: C_2  and  C_3 
REMARK    3  A    between atoms: C_3  and  C_4 
REMARK    4  A    between atoms: C_4  and  C_6 
REMARK    5  A    between atoms: C_4  and  O_8 
ROOT
ATOM      1  C   LIG d   1       3.583   0.241  -2.405  0.00  0.00    -0.074 C 
ATOM      2  C   LIG d   1       4.087   1.244  -2.062  0.00  0.00    -0.117 C 
ATOM      3  H   LIG d   1       4.538   2.142  -1.755  0.00  0.00     0.123 H 
ENDROOT
BRANCH   1   4
ATOM      4  C   LIG d   1       2.951  -1.017  -2.834  0.00  0.00     0.115 C 
ATOM      5  H   LIG d   1       2.000  -1.141  -2.315  0.00  0.00     0.073 H 
BRANCH   4   6
ATOM      6  C   LIG d   1       3.871  -2.192  -2.498  0.00  0.00    -0.016 C 
ATOM      7  H   LIG d   1       4.570  -1.893  -1.717  0.00  0.00     0.030 H 
ATOM      8  H   LIG d   1       3.274  -3.033  -2.147  0.00  0.00     0.030 H 
BRANCH   6   9
ATOM      9  C   LIG d   1       4.649  -2.605  -3.749  0.00  0.00    -0.053 C 
ATOM     10  H   LIG d   1       4.627  -3.690  -3.849  0.00  0.00     0.026 H 
ATOM     11  H   LIG d   1       4.193  -2.149  -4.627  0.00  0.00     0.026 H 
BRANCH   9  12
ATOM     12  C   LIG d   1       6.100  -2.134  -3.625  0.00  0.00    -0.065 C 
ATOM     13  H   LIG d   1       6.168  -1.365  -2.856  0.00  0.00     0.023 H 
ATOM     14  H   LIG d   1       6.734  -2.977  -3.354  0.00  0.00     0.023 H 
ATOM     15  H   LIG d   1       6.431  -1.722  -4.579  0.00  0.00     0.023 H 
ENDBRANCH   9  12
ENDBRANCH   6   9
ENDBRANCH   4   6
BRANCH   4  16
ATOM     16  O   LIG d   1       2.722  -0.978  -4.244  0.00  0.00    -0.379 OA
ATOM     17  H   LIG d   1       3.526  -1.068  -4.775  0.00  0.00     0.211 HD
ENDBRANCH   4  16
ENDBRANCH   1   4
TORSDOF 5
ENDMDL
MODEL 2
REMARK VINA RESULT:      -3.9      1.349      2.876
REMARK  5 active torsions:
REMARK  status: ('A' for Active; 'I' for Inactive)
REMARK    1  A    between atoms: C_1  and  C_2 
REMARK    2  A    between atoms: C_2  and  C_3 
REMARK    3  A    between atoms: C_3  and  C_4 
REMARK    4  A    between atoms: C_4  and  C_6 
REMARK    5  A    between atoms: C_4  and  O_8 
ROOT
ATOM      1  C   LIG d   1       3.570  -1.510  -2.891  0.00  0.00    -0.074 C 
ATOM      2  C   LIG d   1       3.775  -2.515  -2.321  0.00  0.00    -0.117 C 
ATOM      3  H   LIG d   1       3.957  -3.415  -1.811  0.00  0.00     0.123 H 
ENDROOT
BRANCH   1   4
ATOM      4  C   LIG d   1       3.315  -0.248  -3.605  0.00  0.00     0.115 C 
ATOM      5  H   LIG d   1       4.097  -0.086  -4.347  0.00  0.00     0.073 H 
BRANCH   4   6
ATOM      6  C   LIG d   1       3.311   0.912  -2.607  0.00  0.00    -0.016 C 
ATOM      7  H   LIG d   1       3.134   1.847  -3.140  0.00  0.00     0.030 H 
ATOM      8  H   LIG d   1       2.521   0.758  -1.873  0.00  0.00     0.030 H 
BRANCH   6   9
ATOM      9  C   LIG d   1       4.664   0.978  -1.896  0.00  0.00    -0.053 C 
ATOM     10  H   LIG d   1       4.655   1.794  -1.173  0.00  0.00     0.026 H 
ATOM     11  H   LIG d   1       4.849   0.036  -1.380  0.00  0.00     0.026 H 
BRANCH   9  12
ATOM     12  C   LIG d   1       5.770   1.220  -2.926  0.00  0.00    -0.065 C 
ATOM     13  H   LIG d   1       6.153   0.263  -3.279  0.00  0.00     0.023 H 
ATOM     14  H   LIG d   1       5.366   1.784  -3.766  0.00  0.00     0.023 H 
ATOM     15  H   LIG d   1       6.579   1.786  -2.463  0.00  0.00     0.023 H 
ENDBRANCH   9  12
ENDBRANCH   6   9
ENDBRANCH   4   6
BRANCH   4  16
ATOM     16  O   LIG d   1       2.046  -0.319  -4.259  0.00  0.00    -0.379 OA
ATOM     17  H   LIG d   1       2.083  -0.137  -5.208  0.00  0.00     0.211 HD
ENDBRANCH   4  16
ENDBRANCH   1   4
TORSDOF 5
ENDMDL
MODEL 3
REMARK VINA RESULT:      -3.8      1.973      2.728
REMARK  5 active torsions:
REMARK  status: ('A' for Active; 'I' for Inactive)
REMARK    1  A    between atoms: C_1  and  C_2 
REMARK    2  A    between atoms: C_2  and  C_3 
REMARK    3  A    between atoms: C_3  and  C_4 
REMARK    4  A    between atoms: C_4  and  C_6 
REMARK    5  A    between atoms: C_4  and  O_8 
ROOT
ATOM      1  C   LIG d   1       5.630   1.127  -3.042  0.00  0.00    -0.074 C 
ATOM      2  C   LIG d   1       6.715   0.908  -3.432  0.00  0.00    -0.117 C 
ATOM      3  H   LIG d   1       7.686   0.713  -3.782  0.00  0.00     0.123 H 
ENDROOT
BRANCH   1   4
ATOM      4  C   LIG d   1       4.269   1.400  -2.553  0.00  0.00     0.115 C 
ATOM      5  H   LIG d   1       4.320   1.797  -1.539  0.00  0.00     0.073 H 
BRANCH   4   6
ATOM      6  C   LIG d   1       3.457   0.103  -2.551  0.00  0.00    -0.016 C 
ATOM      7  H   LIG d   1       2.525   0.260  -2.006  0.00  0.00     0.030 H 
ATOM      8  H   LIG d   1       3.232  -0.186  -3.578  0.00  0.00     0.030 H 
BRANCH   6   9
ATOM      9  C   LIG d   1       4.265  -1.004  -1.874  0.00  0.00    -0.053 C 
ATOM     10  H   LIG d   1       5.330  -0.790  -1.974  0.00  0.00     0.026 H 
ATOM     11  H   LIG d   1       4.001  -1.053  -0.818  0.00  0.00     0.026 H 
BRANCH   9  12
ATOM     12  C   LIG d   1       3.950  -2.346  -2.541  0.00  0.00    -0.065 C 
ATOM     13  H   LIG d   1       3.720  -3.086  -1.775  0.00  0.00     0.023 H 
ATOM     14  H   LIG d   1       3.094  -2.229  -3.204  0.00  0.00     0.023 H 
ATOM     15  H   LIG d   1       4.815  -2.676  -3.117  0.00  0.00     0.023 H 
ENDBRANCH   9  12
ENDBRANCH   6   9
ENDBRANCH   4   6
BRANCH   4  16
ATOM     16  O   LIG d   1       3.638   2.357  -3.407  0.00  0.00    -0.379 OA
ATOM     17  H   LIG d   1       4.258   2.903  -3.910  0.00  0.00     0.211 HD
ENDBRANCH   4  16
ENDBRANCH   1   4
TORSDOF 5
ENDMDL
MODEL 4
REMARK VINA RESULT:      -3.8      1.196      3.275
REMARK  5 active torsions:
REMARK  status: ('A' for Active; 'I' for Inactive)
REMARK    1  A    between atoms: C_1  and  C_2 
REMARK    2  A    between atoms: C_2  and  C_3 
REMARK    3  A    between atoms: C_3  and  C_4 
REMARK    4  A    between atoms: C_4  and  C_6 
REMARK    5  A    between atoms: C_4  and  O_8 
ROOT
ATOM      1  C   LIG d   1       5.943  -1.864  -3.594  0.00  0.00    -0.074 C 
ATOM      2  C   LIG d   1       7.042  -2.266  -3.689  0.00  0.00    -0.117 C 
ATOM      3  H   LIG d   1       8.025  -2.626  -3.774  0.00  0.00     0.123 H 
ENDROOT
BRANCH   1   4
ATOM      4  C   LIG d   1       4.565  -1.360  -3.475  0.00  0.00     0.115 C 
ATOM      5  H   LIG d   1       4.465  -0.439  -4.049  0.00  0.00     0.073 H 
BRANCH   4   6
ATOM      6  C   LIG d   1       4.250  -1.080  -2.004  0.00  0.00    -0.016 C 
ATOM      7  H   LIG d   1       3.190  -1.262  -1.820  0.00  0.00     0.030 H 
ATOM      8  H   LIG d   1       4.846  -1.738  -1.372  0.00  0.00     0.030 H 
BRANCH   6   9
ATOM      9  C   LIG d   1       4.582   0.378  -1.680  0.00  0.00    -0.053 C 
ATOM     10  H   LIG d   1       4.458   0.549  -0.610  0.00  0.00     0.026 H 
ATOM     11  H   LIG d   1       5.612   0.588  -1.966  0.00  0.00     0.026 H 
BRANCH   9  12
ATOM     12  C   LIG d   1       3.639   1.301  -2.456  0.00  0.00    -0.065 C 
ATOM     13  H   LIG d   1       2.683   0.799  -2.606  0.00  0.00     0.023 H 
ATOM     14  H   LIG d   1       3.483   2.218  -1.890  0.00  0.00     0.023 H 
ATOM     15  H   LIG d   1       4.080   1.540  -3.423  0.00  0.00     0.023 H 
ENDBRANCH   9  12
ENDBRANCH   6   9
ENDBRANCH   4   6
BRANCH   4  16
ATOM     16  O   LIG d   1       3.654  -2.338  -3.980  0.00  0.00    -0.379 OA
ATOM     17  H   LIG d   1       2.907  -1.964  -4.468  0.00  0.00     0.211 HD
ENDBRANCH   4  16
ENDBRANCH   1   4
TORSDOF 5
ENDMDL
MODEL 5
REMARK VINA RESULT:      -3.6      1.752      2.284
REMARK  5 active torsions:
REMARK  status: ('A' for Active; 'I' for Inactive)
REMARK    1  A    between atoms: C_1  and  C_2 
REMARK    2  A    between atoms: C_2  and  C_3 
REMARK    3  A    between atoms: C_3  and  C_4 
REMARK    4  A    between atoms: C_4  and  C_6 
REMARK    5  A    between atoms: C_4  and  O_8 
ROOT
ATOM      1  C   LIG d   1       2.662  -0.117  -4.085  0.00  0.00    -0.074 C 
ATOM      2  C   LIG d   1       2.369   0.689  -4.887  0.00  0.00    -0.117 C 
ATOM      3  H   LIG d   1       2.107   1.411  -5.604  0.00  0.00     0.123 H 
ENDROOT
BRANCH   1   4
ATOM      4  C   LIG d   1       3.027  -1.127  -3.080  0.00  0.00     0.115 C 
ATOM      5  H   LIG d   1       2.142  -1.407  -2.507  0.00  0.00     0.073 H 
BRANCH   4   6
ATOM      6  C   LIG d   1       4.083  -0.549  -2.135  0.00  0.00    -0.016 C 
ATOM      7  H   LIG d   1       3.791   0.459  -1.839  0.00  0.00     0.030 H 
ATOM      8  H   LIG d   1       4.162  -1.178  -1.248  0.00  0.00     0.030 H 
BRANCH   6   9
ATOM      9  C   LIG d   1       5.435  -0.501  -2.848  0.00  0.00    -0.053 C 
ATOM     10  H   LIG d   1       6.172  -1.057  -2.268  0.00  0.00     0.026 H 
ATOM     11  H   LIG d   1       5.339  -0.946  -3.839  0.00  0.00     0.026 H 
BRANCH   9  12
ATOM     12  C   LIG d   1       5.888   0.955  -2.985  0.00  0.00    -0.065 C 
ATOM     13  H   LIG d   1       6.825   0.992  -3.539  0.00  0.00     0.023 H 
ATOM     14  H   LIG d   1       5.126   1.523  -3.519  0.00  0.00     0.023 H 
ATOM     15  H   LIG d   1       6.034   1.385  -1.994  0.00  0.00     0.023 H 
ENDBRANCH   9  12
ENDBRANCH   6   9
ENDBRANCH   4   6
BRANCH   4  16
ATOM     16  O   LIG d   1       3.555  -2.282  -3.734  0.00  0.00    -0.379 OA
ATOM     17  H   LIG d   1       2.998  -3.069  -3.654  0.00  0.00     0.211 HD
ENDBRANCH   4  16
ENDBRANCH   1   4
TORSDOF 5
ENDMDL
MODEL 6
REMARK VINA RESULT:      -3.4      2.045      2.956
REMARK  5 active torsions:
REMARK  status: ('A' for Active; 'I' for Inactive)
REMARK    1  A    between atoms: C_1  and  C_2 
REMARK    2  A    between atoms: C_2  and  C_3 
REMARK    3  A    between atoms: C_3  and  C_4 
REMARK    4  A    between atoms: C_4  and  C_6 
REMARK    5  A    between atoms: C_4  and  O_8 
ROOT
ATOM      1  C   LIG d   1       3.677  -0.217  -5.672  0.00  0.00    -0.074 C 
ATOM      2  C   LIG d   1       4.426  -0.715  -6.427  0.00  0.00    -0.117 C 
ATOM      3  H   LIG d   1       5.096  -1.160  -7.102  0.00  0.00     0.123 H 
ENDROOT
BRANCH   1   4
ATOM      4  C   LIG d   1       2.737   0.407  -4.727  0.00  0.00     0.115 C 
ATOM      5  H   LIG d   1       2.624   1.463  -4.971  0.00  0.00     0.073 H 
BRANCH   4   6
ATOM      6  C   LIG d   1       3.278   0.268  -3.302  0.00  0.00    -0.016 C 
ATOM      7  H   LIG d   1       4.364   0.356  -3.317  0.00  0.00     0.030 H 
ATOM      8  H   LIG d   1       2.859   1.056  -2.676  0.00  0.00     0.030 H 
BRANCH   6   9
ATOM      9  C   LIG d   1       2.883  -1.097  -2.737  0.00  0.00    -0.053 C 
ATOM     10  H   LIG d   1       2.227  -0.958  -1.877  0.00  0.00     0.026 H 
ATOM     11  H   LIG d   1       2.363  -1.671  -3.503  0.00  0.00     0.026 H 
BRANCH   9  12
ATOM     12  C   LIG d   1       4.142  -1.851  -2.300  0.00  0.00    -0.065 C 
ATOM     13  H   LIG d   1       4.741  -2.093  -3.177  0.00  0.00     0.023 H 
ATOM     14  H   LIG d   1       4.722  -1.227  -1.623  0.00  0.00     0.023 H 
ATOM     15  H   LIG d   1       3.855  -2.771  -1.791  0.00  0.00     0.023 H 
ENDBRANCH   9  12
ENDBRANCH   6   9
ENDBRANCH   4   6
BRANCH   4  16
ATOM     16  O   LIG d   1       1.467  -0.242  -4.819  0.00  0.00    -0.379 OA
ATOM     17  H   LIG d   1       1.176  -0.410  -5.727  0.00  0.00     0.211 HD
ENDBRANCH   4  16
ENDBRANCH   1   4
TORSDOF 5
ENDMDL
MODEL 7
REMARK VINA RESULT:      -2.9      1.715      2.095
REMARK  5 active torsions:
REMARK  status: ('A' for Active; 'I' for Inactive)
REMARK    1  A    between atoms: C_1  and  C_2 
REMARK    2  A    between atoms: C_2  and  C_3 
REMARK    3  A    between atoms: C_3  and  C_4 
REMARK    4  A    between atoms: C_4  and  C_6 
REMARK    5  A    between atoms: C_4  and  O_8 
ROOT
ATOM      1  C   LIG d   1       3.948   0.828  -3.301  0.00  0.00    -0.074 C 
ATOM      2  C   LIG d   1       3.658   1.397  -2.316  0.00  0.00    -0.117 C 
ATOM      3  H   LIG d   1       3.398   1.906  -1.435  0.00  0.00     0.123 H 
ENDROOT
BRANCH   1   4
ATOM      4  C   LIG d   1       4.312   0.114  -4.536  0.00  0.00     0.115 C 
ATOM      5  H   LIG d   1       3.777   0.552  -5.379  0.00  0.00     0.073 H 
BRANCH   4   6
ATOM      6  C   LIG d   1       3.932  -1.363  -4.403  0.00  0.00    -0.016 C 
ATOM      7  H   LIG d   1       2.869  -1.444  -4.172  0.00  0.00     0.030 H 
ATOM      8  H   LIG d   1       4.140  -1.877  -5.341  0.00  0.00     0.030 H 
BRANCH   6   9
ATOM      9  C   LIG d   1       4.749  -2.001  -3.278  0.00  0.00    -0.053 C 
ATOM     10  H   LIG d   1       5.249  -2.893  -3.654  0.00  0.00     0.026 H 
ATOM     11  H   LIG d   1       5.493  -1.289  -2.921  0.00  0.00     0.026 H 
BRANCH   9  12
ATOM     12  C   LIG d   1       3.817  -2.386  -2.126  0.00  0.00    -0.065 C 
ATOM     13  H   LIG d   1       4.323  -3.097  -1.474  0.00  0.00     0.023 H 
ATOM     14  H   LIG d   1       3.554  -1.494  -1.559  0.00  0.00     0.023 H 
ATOM     15  H   LIG d   1       2.912  -2.841  -2.528  0.00  0.00     0.023 H 
ENDBRANCH   9  12
ENDBRANCH   6   9
ENDBRANCH   4   6
BRANCH   4  16
ATOM     16  O   LIG d   1       5.720   0.226  -4.755  0.00  0.00    -0.379 OA
ATOM     17  H   LIG d   1       6.102  -0.519  -5.240  0.00  0.00     0.211 HD
ENDBRANCH   4  16
ENDBRANCH   1   4
TORSDOF 5
ENDMDL
MODEL 8
REMARK VINA RESULT:      -2.8     12.694     13.253
REMARK  5 active torsions:
REMARK  status: ('A' for Active; 'I' for Inactive)
REMARK    1  A    between atoms: C_1  and  C_2 
REMARK    2  A    between atoms: C_2  and  C_3 
REMARK    3  A    between atoms: C_3  and  C_4 
REMARK    4  A    between atoms: C_4  and  C_6 
REMARK    5  A    between atoms: C_4  and  O_8 
ROOT
ATOM      1  C   LIG d   1      -4.704   3.367 -12.448  0.00  0.00    -0.074 C 
ATOM      2  C   LIG d   1      -5.346   3.387 -11.466  0.00  0.00    -0.117 C 
ATOM      3  H   LIG d   1      -5.921   3.404 -10.586  0.00  0.00     0.123 H 
ENDROOT
BRANCH   1   4
ATOM      4  C   LIG d   1      -3.899   3.341 -13.680  0.00  0.00     0.115 C 
ATOM      5  H   LIG d   1      -4.539   3.092 -14.526  0.00  0.00     0.073 H 
BRANCH   4   6
ATOM      6  C   LIG d   1      -2.796   2.288 -13.548  0.00  0.00    -0.016 C 
ATOM      7  H   LIG d   1      -2.145   2.334 -14.421  0.00  0.00     0.030 H 
ATOM      8  H   LIG d   1      -2.211   2.485 -12.649  0.00  0.00     0.030 H 
BRANCH   6   9
ATOM      9  C   LIG d   1      -3.427   0.898 -13.453  0.00  0.00    -0.053 C 
ATOM     10  H   LIG d   1      -4.180   0.894 -12.665  0.00  0.00     0.026 H 
ATOM     11  H   LIG d   1      -3.894   0.646 -14.405  0.00  0.00     0.026 H 
BRANCH   9  12
ATOM     12  C   LIG d   1      -2.343  -0.133 -13.127  0.00  0.00    -0.065 C 
ATOM     13  H   LIG d   1      -1.466   0.057 -13.744  0.00  0.00     0.023 H 
ATOM     14  H   LIG d   1      -2.073  -0.054 -12.075  0.00  0.00     0.023 H 
ATOM     15  H   LIG d   1      -2.722  -1.134 -13.331  0.00  0.00     0.023 H 
ENDBRANCH   9  12
ENDBRANCH   6   9
ENDBRANCH   4   6
BRANCH   4  16
ATOM     16  O   LIG d   1      -3.308   4.626 -13.891  0.00  0.00    -0.379 OA
ATOM     17  H   LIG d   1      -2.571   4.821 -13.296  0.00  0.00     0.211 HD
ENDBRANCH   4  16
ENDBRANCH   1   4
TORSDOF 5
ENDMDL
MODEL 9
REMARK VINA RESULT:      -2.7     16.577     17.660
REMARK  5 active torsions:
REMARK  status: ('A' for Active; 'I' for Inactive)
REMARK    1  A    between atoms: C_1  and  C_2 
REMARK    2  A    between atoms: C_2  and  C_3 
REMARK    3  A    between atoms: C_3  and  C_4 
REMARK    4  A    between atoms: C_4  and  C_6 
REMARK    5  A    between atoms: C_4  and  O_8 
ROOT
ATOM      1  C   LIG d   1      -6.386  12.905  -9.365  0.00  0.00    -0.074 C 
ATOM      2  C   LIG d   1      -7.205  13.658  -8.991  0.00  0.00    -0.117 C 
ATOM      3  H   LIG d   1      -7.939  14.332  -8.658  0.00  0.00     0.123 H 
ENDROOT
BRANCH   1   4
ATOM      4  C   LIG d   1      -5.358  11.961  -9.833  0.00  0.00     0.115 C 
ATOM      5  H   LIG d   1      -5.338  11.958 -10.923  0.00  0.00     0.073 H 
BRANCH   4   6
ATOM      6  C   LIG d   1      -5.686  10.555  -9.326  0.00  0.00    -0.016 C 
ATOM      7  H   LIG d   1      -4.884   9.873  -9.607  0.00  0.00     0.030 H 
ATOM      8  H   LIG d   1      -5.783  10.574  -8.241  0.00  0.00     0.030 H 
BRANCH   6   9
ATOM      9  C   LIG d   1      -7.001  10.082  -9.948  0.00  0.00    -0.053 C 
ATOM     10  H   LIG d   1      -7.291   9.130  -9.503  0.00  0.00     0.026 H 
ATOM     11  H   LIG d   1      -7.778  10.823  -9.762  0.00  0.00     0.026 H 
BRANCH   9  12
ATOM     12  C   LIG d   1      -6.816   9.904 -11.457  0.00  0.00    -0.065 C 
ATOM     13  H   LIG d   1      -6.248  10.745 -11.854  0.00  0.00     0.023 H 
ATOM     14  H   LIG d   1      -6.277   8.977 -11.650  0.00  0.00     0.023 H 
ATOM     15  H   LIG d   1      -7.792   9.864 -11.940  0.00  0.00     0.023 H 
ENDBRANCH   9  12
ENDBRANCH   6   9
ENDBRANCH   4   6
BRANCH   4  16
ATOM     16  O   LIG d   1      -4.080  12.362  -9.335  0.00  0.00    -0.379 OA
ATOM     17  H   LIG d   1      -3.470  12.668 -10.020  0.00  0.00     0.211 HD
ENDBRANCH   4  16
ENDBRANCH   1   4
TORSDOF 5
ENDMDL
MODEL 10
REMARK VINA RESULT:      -2.7      8.383      9.259
REMARK  5 active torsions:
REMARK  status: ('A' for Active; 'I' for Inactive)
REMARK    1  A    between atoms: C_1  and  C_2 
REMARK    2  A    between atoms: C_2  and  C_3 
REMARK    3  A    between atoms: C_3  and  C_4 
REMARK    4  A    between atoms: C_4  and  C_6 
REMARK    5  A    between atoms: C_4  and  O_8 
ROOT
ATOM      1  C   LIG d   1       4.878 -10.629  -2.574  0.00  0.00    -0.074 C 
ATOM      2  C   LIG d   1       5.764 -10.518  -1.812  0.00  0.00    -0.117 C 
ATOM      3  H   LIG d   1       6.558 -10.420  -1.131  0.00  0.00     0.123 H 
ENDROOT
BRANCH   1   4
ATOM      4  C   LIG d   1       3.766 -10.766  -3.528  0.00  0.00     0.115 C 
ATOM      5  H   LIG d   1       3.430 -11.803  -3.547  0.00  0.00     0.073 H 
BRANCH   4   6
ATOM      6  C   LIG d   1       4.238 -10.358  -4.925  0.00  0.00    -0.016 C 
ATOM      7  H   LIG d   1       5.049 -11.015  -5.240  0.00  0.00     0.030 H 
ATOM      8  H   LIG d   1       3.409 -10.443  -5.628  0.00  0.00     0.030 H 
BRANCH   6   9
ATOM      9  C   LIG d   1       4.734  -8.912  -4.893  0.00  0.00    -0.053 C 
ATOM     10  H   LIG d   1       4.047  -8.305  -4.304  0.00  0.00     0.026 H 
ATOM     11  H   LIG d   1       5.727  -8.878  -4.445  0.00  0.00     0.026 H 
BRANCH   9  12
ATOM     12  C   LIG d   1       4.801  -8.364  -6.321  0.00  0.00    -0.065 C 
ATOM     13  H   LIG d   1       3.814  -8.420  -6.778  0.00  0.00     0.023 H 
ATOM     14  H   LIG d   1       5.133  -7.327  -6.297  0.00  0.00     0.023 H 
ATOM     15  H   LIG d   1       5.506  -8.957  -6.905  0.00  0.00     0.023 H 
ENDBRANCH   9  12
ENDBRANCH   6   9
ENDBRANCH   4   6
BRANCH   4  16
ATOM     16  O   LIG d   1       2.684  -9.923  -3.125  0.00  0.00    -0.379 OA
ATOM     17  H   LIG d   1       2.389 -10.071  -2.216  0.00  0.00     0.211 HD
ENDBRANCH   4  16
ENDBRANCH   1   4
TORSDOF 5
ENDMDL
