MODEL 1
REMARK VINA RESULT:      -7.6      0.000      0.000
REMARK  8 active torsions:
REMARK  status: ('A' for Active; 'I' for Inactive)
REMARK    1  A    between atoms: C_1  and  C_2 
REMARK    2  A    between atoms: C_3  and  C_31 
REMARK    3  A    between atoms: C_6  and  N_7 
REMARK    4  A    between atoms: N_7  and  S_8 
REMARK    5  A    between atoms: S_8  and  C_11 
REMARK    6  A    between atoms: C_14  and  N_17 
REMARK    7  A    between atoms: N_17  and  C_18 
REMARK    8  A    between atoms: C_19  and  C_22 
ROOT
ATOM      1  C   LIG d   1       9.289   2.934  -3.381  0.00  0.00     0.014 C 
ATOM      2  C   LIG d   1       8.630   2.260  -4.368  0.00  0.00     0.098 C 
ATOM      3  C   LIG d   1       8.890   2.568  -5.742  0.00  0.00     0.103 C 
ATOM      4  N   LIG d   1       9.096   2.813  -6.832  0.00  0.00    -0.191 NA
ATOM      5  H   LIG d   1       9.094   2.702  -2.344  0.00  0.00     0.080 H 
ENDROOT
BRANCH   2   6
ATOM      6  C   LIG d   1       7.651   1.215  -4.019  0.00  0.00     0.121 A 
ATOM      7  S   LIG d   1       7.518  -0.452  -4.648  0.00  0.00    -0.067 SA
ATOM      8  C   LIG d   1       6.104  -0.940  -3.689  0.00  0.00     0.040 A 
ATOM      9  C   LIG d   1       5.823   0.232  -2.948  0.00  0.00     0.079 A 
ATOM     10  C   LIG d   1       5.357  -2.086  -3.575  0.00  0.00    -0.046 A 
ATOM     11  N   LIG d   1       6.646   1.276  -3.168  0.00  0.00    -0.238 NA
ATOM     12  C   LIG d   1       4.716   0.163  -2.069  0.00  0.00    -0.035 A 
ATOM     13  C   LIG d   1       3.977  -0.986  -1.962  0.00  0.00    -0.060 A 
ATOM     14  H   LIG d   1       4.452   1.025  -1.475  0.00  0.00     0.064 H 
ATOM     15  C   LIG d   1       4.282  -2.117  -2.705  0.00  0.00    -0.061 A 
ATOM     16  H   LIG d   1       3.137  -1.011  -1.283  0.00  0.00     0.062 H 
ATOM     17  H   LIG d   1       3.687  -3.012  -2.606  0.00  0.00     0.062 H 
ATOM     18  H   LIG d   1       5.607  -2.959  -4.160  0.00  0.00     0.063 H 
ENDBRANCH   2   6
BRANCH   1  19
ATOM     19  N   LIG d   1      10.195   3.901  -3.704  0.00  0.00    -0.319 N 
ATOM     20  H   LIG d   1      10.856   3.736  -4.396  0.00  0.00     0.152 HD
BRANCH  19  21
ATOM     21  C   LIG d   1      10.174   5.129  -3.038  0.00  0.00     0.031 A 
ATOM     22  C   LIG d   1      10.399   5.184  -1.669  0.00  0.00    -0.039 A 
ATOM     23  C   LIG d   1      10.378   6.400  -1.014  0.00  0.00    -0.036 A 
ATOM     24  H   LIG d   1      10.591   4.276  -1.116  0.00  0.00     0.064 H 
ATOM     25  C   LIG d   1      10.132   7.562  -1.722  0.00  0.00     0.073 A 
ATOM     26  H   LIG d   1      10.553   6.443   0.050  0.00  0.00     0.064 H 
ATOM     27  C   LIG d   1       9.901   7.512  -3.084  0.00  0.00    -0.036 A 
ATOM     28  C   LIG d   1       9.927   6.300  -3.746  0.00  0.00    -0.039 A 
ATOM     29  H   LIG d   1       9.706   8.421  -3.632  0.00  0.00     0.064 H 
ATOM     30  H   LIG d   1       9.752   6.261  -4.810  0.00  0.00     0.064 H 
BRANCH  25  31
ATOM     31  S   LIG d   1      10.104   9.112  -0.883  0.00  0.00    -0.057 S 
ATOM     32  O   LIG d   1      11.003   8.997   0.212  0.00  0.00    -0.184 OA
ATOM     33  O   LIG d   1       8.737   9.457  -0.713  0.00  0.00    -0.184 OA
BRANCH  31  34
ATOM     34  N   LIG d   1      10.752  10.237  -1.910  0.00  0.00    -0.504 NA
BRANCH  34  35
ATOM     35  C   LIG d   1       9.929  11.142  -2.555  0.00  0.00     0.069 A 
ATOM     36  C   LIG d   1       9.727  12.437  -2.198  0.00  0.00    -0.003 A 
ATOM     37  C   LIG d   1       8.828  13.003  -3.112  0.00  0.00     0.082 A 
ATOM     38  N   LIG d   1       8.497  12.087  -3.980  0.00  0.00    -0.085 NA
ATOM     39  O   LIG d   1       9.182  10.894  -3.644  0.00  0.00    -0.377 OA
BRANCH  36  40
ATOM     40  C   LIG d   1      10.364  13.144  -1.030  0.00  0.00    -0.036 C 
ATOM     41  H   LIG d   1       9.659  13.183  -0.200  0.00  0.00     0.028 H 
ATOM     42  H   LIG d   1      11.259  12.603  -0.722  0.00  0.00     0.028 H 
ATOM     43  H   LIG d   1      10.636  14.158  -1.324  0.00  0.00     0.028 H 
ENDBRANCH  36  40
BRANCH  37  44
ATOM     44  C   LIG d   1       8.329  14.425  -3.095  0.00  0.00    -0.019 C 
ATOM     45  H   LIG d   1       7.897  14.647  -2.119  0.00  0.00     0.029 H 
ATOM     46  H   LIG d   1       9.160  15.103  -3.286  0.00  0.00     0.029 H 
ATOM     47  H   LIG d   1       7.569  14.553  -3.866  0.00  0.00     0.029 H 
ENDBRANCH  37  44
ENDBRANCH  34  35
ENDBRANCH  31  34
ENDBRANCH  25  31
ENDBRANCH  19  21
ENDBRANCH   1  19
TORSDOF 8
ENDMDL
MODEL 2
REMARK VINA RESULT:      -7.4      2.076      3.191
REMARK  8 active torsions:
REMARK  status: ('A' for Active; 'I' for Inactive)
REMARK    1  A    between atoms: C_1  and  C_2 
REMARK    2  A    between atoms: C_3  and  C_31 
REMARK    3  A    between atoms: C_6  and  N_7 
REMARK    4  A    between atoms: N_7  and  S_8 
REMARK    5  A    between atoms: S_8  and  C_11 
REMARK    6  A    between atoms: C_14  and  N_17 
REMARK    7  A    between atoms: N_17  and  C_18 
REMARK    8  A    between atoms: C_19  and  C_22 
ROOT
ATOM      1  C   LIG d   1       9.302   3.079  -3.442  0.00  0.00     0.014 C 
ATOM      2  C   LIG d   1       8.643   2.362  -4.399  0.00  0.00     0.098 C 
ATOM      3  C   LIG d   1       8.905   2.609  -5.785  0.00  0.00     0.103 C 
ATOM      4  N   LIG d   1       9.113   2.804  -6.884  0.00  0.00    -0.191 NA
ATOM      5  H   LIG d   1       9.104   2.894  -2.397  0.00  0.00     0.080 H 
ENDROOT
BRANCH   2   6
ATOM      6  C   LIG d   1       7.662   1.335  -4.006  0.00  0.00     0.121 A 
ATOM      7  S   LIG d   1       7.583  -0.383  -4.489  0.00  0.00    -0.067 SA
ATOM      8  C   LIG d   1       6.130  -0.810  -3.559  0.00  0.00     0.040 A 
ATOM      9  C   LIG d   1       5.798   0.417  -2.939  0.00  0.00     0.079 A 
ATOM     10  C   LIG d   1       5.394  -1.955  -3.378  0.00  0.00    -0.046 A 
ATOM     11  N   LIG d   1       6.616   1.452  -3.212  0.00  0.00    -0.238 NA
ATOM     12  C   LIG d   1       4.650   0.406  -2.111  0.00  0.00    -0.035 A 
ATOM     13  C   LIG d   1       3.922  -0.741  -1.937  0.00  0.00    -0.060 A 
ATOM     14  H   LIG d   1       4.346   1.313  -1.609  0.00  0.00     0.064 H 
ATOM     15  C   LIG d   1       4.279  -1.928  -2.562  0.00  0.00    -0.061 A 
ATOM     16  H   LIG d   1       3.051  -0.722  -1.299  0.00  0.00     0.062 H 
ATOM     17  H   LIG d   1       3.692  -2.822  -2.411  0.00  0.00     0.062 H 
ATOM     18  H   LIG d   1       5.685  -2.871  -3.871  0.00  0.00     0.063 H 
ENDBRANCH   2   6
BRANCH   1  19
ATOM     19  N   LIG d   1      10.209   4.030  -3.806  0.00  0.00    -0.319 N 
ATOM     20  H   LIG d   1      10.915   3.811  -4.436  0.00  0.00     0.152 HD
BRANCH  19  21
ATOM     21  C   LIG d   1      10.124   5.318  -3.273  0.00  0.00     0.031 A 
ATOM     22  C   LIG d   1      10.201   6.425  -4.109  0.00  0.00    -0.039 A 
ATOM     23  C   LIG d   1      10.116   7.697  -3.578  0.00  0.00    -0.036 A 
ATOM     24  H   LIG d   1      10.327   6.291  -5.174  0.00  0.00     0.064 H 
ATOM     25  C   LIG d   1       9.954   7.870  -2.216  0.00  0.00     0.073 A 
ATOM     26  H   LIG d   1      10.175   8.557  -4.228  0.00  0.00     0.064 H 
ATOM     27  C   LIG d   1       9.884   6.770  -1.380  0.00  0.00    -0.036 A 
ATOM     28  C   LIG d   1       9.962   5.495  -1.905  0.00  0.00    -0.039 A 
ATOM     29  H   LIG d   1       9.762   6.909  -0.316  0.00  0.00     0.064 H 
ATOM     30  H   LIG d   1       9.902   4.638  -1.252  0.00  0.00     0.064 H 
BRANCH  25  31
ATOM     31  S   LIG d   1       9.847   9.494  -1.543  0.00  0.00    -0.057 S 
ATOM     32  O   LIG d   1       8.951   9.420  -0.443  0.00  0.00    -0.184 OA
ATOM     33  O   LIG d   1       9.637  10.375  -2.638  0.00  0.00    -0.184 OA
BRANCH  31  34
ATOM     34  N   LIG d   1      11.335   9.865  -0.916  0.00  0.00    -0.504 NA
BRANCH  34  35
ATOM     35  C   LIG d   1      11.617   9.586   0.408  0.00  0.00     0.069 A 
ATOM     36  C   LIG d   1      11.959  10.490   1.362  0.00  0.00    -0.003 A 
ATOM     37  C   LIG d   1      12.157   9.798   2.564  0.00  0.00     0.082 A 
ATOM     38  N   LIG d   1      11.948   8.529   2.344  0.00  0.00    -0.085 NA
ATOM     39  O   LIG d   1      11.607   8.369   0.979  0.00  0.00    -0.377 OA
BRANCH  36  40
ATOM     40  C   LIG d   1      12.095  11.978   1.164  0.00  0.00    -0.036 C 
ATOM     41  H   LIG d   1      11.545  12.278   0.273  0.00  0.00     0.028 H 
ATOM     42  H   LIG d   1      11.692  12.498   2.033  0.00  0.00     0.028 H 
ATOM     43  H   LIG d   1      13.148  12.233   1.044  0.00  0.00     0.028 H 
ENDBRANCH  36  40
BRANCH  37  44
ATOM     44  C   LIG d   1      12.544  10.414   3.885  0.00  0.00    -0.019 C 
ATOM     45  H   LIG d   1      12.825   9.627   4.585  0.00  0.00     0.029 H 
ATOM     46  H   LIG d   1      13.388  11.088   3.737  0.00  0.00     0.029 H 
ATOM     47  H   LIG d   1      11.698  10.973   4.287  0.00  0.00     0.029 H 
ENDBRANCH  37  44
ENDBRANCH  34  35
ENDBRANCH  31  34
ENDBRANCH  25  31
ENDBRANCH  19  21
ENDBRANCH   1  19
TORSDOF 8
ENDMDL
MODEL 3
REMARK VINA RESULT:      -7.3      1.267      1.654
REMARK  8 active torsions:
REMARK  status: ('A' for Active; 'I' for Inactive)
REMARK    1  A    between atoms: C_1  and  C_2 
REMARK    2  A    between atoms: C_3  and  C_31 
REMARK    3  A    between atoms: C_6  and  N_7 
REMARK    4  A    between atoms: N_7  and  S_8 
REMARK    5  A    between atoms: S_8  and  C_11 
REMARK    6  A    between atoms: C_14  and  N_17 
REMARK    7  A    between atoms: N_17  and  C_18 
REMARK    8  A    between atoms: C_19  and  C_22 
ROOT
ATOM      1  C   LIG d   1       9.517   2.675  -3.078  0.00  0.00     0.014 C 
ATOM      2  C   LIG d   1       8.755   2.202  -4.106  0.00  0.00     0.098 C 
ATOM      3  C   LIG d   1       8.938   2.721  -5.429  0.00  0.00     0.103 C 
ATOM      4  N   LIG d   1       9.083   3.132  -6.478  0.00  0.00    -0.191 NA
ATOM      5  H   LIG d   1       9.380   2.284  -2.080  0.00  0.00     0.080 H 
ENDROOT
BRANCH   2   6
ATOM      6  C   LIG d   1       7.745   1.159  -3.857  0.00  0.00     0.121 A 
ATOM      7  S   LIG d   1       7.687  -0.516  -4.475  0.00  0.00    -0.067 SA
ATOM      8  C   LIG d   1       6.174  -0.997  -3.675  0.00  0.00     0.040 A 
ATOM      9  C   LIG d   1       5.810   0.183  -2.986  0.00  0.00     0.079 A 
ATOM     10  C   LIG d   1       5.422  -2.144  -3.630  0.00  0.00    -0.046 A 
ATOM     11  N   LIG d   1       6.651   1.227  -3.125  0.00  0.00    -0.238 NA
ATOM     12  C   LIG d   1       4.611   0.122  -2.236  0.00  0.00    -0.035 A 
ATOM     13  C   LIG d   1       3.866  -1.027  -2.197  0.00  0.00    -0.060 A 
ATOM     14  H   LIG d   1       4.280   0.992  -1.686  0.00  0.00     0.064 H 
ATOM     15  C   LIG d   1       4.256  -2.167  -2.887  0.00  0.00    -0.061 A 
ATOM     16  H   LIG d   1       2.956  -1.047  -1.617  0.00  0.00     0.062 H 
ATOM     17  H   LIG d   1       3.654  -3.063  -2.843  0.00  0.00     0.062 H 
ATOM     18  H   LIG d   1       5.737  -3.023  -4.172  0.00  0.00     0.063 H 
ENDBRANCH   2   6
BRANCH   1  19
ATOM     19  N   LIG d   1      10.452   3.641  -3.309  0.00  0.00    -0.319 N 
ATOM     20  H   LIG d   1      11.200   3.460  -3.901  0.00  0.00     0.152 HD
BRANCH  19  21
ATOM     21  C   LIG d   1      10.334   4.890  -2.693  0.00  0.00     0.031 A 
ATOM     22  C   LIG d   1      11.063   5.172  -1.545  0.00  0.00    -0.039 A 
ATOM     23  C   LIG d   1      10.945   6.408  -0.940  0.00  0.00    -0.036 A 
ATOM     24  H   LIG d   1      11.723   4.426  -1.126  0.00  0.00     0.064 H 
ATOM     25  C   LIG d   1      10.101   7.363  -1.476  0.00  0.00     0.073 A 
ATOM     26  H   LIG d   1      11.511   6.628  -0.048  0.00  0.00     0.064 H 
ATOM     27  C   LIG d   1       9.368   7.083  -2.615  0.00  0.00    -0.036 A 
ATOM     28  C   LIG d   1       9.487   5.852  -3.229  0.00  0.00    -0.039 A 
ATOM     29  H   LIG d   1       8.708   7.830  -3.028  0.00  0.00     0.064 H 
ATOM     30  H   LIG d   1       8.919   5.636  -4.121  0.00  0.00     0.064 H 
BRANCH  25  31
ATOM     31  S   LIG d   1       9.952   8.938  -0.700  0.00  0.00    -0.057 S 
ATOM     32  O   LIG d   1      10.708   8.873   0.501  0.00  0.00    -0.184 OA
ATOM     33  O   LIG d   1       8.569   9.268  -0.713  0.00  0.00    -0.184 OA
BRANCH  31  34
ATOM     34  N   LIG d   1      10.710  10.040  -1.676  0.00  0.00    -0.504 NA
BRANCH  34  35
ATOM     35  C   LIG d   1      10.138  10.408  -2.879  0.00  0.00     0.069 A 
ATOM     36  C   LIG d   1      10.587  10.072  -4.117  0.00  0.00    -0.003 A 
ATOM     37  C   LIG d   1       9.723  10.642  -5.061  0.00  0.00     0.082 A 
ATOM     38  N   LIG d   1       8.794  11.298  -4.422  0.00  0.00    -0.085 NA
ATOM     39  O   LIG d   1       9.039  11.167  -3.033  0.00  0.00    -0.377 OA
BRANCH  36  40
ATOM     40  C   LIG d   1      11.798   9.228  -4.420  0.00  0.00    -0.036 C 
ATOM     41  H   LIG d   1      12.500   9.287  -3.589  0.00  0.00     0.028 H 
ATOM     42  H   LIG d   1      11.492   8.193  -4.565  0.00  0.00     0.028 H 
ATOM     43  H   LIG d   1      12.278   9.596  -5.327  0.00  0.00     0.028 H 
ENDBRANCH  36  40
BRANCH  37  44
ATOM     44  C   LIG d   1       9.846  10.518  -6.559  0.00  0.00    -0.019 C 
ATOM     45  H   LIG d   1      10.889  10.641  -6.850  0.00  0.00     0.029 H 
ATOM     46  H   LIG d   1       9.495   9.534  -6.871  0.00  0.00     0.029 H 
ATOM     47  H   LIG d   1       9.242  11.289  -7.038  0.00  0.00     0.029 H 
ENDBRANCH  37  44
ENDBRANCH  34  35
ENDBRANCH  31  34
ENDBRANCH  25  31
ENDBRANCH  19  21
ENDBRANCH   1  19
TORSDOF 8
ENDMDL
MODEL 4
REMARK VINA RESULT:      -7.2      2.083      3.133
REMARK  8 active torsions:
REMARK  status: ('A' for Active; 'I' for Inactive)
REMARK    1  A    between atoms: C_1  and  C_2 
REMARK    2  A    between atoms: C_3  and  C_31 
REMARK    3  A    between atoms: C_6  and  N_7 
REMARK    4  A    between atoms: N_7  and  S_8 
REMARK    5  A    between atoms: S_8  and  C_11 
REMARK    6  A    between atoms: C_14  and  N_17 
REMARK    7  A    between atoms: N_17  and  C_18 
REMARK    8  A    between atoms: C_19  and  C_22 
ROOT
ATOM      1  C   LIG d   1       9.266   2.750  -3.511  0.00  0.00     0.014 C 
ATOM      2  C   LIG d   1       8.845   1.675  -4.239  0.00  0.00     0.098 C 
ATOM      3  C   LIG d   1       9.596   1.246  -5.381  0.00  0.00     0.103 C 
ATOM      4  N   LIG d   1      10.192   0.906  -6.286  0.00  0.00    -0.191 NA
ATOM      5  H   LIG d   1       8.700   3.074  -2.650  0.00  0.00     0.080 H 
ENDROOT
BRANCH   2   6
ATOM      6  C   LIG d   1       7.618   0.957  -3.852  0.00  0.00     0.121 A 
ATOM      7  S   LIG d   1       7.289  -0.799  -3.886  0.00  0.00    -0.067 SA
ATOM      8  C   LIG d   1       5.625  -0.726  -3.266  0.00  0.00     0.040 A 
ATOM      9  C   LIG d   1       5.433   0.663  -3.081  0.00  0.00     0.079 A 
ATOM     10  C   LIG d   1       4.652  -1.652  -2.987  0.00  0.00    -0.046 A 
ATOM     11  N   LIG d   1       6.482   1.447  -3.398  0.00  0.00    -0.238 NA
ATOM     12  C   LIG d   1       4.167   1.057  -2.587  0.00  0.00    -0.035 A 
ATOM     13  C   LIG d   1       3.201   0.125  -2.312  0.00  0.00    -0.060 A 
ATOM     14  H   LIG d   1       3.959   2.105  -2.424  0.00  0.00     0.064 H 
ATOM     15  C   LIG d   1       3.426  -1.230  -2.506  0.00  0.00    -0.061 A 
ATOM     16  H   LIG d   1       2.243   0.453  -1.935  0.00  0.00     0.062 H 
ATOM     17  H   LIG d   1       2.651  -1.949  -2.282  0.00  0.00     0.062 H 
ATOM     18  H   LIG d   1       4.841  -2.704  -3.142  0.00  0.00     0.063 H 
ENDBRANCH   2   6
BRANCH   1  19
ATOM     19  N   LIG d   1      10.402   3.415  -3.870  0.00  0.00    -0.319 N 
ATOM     20  H   LIG d   1      11.232   2.927  -3.992  0.00  0.00     0.152 HD
BRANCH  19  21
ATOM     21  C   LIG d   1      10.371   4.799  -4.062  0.00  0.00     0.031 A 
ATOM     22  C   LIG d   1       9.218   5.410  -4.539  0.00  0.00    -0.039 A 
ATOM     23  C   LIG d   1       9.191   6.778  -4.727  0.00  0.00    -0.036 A 
ATOM     24  H   LIG d   1       8.343   4.816  -4.761  0.00  0.00     0.064 H 
ATOM     25  C   LIG d   1      10.310   7.539  -4.441  0.00  0.00     0.073 A 
ATOM     26  H   LIG d   1       8.295   7.254  -5.097  0.00  0.00     0.064 H 
ATOM     27  C   LIG d   1      11.461   6.932  -3.973  0.00  0.00    -0.036 A 
ATOM     28  C   LIG d   1      11.493   5.566  -3.777  0.00  0.00    -0.039 A 
ATOM     29  H   LIG d   1      12.334   7.529  -3.756  0.00  0.00     0.064 H 
ATOM     30  H   LIG d   1      12.391   5.094  -3.407  0.00  0.00     0.064 H 
BRANCH  25  31
ATOM     31  S   LIG d   1      10.271   9.283  -4.684  0.00  0.00    -0.057 S 
ATOM     32  O   LIG d   1       9.321   9.530  -5.711  0.00  0.00    -0.184 OA
ATOM     33  O   LIG d   1      11.623   9.710  -4.779  0.00  0.00    -0.184 OA
BRANCH  31  34
ATOM     34  N   LIG d   1       9.658   9.958  -3.302  0.00  0.00    -0.504 NA
BRANCH  34  35
ATOM     35  C   LIG d   1      10.396   9.934  -2.133  0.00  0.00     0.069 A 
ATOM     36  C   LIG d   1      10.273   9.031  -1.126  0.00  0.00    -0.003 A 
ATOM     37  C   LIG d   1      11.205   9.359  -0.133  0.00  0.00     0.082 A 
ATOM     38  N   LIG d   1      11.861  10.418  -0.522  0.00  0.00    -0.085 NA
ATOM     39  O   LIG d   1      11.361  10.804  -1.790  0.00  0.00    -0.377 OA
BRANCH  36  40
ATOM     40  C   LIG d   1       9.307   7.875  -1.086  0.00  0.00    -0.036 C 
ATOM     41  H   LIG d   1       8.418   8.163  -0.526  0.00  0.00     0.028 H 
ATOM     42  H   LIG d   1       9.024   7.602  -2.103  0.00  0.00     0.028 H 
ATOM     43  H   LIG d   1       9.782   7.022  -0.600  0.00  0.00     0.028 H 
ENDBRANCH  36  40
BRANCH  37  44
ATOM     44  C   LIG d   1      11.415   8.616   1.162  0.00  0.00    -0.019 C 
ATOM     45  H   LIG d   1      12.149   7.824   1.011  0.00  0.00     0.029 H 
ATOM     46  H   LIG d   1      11.778   9.307   1.922  0.00  0.00     0.029 H 
ATOM     47  H   LIG d   1      10.471   8.179   1.487  0.00  0.00     0.029 H 
ENDBRANCH  37  44
ENDBRANCH  34  35
ENDBRANCH  31  34
ENDBRANCH  25  31
ENDBRANCH  19  21
ENDBRANCH   1  19
TORSDOF 8
ENDMDL
MODEL 5
REMARK VINA RESULT:      -7.2      3.799      4.524
REMARK  8 active torsions:
REMARK  status: ('A' for Active; 'I' for Inactive)
REMARK    1  A    between atoms: C_1  and  C_2 
REMARK    2  A    between atoms: C_3  and  C_31 
REMARK    3  A    between atoms: C_6  and  N_7 
REMARK    4  A    between atoms: N_7  and  S_8 
REMARK    5  A    between atoms: S_8  and  C_11 
REMARK    6  A    between atoms: C_14  and  N_17 
REMARK    7  A    between atoms: N_17  and  C_18 
REMARK    8  A    between atoms: C_19  and  C_22 
ROOT
ATOM      1  C   LIG d   1       9.195   1.982  -5.755  0.00  0.00     0.014 C 
ATOM      2  C   LIG d   1       8.918   1.857  -4.424  0.00  0.00     0.098 C 
ATOM      3  C   LIG d   1       9.788   2.450  -3.453  0.00  0.00     0.103 C 
ATOM      4  N   LIG d   1      10.477   2.920  -2.683  0.00  0.00    -0.191 NA
ATOM      5  H   LIG d   1       8.539   1.535  -6.488  0.00  0.00     0.080 H 
ENDROOT
BRANCH   2   6
ATOM      6  C   LIG d   1       7.724   1.111  -3.987  0.00  0.00     0.121 A 
ATOM      7  S   LIG d   1       7.381  -0.637  -4.124  0.00  0.00    -0.067 SA
ATOM      8  C   LIG d   1       5.779  -0.611  -3.357  0.00  0.00     0.040 A 
ATOM      9  C   LIG d   1       5.613   0.760  -3.052  0.00  0.00     0.079 A 
ATOM     10  C   LIG d   1       4.827  -1.556  -3.065  0.00  0.00    -0.046 A 
ATOM     11  N   LIG d   1       6.636   1.566  -3.400  0.00  0.00    -0.238 NA
ATOM     12  C   LIG d   1       4.397   1.116  -2.421  0.00  0.00    -0.035 A 
ATOM     13  C   LIG d   1       3.453   0.165  -2.134  0.00  0.00    -0.060 A 
ATOM     14  H   LIG d   1       4.212   2.148  -2.162  0.00  0.00     0.064 H 
ATOM     15  C   LIG d   1       3.650  -1.172  -2.448  0.00  0.00    -0.061 A 
ATOM     16  H   LIG d   1       2.534   0.463  -1.651  0.00  0.00     0.062 H 
ATOM     17  H   LIG d   1       2.894  -1.906  -2.213  0.00  0.00     0.062 H 
ATOM     18  H   LIG d   1       4.995  -2.593  -3.316  0.00  0.00     0.063 H 
ENDBRANCH   2   6
BRANCH   1  19
ATOM     19  N   LIG d   1      10.300   2.672  -6.159  0.00  0.00    -0.319 N 
ATOM     20  H   LIG d   1      11.183   2.286  -6.042  0.00  0.00     0.152 HD
BRANCH  19  21
ATOM     21  C   LIG d   1      10.161   3.934  -6.742  0.00  0.00     0.031 A 
ATOM     22  C   LIG d   1      10.441   5.077  -6.003  0.00  0.00    -0.039 A 
ATOM     23  C   LIG d   1      10.303   6.323  -6.583  0.00  0.00    -0.036 A 
ATOM     24  H   LIG d   1      10.766   4.991  -4.977  0.00  0.00     0.064 H 
ATOM     25  C   LIG d   1       9.888   6.433  -7.897  0.00  0.00     0.073 A 
ATOM     26  H   LIG d   1      10.521   7.211  -6.010  0.00  0.00     0.064 H 
ATOM     27  C   LIG d   1       9.602   5.298  -8.634  0.00  0.00    -0.036 A 
ATOM     28  C   LIG d   1       9.743   4.049  -8.062  0.00  0.00    -0.039 A 
ATOM     29  H   LIG d   1       9.273   5.388  -9.658  0.00  0.00     0.064 H 
ATOM     30  H   LIG d   1       9.525   3.163  -8.639  0.00  0.00     0.064 H 
BRANCH  25  31
ATOM     31  S   LIG d   1       9.712   8.025  -8.632  0.00  0.00    -0.057 S 
ATOM     32  O   LIG d   1       8.424   8.502  -8.266  0.00  0.00    -0.184 OA
ATOM     33  O   LIG d   1      10.119   7.894  -9.987  0.00  0.00    -0.184 OA
BRANCH  31  34
ATOM     34  N   LIG d   1      10.811   9.026  -7.903  0.00  0.00    -0.504 NA
BRANCH  34  35
ATOM     35  C   LIG d   1      10.554  10.381  -7.805  0.00  0.00     0.069 A 
ATOM     36  C   LIG d   1      10.078  11.029  -6.709  0.00  0.00    -0.003 A 
ATOM     37  C   LIG d   1       9.965  12.389  -7.025  0.00  0.00     0.082 A 
ATOM     38  N   LIG d   1      10.352  12.555  -8.261  0.00  0.00    -0.085 NA
ATOM     39  O   LIG d   1      10.728  11.292  -8.778  0.00  0.00    -0.377 OA
BRANCH  36  40
ATOM     40  C   LIG d   1       9.738  10.397  -5.384  0.00  0.00    -0.036 C 
ATOM     41  H   LIG d   1       9.972  11.092  -4.579  0.00  0.00     0.028 H 
ATOM     42  H   LIG d   1       8.676  10.155  -5.359  0.00  0.00     0.028 H 
ATOM     43  H   LIG d   1      10.322   9.485  -5.257  0.00  0.00     0.028 H 
ENDBRANCH  36  40
BRANCH  37  44
ATOM     44  C   LIG d   1       9.481  13.474  -6.098  0.00  0.00    -0.019 C 
ATOM     45  H   LIG d   1       8.513  13.193  -5.684  0.00  0.00     0.029 H 
ATOM     46  H   LIG d   1      10.198  13.606  -5.288  0.00  0.00     0.029 H 
ATOM     47  H   LIG d   1       9.381  14.408  -6.652  0.00  0.00     0.029 H 
ENDBRANCH  37  44
ENDBRANCH  34  35
ENDBRANCH  31  34
ENDBRANCH  25  31
ENDBRANCH  19  21
ENDBRANCH   1  19
TORSDOF 8
ENDMDL
MODEL 6
REMARK VINA RESULT:      -6.9     10.448     16.069
REMARK  8 active torsions:
REMARK  status: ('A' for Active; 'I' for Inactive)
REMARK    1  A    between atoms: C_1  and  C_2 
REMARK    2  A    between atoms: C_3  and  C_31 
REMARK    3  A    between atoms: C_6  and  N_7 
REMARK    4  A    between atoms: N_7  and  S_8 
REMARK    5  A    between atoms: S_8  and  C_11 
REMARK    6  A    between atoms: C_14  and  N_17 
REMARK    7  A    between atoms: N_17  and  C_18 
REMARK    8  A    between atoms: C_19  and  C_22 
ROOT
ATOM      1  C   LIG d   1       3.068  -1.079  -8.710  0.00  0.00     0.014 C 
ATOM      2  C   LIG d   1       3.295   0.001  -7.907  0.00  0.00     0.098 C 
ATOM      3  C   LIG d   1       3.208   1.324  -8.446  0.00  0.00     0.103 C 
ATOM      4  N   LIG d   1       3.139   2.374  -8.874  0.00  0.00    -0.191 NA
ATOM      5  H   LIG d   1       3.134  -2.078  -8.304  0.00  0.00     0.080 H 
ENDROOT
BRANCH   2   6
ATOM      6  C   LIG d   1       3.630  -0.195  -6.485  0.00  0.00     0.121 A 
ATOM      7  S   LIG d   1       4.445  -1.581  -5.706  0.00  0.00    -0.067 SA
ATOM      8  C   LIG d   1       4.416  -0.952  -4.044  0.00  0.00     0.040 A 
ATOM      9  C   LIG d   1       3.766   0.294  -4.205  0.00  0.00     0.079 A 
ATOM     10  C   LIG d   1       4.850  -1.410  -2.825  0.00  0.00    -0.046 A 
ATOM     11  N   LIG d   1       3.400   0.606  -5.464  0.00  0.00    -0.238 NA
ATOM     12  C   LIG d   1       3.581   1.057  -3.028  0.00  0.00    -0.035 A 
ATOM     13  C   LIG d   1       4.017   0.592  -1.816  0.00  0.00    -0.060 A 
ATOM     14  H   LIG d   1       3.091   2.018  -3.086  0.00  0.00     0.064 H 
ATOM     15  C   LIG d   1       4.652  -0.636  -1.696  0.00  0.00    -0.061 A 
ATOM     16  H   LIG d   1       3.864   1.195  -0.933  0.00  0.00     0.062 H 
ATOM     17  H   LIG d   1       4.989  -0.985  -0.731  0.00  0.00     0.062 H 
ATOM     18  H   LIG d   1       5.343  -2.367  -2.748  0.00  0.00     0.063 H 
ENDBRANCH   2   6
BRANCH   1  19
ATOM     19  N   LIG d   1       2.758  -0.898 -10.026  0.00  0.00    -0.319 N 
ATOM     20  H   LIG d   1       3.158  -0.165 -10.522  0.00  0.00     0.152 HD
BRANCH  19  21
ATOM     21  C   LIG d   1       1.866  -1.766 -10.660  0.00  0.00     0.031 A 
ATOM     22  C   LIG d   1       1.669  -3.048 -10.163  0.00  0.00    -0.039 A 
ATOM     23  C   LIG d   1       0.786  -3.903 -10.792  0.00  0.00    -0.036 A 
ATOM     24  H   LIG d   1       2.205  -3.375  -9.284  0.00  0.00     0.064 H 
ATOM     25  C   LIG d   1       0.099  -3.484 -11.917  0.00  0.00     0.073 A 
ATOM     26  H   LIG d   1       0.632  -4.899 -10.406  0.00  0.00     0.064 H 
ATOM     27  C   LIG d   1       0.298  -2.211 -12.419  0.00  0.00    -0.036 A 
ATOM     28  C   LIG d   1       1.175  -1.349 -11.791  0.00  0.00    -0.039 A 
ATOM     29  H   LIG d   1      -0.237  -1.889 -13.299  0.00  0.00     0.064 H 
ATOM     30  H   LIG d   1       1.326  -0.354 -12.180  0.00  0.00     0.064 H 
BRANCH  25  31
ATOM     31  S   LIG d   1      -1.026  -4.579 -12.717  0.00  0.00    -0.057 S 
ATOM     32  O   LIG d   1      -0.330  -5.801 -12.917  0.00  0.00    -0.184 OA
ATOM     33  O   LIG d   1      -1.608  -3.850 -13.789  0.00  0.00    -0.184 OA
BRANCH  31  34
ATOM     34  N   LIG d   1      -2.246  -4.900 -11.645  0.00  0.00    -0.504 NA
BRANCH  34  35
ATOM     35  C   LIG d   1      -2.182  -6.021 -10.839  0.00  0.00     0.069 A 
ATOM     36  C   LIG d   1      -2.736  -7.233 -11.106  0.00  0.00    -0.003 A 
ATOM     37  C   LIG d   1      -2.436  -8.091 -10.039  0.00  0.00     0.082 A 
ATOM     38  N   LIG d   1      -1.735  -7.424  -9.163  0.00  0.00    -0.085 NA
ATOM     39  O   LIG d   1      -1.563  -6.105  -9.648  0.00  0.00    -0.377 OA
BRANCH  36  40
ATOM     40  C   LIG d   1      -3.527  -7.593 -12.336  0.00  0.00    -0.036 C 
ATOM     41  H   LIG d   1      -2.850  -7.942 -13.115  0.00  0.00     0.028 H 
ATOM     42  H   LIG d   1      -4.238  -8.382 -12.093  0.00  0.00     0.028 H 
ATOM     43  H   LIG d   1      -4.067  -6.714 -12.690  0.00  0.00     0.028 H 
ENDBRANCH  36  40
BRANCH  37  44
ATOM     44  C   LIG d   1      -2.851  -9.535  -9.924  0.00  0.00    -0.019 C 
ATOM     45  H   LIG d   1      -2.271 -10.019  -9.139  0.00  0.00     0.029 H 
ATOM     46  H   LIG d   1      -3.911  -9.589  -9.678  0.00  0.00     0.029 H 
ATOM     47  H   LIG d   1      -2.672 -10.042 -10.873  0.00  0.00     0.029 H 
ENDBRANCH  37  44
ENDBRANCH  34  35
ENDBRANCH  31  34
ENDBRANCH  25  31
ENDBRANCH  19  21
ENDBRANCH   1  19
TORSDOF 8
ENDMDL
MODEL 7
REMARK VINA RESULT:      -6.9      8.486     12.536
REMARK  8 active torsions:
REMARK  status: ('A' for Active; 'I' for Inactive)
REMARK    1  A    between atoms: C_1  and  C_2 
REMARK    2  A    between atoms: C_3  and  C_31 
REMARK    3  A    between atoms: C_6  and  N_7 
REMARK    4  A    between atoms: N_7  and  S_8 
REMARK    5  A    between atoms: S_8  and  C_11 
REMARK    6  A    between atoms: C_14  and  N_17 
REMARK    7  A    between atoms: N_17  and  C_18 
REMARK    8  A    between atoms: C_19  and  C_22 
ROOT
ATOM      1  C   LIG d   1       9.974  -8.536  -2.692  0.00  0.00     0.014 C 
ATOM      2  C   LIG d   1       9.240  -9.301  -1.833  0.00  0.00     0.098 C 
ATOM      3  C   LIG d   1       7.911  -9.699  -2.187  0.00  0.00     0.103 C 
ATOM      4  N   LIG d   1       6.857 -10.016  -2.468  0.00  0.00    -0.191 NA
ATOM      5  H   LIG d   1      10.977  -8.235  -2.425  0.00  0.00     0.080 H 
ENDROOT
BRANCH   2   6
ATOM      6  C   LIG d   1       9.814  -9.716  -0.541  0.00  0.00     0.121 A 
ATOM      7  S   LIG d   1       9.761 -11.319   0.247  0.00  0.00    -0.067 SA
ATOM      8  C   LIG d   1      10.681 -10.883   1.703  0.00  0.00     0.040 A 
ATOM      9  C   LIG d   1      10.962  -9.514   1.484  0.00  0.00     0.079 A 
ATOM     10  C   LIG d   1      11.092 -11.553   2.829  0.00  0.00    -0.046 A 
ATOM     11  N   LIG d   1      10.493  -8.997   0.331  0.00  0.00    -0.238 NA
ATOM     12  C   LIG d   1      11.699  -8.858   2.498  0.00  0.00    -0.035 A 
ATOM     13  C   LIG d   1      12.105  -9.535   3.618  0.00  0.00    -0.060 A 
ATOM     14  H   LIG d   1      11.946  -7.812   2.388  0.00  0.00     0.064 H 
ATOM     15  C   LIG d   1      11.811 -10.879   3.799  0.00  0.00    -0.061 A 
ATOM     16  H   LIG d   1      12.667  -9.011   4.377  0.00  0.00     0.062 H 
ATOM     17  H   LIG d   1      12.141 -11.395   4.689  0.00  0.00     0.062 H 
ATOM     18  H   LIG d   1      10.856 -12.599   2.955  0.00  0.00     0.063 H 
ENDBRANCH   2   6
BRANCH   1  19
ATOM     19  N   LIG d   1       9.443  -8.152  -3.888  0.00  0.00    -0.319 N 
ATOM     20  H   LIG d   1       9.356  -8.796  -4.610  0.00  0.00     0.152 HD
BRANCH  19  21
ATOM     21  C   LIG d   1       9.024  -6.832  -4.075  0.00  0.00     0.031 A 
ATOM     22  C   LIG d   1       9.490  -5.828  -3.236  0.00  0.00    -0.039 A 
ATOM     23  C   LIG d   1       9.075  -4.524  -3.425  0.00  0.00    -0.036 A 
ATOM     24  H   LIG d   1      10.177  -6.066  -2.437  0.00  0.00     0.064 H 
ATOM     25  C   LIG d   1       8.196  -4.218  -4.447  0.00  0.00     0.073 A 
ATOM     26  H   LIG d   1       9.437  -3.743  -2.773  0.00  0.00     0.064 H 
ATOM     27  C   LIG d   1       7.724  -5.217  -5.281  0.00  0.00    -0.036 A 
ATOM     28  C   LIG d   1       8.141  -6.521  -5.102  0.00  0.00    -0.039 A 
ATOM     29  H   LIG d   1       7.035  -4.975  -6.075  0.00  0.00     0.064 H 
ATOM     30  H   LIG d   1       7.777  -7.299  -5.755  0.00  0.00     0.064 H 
BRANCH  25  31
ATOM     31  S   LIG d   1       7.667  -2.554  -4.684  0.00  0.00    -0.057 S 
ATOM     32  O   LIG d   1       6.486  -2.611  -5.472  0.00  0.00    -0.184 OA
ATOM     33  O   LIG d   1       8.814  -1.816  -5.082  0.00  0.00    -0.184 OA
BRANCH  31  34
ATOM     34  N   LIG d   1       7.218  -1.967  -3.202  0.00  0.00    -0.504 NA
BRANCH  34  35
ATOM     35  C   LIG d   1       6.540  -0.766  -3.109  0.00  0.00     0.069 A 
ATOM     36  C   LIG d   1       5.268  -0.596  -2.663  0.00  0.00    -0.003 A 
ATOM     37  C   LIG d   1       4.966   0.771  -2.726  0.00  0.00     0.082 A 
ATOM     38  N   LIG d   1       6.009   1.399  -3.195  0.00  0.00    -0.085 NA
ATOM     39  O   LIG d   1       7.021   0.442  -3.450  0.00  0.00    -0.377 OA
BRANCH  36  40
ATOM     40  C   LIG d   1       4.346  -1.685  -2.178  0.00  0.00    -0.036 C 
ATOM     41  H   LIG d   1       4.538  -1.880  -1.123  0.00  0.00     0.028 H 
ATOM     42  H   LIG d   1       3.311  -1.370  -2.307  0.00  0.00     0.028 H 
ATOM     43  H   LIG d   1       4.524  -2.594  -2.754  0.00  0.00     0.028 H 
ENDBRANCH  36  40
BRANCH  37  44
ATOM     44  C   LIG d   1       3.660   1.406  -2.321  0.00  0.00    -0.019 C 
ATOM     45  H   LIG d   1       3.119   1.724  -3.212  0.00  0.00     0.029 H 
ATOM     46  H   LIG d   1       3.060   0.682  -1.771  0.00  0.00     0.029 H 
ATOM     47  H   LIG d   1       3.858   2.271  -1.688  0.00  0.00     0.029 H 
ENDBRANCH  37  44
ENDBRANCH  34  35
ENDBRANCH  31  34
ENDBRANCH  25  31
ENDBRANCH  19  21
ENDBRANCH   1  19
TORSDOF 8
ENDMDL
MODEL 8
REMARK VINA RESULT:      -6.9      9.792     15.570
REMARK  8 active torsions:
REMARK  status: ('A' for Active; 'I' for Inactive)
REMARK    1  A    between atoms: C_1  and  C_2 
REMARK    2  A    between atoms: C_3  and  C_31 
REMARK    3  A    between atoms: C_6  and  N_7 
REMARK    4  A    between atoms: N_7  and  S_8 
REMARK    5  A    between atoms: S_8  and  C_11 
REMARK    6  A    between atoms: C_14  and  N_17 
REMARK    7  A    between atoms: N_17  and  C_18 
REMARK    8  A    between atoms: C_19  and  C_22 
ROOT
ATOM      1  C   LIG d   1       7.093  -4.810  -5.217  0.00  0.00     0.014 C 
ATOM      2  C   LIG d   1       5.837  -4.286  -5.111  0.00  0.00     0.098 C 
ATOM      3  C   LIG d   1       4.710  -5.032  -5.584  0.00  0.00     0.103 C 
ATOM      4  N   LIG d   1       3.815  -5.623  -5.959  0.00  0.00    -0.191 NA
ATOM      5  H   LIG d   1       7.944  -4.247  -4.860  0.00  0.00     0.080 H 
ENDROOT
BRANCH   2   6
ATOM      6  C   LIG d   1       5.641  -2.955  -4.511  0.00  0.00     0.121 A 
ATOM      7  S   LIG d   1       6.792  -1.592  -4.405  0.00  0.00    -0.067 SA
ATOM      8  C   LIG d   1       5.718  -0.458  -3.556  0.00  0.00     0.040 A 
ATOM      9  C   LIG d   1       4.536  -1.220  -3.404  0.00  0.00     0.079 A 
ATOM     10  C   LIG d   1       5.835   0.829  -3.095  0.00  0.00    -0.046 A 
ATOM     11  N   LIG d   1       4.574  -2.468  -3.911  0.00  0.00    -0.238 NA
ATOM     12  C   LIG d   1       3.462  -0.579  -2.741  0.00  0.00    -0.035 A 
ATOM     13  C   LIG d   1       3.589   0.706  -2.284  0.00  0.00    -0.060 A 
ATOM     14  H   LIG d   1       2.532  -1.109  -2.595  0.00  0.00     0.064 H 
ATOM     15  C   LIG d   1       4.765   1.423  -2.451  0.00  0.00    -0.061 A 
ATOM     16  H   LIG d   1       2.754   1.172  -1.782  0.00  0.00     0.062 H 
ATOM     17  H   LIG d   1       4.844   2.436  -2.084  0.00  0.00     0.062 H 
ATOM     18  H   LIG d   1       6.757   1.374  -3.233  0.00  0.00     0.063 H 
ENDBRANCH   2   6
BRANCH   1  19
ATOM     19  N   LIG d   1       7.275  -6.042  -5.773  0.00  0.00    -0.319 N 
ATOM     20  H   LIG d   1       7.277  -6.143  -6.738  0.00  0.00     0.152 HD
BRANCH  19  21
ATOM     21  C   LIG d   1       7.456  -7.158  -4.953  0.00  0.00     0.031 A 
ATOM     22  C   LIG d   1       6.546  -8.207  -4.993  0.00  0.00    -0.039 A 
ATOM     23  C   LIG d   1       6.729  -9.310  -4.182  0.00  0.00    -0.036 A 
ATOM     24  H   LIG d   1       5.697  -8.161  -5.659  0.00  0.00     0.064 H 
ATOM     25  C   LIG d   1       7.817  -9.370  -3.330  0.00  0.00     0.073 A 
ATOM     26  H   LIG d   1       6.023 -10.126  -4.213  0.00  0.00     0.064 H 
ATOM     27  C   LIG d   1       8.721  -8.324  -3.282  0.00  0.00    -0.036 A 
ATOM     28  C   LIG d   1       8.547  -7.222  -4.095  0.00  0.00    -0.039 A 
ATOM     29  H   LIG d   1       9.566  -8.373  -2.613  0.00  0.00     0.064 H 
ATOM     30  H   LIG d   1       9.256  -6.408  -4.061  0.00  0.00     0.064 H 
BRANCH  25  31
ATOM     31  S   LIG d   1       8.046 -10.778  -2.295  0.00  0.00    -0.057 S 
ATOM     32  O   LIG d   1       7.789 -11.920  -3.101  0.00  0.00    -0.184 OA
ATOM     33  O   LIG d   1       7.334 -10.518  -1.093  0.00  0.00    -0.184 OA
BRANCH  31  34
ATOM     34  N   LIG d   1       9.651 -10.835  -1.892  0.00  0.00    -0.504 NA
BRANCH  34  35
ATOM     35  C   LIG d   1      10.050 -10.559  -0.598  0.00  0.00     0.069 A 
ATOM     36  C   LIG d   1      10.282 -11.472   0.381  0.00  0.00    -0.003 A 
ATOM     37  C   LIG d   1      10.670 -10.780   1.536  0.00  0.00     0.082 A 
ATOM     38  N   LIG d   1      10.668  -9.503   1.267  0.00  0.00    -0.085 NA
ATOM     39  O   LIG d   1      10.274  -9.337  -0.083  0.00  0.00    -0.377 OA
BRANCH  36  40
ATOM     40  C   LIG d   1      10.152 -12.967   0.247  0.00  0.00    -0.036 C 
ATOM     41  H   LIG d   1      10.386 -13.262  -0.775  0.00  0.00     0.028 H 
ATOM     42  H   LIG d   1      10.843 -13.455   0.934  0.00  0.00     0.028 H 
ATOM     43  H   LIG d   1       9.130 -13.265   0.486  0.00  0.00     0.028 H 
ENDBRANCH  36  40
BRANCH  37  44
ATOM     44  C   LIG d   1      11.029 -11.403   2.861  0.00  0.00    -0.019 C 
ATOM     45  H   LIG d   1      10.423 -12.296   3.019  0.00  0.00     0.029 H 
ATOM     46  H   LIG d   1      12.084 -11.677   2.859  0.00  0.00     0.029 H 
ATOM     47  H   LIG d   1      10.839 -10.689   3.662  0.00  0.00     0.029 H 
ENDBRANCH  37  44
ENDBRANCH  34  35
ENDBRANCH  31  34
ENDBRANCH  25  31
ENDBRANCH  19  21
ENDBRANCH   1  19
TORSDOF 8
ENDMDL
MODEL 9
REMARK VINA RESULT:      -6.8      5.006     10.156
REMARK  8 active torsions:
REMARK  status: ('A' for Active; 'I' for Inactive)
REMARK    1  A    between atoms: C_1  and  C_2 
REMARK    2  A    between atoms: C_3  and  C_31 
REMARK    3  A    between atoms: C_6  and  N_7 
REMARK    4  A    between atoms: N_7  and  S_8 
REMARK    5  A    between atoms: S_8  and  C_11 
REMARK    6  A    between atoms: C_14  and  N_17 
REMARK    7  A    between atoms: N_17  and  C_18 
REMARK    8  A    between atoms: C_19  and  C_22 
ROOT
ATOM      1  C   LIG d   1       9.915   2.788  -5.083  0.00  0.00     0.014 C 
ATOM      2  C   LIG d   1      10.769   2.932  -4.028  0.00  0.00     0.098 C 
ATOM      3  C   LIG d   1      11.778   1.944  -3.785  0.00  0.00     0.103 C 
ATOM      4  N   LIG d   1      12.578   1.162  -3.592  0.00  0.00    -0.191 NA
ATOM      5  H   LIG d   1       9.154   3.533  -5.267  0.00  0.00     0.080 H 
ENDROOT
BRANCH   2   6
ATOM      6  C   LIG d   1      10.653   4.101  -3.139  0.00  0.00     0.121 A 
ATOM      7  S   LIG d   1       9.850   5.667  -3.445  0.00  0.00    -0.067 SA
ATOM      8  C   LIG d   1      10.208   6.413  -1.873  0.00  0.00     0.040 A 
ATOM      9  C   LIG d   1      10.938   5.395  -1.215  0.00  0.00     0.079 A 
ATOM     10  C   LIG d   1       9.938   7.626  -1.289  0.00  0.00    -0.046 A 
ATOM     11  N   LIG d   1      11.121   4.259  -1.917  0.00  0.00    -0.238 NA
ATOM     12  C   LIG d   1      11.383   5.693   0.095  0.00  0.00    -0.035 A 
ATOM     13  C   LIG d   1      11.108   6.907   0.668  0.00  0.00    -0.060 A 
ATOM     14  H   LIG d   1      11.944   4.955   0.649  0.00  0.00     0.064 H 
ATOM     15  C   LIG d   1      10.389   7.883  -0.007  0.00  0.00    -0.061 A 
ATOM     16  H   LIG d   1      11.459   7.109   1.670  0.00  0.00     0.062 H 
ATOM     17  H   LIG d   1      10.183   8.833   0.463  0.00  0.00     0.062 H 
ATOM     18  H   LIG d   1       9.377   8.375  -1.828  0.00  0.00     0.063 H 
ENDBRANCH   2   6
BRANCH   1  19
ATOM     19  N   LIG d   1      10.023   1.706  -5.906  0.00  0.00    -0.319 N 
ATOM     20  H   LIG d   1      10.888   1.456  -6.269  0.00  0.00     0.152 HD
BRANCH  19  21
ATOM     21  C   LIG d   1       8.888   0.957  -6.227  0.00  0.00     0.031 A 
ATOM     22  C   LIG d   1       8.732  -0.325  -5.716  0.00  0.00    -0.039 A 
ATOM     23  C   LIG d   1       7.608  -1.063  -6.035  0.00  0.00    -0.036 A 
ATOM     24  H   LIG d   1       9.488  -0.745  -5.068  0.00  0.00     0.064 H 
ATOM     25  C   LIG d   1       6.640  -0.526  -6.863  0.00  0.00     0.073 A 
ATOM     26  H   LIG d   1       7.486  -2.059  -5.637  0.00  0.00     0.064 H 
ATOM     27  C   LIG d   1       6.795   0.748  -7.380  0.00  0.00    -0.036 A 
ATOM     28  C   LIG d   1       7.913   1.493  -7.059  0.00  0.00    -0.039 A 
ATOM     29  H   LIG d   1       6.039   1.162  -8.029  0.00  0.00     0.064 H 
ATOM     30  H   LIG d   1       8.031   2.489  -7.459  0.00  0.00     0.064 H 
BRANCH  25  31
ATOM     31  S   LIG d   1       5.209  -1.470  -7.269  0.00  0.00    -0.057 S 
ATOM     32  O   LIG d   1       5.672  -2.732  -7.730  0.00  0.00    -0.184 OA
ATOM     33  O   LIG d   1       4.378  -0.630  -8.058  0.00  0.00    -0.184 OA
BRANCH  31  34
ATOM     34  N   LIG d   1       4.392  -1.754  -5.857  0.00  0.00    -0.504 NA
BRANCH  34  35
ATOM     35  C   LIG d   1       4.186  -0.725  -4.957  0.00  0.00     0.069 A 
ATOM     36  C   LIG d   1       4.649  -0.673  -3.681  0.00  0.00    -0.003 A 
ATOM     37  C   LIG d   1       4.224   0.536  -3.115  0.00  0.00     0.082 A 
ATOM     38  N   LIG d   1       3.530   1.184  -4.010  0.00  0.00    -0.085 NA
ATOM     39  O   LIG d   1       3.489   0.401  -5.188  0.00  0.00    -0.377 OA
BRANCH  36  40
ATOM     40  C   LIG d   1       5.481  -1.727  -2.996  0.00  0.00    -0.036 C 
ATOM     41  H   LIG d   1       4.993  -2.696  -3.095  0.00  0.00     0.028 H 
ATOM     42  H   LIG d   1       6.467  -1.768  -3.457  0.00  0.00     0.028 H 
ATOM     43  H   LIG d   1       5.583  -1.478  -1.939  0.00  0.00     0.028 H 
ENDBRANCH  36  40
BRANCH  37  44
ATOM     44  C   LIG d   1       4.519   1.007  -1.713  0.00  0.00    -0.019 C 
ATOM     45  H   LIG d   1       4.384   0.180  -1.016  0.00  0.00     0.029 H 
ATOM     46  H   LIG d   1       5.547   1.364  -1.659  0.00  0.00     0.029 H 
ATOM     47  H   LIG d   1       3.837   1.817  -1.452  0.00  0.00     0.029 H 
ENDBRANCH  37  44
ENDBRANCH  34  35
ENDBRANCH  31  34
ENDBRANCH  25  31
ENDBRANCH  19  21
ENDBRANCH   1  19
TORSDOF 8
ENDMDL
