MODEL 1
REMARK VINA RESULT:      -4.9      0.000      0.000
REMARK  2 active torsions:
REMARK  status: ('A' for Active; 'I' for Inactive)
REMARK    1  A    between atoms: CA_3  and  C_9 
REMARK    2  A    between atoms: CA_5  and  C_7 
ROOT
ATOM      1  C   LIG d   1       3.164  -0.870  -2.495  0.00  0.00     0.001 C 
ATOM      2  C   LIG d   1       3.933  -2.214  -2.587  0.00  0.00     0.001 C 
ATOM      3  CA  LIG d   1       4.753  -2.016  -3.887  0.00  0.00     0.018 C 
ATOM      4  HA  LIG d   1       5.654  -1.437  -3.683  0.00  0.00     0.091 H 
ATOM      5  CA  LIG d   1       2.869  -0.536  -3.972  0.00  0.00     0.018 C 
ATOM      6  HA  LIG d   1       1.861  -0.856  -4.231  0.00  0.00     0.091 H 
ATOM      7  H   LIG d   1       2.237  -0.995  -1.935  0.00  0.00     0.033 H 
ATOM      8  H   LIG d   1       3.788  -0.100  -2.041  0.00  0.00     0.033 H 
ATOM      9  H   LIG d   1       3.244  -3.053  -2.684  0.00  0.00     0.033 H 
ATOM     10  H   LIG d   1       4.590  -2.349  -1.729  0.00  0.00     0.033 H 
ATOM     11  N   LIG d   1       3.854  -1.268  -4.785  0.00  0.00     0.240 N 
ATOM     12  H1  LIG d   1       3.367  -1.923  -5.409  0.00  0.00     0.203 HD
ATOM     13  H2  LIG d   1       4.402  -0.604  -5.345  0.00  0.00     0.203 HD
ENDROOT
BRANCH   3  14
ATOM     14  C   LIG d   1       5.112  -3.350  -4.488  0.00  0.00     0.089 C 
ATOM     15  O   LIG d   1       4.243  -4.143  -4.762  0.00  0.00    -0.544 OA
ATOM     16  OXT LIG d   1       6.399  -3.657  -4.721  0.00  0.00    -0.544 OA
ENDBRANCH   3  14
BRANCH   5  17
ATOM     17  C   LIG d   1       3.010   0.947  -4.199  0.00  0.00     0.089 C 
ATOM     18  O   LIG d   1       2.537   1.454  -5.189  0.00  0.00    -0.544 OA
ATOM     19  OXT LIG d   1       3.660   1.706  -3.302  0.00  0.00    -0.544 OA
ENDBRANCH   5  17
TORSDOF 2
ENDMDL
MODEL 2
REMARK VINA RESULT:      -4.6      1.358      4.325
REMARK  2 active torsions:
REMARK  status: ('A' for Active; 'I' for Inactive)
REMARK    1  A    between atoms: CA_3  and  C_9 
REMARK    2  A    between atoms: CA_5  and  C_7 
ROOT
ATOM      1  C   LIG d   1       4.160  -2.501  -2.835  0.00  0.00     0.001 C 
ATOM      2  C   LIG d   1       3.994  -1.134  -2.121  0.00  0.00     0.001 C 
ATOM      3  CA  LIG d   1       3.963  -0.157  -3.323  0.00  0.00     0.018 C 
ATOM      4  HA  LIG d   1       2.965  -0.125  -3.760  0.00  0.00     0.091 H 
ATOM      5  CA  LIG d   1       5.070  -2.160  -4.033  0.00  0.00     0.018 C 
ATOM      6  HA  LIG d   1       6.106  -2.396  -3.791  0.00  0.00     0.091 H 
ATOM      7  H   LIG d   1       4.644  -3.223  -2.176  0.00  0.00     0.033 H 
ATOM      8  H   LIG d   1       3.196  -2.876  -3.177  0.00  0.00     0.033 H 
ATOM      9  H   LIG d   1       4.844  -0.926  -1.471  0.00  0.00     0.033 H 
ATOM     10  H   LIG d   1       3.060  -1.095  -1.562  0.00  0.00     0.033 H 
ATOM     11  N   LIG d   1       4.928  -0.716  -4.285  0.00  0.00     0.240 N 
ATOM     12  H1  LIG d   1       5.838  -0.255  -4.168  0.00  0.00     0.203 HD
ATOM     13  H2  LIG d   1       4.588  -0.565  -5.242  0.00  0.00     0.203 HD
ENDROOT
BRANCH   3  14
ATOM     14  C   LIG d   1       4.387   1.223  -2.888  0.00  0.00     0.089 C 
ATOM     15  O   LIG d   1       5.315   1.356  -2.125  0.00  0.00    -0.544 OA
ATOM     16  OXT LIG d   1       3.736   2.302  -3.349  0.00  0.00    -0.544 OA
ENDBRANCH   3  14
BRANCH   5  17
ATOM     17  C   LIG d   1       4.637  -2.943  -5.245  0.00  0.00     0.089 C 
ATOM     18  O   LIG d   1       4.304  -4.100  -5.130  0.00  0.00    -0.544 OA
ATOM     19  OXT LIG d   1       4.620  -2.358  -6.453  0.00  0.00    -0.544 OA
ENDBRANCH   5  17
TORSDOF 2
ENDMDL
MODEL 3
REMARK VINA RESULT:      -4.4      1.405      1.822
REMARK  2 active torsions:
REMARK  status: ('A' for Active; 'I' for Inactive)
REMARK    1  A    between atoms: CA_3  and  C_9 
REMARK    2  A    between atoms: CA_5  and  C_7 
ROOT
ATOM      1  C   LIG d   1       3.413  -1.157  -2.679  0.00  0.00     0.001 C 
ATOM      2  C   LIG d   1       4.203  -2.441  -3.041  0.00  0.00     0.001 C 
ATOM      3  CA  LIG d   1       5.633  -1.880  -3.244  0.00  0.00     0.018 C 
ATOM      4  HA  LIG d   1       6.135  -1.762  -2.283  0.00  0.00     0.091 H 
ATOM      5  CA  LIG d   1       4.086  -0.076  -3.552  0.00  0.00     0.018 C 
ATOM      6  HA  LIG d   1       3.509   0.076  -4.464  0.00  0.00     0.091 H 
ATOM      7  H   LIG d   1       2.361  -1.265  -2.943  0.00  0.00     0.033 H 
ATOM      8  H   LIG d   1       3.524  -0.922  -1.620  0.00  0.00     0.033 H 
ATOM      9  H   LIG d   1       3.825  -2.887  -3.961  0.00  0.00     0.033 H 
ATOM     10  H   LIG d   1       4.179  -3.159  -2.222  0.00  0.00     0.033 H 
ATOM     11  N   LIG d   1       5.433  -0.568  -3.884  0.00  0.00     0.240 N 
ATOM     12  H1  LIG d   1       5.523  -0.664  -4.903  0.00  0.00     0.203 HD
ATOM     13  H2  LIG d   1       6.137   0.095  -3.539  0.00  0.00     0.203 HD
ENDROOT
BRANCH   3  14
ATOM     14  C   LIG d   1       6.431  -2.791  -4.142  0.00  0.00     0.089 C 
ATOM     15  O   LIG d   1       5.868  -3.465  -4.972  0.00  0.00    -0.544 OA
ATOM     16  OXT LIG d   1       7.766  -2.853  -4.020  0.00  0.00    -0.544 OA
ENDBRANCH   3  14
BRANCH   5  17
ATOM     17  C   LIG d   1       4.180   1.217  -2.784  0.00  0.00     0.089 C 
ATOM     18  O   LIG d   1       4.732   1.242  -1.709  0.00  0.00    -0.544 OA
ATOM     19  OXT LIG d   1       3.651   2.340  -3.293  0.00  0.00    -0.544 OA
ENDBRANCH   5  17
TORSDOF 2
ENDMDL
MODEL 4
REMARK VINA RESULT:      -4.2      2.043      2.626
REMARK  2 active torsions:
REMARK  status: ('A' for Active; 'I' for Inactive)
REMARK    1  A    between atoms: CA_3  and  C_9 
REMARK    2  A    between atoms: CA_5  and  C_7 
ROOT
ATOM      1  C   LIG d   1       2.452   0.693  -4.968  0.00  0.00     0.001 C 
ATOM      2  C   LIG d   1       2.789  -0.258  -3.791  0.00  0.00     0.001 C 
ATOM      3  CA  LIG d   1       4.090  -0.930  -4.295  0.00  0.00     0.018 C 
ATOM      4  HA  LIG d   1       4.948  -0.284  -4.107  0.00  0.00     0.091 H 
ATOM      5  CA  LIG d   1       2.895  -0.114  -6.206  0.00  0.00     0.018 C 
ATOM      6  HA  LIG d   1       2.037  -0.623  -6.645  0.00  0.00     0.091 H 
ATOM      7  H   LIG d   1       1.381   0.896  -5.005  0.00  0.00     0.033 H 
ATOM      8  H   LIG d   1       3.019   1.621  -4.889  0.00  0.00     0.033 H 
ATOM      9  H   LIG d   1       2.000  -0.996  -3.646  0.00  0.00     0.033 H 
ATOM     10  H   LIG d   1       2.969   0.302  -2.875  0.00  0.00     0.033 H 
ATOM     11  N   LIG d   1       3.885  -1.102  -5.745  0.00  0.00     0.240 N 
ATOM     12  H1  LIG d   1       3.539  -2.051  -5.934  0.00  0.00     0.203 HD
ATOM     13  H2  LIG d   1       4.773  -0.957  -6.238  0.00  0.00     0.203 HD
ENDROOT
BRANCH   3  14
ATOM     14  C   LIG d   1       4.284  -2.267  -3.626  0.00  0.00     0.089 C 
ATOM     15  O   LIG d   1       3.663  -2.536  -2.625  0.00  0.00    -0.544 OA
ATOM     16  OXT LIG d   1       5.146  -3.157  -4.142  0.00  0.00    -0.544 OA
ENDBRANCH   3  14
BRANCH   5  17
ATOM     17  C   LIG d   1       3.518   0.807  -7.223  0.00  0.00     0.089 C 
ATOM     18  O   LIG d   1       4.609   0.555  -7.679  0.00  0.00    -0.544 OA
ATOM     19  OXT LIG d   1       2.862   1.909  -7.621  0.00  0.00    -0.544 OA
ENDBRANCH   5  17
TORSDOF 2
ENDMDL
MODEL 5
REMARK VINA RESULT:      -4.2      1.884      4.789
REMARK  2 active torsions:
REMARK  status: ('A' for Active; 'I' for Inactive)
REMARK    1  A    between atoms: CA_3  and  C_9 
REMARK    2  A    between atoms: CA_5  and  C_7 
ROOT
ATOM      1  C   LIG d   1       6.364  -3.059  -4.418  0.00  0.00     0.001 C 
ATOM      2  C   LIG d   1       5.949  -1.931  -3.437  0.00  0.00     0.001 C 
ATOM      3  CA  LIG d   1       4.496  -2.341  -3.087  0.00  0.00     0.018 C 
ATOM      4  HA  LIG d   1       4.494  -3.108  -2.312  0.00  0.00     0.091 H 
ATOM      5  CA  LIG d   1       5.059  -3.348  -5.188  0.00  0.00     0.018 C 
ATOM      6  HA  LIG d   1       5.060  -2.809  -6.135  0.00  0.00     0.091 H 
ATOM      7  H   LIG d   1       7.143  -2.711  -5.096  0.00  0.00     0.033 H 
ATOM      8  H   LIG d   1       6.694  -3.943  -3.871  0.00  0.00     0.033 H 
ATOM      9  H   LIG d   1       5.972  -0.958  -3.928  0.00  0.00     0.033 H 
ATOM     10  H   LIG d   1       6.579  -1.934  -2.549  0.00  0.00     0.033 H 
ATOM     11  N   LIG d   1       3.947  -2.880  -4.344  0.00  0.00     0.240 N 
ATOM     12  H1  LIG d   1       3.426  -2.144  -4.836  0.00  0.00     0.203 HD
ATOM     13  H2  LIG d   1       3.318  -3.665  -4.137  0.00  0.00     0.203 HD
ENDROOT
BRANCH   3  14
ATOM     14  C   LIG d   1       3.706  -1.139  -2.636  0.00  0.00     0.089 C 
ATOM     15  O   LIG d   1       4.160  -0.399  -1.796  0.00  0.00    -0.544 OA
ATOM     16  OXT LIG d   1       2.500  -0.891  -3.170  0.00  0.00    -0.544 OA
ENDBRANCH   3  14
BRANCH   5  17
ATOM     17  C   LIG d   1       4.930  -4.828  -5.442  0.00  0.00     0.089 C 
ATOM     18  O   LIG d   1       3.958  -5.427  -5.045  0.00  0.00    -0.544 OA
ATOM     19  OXT LIG d   1       5.895  -5.481  -6.108  0.00  0.00    -0.544 OA
ENDBRANCH   5  17
TORSDOF 2
ENDMDL
MODEL 6
REMARK VINA RESULT:      -4.1      9.365     10.657
REMARK  2 active torsions:
REMARK  status: ('A' for Active; 'I' for Inactive)
REMARK    1  A    between atoms: CA_3  and  C_9 
REMARK    2  A    between atoms: CA_5  and  C_7 
ROOT
ATOM      1  C   LIG d   1       6.817 -11.764  -3.250  0.00  0.00     0.001 C 
ATOM      2  C   LIG d   1       5.552 -11.508  -4.109  0.00  0.00     0.001 C 
ATOM      3  CA  LIG d   1       4.799 -10.461  -3.250  0.00  0.00     0.018 C 
ATOM      4  HA  LIG d   1       5.203  -9.464  -3.428  0.00  0.00     0.091 H 
ATOM      5  CA  LIG d   1       6.284 -11.665  -1.806  0.00  0.00     0.018 C 
ATOM      6  HA  LIG d   1       6.074 -12.662  -1.418  0.00  0.00     0.091 H 
ATOM      7  H   LIG d   1       7.220 -12.758  -3.445  0.00  0.00     0.033 H 
ATOM      8  H   LIG d   1       7.571 -10.999  -3.437  0.00  0.00     0.033 H 
ATOM      9  H   LIG d   1       4.962 -12.419  -4.218  0.00  0.00     0.033 H 
ATOM     10  H   LIG d   1       5.816 -11.097  -5.082  0.00  0.00     0.033 H 
ATOM     11  N   LIG d   1       5.044 -10.873  -1.857  0.00  0.00     0.240 N 
ATOM     12  H1  LIG d   1       4.258 -11.443  -1.522  0.00  0.00     0.203 HD
ATOM     13  H2  LIG d   1       5.142 -10.041  -1.263  0.00  0.00     0.203 HD
ENDROOT
BRANCH   3  14
ATOM     14  C   LIG d   1       3.324 -10.491  -3.560  0.00  0.00     0.089 C 
ATOM     15  O   LIG d   1       2.882 -11.327  -4.312  0.00  0.00    -0.544 OA
ATOM     16  OXT LIG d   1       2.503  -9.589  -2.999  0.00  0.00    -0.544 OA
ENDBRANCH   3  14
BRANCH   5  17
ATOM     17  C   LIG d   1       7.301 -10.980  -0.930  0.00  0.00     0.089 C 
ATOM     18  O   LIG d   1       7.274  -9.779  -0.798  0.00  0.00    -0.544 OA
ATOM     19  OXT LIG d   1       8.238 -11.703  -0.296  0.00  0.00    -0.544 OA
ENDBRANCH   5  17
TORSDOF 2
ENDMDL
MODEL 7
REMARK VINA RESULT:      -4.0      1.693      2.369
REMARK  2 active torsions:
REMARK  status: ('A' for Active; 'I' for Inactive)
REMARK    1  A    between atoms: CA_3  and  C_9 
REMARK    2  A    between atoms: CA_5  and  C_7 
ROOT
ATOM      1  C   LIG d   1       5.905  -1.602  -3.097  0.00  0.00     0.001 C 
ATOM      2  C   LIG d   1       6.297  -2.739  -4.077  0.00  0.00     0.001 C 
ATOM      3  CA  LIG d   1       4.960  -2.987  -4.818  0.00  0.00     0.018 C 
ATOM      4  HA  LIG d   1       4.826  -2.256  -5.615  0.00  0.00     0.091 H 
ATOM      5  CA  LIG d   1       4.454  -1.960  -2.713  0.00  0.00     0.018 C 
ATOM      6  HA  LIG d   1       4.442  -2.498  -1.765  0.00  0.00     0.091 H 
ATOM      7  H   LIG d   1       6.549  -1.612  -2.218  0.00  0.00     0.033 H 
ATOM      8  H   LIG d   1       5.945  -0.633  -3.595  0.00  0.00     0.033 H 
ATOM      9  H   LIG d   1       6.614  -3.630  -3.535  0.00  0.00     0.033 H 
ATOM     10  H   LIG d   1       7.071  -2.409  -4.769  0.00  0.00     0.033 H 
ATOM     11  N   LIG d   1       3.922  -2.818  -3.785  0.00  0.00     0.240 N 
ATOM     12  H1  LIG d   1       3.668  -3.735  -3.398  0.00  0.00     0.203 HD
ATOM     13  H2  LIG d   1       3.092  -2.378  -4.199  0.00  0.00     0.203 HD
ENDROOT
BRANCH   3  14
ATOM     14  C   LIG d   1       4.924  -4.386  -5.380  0.00  0.00     0.089 C 
ATOM     15  O   LIG d   1       4.084  -5.167  -5.001  0.00  0.00    -0.544 OA
ATOM     16  OXT LIG d   1       5.824  -4.761  -6.302  0.00  0.00    -0.544 OA
ENDBRANCH   3  14
BRANCH   5  17
ATOM     17  C   LIG d   1       3.630  -0.703  -2.598  0.00  0.00     0.089 C 
ATOM     18  O   LIG d   1       4.051   0.240  -1.971  0.00  0.00    -0.544 OA
ATOM     19  OXT LIG d   1       2.428  -0.632  -3.191  0.00  0.00    -0.544 OA
ENDBRANCH   5  17
TORSDOF 2
ENDMDL
MODEL 8
REMARK VINA RESULT:      -4.0      3.583      4.574
REMARK  2 active torsions:
REMARK  status: ('A' for Active; 'I' for Inactive)
REMARK    1  A    between atoms: CA_3  and  C_9 
REMARK    2  A    between atoms: CA_5  and  C_7 
ROOT
ATOM      1  C   LIG d   1       6.058  -0.994  -3.532  0.00  0.00     0.001 C 
ATOM      2  C   LIG d   1       7.337  -0.375  -4.155  0.00  0.00     0.001 C 
ATOM      3  CA  LIG d   1       7.306   1.059  -3.571  0.00  0.00     0.018 C 
ATOM      4  HA  LIG d   1       7.714   1.067  -2.560  0.00  0.00     0.091 H 
ATOM      5  CA  LIG d   1       5.072   0.193  -3.512  0.00  0.00     0.018 C 
ATOM      6  HA  LIG d   1       4.418   0.147  -4.382  0.00  0.00     0.091 H 
ATOM      7  H   LIG d   1       5.677  -1.801  -4.157  0.00  0.00     0.033 H 
ATOM      8  H   LIG d   1       6.256  -1.349  -2.520  0.00  0.00     0.033 H 
ATOM      9  H   LIG d   1       7.271  -0.355  -5.243  0.00  0.00     0.033 H 
ATOM     10  H   LIG d   1       8.228  -0.910  -3.830  0.00  0.00     0.033 H 
ATOM     11  N   LIG d   1       5.878   1.424  -3.551  0.00  0.00     0.240 N 
ATOM     12  H1  LIG d   1       5.648   1.960  -4.397  0.00  0.00     0.203 HD
ATOM     13  H2  LIG d   1       5.680   1.994  -2.720  0.00  0.00     0.203 HD
ENDROOT
BRANCH   3  14
ATOM     14  C   LIG d   1       8.081   2.002  -4.456  0.00  0.00     0.089 C 
ATOM     15  O   LIG d   1       7.857   2.038  -5.642  0.00  0.00    -0.544 OA
ATOM     16  OXT LIG d   1       9.020   2.801  -3.924  0.00  0.00    -0.544 OA
ENDBRANCH   3  14
BRANCH   5  17
ATOM     17  C   LIG d   1       4.248   0.153  -2.251  0.00  0.00     0.089 C 
ATOM     18  O   LIG d   1       4.334  -0.793  -1.502  0.00  0.00    -0.544 OA
ATOM     19  OXT LIG d   1       3.419   1.167  -1.958  0.00  0.00    -0.544 OA
ENDBRANCH   5  17
TORSDOF 2
ENDMDL
MODEL 9
REMARK VINA RESULT:      -4.0      2.196      4.630
REMARK  2 active torsions:
REMARK  status: ('A' for Active; 'I' for Inactive)
REMARK    1  A    between atoms: CA_3  and  C_9 
REMARK    2  A    between atoms: CA_5  and  C_7 
ROOT
ATOM      1  C   LIG d   1       5.815  -1.741  -3.063  0.00  0.00     0.001 C 
ATOM      2  C   LIG d   1       4.580  -0.979  -2.516  0.00  0.00     0.001 C 
ATOM      3  CA  LIG d   1       4.430   0.161  -3.554  0.00  0.00     0.018 C 
ATOM      4  HA  LIG d   1       3.901  -0.197  -4.437  0.00  0.00     0.091 H 
ATOM      5  CA  LIG d   1       6.699  -0.609  -3.629  0.00  0.00     0.018 C 
ATOM      6  HA  LIG d   1       7.456  -0.329  -2.897  0.00  0.00     0.091 H 
ATOM      7  H   LIG d   1       6.330  -2.267  -2.260  0.00  0.00     0.033 H 
ATOM      8  H   LIG d   1       5.522  -2.433  -3.853  0.00  0.00     0.033 H 
ATOM      9  H   LIG d   1       4.777  -0.578  -1.521  0.00  0.00     0.033 H 
ATOM     10  H   LIG d   1       3.698  -1.618  -2.508  0.00  0.00     0.033 H 
ATOM     11  N   LIG d   1       5.813   0.535  -3.900  0.00  0.00     0.240 N 
ATOM     12  H1  LIG d   1       6.105   1.339  -3.331  0.00  0.00     0.203 HD
ATOM     13  H2  LIG d   1       5.865   0.783  -4.895  0.00  0.00     0.203 HD
ENDROOT
BRANCH   3  14
ATOM     14  C   LIG d   1       3.701   1.332  -2.946  0.00  0.00     0.089 C 
ATOM     15  O   LIG d   1       3.476   1.352  -1.759  0.00  0.00    -0.544 OA
ATOM     16  OXT LIG d   1       3.302   2.351  -3.723  0.00  0.00    -0.544 OA
ENDBRANCH   3  14
BRANCH   5  17
ATOM     17  C   LIG d   1       7.362  -1.065  -4.903  0.00  0.00     0.089 C 
ATOM     18  O   LIG d   1       6.696  -1.266  -5.892  0.00  0.00    -0.544 OA
ATOM     19  OXT LIG d   1       8.691  -1.248  -4.940  0.00  0.00    -0.544 OA
ENDBRANCH   5  17
TORSDOF 2
ENDMDL
MODEL 10
REMARK VINA RESULT:      -3.9      9.294     10.310
REMARK  2 active torsions:
REMARK  status: ('A' for Active; 'I' for Inactive)
REMARK    1  A    between atoms: CA_3  and  C_9 
REMARK    2  A    between atoms: CA_5  and  C_7 
ROOT
ATOM      1  C   LIG d   1       5.402 -11.483  -4.248  0.00  0.00     0.001 C 
ATOM      2  C   LIG d   1       6.626 -11.789  -3.346  0.00  0.00     0.001 C 
ATOM      3  CA  LIG d   1       6.050 -11.518  -1.934  0.00  0.00     0.018 C 
ATOM      4  HA  LIG d   1       5.489 -12.383  -1.581  0.00  0.00     0.091 H 
ATOM      5  CA  LIG d   1       4.717 -10.309  -3.518  0.00  0.00     0.018 C 
ATOM      6  HA  LIG d   1       5.021  -9.365  -3.967  0.00  0.00     0.091 H 
ATOM      7  H   LIG d   1       5.724 -11.182  -5.245  0.00  0.00     0.033 H 
ATOM      8  H   LIG d   1       4.738 -12.346  -4.300  0.00  0.00     0.033 H 
ATOM      9  H   LIG d   1       7.453 -11.113  -3.567  0.00  0.00     0.033 H 
ATOM     10  H   LIG d   1       6.937 -12.828  -3.447  0.00  0.00     0.033 H 
ATOM     11  N   LIG d   1       5.153 -10.362  -2.112  0.00  0.00     0.240 N 
ATOM     12  H1  LIG d   1       5.653  -9.497  -1.874  0.00  0.00     0.203 HD
ATOM     13  H2  LIG d   1       4.334 -10.463  -1.501  0.00  0.00     0.203 HD
ENDROOT
BRANCH   3  14
ATOM     14  C   LIG d   1       7.159 -11.183  -0.970  0.00  0.00     0.089 C 
ATOM     15  O   LIG d   1       7.767 -12.070  -0.418  0.00  0.00    -0.544 OA
ATOM     16  OXT LIG d   1       7.472  -9.901  -0.726  0.00  0.00    -0.544 OA
ENDBRANCH   3  14
BRANCH   5  17
ATOM     17  C   LIG d   1       3.220 -10.458  -3.602  0.00  0.00     0.089 C 
ATOM     18  O   LIG d   1       2.502  -9.692  -3.002  0.00  0.00    -0.544 OA
ATOM     19  OXT LIG d   1       2.682 -11.439  -4.344  0.00  0.00    -0.544 OA
ENDBRANCH   5  17
TORSDOF 2
ENDMDL
