MODEL 1
REMARK VINA RESULT:      -7.0      0.000      0.000
REMARK  9 active torsions:
REMARK  status: ('A' for Active; 'I' for Inactive)
REMARK    1  A    between atoms: C_1  and  C_2 
REMARK    2  A    between atoms: C_2  and  C_3 
REMARK    3  A    between atoms: C_3  and  C_4 
REMARK    4  A    between atoms: C_4  and  O_6 
REMARK    5  A    between atoms: O_6  and  C_7 
REMARK    6  A    between atoms: C_11  and  C_45 
REMARK    7  A    between atoms: C_24  and  C_44 
REMARK    8  A    between atoms: C_32  and  C_43 
REMARK    9  A    between atoms: C_38  and  C_42 
ROOT
ATOM      1  C   LIG d   1       9.162   2.012  -5.335  0.00  0.00     0.103 C 
ATOM      2  H   LIG d   1       9.323   1.254  -6.102  0.00  0.00     0.073 H 
ATOM      3  C   LIG d   1      10.103   1.754  -4.157  0.00  0.00    -0.015 C 
ATOM      4  C   LIG d   1       9.874   2.817  -3.080  0.00  0.00    -0.044 C 
ATOM      5  C   LIG d   1      10.155   4.203  -3.663  0.00  0.00    -0.025 C 
ATOM      6  C   LIG d   1       9.216   4.460  -4.843  0.00  0.00    -0.032 C 
ATOM      7  H   LIG d   1       8.182   4.416  -4.501  0.00  0.00     0.031 H 
ATOM      8  C   LIG d   1       9.444   3.397  -5.919  0.00  0.00    -0.012 C 
ATOM      9  C   LIG d   1       9.501   5.846  -5.427  0.00  0.00    -0.049 C 
ATOM     10  C   LIG d   1       9.271   6.908  -4.351  0.00  0.00    -0.049 C 
ATOM     11  C   LIG d   1      10.210   6.656  -3.169  0.00  0.00    -0.034 C 
ATOM     12  H   LIG d   1      11.245   6.708  -3.506  0.00  0.00     0.031 H 
ATOM     13  C   LIG d   1       9.925   5.264  -2.585  0.00  0.00    -0.026 C 
ATOM     14  H   LIG d   1       8.883   5.221  -2.266  0.00  0.00     0.031 H 
ATOM     15  C   LIG d   1      10.809   4.964  -1.377  0.00  0.00     0.010 C 
ATOM     16  C   LIG d   1      10.788   6.124  -0.392  0.00  0.00     0.140 C 
ATOM     17  O   LIG d   1      10.576   5.968   0.787  0.00  0.00    -0.297 OA
ATOM     18  C   LIG d   1      11.052   7.476  -0.988  0.00  0.00     0.035 C 
ATOM     19  C   LIG d   1       9.975   7.681  -2.086  0.00  0.00    -0.023 C 
ATOM     20  H   LIG d   1       8.995   7.513  -1.639  0.00  0.00     0.031 H 
ATOM     21  C   LIG d   1      10.098   9.154  -2.441  0.00  0.00    -0.022 C 
ATOM     22  C   LIG d   1      10.566   9.847  -1.136  0.00  0.00     0.066 C 
ATOM     23  H   LIG d   1       9.836  10.571  -0.774  0.00  0.00     0.060 H 
ATOM     24  C   LIG d   1      10.794   8.682  -0.083  0.00  0.00     0.005 C 
ATOM     25  H   LIG d   1       9.970   8.525   0.611  0.00  0.00     0.034 H 
ATOM     26  C   LIG d   1      12.110   9.103   0.606  0.00  0.00     0.016 C 
ATOM     27  H   LIG d   1      12.892   8.368   0.416  0.00  0.00     0.035 H 
ATOM     28  C   LIG d   1      12.464  10.451  -0.047  0.00  0.00     0.173 C 
ATOM     29  O   LIG d   1      11.854  10.449  -1.377  0.00  0.00    -0.345 OA
ATOM     30  C   LIG d   1      13.976  10.568  -0.219  0.00  0.00     0.002 C 
ATOM     31  C   LIG d   1      14.311  11.933  -0.829  0.00  0.00    -0.043 C 
ATOM     32  C   LIG d   1      13.721  13.033   0.059  0.00  0.00    -0.020 C 
ATOM     33  H   LIG d   1      14.183  12.991   1.046  0.00  0.00     0.032 H 
ATOM     34  C   LIG d   1      12.212  12.821   0.191  0.00  0.00     0.053 C 
ATOM     35  O   LIG d   1      11.961  11.524   0.739  0.00  0.00    -0.348 OA
ATOM     36  H   LIG d   1       9.902   0.766  -3.741  0.00  0.00     0.030 H 
ATOM     37  H   LIG d   1      11.136   1.801  -4.500  0.00  0.00     0.030 H 
ATOM     38  H   LIG d   1       8.841   2.770  -2.737  0.00  0.00     0.027 H 
ATOM     39  H   LIG d   1      10.545   2.634  -2.241  0.00  0.00     0.027 H 
ATOM     40  H   LIG d   1      10.477   3.443  -6.262  0.00  0.00     0.030 H 
ATOM     41  H   LIG d   1       8.774   3.581  -6.760  0.00  0.00     0.030 H 
ATOM     42  H   LIG d   1      10.537   5.891  -5.766  0.00  0.00     0.027 H 
ATOM     43  H   LIG d   1       8.835   6.030  -6.269  0.00  0.00     0.027 H 
ATOM     44  H   LIG d   1       9.469   7.896  -4.768  0.00  0.00     0.027 H 
ATOM     45  H   LIG d   1       8.236   6.860  -4.010  0.00  0.00     0.027 H 
ATOM     46  H   LIG d   1      10.444   4.065  -0.879  0.00  0.00     0.035 H 
ATOM     47  H   LIG d   1      11.832   4.797  -1.713  0.00  0.00     0.035 H 
ATOM     48  H   LIG d   1      10.837   9.293  -3.230  0.00  0.00     0.029 H 
ATOM     49  H   LIG d   1       9.131   9.549  -2.754  0.00  0.00     0.029 H 
ATOM     50  H   LIG d   1      14.461  10.475   0.754  0.00  0.00     0.032 H 
ATOM     51  H   LIG d   1      14.330   9.777  -0.879  0.00  0.00     0.032 H 
ATOM     52  H   LIG d   1      15.393  12.051  -0.887  0.00  0.00     0.027 H 
ATOM     53  H   LIG d   1      13.881  12.002  -1.828  0.00  0.00     0.027 H 
ATOM     54  H   LIG d   1      11.793  13.581   0.849  0.00  0.00     0.056 H 
ATOM     55  H   LIG d   1      11.746  12.895  -0.793  0.00  0.00     0.056 H 
ENDROOT
BRANCH  26  56
ATOM     56  C   LIG d   1      11.893   9.275   2.111  0.00  0.00    -0.057 C 
ATOM     57  H   LIG d   1      11.096   8.609   2.443  0.00  0.00     0.023 H 
ATOM     58  H   LIG d   1      12.814   9.033   2.641  0.00  0.00     0.023 H 
ATOM     59  H   LIG d   1      11.614  10.308   2.321  0.00  0.00     0.023 H 
ENDBRANCH  26  56
BRANCH  18  60
ATOM     60  C   LIG d   1      12.459   7.538  -1.588  0.00  0.00    -0.052 C 
ATOM     61  H   LIG d   1      13.139   8.001  -0.873  0.00  0.00     0.024 H 
ATOM     62  H   LIG d   1      12.802   6.528  -1.814  0.00  0.00     0.024 H 
ATOM     63  H   LIG d   1      12.437   8.127  -2.504  0.00  0.00     0.024 H 
ENDBRANCH  18  60
BRANCH  32  64
ATOM     64  C   LIG d   1      13.992  14.400  -0.573  0.00  0.00    -0.060 C 
ATOM     65  H   LIG d   1      14.957  14.774  -0.231  0.00  0.00     0.023 H 
ATOM     66  H   LIG d   1      14.005  14.303  -1.659  0.00  0.00     0.023 H 
ATOM     67  H   LIG d   1      13.208  15.099  -0.280  0.00  0.00     0.023 H 
ENDBRANCH  32  64
BRANCH   5  68
ATOM     68  C   LIG d   1      11.607   4.271  -4.142  0.00  0.00    -0.059 C 
ATOM     69  H   LIG d   1      11.702   3.737  -5.088  0.00  0.00     0.024 H 
ATOM     70  H   LIG d   1      11.895   5.312  -4.283  0.00  0.00     0.024 H 
ATOM     71  H   LIG d   1      12.257   3.810  -3.399  0.00  0.00     0.024 H 
ENDBRANCH   5  68
BRANCH   1  72
ATOM     72  O   LIG d   1       7.806   1.952  -4.885  0.00  0.00    -0.461 OA
BRANCH  72  73
ATOM     73  C   LIG d   1       7.266   0.732  -4.739  0.00  0.00     0.307 C 
ATOM     74  O   LIG d   1       7.257  -0.040  -5.669  0.00  0.00    -0.251 OA
BRANCH  73  75
ATOM     75  C   LIG d   1       6.671   0.325  -3.416  0.00  0.00     0.045 C 
ATOM     76  H   LIG d   1       7.452   0.305  -2.657  0.00  0.00     0.038 H 
ATOM     77  H   LIG d   1       6.228  -0.667  -3.507  0.00  0.00     0.038 H 
BRANCH  75  78
ATOM     78  C   LIG d   1       5.592   1.331  -3.011  0.00  0.00    -0.046 C 
ATOM     79  H   LIG d   1       4.970   1.564  -3.875  0.00  0.00     0.027 H 
ATOM     80  H   LIG d   1       6.064   2.243  -2.646  0.00  0.00     0.027 H 
BRANCH  78  81
ATOM     81  C   LIG d   1       4.723   0.729  -1.905  0.00  0.00    -0.065 C 
ATOM     82  H   LIG d   1       4.697  -0.356  -2.014  0.00  0.00     0.023 H 
ATOM     83  H   LIG d   1       5.143   0.985  -0.932  0.00  0.00     0.023 H 
ATOM     84  H   LIG d   1       3.711   1.127  -1.981  0.00  0.00     0.023 H 
ENDBRANCH  78  81
ENDBRANCH  75  78
ENDBRANCH  73  75
ENDBRANCH  72  73
ENDBRANCH   1  72
TORSDOF 9
ENDMDL
MODEL 2
REMARK VINA RESULT:      -6.5      4.285      6.389
REMARK  9 active torsions:
REMARK  status: ('A' for Active; 'I' for Inactive)
REMARK    1  A    between atoms: C_1  and  C_2 
REMARK    2  A    between atoms: C_2  and  C_3 
REMARK    3  A    between atoms: C_3  and  C_4 
REMARK    4  A    between atoms: C_4  and  O_6 
REMARK    5  A    between atoms: O_6  and  C_7 
REMARK    6  A    between atoms: C_11  and  C_45 
REMARK    7  A    between atoms: C_24  and  C_44 
REMARK    8  A    between atoms: C_32  and  C_43 
REMARK    9  A    between atoms: C_38  and  C_42 
ROOT
ATOM      1  C   LIG d   1       5.898  -1.951  -4.665  0.00  0.00     0.103 C 
ATOM      2  H   LIG d   1       5.656  -3.014  -4.657  0.00  0.00     0.073 H 
ATOM      3  C   LIG d   1       6.883  -1.644  -3.536  0.00  0.00    -0.015 C 
ATOM      4  C   LIG d   1       7.221  -0.152  -3.547  0.00  0.00    -0.044 C 
ATOM      5  C   LIG d   1       7.855   0.218  -4.890  0.00  0.00    -0.025 C 
ATOM      6  C   LIG d   1       6.871  -0.092  -6.020  0.00  0.00    -0.032 C 
ATOM      7  H   LIG d   1       5.960   0.490  -5.879  0.00  0.00     0.031 H 
ATOM      8  C   LIG d   1       6.532  -1.584  -6.008  0.00  0.00    -0.012 C 
ATOM      9  C   LIG d   1       7.508   0.275  -7.362  0.00  0.00    -0.049 C 
ATOM     10  C   LIG d   1       7.844   1.767  -7.375  0.00  0.00    -0.049 C 
ATOM     11  C   LIG d   1       8.829   2.082  -6.247  0.00  0.00    -0.034 C 
ATOM     12  H   LIG d   1       9.745   1.508  -6.390  0.00  0.00     0.031 H 
ATOM     13  C   LIG d   1       8.191   1.711  -4.899  0.00  0.00    -0.026 C 
ATOM     14  H   LIG d   1       7.269   2.280  -4.776  0.00  0.00     0.031 H 
ATOM     15  C   LIG d   1       9.114   2.033  -3.727  0.00  0.00     0.010 C 
ATOM     16  C   LIG d   1       9.662   3.448  -3.844  0.00  0.00     0.140 C 
ATOM     17  O   LIG d   1       9.615   4.238  -2.931  0.00  0.00    -0.297 OA
ATOM     18  C   LIG d   1      10.265   3.793  -5.174  0.00  0.00     0.035 C 
ATOM     19  C   LIG d   1       9.150   3.557  -6.228  0.00  0.00    -0.023 C 
ATOM     20  H   LIG d   1       8.265   4.113  -5.920  0.00  0.00     0.031 H 
ATOM     21  C   LIG d   1       9.706   4.195  -7.491  0.00  0.00    -0.022 C 
ATOM     22  C   LIG d   1      10.601   5.359  -6.995  0.00  0.00     0.066 C 
ATOM     23  H   LIG d   1      10.237   6.328  -7.338  0.00  0.00     0.060 H 
ATOM     24  C   LIG d   1      10.595   5.268  -5.411  0.00  0.00     0.005 C 
ATOM     25  H   LIG d   1       9.900   5.945  -4.916  0.00  0.00     0.034 H 
ATOM     26  C   LIG d   1      12.073   5.531  -5.052  0.00  0.00     0.016 C 
ATOM     27  H   LIG d   1      12.512   4.655  -4.574  0.00  0.00     0.035 H 
ATOM     28  C   LIG d   1      12.749   5.802  -6.408  0.00  0.00     0.173 C 
ATOM     29  O   LIG d   1      11.955   5.107  -7.422  0.00  0.00    -0.345 OA
ATOM     30  C   LIG d   1      14.156   5.211  -6.420  0.00  0.00     0.002 C 
ATOM     31  C   LIG d   1      14.827   5.529  -7.760  0.00  0.00    -0.043 C 
ATOM     32  C   LIG d   1      14.812   7.045  -7.977  0.00  0.00    -0.020 C 
ATOM     33  H   LIG d   1      15.394   7.531  -7.192  0.00  0.00     0.032 H 
ATOM     34  C   LIG d   1      13.368   7.548  -7.927  0.00  0.00     0.053 C 
ATOM     35  O   LIG d   1      12.788   7.200  -6.667  0.00  0.00    -0.348 OA
ATOM     36  H   LIG d   1       6.432  -1.907  -2.579  0.00  0.00     0.030 H 
ATOM     37  H   LIG d   1       7.794  -2.224  -3.680  0.00  0.00     0.030 H 
ATOM     38  H   LIG d   1       6.310   0.429  -3.403  0.00  0.00     0.027 H 
ATOM     39  H   LIG d   1       7.923   0.068  -2.743  0.00  0.00     0.027 H 
ATOM     40  H   LIG d   1       7.443  -2.164  -6.151  0.00  0.00     0.030 H 
ATOM     41  H   LIG d   1       5.830  -1.804  -6.814  0.00  0.00     0.030 H 
ATOM     42  H   LIG d   1       8.421  -0.304  -7.502  0.00  0.00     0.027 H 
ATOM     43  H   LIG d   1       6.810   0.053  -8.169  0.00  0.00     0.027 H 
ATOM     44  H   LIG d   1       8.293   2.030  -8.333  0.00  0.00     0.027 H 
ATOM     45  H   LIG d   1       6.931   2.345  -7.231  0.00  0.00     0.027 H 
ATOM     46  H   LIG d   1       8.555   1.942  -2.795  0.00  0.00     0.035 H 
ATOM     47  H   LIG d   1       9.943   1.327  -3.717  0.00  0.00     0.035 H 
ATOM     48  H   LIG d   1      10.301   3.472  -8.050  0.00  0.00     0.029 H 
ATOM     49  H   LIG d   1       8.894   4.578  -8.110  0.00  0.00     0.029 H 
ATOM     50  H   LIG d   1      14.740   5.645  -5.608  0.00  0.00     0.032 H 
ATOM     51  H   LIG d   1      14.098   4.130  -6.288  0.00  0.00     0.032 H 
ATOM     52  H   LIG d   1      15.857   5.172  -7.746  0.00  0.00     0.027 H 
ATOM     53  H   LIG d   1      14.281   5.040  -8.567  0.00  0.00     0.027 H 
ATOM     54  H   LIG d   1      13.355   8.631  -8.046  0.00  0.00     0.056 H 
ATOM     55  H   LIG d   1      12.794   7.087  -8.731  0.00  0.00     0.056 H 
ENDROOT
BRANCH  26  56
ATOM     56  C   LIG d   1      12.192   6.753  -4.139  0.00  0.00    -0.057 C 
ATOM     57  H   LIG d   1      11.402   7.465  -4.379  0.00  0.00     0.023 H 
ATOM     58  H   LIG d   1      12.097   6.440  -3.099  0.00  0.00     0.023 H 
ATOM     59  H   LIG d   1      13.164   7.225  -4.288  0.00  0.00     0.023 H 
ENDBRANCH  26  56
BRANCH  18  60
ATOM     60  C   LIG d   1      11.482   2.911  -5.462  0.00  0.00    -0.052 C 
ATOM     61  H   LIG d   1      11.318   1.918  -5.043  0.00  0.00     0.024 H 
ATOM     62  H   LIG d   1      11.626   2.831  -6.540  0.00  0.00     0.024 H 
ATOM     63  H   LIG d   1      12.367   3.355  -5.009  0.00  0.00     0.024 H 
ENDBRANCH  18  60
BRANCH  32  64
ATOM     64  C   LIG d   1      15.421   7.372  -9.342  0.00  0.00    -0.060 C 
ATOM     65  H   LIG d   1      15.485   6.462  -9.938  0.00  0.00     0.023 H 
ATOM     66  H   LIG d   1      14.793   8.100  -9.855  0.00  0.00     0.023 H 
ATOM     67  H   LIG d   1      16.420   7.787  -9.204  0.00  0.00     0.023 H 
ENDBRANCH  32  64
BRANCH   5  68
ATOM     68  C   LIG d   1       9.136  -0.594  -5.092  0.00  0.00    -0.059 C 
ATOM     69  H   LIG d   1       9.866   0.007  -5.633  0.00  0.00     0.024 H 
ATOM     70  H   LIG d   1       9.544  -0.875  -4.121  0.00  0.00     0.024 H 
ATOM     71  H   LIG d   1       8.909  -1.493  -5.665  0.00  0.00     0.024 H 
ENDBRANCH   5  68
BRANCH   1  72
ATOM     72  O   LIG d   1       4.704  -1.190  -4.478  0.00  0.00    -0.461 OA
BRANCH  72  73
ATOM     73  C   LIG d   1       3.847  -1.620  -3.539  0.00  0.00     0.307 C 
ATOM     74  O   LIG d   1       3.811  -2.792  -3.246  0.00  0.00    -0.251 OA
BRANCH  73  75
ATOM     75  C   LIG d   1       2.931  -0.643  -2.849  0.00  0.00     0.045 C 
ATOM     76  H   LIG d   1       2.777  -0.955  -1.817  0.00  0.00     0.038 H 
ATOM     77  H   LIG d   1       1.972  -0.616  -3.367  0.00  0.00     0.038 H 
BRANCH  75  78
ATOM     78  C   LIG d   1       3.562   0.751  -2.871  0.00  0.00    -0.046 C 
ATOM     79  H   LIG d   1       2.776   1.506  -2.832  0.00  0.00     0.027 H 
ATOM     80  H   LIG d   1       4.138   0.875  -3.787  0.00  0.00     0.027 H 
BRANCH  78  81
ATOM     81  C   LIG d   1       4.484   0.912  -1.661  0.00  0.00    -0.065 C 
ATOM     82  H   LIG d   1       4.698   1.969  -1.505  0.00  0.00     0.023 H 
ATOM     83  H   LIG d   1       3.996   0.506  -0.774  0.00  0.00     0.023 H 
ATOM     84  H   LIG d   1       5.415   0.375  -1.841  0.00  0.00     0.023 H 
ENDBRANCH  78  81
ENDBRANCH  75  78
ENDBRANCH  73  75
ENDBRANCH  72  73
ENDBRANCH   1  72
TORSDOF 9
ENDMDL
MODEL 3
REMARK VINA RESULT:      -6.3      4.817      6.842
REMARK  9 active torsions:
REMARK  status: ('A' for Active; 'I' for Inactive)
REMARK    1  A    between atoms: C_1  and  C_2 
REMARK    2  A    between atoms: C_2  and  C_3 
REMARK    3  A    between atoms: C_3  and  C_4 
REMARK    4  A    between atoms: C_4  and  O_6 
REMARK    5  A    between atoms: O_6  and  C_7 
REMARK    6  A    between atoms: C_11  and  C_45 
REMARK    7  A    between atoms: C_24  and  C_44 
REMARK    8  A    between atoms: C_32  and  C_43 
REMARK    9  A    between atoms: C_38  and  C_42 
ROOT
ATOM      1  C   LIG d   1       8.656   1.183  -4.266  0.00  0.00     0.103 C 
ATOM      2  H   LIG d   1       8.845   0.208  -3.815  0.00  0.00     0.073 H 
ATOM      3  C   LIG d   1       9.372   2.266  -3.459  0.00  0.00    -0.015 C 
ATOM      4  C   LIG d   1       9.104   3.634  -4.092  0.00  0.00    -0.044 C 
ATOM      5  C   LIG d   1       9.626   3.642  -5.530  0.00  0.00    -0.025 C 
ATOM      6  C   LIG d   1       8.911   2.556  -6.337  0.00  0.00    -0.032 C 
ATOM      7  H   LIG d   1       7.840   2.752  -6.342  0.00  0.00     0.031 H 
ATOM      8  C   LIG d   1       9.179   1.189  -5.704  0.00  0.00    -0.012 C 
ATOM      9  C   LIG d   1       9.437   2.563  -7.774  0.00  0.00    -0.049 C 
ATOM     10  C   LIG d   1       9.168   3.929  -8.408  0.00  0.00    -0.049 C 
ATOM     11  C   LIG d   1       9.881   5.018  -7.605  0.00  0.00    -0.034 C 
ATOM     12  H   LIG d   1      10.955   4.831  -7.606  0.00  0.00     0.031 H 
ATOM     13  C   LIG d   1       9.356   5.009  -6.161  0.00  0.00    -0.026 C 
ATOM     14  H   LIG d   1       8.279   5.184  -6.176  0.00  0.00     0.031 H 
ATOM     15  C   LIG d   1      10.006   6.100  -5.313  0.00  0.00     0.010 C 
ATOM     16  C   LIG d   1       9.967   7.439  -6.035  0.00  0.00     0.140 C 
ATOM     17  O   LIG d   1       9.562   8.447  -5.507  0.00  0.00    -0.297 OA
ATOM     18  C   LIG d   1      10.470   7.421  -7.449  0.00  0.00     0.035 C 
ATOM     19  C   LIG d   1       9.602   6.377  -8.201  0.00  0.00    -0.023 C 
ATOM     20  H   LIG d   1       8.553   6.628  -8.046  0.00  0.00     0.031 H 
ATOM     21  C   LIG d   1       9.943   6.611  -9.664  0.00  0.00    -0.022 C 
ATOM     22  C   LIG d   1      10.283   8.120  -9.763  0.00  0.00     0.066 C 
ATOM     23  H   LIG d   1       9.593   8.652 -10.419  0.00  0.00     0.060 H 
ATOM     24  C   LIG d   1      10.216   8.679  -8.279  0.00  0.00     0.005 C 
ATOM     25  H   LIG d   1       9.283   9.179  -8.021  0.00  0.00     0.034 H 
ATOM     26  C   LIG d   1      11.450   9.604  -8.210  0.00  0.00     0.016 C 
ATOM     27  H   LIG d   1      12.164   9.232  -7.475  0.00  0.00     0.035 H 
ATOM     28  C   LIG d   1      12.050   9.540  -9.626  0.00  0.00     0.173 C 
ATOM     29  O   LIG d   1      11.652   8.252 -10.195  0.00  0.00    -0.345 OA
ATOM     30  C   LIG d   1      13.574   9.576  -9.552  0.00  0.00     0.002 C 
ATOM     31  C   LIG d   1      14.150   9.556 -10.971  0.00  0.00    -0.043 C 
ATOM     32  C   LIG d   1      13.560  10.727 -11.764  0.00  0.00    -0.020 C 
ATOM     33  H   LIG d   1      13.859  11.668 -11.300  0.00  0.00     0.032 H 
ATOM     34  C   LIG d   1      12.034  10.619 -11.765  0.00  0.00     0.053 C 
ATOM     35  O   LIG d   1      11.558  10.615 -10.416  0.00  0.00    -0.348 OA
ATOM     36  H   LIG d   1       9.000   2.262  -2.434  0.00  0.00     0.030 H 
ATOM     37  H   LIG d   1      10.444   2.071  -3.458  0.00  0.00     0.030 H 
ATOM     38  H   LIG d   1       8.032   3.830  -4.093  0.00  0.00     0.027 H 
ATOM     39  H   LIG d   1       9.614   4.406  -3.517  0.00  0.00     0.027 H 
ATOM     40  H   LIG d   1      10.250   0.993  -5.702  0.00  0.00     0.030 H 
ATOM     41  H   LIG d   1       8.669   0.416  -6.280  0.00  0.00     0.030 H 
ATOM     42  H   LIG d   1      10.511   2.371  -7.770  0.00  0.00     0.027 H 
ATOM     43  H   LIG d   1       8.932   1.789  -8.351  0.00  0.00     0.027 H 
ATOM     44  H   LIG d   1       9.537   3.933  -9.433  0.00  0.00     0.027 H 
ATOM     45  H   LIG d   1       8.095   4.122  -8.409  0.00  0.00     0.027 H 
ATOM     46  H   LIG d   1       9.470   6.187  -4.368  0.00  0.00     0.035 H 
ATOM     47  H   LIG d   1      11.043   5.830  -5.114  0.00  0.00     0.035 H 
ATOM     48  H   LIG d   1      10.805   6.010  -9.953  0.00  0.00     0.029 H 
ATOM     49  H   LIG d   1       9.087   6.374 -10.295  0.00  0.00     0.029 H 
ATOM     50  H   LIG d   1      13.892  10.486  -9.042  0.00  0.00     0.032 H 
ATOM     51  H   LIG d   1      13.932   8.706  -9.001  0.00  0.00     0.032 H 
ATOM     52  H   LIG d   1      15.234   9.655 -10.926  0.00  0.00     0.027 H 
ATOM     53  H   LIG d   1      13.888   8.618 -11.459  0.00  0.00     0.027 H 
ATOM     54  H   LIG d   1      11.609  11.468 -12.298  0.00  0.00     0.056 H 
ATOM     55  H   LIG d   1      11.735   9.693 -12.258  0.00  0.00     0.056 H 
ENDROOT
BRANCH  26  56
ATOM     56  C   LIG d   1      11.028  11.035  -7.869  0.00  0.00    -0.057 C 
ATOM     57  H   LIG d   1      10.764  11.564  -8.785  0.00  0.00     0.023 H 
ATOM     58  H   LIG d   1      10.167  11.010  -7.201  0.00  0.00     0.023 H 
ATOM     59  H   LIG d   1      11.854  11.549  -7.377  0.00  0.00     0.023 H 
ENDBRANCH  26  56
BRANCH  18  60
ATOM     60  C   LIG d   1      11.950   7.031  -7.492  0.00  0.00    -0.052 C 
ATOM     61  H   LIG d   1      12.105   6.281  -8.268  0.00  0.00     0.024 H 
ATOM     62  H   LIG d   1      12.551   7.913  -7.712  0.00  0.00     0.024 H 
ATOM     63  H   LIG d   1      12.245   6.622  -6.526  0.00  0.00     0.024 H 
ENDBRANCH  18  60
BRANCH  32  64
ATOM     64  C   LIG d   1      14.077  10.681 -13.203  0.00  0.00    -0.060 C 
ATOM     65  H   LIG d   1      14.251  11.696 -13.559  0.00  0.00     0.023 H 
ATOM     66  H   LIG d   1      15.011  10.119 -13.237  0.00  0.00     0.023 H 
ATOM     67  H   LIG d   1      13.337  10.195 -13.840  0.00  0.00     0.023 H 
ENDBRANCH  32  64
BRANCH   5  68
ATOM     68  C   LIG d   1      11.131   3.370  -5.529  0.00  0.00    -0.059 C 
ATOM     69  H   LIG d   1      11.306   2.294  -5.534  0.00  0.00     0.024 H 
ATOM     70  H   LIG d   1      11.581   3.815  -6.415  0.00  0.00     0.024 H 
ATOM     71  H   LIG d   1      11.578   3.806  -4.635  0.00  0.00     0.024 H 
ENDBRANCH   5  68
BRANCH   1  72
ATOM     72  O   LIG d   1       7.250   1.440  -4.269  0.00  0.00    -0.461 OA
BRANCH  72  73
ATOM     73  C   LIG d   1       6.502   0.747  -3.397  0.00  0.00     0.307 C 
ATOM     74  O   LIG d   1       6.754  -0.412  -3.172  0.00  0.00    -0.251 OA
BRANCH  73  75
ATOM     75  C   LIG d   1       5.347   1.417  -2.698  0.00  0.00     0.045 C 
ATOM     76  H   LIG d   1       4.692   1.878  -3.437  0.00  0.00     0.038 H 
ATOM     77  H   LIG d   1       5.725   2.182  -2.021  0.00  0.00     0.038 H 
BRANCH  75  78
ATOM     78  C   LIG d   1       4.559   0.374  -1.901  0.00  0.00    -0.046 C 
ATOM     79  H   LIG d   1       4.348   0.763  -0.905  0.00  0.00     0.027 H 
ATOM     80  H   LIG d   1       5.147  -0.539  -1.816  0.00  0.00     0.027 H 
BRANCH  78  81
ATOM     81  C   LIG d   1       3.243   0.070  -2.620  0.00  0.00    -0.065 C 
ATOM     82  H   LIG d   1       2.715   1.003  -2.820  0.00  0.00     0.023 H 
ATOM     83  H   LIG d   1       3.452  -0.438  -3.561  0.00  0.00     0.023 H 
ATOM     84  H   LIG d   1       2.626  -0.570  -1.990  0.00  0.00     0.023 H 
ENDBRANCH  78  81
ENDBRANCH  75  78
ENDBRANCH  73  75
ENDBRANCH  72  73
ENDBRANCH   1  72
TORSDOF 9
ENDMDL
MODEL 4
REMARK VINA RESULT:      -6.3      8.816     15.917
REMARK  9 active torsions:
REMARK  status: ('A' for Active; 'I' for Inactive)
REMARK    1  A    between atoms: C_1  and  C_2 
REMARK    2  A    between atoms: C_2  and  C_3 
REMARK    3  A    between atoms: C_3  and  C_4 
REMARK    4  A    between atoms: C_4  and  O_6 
REMARK    5  A    between atoms: O_6  and  C_7 
REMARK    6  A    between atoms: C_11  and  C_45 
REMARK    7  A    between atoms: C_24  and  C_44 
REMARK    8  A    between atoms: C_32  and  C_43 
REMARK    9  A    between atoms: C_38  and  C_42 
ROOT
ATOM      1  C   LIG d   1       6.849  -0.164  -4.625  0.00  0.00     0.103 C 
ATOM      2  H   LIG d   1       6.987   0.887  -4.884  0.00  0.00     0.073 H 
ATOM      3  C   LIG d   1       5.757  -0.769  -5.507  0.00  0.00    -0.015 C 
ATOM      4  C   LIG d   1       5.564  -2.242  -5.141  0.00  0.00    -0.044 C 
ATOM      5  C   LIG d   1       6.875  -2.999  -5.364  0.00  0.00    -0.025 C 
ATOM      6  C   LIG d   1       7.969  -2.392  -4.483  0.00  0.00    -0.032 C 
ATOM      7  H   LIG d   1       7.679  -2.474  -3.436  0.00  0.00     0.031 H 
ATOM      8  C   LIG d   1       8.161  -0.919  -4.848  0.00  0.00    -0.012 C 
ATOM      9  C   LIG d   1       9.280  -3.148  -4.710  0.00  0.00    -0.049 C 
ATOM     10  C   LIG d   1       9.088  -4.620  -4.342  0.00  0.00    -0.049 C 
ATOM     11  C   LIG d   1       7.996  -5.232  -5.222  0.00  0.00    -0.034 C 
ATOM     12  H   LIG d   1       8.286  -5.161  -6.270  0.00  0.00     0.031 H 
ATOM     13  C   LIG d   1       6.680  -4.471  -4.996  0.00  0.00    -0.026 C 
ATOM     14  H   LIG d   1       6.409  -4.538  -3.942  0.00  0.00     0.031 H 
ATOM     15  C   LIG d   1       5.537  -5.057  -5.823  0.00  0.00     0.010 C 
ATOM     16  C   LIG d   1       5.476  -6.569  -5.663  0.00  0.00     0.140 C 
ATOM     17  O   LIG d   1       4.452  -7.149  -5.390  0.00  0.00    -0.297 OA
ATOM     18  C   LIG d   1       6.776  -7.289  -5.872  0.00  0.00     0.035 C 
ATOM     19  C   LIG d   1       7.775  -6.679  -4.852  0.00  0.00    -0.023 C 
ATOM     20  H   LIG d   1       7.326  -6.732  -3.860  0.00  0.00     0.031 H 
ATOM     21  C   LIG d   1       8.960  -7.629  -4.896  0.00  0.00    -0.022 C 
ATOM     22  C   LIG d   1       8.356  -9.015  -5.236  0.00  0.00     0.066 C 
ATOM     23  H   LIG d   1       8.522  -9.739  -4.438  0.00  0.00     0.060 H 
ATOM     24  C   LIG d   1       6.807  -8.766  -5.477  0.00  0.00     0.005 C 
ATOM     25  H   LIG d   1       6.169  -8.993  -4.624  0.00  0.00     0.034 H 
ATOM     26  C   LIG d   1       6.514  -9.639  -6.717  0.00  0.00     0.016 C 
ATOM     27  H   LIG d   1       6.206  -9.017  -7.557  0.00  0.00     0.035 H 
ATOM     28  C   LIG d   1       7.857 -10.329  -7.019  0.00  0.00     0.173 C 
ATOM     29  O   LIG d   1       8.907  -9.458  -6.492  0.00  0.00    -0.345 OA
ATOM     30  C   LIG d   1       8.054 -10.454  -8.527  0.00  0.00     0.002 C 
ATOM     31  C   LIG d   1       9.373 -11.182  -8.806  0.00  0.00    -0.043 C 
ATOM     32  C   LIG d   1       9.355 -12.536  -8.089  0.00  0.00    -0.020 C 
ATOM     33  H   LIG d   1       8.547 -13.150  -8.491  0.00  0.00     0.032 H 
ATOM     34  C   LIG d   1       9.130 -12.313  -6.592  0.00  0.00     0.053 C 
ATOM     35  O   LIG d   1       7.901 -11.608  -6.397  0.00  0.00    -0.348 OA
ATOM     36  H   LIG d   1       4.822  -0.230  -5.349  0.00  0.00     0.030 H 
ATOM     37  H   LIG d   1       6.048  -0.689  -6.554  0.00  0.00     0.030 H 
ATOM     38  H   LIG d   1       5.271  -2.321  -4.095  0.00  0.00     0.027 H 
ATOM     39  H   LIG d   1       4.785  -2.673  -5.770  0.00  0.00     0.027 H 
ATOM     40  H   LIG d   1       8.452  -0.839  -5.895  0.00  0.00     0.030 H 
ATOM     41  H   LIG d   1       8.941  -0.487  -4.220  0.00  0.00     0.030 H 
ATOM     42  H   LIG d   1       9.568  -3.071  -5.758  0.00  0.00     0.027 H 
ATOM     43  H   LIG d   1      10.062  -2.716  -4.085  0.00  0.00     0.027 H 
ATOM     44  H   LIG d   1      10.023  -5.159  -4.498  0.00  0.00     0.027 H 
ATOM     45  H   LIG d   1       8.797  -4.697  -3.294  0.00  0.00     0.027 H 
ATOM     46  H   LIG d   1       4.594  -4.622  -5.489  0.00  0.00     0.035 H 
ATOM     47  H   LIG d   1       5.692  -4.813  -6.873  0.00  0.00     0.035 H 
ATOM     48  H   LIG d   1       9.663  -7.322  -5.672  0.00  0.00     0.029 H 
ATOM     49  H   LIG d   1       9.457  -7.659  -3.926  0.00  0.00     0.029 H 
ATOM     50  H   LIG d   1       7.227 -11.021  -8.956  0.00  0.00     0.032 H 
ATOM     51  H   LIG d   1       8.085  -9.460  -8.973  0.00  0.00     0.032 H 
ATOM     52  H   LIG d   1       9.484 -11.338  -9.879  0.00  0.00     0.027 H 
ATOM     53  H   LIG d   1      10.205 -10.585  -8.434  0.00  0.00     0.027 H 
ATOM     54  H   LIG d   1       9.082 -13.275  -6.083  0.00  0.00     0.056 H 
ATOM     55  H   LIG d   1       9.954 -11.726  -6.184  0.00  0.00     0.056 H 
ENDROOT
BRANCH  26  56
ATOM     56  C   LIG d   1       5.436 -10.677  -6.396  0.00  0.00    -0.057 C 
ATOM     57  H   LIG d   1       4.686 -10.232  -5.742  0.00  0.00     0.023 H 
ATOM     58  H   LIG d   1       4.963 -11.006  -7.322  0.00  0.00     0.023 H 
ATOM     59  H   LIG d   1       5.893 -11.532  -5.898  0.00  0.00     0.023 H 
ENDBRANCH  26  56
BRANCH  18  60
ATOM     60  C   LIG d   1       7.277  -7.098  -7.305  0.00  0.00    -0.052 C 
ATOM     61  H   LIG d   1       7.889  -7.952  -7.593  0.00  0.00     0.024 H 
ATOM     62  H   LIG d   1       6.425  -7.017  -7.980  0.00  0.00     0.024 H 
ATOM     63  H   LIG d   1       7.873  -6.187  -7.362  0.00  0.00     0.024 H 
ENDBRANCH  18  60
BRANCH  32  64
ATOM     64  C   LIG d   1      10.692 -13.247  -8.306  0.00  0.00    -0.060 C 
ATOM     65  H   LIG d   1      10.670 -14.220  -7.816  0.00  0.00     0.023 H 
ATOM     66  H   LIG d   1      10.865 -13.381  -9.374  0.00  0.00     0.023 H 
ATOM     67  H   LIG d   1      11.497 -12.645  -7.881  0.00  0.00     0.023 H 
ENDBRANCH  32  64
BRANCH   5  68
ATOM     68  C   LIG d   1       7.284  -2.890  -6.834  0.00  0.00    -0.059 C 
ATOM     69  H   LIG d   1       6.508  -3.330  -7.461  0.00  0.00     0.024 H 
ATOM     70  H   LIG d   1       7.414  -1.842  -7.098  0.00  0.00     0.024 H 
ATOM     71  H   LIG d   1       8.222  -3.424  -6.990  0.00  0.00     0.024 H 
ENDBRANCH   5  68
BRANCH   1  72
ATOM     72  O   LIG d   1       6.467  -0.269  -3.252  0.00  0.00    -0.461 OA
BRANCH  72  73
ATOM     73  C   LIG d   1       5.679   0.701  -2.763  0.00  0.00     0.307 C 
ATOM     74  O   LIG d   1       5.835   1.844  -3.121  0.00  0.00    -0.251 OA
BRANCH  73  75
ATOM     75  C   LIG d   1       4.600   0.364  -1.766  0.00  0.00     0.045 C 
ATOM     76  H   LIG d   1       3.777   1.072  -1.868  0.00  0.00     0.038 H 
ATOM     77  H   LIG d   1       5.006   0.423  -0.757  0.00  0.00     0.038 H 
BRANCH  75  78
ATOM     78  C   LIG d   1       4.087  -1.053  -2.028  0.00  0.00    -0.046 C 
ATOM     79  H   LIG d   1       3.807  -1.518  -1.083  0.00  0.00     0.027 H 
ATOM     80  H   LIG d   1       4.871  -1.642  -2.503  0.00  0.00     0.027 H 
BRANCH  78  81
ATOM     81  C   LIG d   1       2.866  -0.992  -2.949  0.00  0.00    -0.065 C 
ATOM     82  H   LIG d   1       2.770   0.015  -3.356  0.00  0.00     0.023 H 
ATOM     83  H   LIG d   1       2.990  -1.703  -3.766  0.00  0.00     0.023 H 
ATOM     84  H   LIG d   1       1.971  -1.242  -2.381  0.00  0.00     0.023 H 
ENDBRANCH  78  81
ENDBRANCH  75  78
ENDBRANCH  73  75
ENDBRANCH  72  73
ENDBRANCH   1  72
TORSDOF 9
ENDMDL
MODEL 5
REMARK VINA RESULT:      -6.3      3.443     11.611
REMARK  9 active torsions:
REMARK  status: ('A' for Active; 'I' for Inactive)
REMARK    1  A    between atoms: C_1  and  C_2 
REMARK    2  A    between atoms: C_2  and  C_3 
REMARK    3  A    between atoms: C_3  and  C_4 
REMARK    4  A    between atoms: C_4  and  O_6 
REMARK    5  A    between atoms: O_6  and  C_7 
REMARK    6  A    between atoms: C_11  and  C_45 
REMARK    7  A    between atoms: C_24  and  C_44 
REMARK    8  A    between atoms: C_32  and  C_43 
REMARK    9  A    between atoms: C_38  and  C_42 
ROOT
ATOM      1  C   LIG d   1      11.755   5.034  -4.587  0.00  0.00     0.103 C 
ATOM      2  H   LIG d   1      12.299   5.857  -5.052  0.00  0.00     0.073 H 
ATOM      3  C   LIG d   1      10.266   5.376  -4.527  0.00  0.00    -0.015 C 
ATOM      4  C   LIG d   1       9.504   4.220  -3.874  0.00  0.00    -0.044 C 
ATOM      5  C   LIG d   1       9.700   2.947  -4.699  0.00  0.00    -0.025 C 
ATOM      6  C   LIG d   1      11.191   2.607  -4.762  0.00  0.00    -0.032 C 
ATOM      7  H   LIG d   1      11.569   2.444  -3.753  0.00  0.00     0.031 H 
ATOM      8  C   LIG d   1      11.953   3.762  -5.414  0.00  0.00    -0.012 C 
ATOM      9  C   LIG d   1      11.386   1.335  -5.591  0.00  0.00    -0.049 C 
ATOM     10  C   LIG d   1      10.627   0.180  -4.937  0.00  0.00    -0.049 C 
ATOM     11  C   LIG d   1       9.135   0.515  -4.873  0.00  0.00    -0.034 C 
ATOM     12  H   LIG d   1       8.751   0.670  -5.882  0.00  0.00     0.031 H 
ATOM     13  C   LIG d   1       8.939   1.794  -4.043  0.00  0.00    -0.026 C 
ATOM     14  H   LIG d   1       9.341   1.631  -3.043  0.00  0.00     0.031 H 
ATOM     15  C   LIG d   1       7.464   2.165  -3.913  0.00  0.00     0.010 C 
ATOM     16  C   LIG d   1       6.639   0.957  -3.493  0.00  0.00     0.140 C 
ATOM     17  O   LIG d   1       5.860   0.995  -2.571  0.00  0.00    -0.297 OA
ATOM     18  C   LIG d   1       6.859  -0.284  -4.307  0.00  0.00     0.035 C 
ATOM     19  C   LIG d   1       8.374  -0.604  -4.205  0.00  0.00    -0.023 C 
ATOM     20  H   LIG d   1       8.645  -0.642  -3.150  0.00  0.00     0.031 H 
ATOM     21  C   LIG d   1       8.487  -2.005  -4.783  0.00  0.00    -0.022 C 
ATOM     22  C   LIG d   1       7.136  -2.689  -4.453  0.00  0.00     0.066 C 
ATOM     23  H   LIG d   1       7.264  -3.553  -3.802  0.00  0.00     0.060 H 
ATOM     24  C   LIG d   1       6.241  -1.574  -3.765  0.00  0.00     0.005 C 
ATOM     25  H   LIG d   1       6.222  -1.611  -2.676  0.00  0.00     0.034 H 
ATOM     26  C   LIG d   1       4.860  -1.800  -4.415  0.00  0.00     0.016 C 
ATOM     27  H   LIG d   1       4.565  -0.927  -4.998  0.00  0.00     0.035 H 
ATOM     28  C   LIG d   1       5.068  -3.017  -5.333  0.00  0.00     0.173 C 
ATOM     29  O   LIG d   1       6.486  -3.036  -5.693  0.00  0.00    -0.345 OA
ATOM     30  C   LIG d   1       4.255  -2.854  -6.613  0.00  0.00     0.002 C 
ATOM     31  C   LIG d   1       4.441  -4.095  -7.493  0.00  0.00    -0.043 C 
ATOM     32  C   LIG d   1       4.050  -5.338  -6.688  0.00  0.00    -0.020 C 
ATOM     33  H   LIG d   1       2.994  -5.280  -6.419  0.00  0.00     0.032 H 
ATOM     34  C   LIG d   1       4.899  -5.405  -5.417  0.00  0.00     0.053 C 
ATOM     35  O   LIG d   1       4.704  -4.213  -4.653  0.00  0.00    -0.348 OA
ATOM     36  H   LIG d   1      10.124   6.282  -3.939  0.00  0.00     0.030 H 
ATOM     37  H   LIG d   1       9.888   5.535  -5.536  0.00  0.00     0.030 H 
ATOM     38  H   LIG d   1       9.881   4.061  -2.864  0.00  0.00     0.027 H 
ATOM     39  H   LIG d   1       8.442   4.464  -3.831  0.00  0.00     0.027 H 
ATOM     40  H   LIG d   1      11.575   3.922  -6.423  0.00  0.00     0.030 H 
ATOM     41  H   LIG d   1      13.015   3.518  -5.458  0.00  0.00     0.030 H 
ATOM     42  H   LIG d   1      11.004   1.496  -6.599  0.00  0.00     0.027 H 
ATOM     43  H   LIG d   1      12.448   1.091  -5.639  0.00  0.00     0.027 H 
ATOM     44  H   LIG d   1      10.770  -0.728  -5.524  0.00  0.00     0.027 H 
ATOM     45  H   LIG d   1      11.007   0.022  -3.927  0.00  0.00     0.027 H 
ATOM     46  H   LIG d   1       7.356   2.950  -3.164  0.00  0.00     0.035 H 
ATOM     47  H   LIG d   1       7.100   2.532  -4.872  0.00  0.00     0.035 H 
ATOM     48  H   LIG d   1       8.635  -1.959  -5.862  0.00  0.00     0.029 H 
ATOM     49  H   LIG d   1       9.310  -2.544  -4.311  0.00  0.00     0.029 H 
ATOM     50  H   LIG d   1       3.200  -2.741  -6.362  0.00  0.00     0.032 H 
ATOM     51  H   LIG d   1       4.598  -1.970  -7.152  0.00  0.00     0.032 H 
ATOM     52  H   LIG d   1       3.807  -4.015  -8.375  0.00  0.00     0.027 H 
ATOM     53  H   LIG d   1       5.485  -4.173  -7.798  0.00  0.00     0.027 H 
ATOM     54  H   LIG d   1       4.600  -6.270  -4.824  0.00  0.00     0.056 H 
ATOM     55  H   LIG d   1       5.951  -5.496  -5.687  0.00  0.00     0.056 H 
ENDROOT
BRANCH  26  56
ATOM     56  C   LIG d   1       3.809  -2.107  -3.345  0.00  0.00    -0.057 C 
ATOM     57  H   LIG d   1       4.305  -2.440  -2.433  0.00  0.00     0.023 H 
ATOM     58  H   LIG d   1       3.229  -1.207  -3.136  0.00  0.00     0.023 H 
ATOM     59  H   LIG d   1       3.144  -2.892  -3.704  0.00  0.00     0.023 H 
ENDBRANCH  26  56
BRANCH  18  60
ATOM     60  C   LIG d   1       6.448  -0.056  -5.764  0.00  0.00    -0.052 C 
ATOM     61  H   LIG d   1       5.544  -0.624  -5.980  0.00  0.00     0.024 H 
ATOM     62  H   LIG d   1       6.259   1.005  -5.926  0.00  0.00     0.024 H 
ATOM     63  H   LIG d   1       7.251  -0.387  -6.423  0.00  0.00     0.024 H 
ENDBRANCH  18  60
BRANCH  32  64
ATOM     64  C   LIG d   1       4.293  -6.590  -7.533  0.00  0.00    -0.060 C 
ATOM     65  H   LIG d   1       4.501  -7.436  -6.878  0.00  0.00     0.023 H 
ATOM     66  H   LIG d   1       3.408  -6.803  -8.132  0.00  0.00     0.023 H 
ATOM     67  H   LIG d   1       5.146  -6.425  -8.192  0.00  0.00     0.023 H 
ENDBRANCH  32  64
BRANCH   5  68
ATOM     68  C   LIG d   1       9.168   3.169  -6.116  0.00  0.00    -0.059 C 
ATOM     69  H   LIG d   1       8.661   2.267  -6.460  0.00  0.00     0.024 H 
ATOM     70  H   LIG d   1       8.465   4.002  -6.113  0.00  0.00     0.024 H 
ATOM     71  H   LIG d   1       9.999   3.396  -6.785  0.00  0.00     0.024 H 
ENDBRANCH   5  68
BRANCH   1  72
ATOM     72  O   LIG d   1      12.250   4.823  -3.263  0.00  0.00    -0.461 OA
BRANCH  72  73
ATOM     73  C   LIG d   1      12.535   5.916  -2.538  0.00  0.00     0.307 C 
ATOM     74  O   LIG d   1      13.029   6.882  -3.070  0.00  0.00    -0.251 OA
BRANCH  73  75
ATOM     75  C   LIG d   1      12.239   5.938  -1.061  0.00  0.00     0.045 C 
ATOM     76  H   LIG d   1      12.548   6.896  -0.642  0.00  0.00     0.038 H 
ATOM     77  H   LIG d   1      12.786   5.134  -0.568  0.00  0.00     0.038 H 
BRANCH  75  78
ATOM     78  C   LIG d   1      10.737   5.745  -0.838  0.00  0.00    -0.046 C 
ATOM     79  H   LIG d   1      10.555   5.494   0.207  0.00  0.00     0.027 H 
ATOM     80  H   LIG d   1      10.376   4.938  -1.474  0.00  0.00     0.027 H 
BRANCH  78  81
ATOM     81  C   LIG d   1      10.000   7.040  -1.187  0.00  0.00    -0.065 C 
ATOM     82  H   LIG d   1      10.313   7.830  -0.505  0.00  0.00     0.023 H 
ATOM     83  H   LIG d   1      10.237   7.329  -2.211  0.00  0.00     0.023 H 
ATOM     84  H   LIG d   1       8.926   6.882  -1.093  0.00  0.00     0.023 H 
ENDBRANCH  78  81
ENDBRANCH  75  78
ENDBRANCH  73  75
ENDBRANCH  72  73
ENDBRANCH   1  72
TORSDOF 9
ENDMDL
MODEL 6
REMARK VINA RESULT:      -6.2     10.513     16.798
REMARK  9 active torsions:
REMARK  status: ('A' for Active; 'I' for Inactive)
REMARK    1  A    between atoms: C_1  and  C_2 
REMARK    2  A    between atoms: C_2  and  C_3 
REMARK    3  A    between atoms: C_3  and  C_4 
REMARK    4  A    between atoms: C_4  and  O_6 
REMARK    5  A    between atoms: O_6  and  C_7 
REMARK    6  A    between atoms: C_11  and  C_45 
REMARK    7  A    between atoms: C_24  and  C_44 
REMARK    8  A    between atoms: C_32  and  C_43 
REMARK    9  A    between atoms: C_38  and  C_42 
ROOT
ATOM      1  C   LIG d   1       4.185  -0.056  -6.586  0.00  0.00     0.103 C 
ATOM      2  H   LIG d   1       4.537   0.976  -6.589  0.00  0.00     0.073 H 
ATOM      3  C   LIG d   1       4.088  -0.567  -8.024  0.00  0.00    -0.015 C 
ATOM      4  C   LIG d   1       3.593  -2.015  -8.018  0.00  0.00    -0.044 C 
ATOM      5  C   LIG d   1       4.575  -2.887  -7.234  0.00  0.00    -0.025 C 
ATOM      6  C   LIG d   1       4.675  -2.374  -5.795  0.00  0.00    -0.032 C 
ATOM      7  H   LIG d   1       3.694  -2.423  -5.323  0.00  0.00     0.031 H 
ATOM      8  C   LIG d   1       5.169  -0.926  -5.801  0.00  0.00    -0.012 C 
ATOM      9  C   LIG d   1       5.660  -3.246  -5.013  0.00  0.00    -0.049 C 
ATOM     10  C   LIG d   1       5.165  -4.692  -5.005  0.00  0.00    -0.049 C 
ATOM     11  C   LIG d   1       5.065  -5.210  -6.442  0.00  0.00    -0.034 C 
ATOM     12  H   LIG d   1       6.046  -5.172  -6.914  0.00  0.00     0.031 H 
ATOM     13  C   LIG d   1       4.077  -4.333  -7.228  0.00  0.00    -0.026 C 
ATOM     14  H   LIG d   1       3.104  -4.369  -6.736  0.00  0.00     0.031 H 
ATOM     15  C   LIG d   1       3.907  -4.820  -8.665  0.00  0.00     0.010 C 
ATOM     16  C   LIG d   1       3.650  -6.320  -8.700  0.00  0.00     0.140 C 
ATOM     17  O   LIG d   1       2.733  -6.805  -9.319  0.00  0.00    -0.297 OA
ATOM     18  C   LIG d   1       4.616  -7.154  -7.912  0.00  0.00     0.035 C 
ATOM     19  C   LIG d   1       4.550  -6.629  -6.452  0.00  0.00    -0.023 C 
ATOM     20  H   LIG d   1       3.507  -6.635  -6.134  0.00  0.00     0.031 H 
ATOM     21  C   LIG d   1       5.304  -7.681  -5.656  0.00  0.00    -0.022 C 
ATOM     22  C   LIG d   1       5.071  -9.010  -6.418  0.00  0.00     0.066 C 
ATOM     23  H   LIG d   1       4.536  -9.741  -5.812  0.00  0.00     0.060 H 
ATOM     24  C   LIG d   1       4.248  -8.626  -7.719  0.00  0.00     0.005 C 
ATOM     25  H   LIG d   1       3.173  -8.790  -7.645  0.00  0.00     0.034 H 
ATOM     26  C   LIG d   1       4.927  -9.477  -8.813  0.00  0.00     0.016 C 
ATOM     27  H   LIG d   1       5.394  -8.836  -9.561  0.00  0.00     0.035 H 
ATOM     28  C   LIG d   1       5.994 -10.286  -8.054  0.00  0.00     0.173 C 
ATOM     29  O   LIG d   1       6.348  -9.508  -6.866  0.00  0.00    -0.345 OA
ATOM     30  C   LIG d   1       7.246 -10.438  -8.913  0.00  0.00     0.002 C 
ATOM     31  C   LIG d   1       8.278 -11.282  -8.158  0.00  0.00    -0.043 C 
ATOM     32  C   LIG d   1       7.643 -12.625  -7.782  0.00  0.00    -0.020 C 
ATOM     33  H   LIG d   1       7.373 -13.166  -8.689  0.00  0.00     0.032 H 
ATOM     34  C   LIG d   1       6.388 -12.372  -6.944  0.00  0.00     0.053 C 
ATOM     35  O   LIG d   1       5.476 -11.560  -7.689  0.00  0.00    -0.348 OA
ATOM     36  H   LIG d   1       3.388   0.054  -8.584  0.00  0.00     0.030 H 
ATOM     37  H   LIG d   1       5.070  -0.521  -8.494  0.00  0.00     0.030 H 
ATOM     38  H   LIG d   1       2.610  -2.061  -7.549  0.00  0.00     0.027 H 
ATOM     39  H   LIG d   1       3.523  -2.379  -9.043  0.00  0.00     0.027 H 
ATOM     40  H   LIG d   1       6.151  -0.879  -6.272  0.00  0.00     0.030 H 
ATOM     41  H   LIG d   1       5.240  -0.562  -4.776  0.00  0.00     0.030 H 
ATOM     42  H   LIG d   1       6.641  -3.201  -5.487  0.00  0.00     0.027 H 
ATOM     43  H   LIG d   1       5.735  -2.881  -3.989  0.00  0.00     0.027 H 
ATOM     44  H   LIG d   1       5.864  -5.313  -4.444  0.00  0.00     0.027 H 
ATOM     45  H   LIG d   1       4.182  -4.736  -4.534  0.00  0.00     0.027 H 
ATOM     46  H   LIG d   1       3.063  -4.301  -9.121  0.00  0.00     0.035 H 
ATOM     47  H   LIG d   1       4.811  -4.598  -9.229  0.00  0.00     0.035 H 
ATOM     48  H   LIG d   1       6.367  -7.443  -5.626  0.00  0.00     0.029 H 
ATOM     49  H   LIG d   1       4.902  -7.749  -4.644  0.00  0.00     0.029 H 
ATOM     50  H   LIG d   1       6.987 -10.931  -9.850  0.00  0.00     0.032 H 
ATOM     51  H   LIG d   1       7.665  -9.453  -9.123  0.00  0.00     0.032 H 
ATOM     52  H   LIG d   1       9.146 -11.454  -8.795  0.00  0.00     0.027 H 
ATOM     53  H   LIG d   1       8.587 -10.759  -7.253  0.00  0.00     0.027 H 
ATOM     54  H   LIG d   1       5.913 -13.323  -6.703  0.00  0.00     0.056 H 
ATOM     55  H   LIG d   1       6.662 -11.859  -6.022  0.00  0.00     0.056 H 
ENDROOT
BRANCH  26  56
ATOM     56  C   LIG d   1       3.910 -10.413  -9.472  0.00  0.00    -0.057 C 
ATOM     57  H   LIG d   1       3.679 -11.234  -8.793  0.00  0.00     0.023 H 
ATOM     58  H   LIG d   1       2.999  -9.858  -9.697  0.00  0.00     0.023 H 
ATOM     59  H   LIG d   1       4.330 -10.812 -10.396  0.00  0.00     0.023 H 
ENDBRANCH  26  56
BRANCH  18  60
ATOM     60  C   LIG d   1       6.033  -7.018  -8.474  0.00  0.00    -0.052 C 
ATOM     61  H   LIG d   1       6.758  -7.197  -7.681  0.00  0.00     0.024 H 
ATOM     62  H   LIG d   1       6.179  -7.747  -9.272  0.00  0.00     0.024 H 
ATOM     63  H   LIG d   1       6.170  -6.013  -8.872  0.00  0.00     0.024 H 
ENDBRANCH  18  60
BRANCH  32  64
ATOM     64  C   LIG d   1       8.642 -13.453  -6.970  0.00  0.00    -0.060 C 
ATOM     65  H   LIG d   1       9.144 -14.162  -7.628  0.00  0.00     0.023 H 
ATOM     66  H   LIG d   1       9.380 -12.791  -6.518  0.00  0.00     0.023 H 
ATOM     67  H   LIG d   1       8.112 -13.996  -6.187  0.00  0.00     0.023 H 
ENDBRANCH  32  64
BRANCH   5  68
ATOM     68  C   LIG d   1       5.953  -2.825  -7.894  0.00  0.00    -0.059 C 
ATOM     69  H   LIG d   1       6.716  -3.119  -7.173  0.00  0.00     0.024 H 
ATOM     70  H   LIG d   1       5.979  -3.503  -8.746  0.00  0.00     0.024 H 
ATOM     71  H   LIG d   1       6.148  -1.807  -8.233  0.00  0.00     0.024 H 
ENDBRANCH   5  68
BRANCH   1  72
ATOM     72  O   LIG d   1       2.898  -0.117  -5.969  0.00  0.00    -0.461 OA
BRANCH  72  73
ATOM     73  C   LIG d   1       2.771   0.459  -4.764  0.00  0.00     0.307 C 
ATOM     74  O   LIG d   1       2.834   1.661  -4.659  0.00  0.00    -0.251 OA
BRANCH  73  75
ATOM     75  C   LIG d   1       2.552  -0.393  -3.540  0.00  0.00     0.045 C 
ATOM     76  H   LIG d   1       2.604  -1.446  -3.816  0.00  0.00     0.038 H 
ATOM     77  H   LIG d   1       1.570  -0.177  -3.118  0.00  0.00     0.038 H 
BRANCH  75  78
ATOM     78  C   LIG d   1       3.633  -0.084  -2.502  0.00  0.00    -0.046 C 
ATOM     79  H   LIG d   1       3.183   0.426  -1.650  0.00  0.00     0.027 H 
ATOM     80  H   LIG d   1       4.393   0.556  -2.948  0.00  0.00     0.027 H 
BRANCH  78  81
ATOM     81  C   LIG d   1       4.276  -1.391  -2.032  0.00  0.00    -0.065 C 
ATOM     82  H   LIG d   1       4.278  -1.422  -0.943  0.00  0.00     0.023 H 
ATOM     83  H   LIG d   1       3.707  -2.236  -2.419  0.00  0.00     0.023 H 
ATOM     84  H   LIG d   1       5.300  -1.443  -2.400  0.00  0.00     0.023 H 
ENDBRANCH  78  81
ENDBRANCH  75  78
ENDBRANCH  73  75
ENDBRANCH  72  73
ENDBRANCH   1  72
TORSDOF 9
ENDMDL
MODEL 7
REMARK VINA RESULT:      -6.1      7.777     13.144
REMARK  9 active torsions:
REMARK  status: ('A' for Active; 'I' for Inactive)
REMARK    1  A    between atoms: C_1  and  C_2 
REMARK    2  A    between atoms: C_2  and  C_3 
REMARK    3  A    between atoms: C_3  and  C_4 
REMARK    4  A    between atoms: C_4  and  O_6 
REMARK    5  A    between atoms: O_6  and  C_7 
REMARK    6  A    between atoms: C_11  and  C_45 
REMARK    7  A    between atoms: C_24  and  C_44 
REMARK    8  A    between atoms: C_32  and  C_43 
REMARK    9  A    between atoms: C_38  and  C_42 
ROOT
ATOM      1  C   LIG d   1       0.395  -3.693 -13.140  0.00  0.00     0.103 C 
ATOM      2  H   LIG d   1       0.203  -3.823 -14.205  0.00  0.00     0.073 H 
ATOM      3  C   LIG d   1       1.468  -4.685 -12.690  0.00  0.00    -0.015 C 
ATOM      4  C   LIG d   1       1.736  -4.504 -11.195  0.00  0.00    -0.044 C 
ATOM      5  C   LIG d   1       2.221  -3.076 -10.932  0.00  0.00    -0.025 C 
ATOM      6  C   LIG d   1       1.148  -2.083 -11.385  0.00  0.00    -0.032 C 
ATOM      7  H   LIG d   1       0.230  -2.260 -10.825  0.00  0.00     0.031 H 
ATOM      8  C   LIG d   1       0.880  -2.266 -12.880  0.00  0.00    -0.012 C 
ATOM      9  C   LIG d   1       1.637  -0.656 -11.125  0.00  0.00    -0.049 C 
ATOM     10  C   LIG d   1       1.903  -0.473  -9.631  0.00  0.00    -0.049 C 
ATOM     11  C   LIG d   1       2.976  -1.463  -9.174  0.00  0.00    -0.034 C 
ATOM     12  H   LIG d   1       3.899  -1.283  -9.725  0.00  0.00     0.031 H 
ATOM     13  C   LIG d   1       2.487  -2.897  -9.437  0.00  0.00    -0.026 C 
ATOM     14  H   LIG d   1       1.556  -3.058  -8.892  0.00  0.00     0.031 H 
ATOM     15  C   LIG d   1       3.503  -3.937  -8.970  0.00  0.00     0.010 C 
ATOM     16  C   LIG d   1       3.972  -3.635  -7.554  0.00  0.00     0.140 C 
ATOM     17  O   LIG d   1       3.978  -4.472  -6.683  0.00  0.00    -0.297 OA
ATOM     18  C   LIG d   1       4.429  -2.226  -7.317  0.00  0.00     0.035 C 
ATOM     19  C   LIG d   1       3.230  -1.315  -7.693  0.00  0.00    -0.023 C 
ATOM     20  H   LIG d   1       2.354  -1.657  -7.143  0.00  0.00     0.031 H 
ATOM     21  C   LIG d   1       3.633   0.050  -7.159  0.00  0.00    -0.022 C 
ATOM     22  C   LIG d   1       4.518  -0.244  -5.921  0.00  0.00     0.066 C 
ATOM     23  H   LIG d   1       4.079   0.148  -5.004  0.00  0.00     0.060 H 
ATOM     24  C   LIG d   1       4.668  -1.823  -5.861  0.00  0.00     0.005 C 
ATOM     25  H   LIG d   1       3.993  -2.320  -5.165  0.00  0.00     0.034 H 
ATOM     26  C   LIG d   1       6.160  -2.007  -5.511  0.00  0.00     0.016 C 
ATOM     27  H   LIG d   1       6.682  -2.518  -6.321  0.00  0.00     0.035 H 
ATOM     28  C   LIG d   1       6.690  -0.571  -5.348  0.00  0.00     0.173 C 
ATOM     29  O   LIG d   1       5.835   0.290  -6.165  0.00  0.00    -0.345 OA
ATOM     30  C   LIG d   1       8.115  -0.474  -5.886  0.00  0.00     0.002 C 
ATOM     31  C   LIG d   1       8.639   0.950  -5.674  0.00  0.00    -0.043 C 
ATOM     32  C   LIG d   1       8.535   1.302  -4.187  0.00  0.00    -0.020 C 
ATOM     33  H   LIG d   1       9.167   0.628  -3.608  0.00  0.00     0.032 H 
ATOM     34  C   LIG d   1       7.081   1.155  -3.734  0.00  0.00     0.053 C 
ATOM     35  O   LIG d   1       6.640  -0.183  -3.980  0.00  0.00    -0.348 OA
ATOM     36  H   LIG d   1       1.124  -5.703 -12.876  0.00  0.00     0.030 H 
ATOM     37  H   LIG d   1       2.387  -4.506 -13.248  0.00  0.00     0.030 H 
ATOM     38  H   LIG d   1       0.818  -4.684 -10.636  0.00  0.00     0.027 H 
ATOM     39  H   LIG d   1       2.501  -5.210 -10.874  0.00  0.00     0.027 H 
ATOM     40  H   LIG d   1       1.798  -2.087 -13.439  0.00  0.00     0.030 H 
ATOM     41  H   LIG d   1       0.115  -1.558 -13.201  0.00  0.00     0.030 H 
ATOM     42  H   LIG d   1       2.558  -0.480 -11.682  0.00  0.00     0.027 H 
ATOM     43  H   LIG d   1       0.875   0.054 -11.449  0.00  0.00     0.027 H 
ATOM     44  H   LIG d   1       2.245   0.545  -9.444  0.00  0.00     0.027 H 
ATOM     45  H   LIG d   1       0.982  -0.653  -9.074  0.00  0.00     0.027 H 
ATOM     46  H   LIG d   1       3.040  -4.924  -8.992  0.00  0.00     0.035 H 
ATOM     47  H   LIG d   1       4.360  -3.928  -9.642  0.00  0.00     0.035 H 
ATOM     48  H   LIG d   1       4.203   0.598  -7.911  0.00  0.00     0.029 H 
ATOM     49  H   LIG d   1       2.749   0.618  -6.867  0.00  0.00     0.029 H 
ATOM     50  H   LIG d   1       8.753  -1.180  -5.355  0.00  0.00     0.032 H 
ATOM     51  H   LIG d   1       8.119  -0.709  -6.951  0.00  0.00     0.032 H 
ATOM     52  H   LIG d   1       9.680   1.006  -5.991  0.00  0.00     0.027 H 
ATOM     53  H   LIG d   1       8.041   1.650  -6.257  0.00  0.00     0.027 H 
ATOM     54  H   LIG d   1       7.007   1.371  -2.668  0.00  0.00     0.056 H 
ATOM     55  H   LIG d   1       6.454   1.852  -4.290  0.00  0.00     0.056 H 
ENDROOT
BRANCH  26  56
ATOM     56  C   LIG d   1       6.310  -2.788  -4.204  0.00  0.00    -0.057 C 
ATOM     57  H   LIG d   1       5.408  -3.372  -4.023  0.00  0.00     0.023 H 
ATOM     58  H   LIG d   1       7.168  -3.457  -4.276  0.00  0.00     0.023 H 
ATOM     59  H   LIG d   1       6.463  -2.090  -3.380  0.00  0.00     0.023 H 
ENDBRANCH  26  56
BRANCH  18  60
ATOM     60  C   LIG d   1       5.651  -1.900  -8.179  0.00  0.00    -0.052 C 
ATOM     61  H   LIG d   1       5.561  -2.403  -9.142  0.00  0.00     0.024 H 
ATOM     62  H   LIG d   1       5.709  -0.823  -8.334  0.00  0.00     0.024 H 
ATOM     63  H   LIG d   1       6.553  -2.243  -7.672  0.00  0.00     0.024 H 
ENDBRANCH  18  60
BRANCH  32  64
ATOM     64  C   LIG d   1       8.995   2.746  -3.971  0.00  0.00    -0.060 C 
ATOM     65  H   LIG d   1       8.143   3.417  -4.072  0.00  0.00     0.023 H 
ATOM     66  H   LIG d   1       9.420   2.846  -2.972  0.00  0.00     0.023 H 
ATOM     67  H   LIG d   1       9.750   3.002  -4.715  0.00  0.00     0.023 H 
ENDBRANCH  32  64
BRANCH   5  68
ATOM     68  C   LIG d   1       3.512  -2.824 -11.714  0.00  0.00    -0.059 C 
ATOM     69  H   LIG d   1       4.160  -2.160 -11.141  0.00  0.00     0.024 H 
ATOM     70  H   LIG d   1       4.023  -3.770 -11.886  0.00  0.00     0.024 H 
ATOM     71  H   LIG d   1       3.273  -2.360 -12.671  0.00  0.00     0.024 H 
ENDBRANCH   5  68
BRANCH   1  72
ATOM     72  O   LIG d   1      -0.809  -3.928 -12.407  0.00  0.00    -0.461 OA
BRANCH  72  73
ATOM     73  C   LIG d   1      -1.504  -5.034 -12.715  0.00  0.00     0.307 C 
ATOM     74  O   LIG d   1      -1.835  -5.241 -13.858  0.00  0.00    -0.251 OA
BRANCH  73  75
ATOM     75  C   LIG d   1      -1.872  -6.018 -11.634  0.00  0.00     0.045 C 
ATOM     76  H   LIG d   1      -1.186  -6.865 -11.666  0.00  0.00     0.038 H 
ATOM     77  H   LIG d   1      -2.890  -6.370 -11.794  0.00  0.00     0.038 H 
BRANCH  75  78
ATOM     78  C   LIG d   1      -1.775  -5.336 -10.268  0.00  0.00    -0.046 C 
ATOM     79  H   LIG d   1      -2.654  -4.709 -10.113  0.00  0.00     0.027 H 
ATOM     80  H   LIG d   1      -0.879  -4.718 -10.232  0.00  0.00     0.027 H 
BRANCH  78  81
ATOM     81  C   LIG d   1      -1.707  -6.400  -9.171  0.00  0.00    -0.065 C 
ATOM     82  H   LIG d   1      -2.147  -7.327  -9.537  0.00  0.00     0.023 H 
ATOM     83  H   LIG d   1      -0.666  -6.575  -8.898  0.00  0.00     0.023 H 
ATOM     84  H   LIG d   1      -2.259  -6.055  -8.296  0.00  0.00     0.023 H 
ENDBRANCH  78  81
ENDBRANCH  75  78
ENDBRANCH  73  75
ENDBRANCH  72  73
ENDBRANCH   1  72
TORSDOF 9
ENDMDL
MODEL 8
REMARK VINA RESULT:      -6.1      4.637      8.739
REMARK  9 active torsions:
REMARK  status: ('A' for Active; 'I' for Inactive)
REMARK    1  A    between atoms: C_1  and  C_2 
REMARK    2  A    between atoms: C_2  and  C_3 
REMARK    3  A    between atoms: C_3  and  C_4 
REMARK    4  A    between atoms: C_4  and  O_6 
REMARK    5  A    between atoms: O_6  and  C_7 
REMARK    6  A    between atoms: C_11  and  C_45 
REMARK    7  A    between atoms: C_24  and  C_44 
REMARK    8  A    between atoms: C_32  and  C_43 
REMARK    9  A    between atoms: C_38  and  C_42 
ROOT
ATOM      1  C   LIG d   1      11.472   5.476  -0.613  0.00  0.00     0.103 C 
ATOM      2  H   LIG d   1      11.729   4.737   0.146  0.00  0.00     0.073 H 
ATOM      3  C   LIG d   1      12.752   6.104  -1.166  0.00  0.00    -0.015 C 
ATOM      4  C   LIG d   1      12.391   7.144  -2.230  0.00  0.00    -0.044 C 
ATOM      5  C   LIG d   1      11.625   6.465  -3.367  0.00  0.00    -0.025 C 
ATOM      6  C   LIG d   1      10.345   5.834  -2.813  0.00  0.00    -0.032 C 
ATOM      7  H   LIG d   1       9.720   6.609  -2.370  0.00  0.00     0.031 H 
ATOM      8  C   LIG d   1      10.706   4.796  -1.749  0.00  0.00    -0.012 C 
ATOM      9  C   LIG d   1       9.582   5.153  -3.951  0.00  0.00    -0.049 C 
ATOM     10  C   LIG d   1       9.219   6.191  -5.014  0.00  0.00    -0.049 C 
ATOM     11  C   LIG d   1      10.496   6.824  -5.572  0.00  0.00    -0.034 C 
ATOM     12  H   LIG d   1      11.120   6.053  -6.025  0.00  0.00     0.031 H 
ATOM     13  C   LIG d   1      11.264   7.506  -4.428  0.00  0.00    -0.026 C 
ATOM     14  H   LIG d   1      10.624   8.264  -3.975  0.00  0.00     0.031 H 
ATOM     15  C   LIG d   1      12.536   8.188  -4.927  0.00  0.00     0.010 C 
ATOM     16  C   LIG d   1      12.243   9.049  -6.148  0.00  0.00     0.140 C 
ATOM     17  O   LIG d   1      12.603  10.199  -6.229  0.00  0.00    -0.297 OA
ATOM     18  C   LIG d   1      11.478   8.367  -7.244  0.00  0.00     0.035 C 
ATOM     19  C   LIG d   1      10.154   7.872  -6.603  0.00  0.00    -0.023 C 
ATOM     20  H   LIG d   1       9.675   8.719  -6.109  0.00  0.00     0.031 H 
ATOM     21  C   LIG d   1       9.304   7.467  -7.796  0.00  0.00    -0.022 C 
ATOM     22  C   LIG d   1       9.753   8.401  -8.948  0.00  0.00     0.066 C 
ATOM     23  H   LIG d   1       8.940   9.038  -9.297  0.00  0.00     0.060 H 
ATOM     24  C   LIG d   1      10.952   9.262  -8.367  0.00  0.00     0.005 C 
ATOM     25  H   LIG d   1      10.676  10.258  -8.024  0.00  0.00     0.034 H 
ATOM     26  C   LIG d   1      11.960   9.271  -9.537  0.00  0.00     0.016 C 
ATOM     27  H   LIG d   1      12.881   8.763  -9.250  0.00  0.00     0.035 H 
ATOM     28  C   LIG d   1      11.244   8.497 -10.658  0.00  0.00     0.173 C 
ATOM     29  O   LIG d   1      10.298   7.589 -10.007  0.00  0.00    -0.345 OA
ATOM     30  C   LIG d   1      12.249   7.656 -11.439  0.00  0.00     0.002 C 
ATOM     31  C   LIG d   1      11.524   6.929 -12.577  0.00  0.00    -0.043 C 
ATOM     32  C   LIG d   1      10.802   7.962 -13.448  0.00  0.00    -0.020 C 
ATOM     33  H   LIG d   1      11.534   8.634 -13.898  0.00  0.00     0.032 H 
ATOM     34  C   LIG d   1       9.836   8.769 -12.578  0.00  0.00     0.053 C 
ATOM     35  O   LIG d   1      10.564   9.401 -11.521  0.00  0.00    -0.348 OA
ATOM     36  H   LIG d   1      13.299   6.589  -0.356  0.00  0.00     0.030 H 
ATOM     37  H   LIG d   1      13.375   5.330  -1.612  0.00  0.00     0.030 H 
ATOM     38  H   LIG d   1      11.769   7.919  -1.784  0.00  0.00     0.027 H 
ATOM     39  H   LIG d   1      13.303   7.591  -2.624  0.00  0.00     0.027 H 
ATOM     40  H   LIG d   1      11.329   4.021  -2.194  0.00  0.00     0.030 H 
ATOM     41  H   LIG d   1       9.794   4.347  -1.355  0.00  0.00     0.030 H 
ATOM     42  H   LIG d   1      10.208   4.380  -4.398  0.00  0.00     0.027 H 
ATOM     43  H   LIG d   1       8.671   4.700  -3.559  0.00  0.00     0.027 H 
ATOM     44  H   LIG d   1       8.671   5.708  -5.822  0.00  0.00     0.027 H 
ATOM     45  H   LIG d   1       8.596   6.965  -4.565  0.00  0.00     0.027 H 
ATOM     46  H   LIG d   1      12.939   8.818  -4.133  0.00  0.00     0.035 H 
ATOM     47  H   LIG d   1      13.271   7.429  -5.191  0.00  0.00     0.035 H 
ATOM     48  H   LIG d   1       9.492   6.425  -8.058  0.00  0.00     0.029 H 
ATOM     49  H   LIG d   1       8.247   7.617  -7.576  0.00  0.00     0.029 H 
ATOM     50  H   LIG d   1      13.021   8.304 -11.855  0.00  0.00     0.032 H 
ATOM     51  H   LIG d   1      12.707   6.925 -10.773  0.00  0.00     0.032 H 
ATOM     52  H   LIG d   1      12.249   6.384 -13.182  0.00  0.00     0.027 H 
ATOM     53  H   LIG d   1      10.797   6.232 -12.161  0.00  0.00     0.027 H 
ATOM     54  H   LIG d   1       9.346   9.529 -13.186  0.00  0.00     0.056 H 
ATOM     55  H   LIG d   1       9.085   8.102 -12.153  0.00  0.00     0.056 H 
ENDROOT
BRANCH  26  56
ATOM     56  C   LIG d   1      12.255  10.706  -9.978  0.00  0.00    -0.057 C 
ATOM     57  H   LIG d   1      11.620  11.395  -9.421  0.00  0.00     0.023 H 
ATOM     58  H   LIG d   1      13.303  10.938  -9.783  0.00  0.00     0.023 H 
ATOM     59  H   LIG d   1      12.054  10.806 -11.045  0.00  0.00     0.023 H 
ENDBRANCH  26  56
BRANCH  18  60
ATOM     60  C   LIG d   1      12.278   7.193  -7.814  0.00  0.00    -0.052 C 
ATOM     61  H   LIG d   1      11.788   6.823  -8.714  0.00  0.00     0.024 H 
ATOM     62  H   LIG d   1      13.286   7.526  -8.059  0.00  0.00     0.024 H 
ATOM     63  H   LIG d   1      12.328   6.396  -7.073  0.00  0.00     0.024 H 
ENDBRANCH  18  60
BRANCH  32  64
ATOM     64  C   LIG d   1      10.021   7.245 -14.550  0.00  0.00    -0.060 C 
ATOM     65  H   LIG d   1       9.742   6.248 -14.208  0.00  0.00     0.023 H 
ATOM     66  H   LIG d   1       9.121   7.812 -14.787  0.00  0.00     0.023 H 
ATOM     67  H   LIG d   1      10.643   7.161 -15.442  0.00  0.00     0.023 H 
ENDBRANCH  32  64
BRANCH   5  68
ATOM     68  C   LIG d   1      12.499   5.378  -3.995  0.00  0.00    -0.059 C 
ATOM     69  H   LIG d   1      13.449   5.812  -4.309  0.00  0.00     0.024 H 
ATOM     70  H   LIG d   1      12.683   4.592  -3.263  0.00  0.00     0.024 H 
ATOM     71  H   LIG d   1      11.989   4.957  -4.862  0.00  0.00     0.024 H 
ENDBRANCH   5  68
BRANCH   1  72
ATOM     72  O   LIG d   1      10.655   6.493  -0.029  0.00  0.00    -0.461 OA
BRANCH  72  73
ATOM     73  C   LIG d   1      11.080   7.029   1.126  0.00  0.00     0.307 C 
ATOM     74  O   LIG d   1      11.222   6.329   2.100  0.00  0.00    -0.251 OA
BRANCH  73  75
ATOM     75  C   LIG d   1      11.380   8.503   1.207  0.00  0.00     0.045 C 
ATOM     76  H   LIG d   1      12.439   8.670   1.013  0.00  0.00     0.038 H 
ATOM     77  H   LIG d   1      11.130   8.871   2.202  0.00  0.00     0.038 H 
BRANCH  75  78
ATOM     78  C   LIG d   1      10.548   9.252   0.163  0.00  0.00    -0.046 C 
ATOM     79  H   LIG d   1       9.739   9.787   0.660  0.00  0.00     0.027 H 
ATOM     80  H   LIG d   1      10.129   8.539  -0.547  0.00  0.00     0.027 H 
BRANCH  78  81
ATOM     81  C   LIG d   1      11.439  10.249  -0.580  0.00  0.00    -0.065 C 
ATOM     82  H   LIG d   1      12.229   9.709  -1.102  0.00  0.00     0.023 H 
ATOM     83  H   LIG d   1      10.841  10.805  -1.302  0.00  0.00     0.023 H 
ATOM     84  H   LIG d   1      11.883  10.942   0.135  0.00  0.00     0.023 H 
ENDBRANCH  78  81
ENDBRANCH  75  78
ENDBRANCH  73  75
ENDBRANCH  72  73
ENDBRANCH   1  72
TORSDOF 9
ENDMDL
MODEL 9
REMARK VINA RESULT:      -5.9      9.237     12.204
REMARK  9 active torsions:
REMARK  status: ('A' for Active; 'I' for Inactive)
REMARK    1  A    between atoms: C_1  and  C_2 
REMARK    2  A    between atoms: C_2  and  C_3 
REMARK    3  A    between atoms: C_3  and  C_4 
REMARK    4  A    between atoms: C_4  and  O_6 
REMARK    5  A    between atoms: O_6  and  C_7 
REMARK    6  A    between atoms: C_11  and  C_45 
REMARK    7  A    between atoms: C_24  and  C_44 
REMARK    8  A    between atoms: C_32  and  C_43 
REMARK    9  A    between atoms: C_38  and  C_42 
ROOT
ATOM      1  C   LIG d   1       4.841  -0.625  -6.051  0.00  0.00     0.103 C 
ATOM      2  H   LIG d   1       4.049  -0.275  -6.713  0.00  0.00     0.073 H 
ATOM      3  C   LIG d   1       4.739  -2.142  -5.890  0.00  0.00    -0.015 C 
ATOM      4  C   LIG d   1       5.850  -2.632  -4.958  0.00  0.00    -0.044 C 
ATOM      5  C   LIG d   1       7.212  -2.274  -5.556  0.00  0.00    -0.025 C 
ATOM      6  C   LIG d   1       7.314  -0.756  -5.719  0.00  0.00    -0.032 C 
ATOM      7  H   LIG d   1       7.211  -0.278  -4.745  0.00  0.00     0.031 H 
ATOM      8  C   LIG d   1       6.202  -0.266  -6.650  0.00  0.00    -0.012 C 
ATOM      9  C   LIG d   1       8.676  -0.400  -6.320  0.00  0.00    -0.049 C 
ATOM     10  C   LIG d   1       9.786  -0.888  -5.388  0.00  0.00    -0.049 C 
ATOM     11  C   LIG d   1       9.689  -2.406  -5.223  0.00  0.00    -0.034 C 
ATOM     12  H   LIG d   1       9.801  -2.888  -6.195  0.00  0.00     0.031 H 
ATOM     13  C   LIG d   1       8.321  -2.764  -4.622  0.00  0.00    -0.026 C 
ATOM     14  H   LIG d   1       8.216  -2.263  -3.659  0.00  0.00     0.031 H 
ATOM     15  C   LIG d   1       8.175  -4.267  -4.401  0.00  0.00     0.010 C 
ATOM     16  C   LIG d   1       9.393  -4.827  -3.680  0.00  0.00     0.140 C 
ATOM     17  O   LIG d   1       9.299  -5.527  -2.700  0.00  0.00    -0.297 OA
ATOM     18  C   LIG d   1      10.718  -4.451  -4.275  0.00  0.00     0.035 C 
ATOM     19  C   LIG d   1      10.763  -2.900  -4.283  0.00  0.00    -0.023 C 
ATOM     20  H   LIG d   1      10.547  -2.546  -3.275  0.00  0.00     0.031 H 
ATOM     21  C   LIG d   1      12.213  -2.582  -4.607  0.00  0.00    -0.022 C 
ATOM     22  C   LIG d   1      13.028  -3.759  -4.012  0.00  0.00     0.066 C 
ATOM     23  H   LIG d   1      13.714  -3.429  -3.233  0.00  0.00     0.060 H 
ATOM     24  C   LIG d   1      11.957  -4.784  -3.443  0.00  0.00     0.005 C 
ATOM     25  H   LIG d   1      11.782  -4.712  -2.370  0.00  0.00     0.034 H 
ATOM     26  C   LIG d   1      12.527  -6.149  -3.886  0.00  0.00     0.016 C 
ATOM     27  H   LIG d   1      11.846  -6.639  -4.581  0.00  0.00     0.035 H 
ATOM     28  C   LIG d   1      13.852  -5.796  -4.585  0.00  0.00     0.173 C 
ATOM     29  O   LIG d   1      13.713  -4.430  -5.089  0.00  0.00    -0.345 OA
ATOM     30  C   LIG d   1      14.078  -6.722  -5.777  0.00  0.00     0.002 C 
ATOM     31  C   LIG d   1      15.422  -6.384  -6.432  0.00  0.00    -0.043 C 
ATOM     32  C   LIG d   1      16.528  -6.483  -5.377  0.00  0.00    -0.020 C 
ATOM     33  H   LIG d   1      16.589  -7.508  -5.009  0.00  0.00     0.032 H 
ATOM     34  C   LIG d   1      16.205  -5.541  -4.216  0.00  0.00     0.053 C 
ATOM     35  O   LIG d   1      14.932  -5.887  -3.664  0.00  0.00    -0.348 OA
ATOM     36  H   LIG d   1       3.769  -2.398  -5.464  0.00  0.00     0.030 H 
ATOM     37  H   LIG d   1       4.845  -2.619  -6.864  0.00  0.00     0.030 H 
ATOM     38  H   LIG d   1       5.744  -2.156  -3.984  0.00  0.00     0.027 H 
ATOM     39  H   LIG d   1       5.777  -3.713  -4.844  0.00  0.00     0.027 H 
ATOM     40  H   LIG d   1       6.308  -0.743  -7.624  0.00  0.00     0.030 H 
ATOM     41  H   LIG d   1       6.275   0.816  -6.765  0.00  0.00     0.030 H 
ATOM     42  H   LIG d   1       8.781  -0.881  -7.293  0.00  0.00     0.027 H 
ATOM     43  H   LIG d   1       8.749   0.681  -6.439  0.00  0.00     0.027 H 
ATOM     44  H   LIG d   1      10.756  -0.630  -5.813  0.00  0.00     0.027 H 
ATOM     45  H   LIG d   1       9.678  -0.409  -4.415  0.00  0.00     0.027 H 
ATOM     46  H   LIG d   1       7.284  -4.456  -3.799  0.00  0.00     0.035 H 
ATOM     47  H   LIG d   1       8.068  -4.764  -5.364  0.00  0.00     0.035 H 
ATOM     48  H   LIG d   1      12.358  -2.529  -5.686  0.00  0.00     0.029 H 
ATOM     49  H   LIG d   1      12.508  -1.643  -4.139  0.00  0.00     0.029 H 
ATOM     50  H   LIG d   1      14.089  -7.757  -5.436  0.00  0.00     0.032 H 
ATOM     51  H   LIG d   1      13.275  -6.585  -6.501  0.00  0.00     0.032 H 
ATOM     52  H   LIG d   1      15.622  -7.088  -7.239  0.00  0.00     0.027 H 
ATOM     53  H   LIG d   1      15.389  -5.370  -6.831  0.00  0.00     0.027 H 
ATOM     54  H   LIG d   1      16.972  -5.633  -3.447  0.00  0.00     0.056 H 
ATOM     55  H   LIG d   1      16.176  -4.513  -4.578  0.00  0.00     0.056 H 
ENDROOT
BRANCH  26  56
ATOM     56  C   LIG d   1      12.782  -7.041  -2.669  0.00  0.00    -0.057 C 
ATOM     57  H   LIG d   1      13.835  -6.986  -2.391  0.00  0.00     0.023 H 
ATOM     58  H   LIG d   1      12.167  -6.703  -1.835  0.00  0.00     0.023 H 
ATOM     59  H   LIG d   1      12.525  -8.072  -2.915  0.00  0.00     0.023 H 
ENDBRANCH  26  56
BRANCH  18  60
ATOM     60  C   LIG d   1      10.852  -5.007  -5.695  0.00  0.00    -0.052 C 
ATOM     61  H   LIG d   1       9.876  -4.999  -6.181  0.00  0.00     0.024 H 
ATOM     62  H   LIG d   1      11.547  -4.389  -6.263  0.00  0.00     0.024 H 
ATOM     63  H   LIG d   1      11.228  -6.028  -5.650  0.00  0.00     0.024 H 
ENDBRANCH  18  60
BRANCH  32  64
ATOM     64  C   LIG d   1      17.867  -6.085  -6.002  0.00  0.00    -0.060 C 
ATOM     65  H   LIG d   1      18.104  -6.767  -6.819  0.00  0.00     0.023 H 
ATOM     66  H   LIG d   1      17.801  -5.067  -6.387  0.00  0.00     0.023 H 
ATOM     67  H   LIG d   1      18.651  -6.138  -5.247  0.00  0.00     0.023 H 
ENDBRANCH  32  64
BRANCH   5  68
ATOM     68  C   LIG d   1       7.363  -2.945  -6.922  0.00  0.00    -0.059 C 
ATOM     69  H   LIG d   1       6.427  -3.435  -7.192  0.00  0.00     0.024 H 
ATOM     70  H   LIG d   1       7.608  -2.193  -7.671  0.00  0.00     0.024 H 
ATOM     71  H   LIG d   1       8.161  -3.687  -6.877  0.00  0.00     0.024 H 
ENDBRANCH   5  68
BRANCH   1  72
ATOM     72  O   LIG d   1       4.703   0.001  -4.773  0.00  0.00    -0.461 OA
BRANCH  72  73
ATOM     73  C   LIG d   1       3.455   0.216  -4.332  0.00  0.00     0.307 C 
ATOM     74  O   LIG d   1       2.698   0.906  -4.972  0.00  0.00    -0.251 OA
BRANCH  73  75
ATOM     75  C   LIG d   1       2.996  -0.403  -3.036  0.00  0.00     0.045 C 
ATOM     76  H   LIG d   1       2.594  -1.397  -3.231  0.00  0.00     0.038 H 
ATOM     77  H   LIG d   1       2.222   0.221  -2.589  0.00  0.00     0.038 H 
BRANCH  75  78
ATOM     78  C   LIG d   1       4.182  -0.513  -2.075  0.00  0.00    -0.046 C 
ATOM     79  H   LIG d   1       5.029  -0.961  -2.594  0.00  0.00     0.027 H 
ATOM     80  H   LIG d   1       3.905  -1.137  -1.226  0.00  0.00     0.027 H 
BRANCH  78  81
ATOM     81  C   LIG d   1       4.567   0.882  -1.579  0.00  0.00    -0.065 C 
ATOM     82  H   LIG d   1       4.468   0.921  -0.494  0.00  0.00     0.023 H 
ATOM     83  H   LIG d   1       5.599   1.096  -1.857  0.00  0.00     0.023 H 
ATOM     84  H   LIG d   1       3.908   1.623  -2.031  0.00  0.00     0.023 H 
ENDBRANCH  78  81
ENDBRANCH  75  78
ENDBRANCH  73  75
ENDBRANCH  72  73
ENDBRANCH   1  72
TORSDOF 9
ENDMDL
MODEL 10
REMARK VINA RESULT:      -5.7      6.230     10.835
REMARK  9 active torsions:
REMARK  status: ('A' for Active; 'I' for Inactive)
REMARK    1  A    between atoms: C_1  and  C_2 
REMARK    2  A    between atoms: C_2  and  C_3 
REMARK    3  A    between atoms: C_3  and  C_4 
REMARK    4  A    between atoms: C_4  and  O_6 
REMARK    5  A    between atoms: O_6  and  C_7 
REMARK    6  A    between atoms: C_11  and  C_45 
REMARK    7  A    between atoms: C_24  and  C_44 
REMARK    8  A    between atoms: C_32  and  C_43 
REMARK    9  A    between atoms: C_38  and  C_42 
ROOT
ATOM      1  C   LIG d   1       1.398  -1.541 -11.459  0.00  0.00     0.103 C 
ATOM      2  H   LIG d   1       0.514  -1.358 -12.070  0.00  0.00     0.073 H 
ATOM      3  C   LIG d   1       2.647  -1.093 -12.220  0.00  0.00    -0.015 C 
ATOM      4  C   LIG d   1       3.887  -1.352 -11.362  0.00  0.00    -0.044 C 
ATOM      5  C   LIG d   1       3.778  -0.563 -10.055  0.00  0.00    -0.025 C 
ATOM      6  C   LIG d   1       2.527  -1.009  -9.295  0.00  0.00    -0.032 C 
ATOM      7  H   LIG d   1       2.599  -2.072  -9.068  0.00  0.00     0.031 H 
ATOM      8  C   LIG d   1       1.287  -0.751 -10.153  0.00  0.00    -0.012 C 
ATOM      9  C   LIG d   1       2.418  -0.216  -7.990  0.00  0.00    -0.049 C 
ATOM     10  C   LIG d   1       3.656  -0.476  -7.132  0.00  0.00    -0.049 C 
ATOM     11  C   LIG d   1       4.909  -0.030  -7.888  0.00  0.00    -0.034 C 
ATOM     12  H   LIG d   1       4.845   1.035  -8.108  0.00  0.00     0.031 H 
ATOM     13  C   LIG d   1       5.018  -0.824  -9.199  0.00  0.00    -0.026 C 
ATOM     14  H   LIG d   1       5.067  -1.888  -8.965  0.00  0.00     0.031 H 
ATOM     15  C   LIG d   1       6.271  -0.449  -9.987  0.00  0.00     0.010 C 
ATOM     16  C   LIG d   1       7.499  -0.464  -9.088  0.00  0.00     0.140 C 
ATOM     17  O   LIG d   1       8.511  -1.052  -9.386  0.00  0.00    -0.297 OA
ATOM     18  C   LIG d   1       7.364   0.304  -7.806  0.00  0.00     0.035 C 
ATOM     19  C   LIG d   1       6.144  -0.306  -7.064  0.00  0.00    -0.023 C 
ATOM     20  H   LIG d   1       6.293  -1.384  -6.990  0.00  0.00     0.031 H 
ATOM     21  C   LIG d   1       6.235   0.291  -5.669  0.00  0.00    -0.022 C 
ATOM     22  C   LIG d   1       7.749   0.510  -5.420  0.00  0.00     0.066 C 
ATOM     23  H   LIG d   1       8.114  -0.083  -4.582  0.00  0.00     0.060 H 
ATOM     24  C   LIG d   1       8.474   0.106  -6.773  0.00  0.00     0.005 C 
ATOM     25  H   LIG d   1       8.893  -0.899  -6.784  0.00  0.00     0.034 H 
ATOM     26  C   LIG d   1       9.533   1.217  -6.933  0.00  0.00     0.016 C 
ATOM     27  H   LIG d   1       9.338   1.805  -7.830  0.00  0.00     0.035 H 
ATOM     28  C   LIG d   1       9.365   2.085  -5.672  0.00  0.00     0.173 C 
ATOM     29  O   LIG d   1       7.980   1.920  -5.229  0.00  0.00    -0.345 OA
ATOM     30  C   LIG d   1       9.582   3.556  -6.016  0.00  0.00     0.002 C 
ATOM     31  C   LIG d   1       9.453   4.397  -4.741  0.00  0.00    -0.043 C 
ATOM     32  C   LIG d   1      10.444   3.872  -3.697  0.00  0.00    -0.020 C 
ATOM     33  H   LIG d   1      11.462   3.991  -4.069  0.00  0.00     0.032 H 
ATOM     34  C   LIG d   1      10.164   2.391  -3.435  0.00  0.00     0.053 C 
ATOM     35  O   LIG d   1      10.273   1.663  -4.662  0.00  0.00    -0.348 OA
ATOM     36  H   LIG d   1       2.726  -1.655 -13.151  0.00  0.00     0.030 H 
ATOM     37  H   LIG d   1       2.575  -0.029 -12.443  0.00  0.00     0.030 H 
ATOM     38  H   LIG d   1       3.959  -2.416 -11.139  0.00  0.00     0.027 H 
ATOM     39  H   LIG d   1       4.777  -1.033 -11.904  0.00  0.00     0.027 H 
ATOM     40  H   LIG d   1       1.215   0.313 -10.377  0.00  0.00     0.030 H 
ATOM     41  H   LIG d   1       0.397  -1.069  -9.610  0.00  0.00     0.030 H 
ATOM     42  H   LIG d   1       2.350   0.849  -8.216  0.00  0.00     0.027 H 
ATOM     43  H   LIG d   1       1.526  -0.530  -7.447  0.00  0.00     0.027 H 
ATOM     44  H   LIG d   1       3.576   0.084  -6.200  0.00  0.00     0.027 H 
ATOM     45  H   LIG d   1       3.725  -1.541  -6.909  0.00  0.00     0.027 H 
ATOM     46  H   LIG d   1       6.412  -1.165 -10.798  0.00  0.00     0.035 H 
ATOM     47  H   LIG d   1       6.146   0.548 -10.407  0.00  0.00     0.035 H 
ATOM     48  H   LIG d   1       5.703   1.242  -5.629  0.00  0.00     0.029 H 
ATOM     49  H   LIG d   1       5.826  -0.402  -4.934  0.00  0.00     0.029 H 
ATOM     50  H   LIG d   1      10.578   3.687  -6.440  0.00  0.00     0.032 H 
ATOM     51  H   LIG d   1       8.832   3.875  -6.740  0.00  0.00     0.032 H 
ATOM     52  H   LIG d   1       9.678   5.439  -4.967  0.00  0.00     0.027 H 
ATOM     53  H   LIG d   1       8.438   4.317  -4.352  0.00  0.00     0.027 H 
ATOM     54  H   LIG d   1      10.889   2.004  -2.718  0.00  0.00     0.056 H 
ATOM     55  H   LIG d   1       9.158   2.276  -3.033  0.00  0.00     0.056 H 
ENDROOT
BRANCH  26  56
ATOM     56  C   LIG d   1      10.939   0.613  -6.985  0.00  0.00    -0.057 C 
ATOM     57  H   LIG d   1      11.620   1.318  -7.462  0.00  0.00     0.023 H 
ATOM     58  H   LIG d   1      11.282   0.403  -5.972  0.00  0.00     0.023 H 
ATOM     59  H   LIG d   1      10.913  -0.314  -7.559  0.00  0.00     0.023 H 
ENDBRANCH  26  56
BRANCH  18  60
ATOM     60  C   LIG d   1       7.141   1.791  -8.087  0.00  0.00    -0.052 C 
ATOM     61  H   LIG d   1       7.775   2.384  -7.427  0.00  0.00     0.024 H 
ATOM     62  H   LIG d   1       7.394   2.007  -9.125  0.00  0.00     0.024 H 
ATOM     63  H   LIG d   1       6.096   2.041  -7.908  0.00  0.00     0.024 H 
ENDBRANCH  18  60
BRANCH  32  64
ATOM     64  C   LIG d   1      10.280   4.661  -2.396  0.00  0.00    -0.060 C 
ATOM     65  H   LIG d   1       9.499   4.204  -1.790  0.00  0.00     0.023 H 
ATOM     66  H   LIG d   1      11.220   4.652  -1.845  0.00  0.00     0.023 H 
ATOM     67  H   LIG d   1      10.004   5.691  -2.628  0.00  0.00     0.023 H 
ENDBRANCH  32  64
BRANCH   5  68
ATOM     68  C   LIG d   1       3.680   0.931 -10.368  0.00  0.00    -0.059 C 
ATOM     69  H   LIG d   1       3.405   1.066 -11.414  0.00  0.00     0.024 H 
ATOM     70  H   LIG d   1       2.921   1.386  -9.732  0.00  0.00     0.024 H 
ATOM     71  H   LIG d   1       4.643   1.405 -10.182  0.00  0.00     0.024 H 
ENDBRANCH   5  68
BRANCH   1  72
ATOM     72  O   LIG d   1       1.493  -2.936 -11.165  0.00  0.00    -0.461 OA
BRANCH  72  73
ATOM     73  C   LIG d   1       0.432  -3.697 -11.474  0.00  0.00     0.307 C 
ATOM     74  O   LIG d   1      -0.102  -4.365 -10.620  0.00  0.00    -0.251 OA
BRANCH  73  75
ATOM     75  C   LIG d   1      -0.094  -3.720 -12.886  0.00  0.00     0.045 C 
ATOM     76  H   LIG d   1      -0.043  -4.736 -13.276  0.00  0.00     0.038 H 
ATOM     77  H   LIG d   1       0.511  -3.062 -13.509  0.00  0.00     0.038 H 
BRANCH  75  78
ATOM     78  C   LIG d   1      -1.547  -3.241 -12.898  0.00  0.00    -0.046 C 
ATOM     79  H   LIG d   1      -1.859  -3.003 -11.881  0.00  0.00     0.027 H 
ATOM     80  H   LIG d   1      -2.186  -4.028 -13.298  0.00  0.00     0.027 H 
BRANCH  78  81
ATOM     81  C   LIG d   1      -1.665  -1.992 -13.774  0.00  0.00    -0.065 C 
ATOM     82  H   LIG d   1      -0.720  -1.820 -14.289  0.00  0.00     0.023 H 
ATOM     83  H   LIG d   1      -2.458  -2.137 -14.509  0.00  0.00     0.023 H 
ATOM     84  H   LIG d   1      -1.902  -1.132 -13.149  0.00  0.00     0.023 H 
ENDBRANCH  78  81
ENDBRANCH  75  78
ENDBRANCH  73  75
ENDBRANCH  72  73
ENDBRANCH   1  72
TORSDOF 9
ENDMDL
