MODEL 1
REMARK VINA RESULT:      -5.7      0.000      0.000
REMARK  4 active torsions:
REMARK  status: ('A' for Active; 'I' for Inactive)
REMARK    1  A    between atoms: C_1  and  C_2 
REMARK    2  A    between atoms: C_2  and  C_3 
REMARK    3  A    between atoms: C_3  and  C_4 
REMARK    4  A    between atoms: C_4  and  C_5 
ROOT
ATOM      1  C   LIG d   1       4.652   0.524  -1.936  0.00  0.00     0.129 A 
ATOM      2  H   LIG d   1       4.702   0.383  -0.857  0.00  0.00     0.079 H 
ATOM      3  C   LIG d   1       4.734  -0.810  -2.636  0.00  0.00     0.007 A 
ATOM      4  C   LIG d   1       3.951  -1.940  -2.610  0.00  0.00    -0.054 A 
ATOM      5  C   LIG d   1       4.293  -3.035  -3.386  0.00  0.00    -0.061 A 
ATOM      6  C   LIG d   1       5.421  -2.998  -4.187  0.00  0.00    -0.061 A 
ATOM      7  C   LIG d   1       6.213  -1.869  -4.221  0.00  0.00    -0.047 A 
ATOM      8  C   LIG d   1       5.875  -0.761  -3.442  0.00  0.00     0.066 A 
ATOM      9  C   LIG d   1       6.503   0.561  -3.264  0.00  0.00     0.340 A 
ATOM     10  O   LIG d   1       7.517   0.930  -3.823  0.00  0.00    -0.245 OA
ATOM     11  O   LIG d   1       5.793   1.299  -2.394  0.00  0.00    -0.453 OA
ATOM     12  H   LIG d   1       3.070  -1.973  -1.987  0.00  0.00     0.062 H 
ATOM     13  H   LIG d   1       3.677  -3.923  -3.365  0.00  0.00     0.062 H 
ATOM     14  H   LIG d   1       5.683  -3.856  -4.789  0.00  0.00     0.062 H 
ATOM     15  H   LIG d   1       7.092  -1.843  -4.847  0.00  0.00     0.063 H 
ENDROOT
BRANCH   1  16
ATOM     16  C   LIG d   1       3.349   1.234  -2.312  0.00  0.00    -0.011 C 
ATOM     17  H   LIG d   1       3.236   2.132  -1.704  0.00  0.00     0.030 H 
ATOM     18  H   LIG d   1       2.507   0.565  -2.133  0.00  0.00     0.030 H 
BRANCH  16  19
ATOM     19  C   LIG d   1       3.389   1.622  -3.791  0.00  0.00    -0.050 C 
ATOM     20  H   LIG d   1       4.399   1.483  -4.177  0.00  0.00     0.027 H 
ATOM     21  H   LIG d   1       3.098   2.666  -3.901  0.00  0.00     0.027 H 
BRANCH  19  22
ATOM     22  C   LIG d   1       2.418   0.737  -4.576  0.00  0.00    -0.056 C 
ATOM     23  H   LIG d   1       1.551   1.326  -4.876  0.00  0.00     0.026 H 
ATOM     24  H   LIG d   1       2.093  -0.093  -3.948  0.00  0.00     0.026 H 
BRANCH  22  25
ATOM     25  C   LIG d   1       3.119   0.190  -5.822  0.00  0.00    -0.065 C 
ATOM     26  H   LIG d   1       4.195   0.325  -5.721  0.00  0.00     0.023 H 
ATOM     27  H   LIG d   1       2.892  -0.870  -5.930  0.00  0.00     0.023 H 
ATOM     28  H   LIG d   1       2.766   0.729  -6.702  0.00  0.00     0.023 H 
ENDBRANCH  22  25
ENDBRANCH  19  22
ENDBRANCH  16  19
ENDBRANCH   1  16
TORSDOF 4
ENDMDL
MODEL 2
REMARK VINA RESULT:      -5.7      2.116      3.547
REMARK  4 active torsions:
REMARK  status: ('A' for Active; 'I' for Inactive)
REMARK    1  A    between atoms: C_1  and  C_2 
REMARK    2  A    between atoms: C_2  and  C_3 
REMARK    3  A    between atoms: C_3  and  C_4 
REMARK    4  A    between atoms: C_4  and  C_5 
ROOT
ATOM      1  C   LIG d   1       2.649   0.076  -5.241  0.00  0.00     0.129 A 
ATOM      2  H   LIG d   1       1.636  -0.310  -5.349  0.00  0.00     0.079 H 
ATOM      3  C   LIG d   1       3.300  -0.515  -4.015  0.00  0.00     0.007 A 
ATOM      4  C   LIG d   1       3.602  -1.801  -3.633  0.00  0.00    -0.054 A 
ATOM      5  C   LIG d   1       4.217  -2.033  -2.414  0.00  0.00    -0.061 A 
ATOM      6  C   LIG d   1       4.528  -0.975  -1.577  0.00  0.00    -0.061 A 
ATOM      7  C   LIG d   1       4.229   0.319  -1.952  0.00  0.00    -0.047 A 
ATOM      8  C   LIG d   1       3.610   0.561  -3.178  0.00  0.00     0.066 A 
ATOM      9  C   LIG d   1       3.172   1.800  -3.848  0.00  0.00     0.340 A 
ATOM     10  O   LIG d   1       3.294   2.918  -3.388  0.00  0.00    -0.245 OA
ATOM     11  O   LIG d   1       2.618   1.514  -5.037  0.00  0.00    -0.453 OA
ATOM     12  H   LIG d   1       3.362  -2.629  -4.283  0.00  0.00     0.062 H 
ATOM     13  H   LIG d   1       4.455  -3.043  -2.115  0.00  0.00     0.062 H 
ATOM     14  H   LIG d   1       5.008  -1.162  -0.628  0.00  0.00     0.062 H 
ATOM     15  H   LIG d   1       4.474   1.142  -1.297  0.00  0.00     0.063 H 
ENDROOT
BRANCH   1  16
ATOM     16  C   LIG d   1       3.473  -0.261  -6.486  0.00  0.00    -0.011 C 
ATOM     17  H   LIG d   1       3.806  -1.298  -6.433  0.00  0.00     0.030 H 
ATOM     18  H   LIG d   1       4.341   0.397  -6.535  0.00  0.00     0.030 H 
BRANCH  16  19
ATOM     19  C   LIG d   1       2.613  -0.065  -7.735  0.00  0.00    -0.050 C 
ATOM     20  H   LIG d   1       1.680   0.427  -7.460  0.00  0.00     0.027 H 
ATOM     21  H   LIG d   1       2.393  -1.034  -8.181  0.00  0.00     0.027 H 
BRANCH  19  22
ATOM     22  C   LIG d   1       3.368   0.802  -8.744  0.00  0.00    -0.056 C 
ATOM     23  H   LIG d   1       3.185   0.429  -9.752  0.00  0.00     0.026 H 
ATOM     24  H   LIG d   1       4.437   0.761  -8.531  0.00  0.00     0.026 H 
BRANCH  22  25
ATOM     25  C   LIG d   1       2.882   2.249  -8.640  0.00  0.00    -0.065 C 
ATOM     26  H   LIG d   1       2.399   2.538  -9.573  0.00  0.00     0.023 H 
ATOM     27  H   LIG d   1       2.170   2.335  -7.818  0.00  0.00     0.023 H 
ATOM     28  H   LIG d   1       3.733   2.905  -8.453  0.00  0.00     0.023 H 
ENDBRANCH  22  25
ENDBRANCH  19  22
ENDBRANCH  16  19
ENDBRANCH   1  16
TORSDOF 4
ENDMDL
MODEL 3
REMARK VINA RESULT:      -5.6      2.622      3.824
REMARK  4 active torsions:
REMARK  status: ('A' for Active; 'I' for Inactive)
REMARK    1  A    between atoms: C_1  and  C_2 
REMARK    2  A    between atoms: C_2  and  C_3 
REMARK    3  A    between atoms: C_3  and  C_4 
REMARK    4  A    between atoms: C_4  and  C_5 
ROOT
ATOM      1  C   LIG d   1       4.198  -0.307  -5.810  0.00  0.00     0.129 A 
ATOM      2  H   LIG d   1       5.027   0.252  -6.243  0.00  0.00     0.079 H 
ATOM      3  C   LIG d   1       4.248  -0.224  -4.305  0.00  0.00     0.007 A 
ATOM      4  C   LIG d   1       4.188   0.822  -3.414  0.00  0.00    -0.054 A 
ATOM      5  C   LIG d   1       4.263   0.575  -2.053  0.00  0.00    -0.061 A 
ATOM      6  C   LIG d   1       4.398  -0.720  -1.585  0.00  0.00    -0.061 A 
ATOM      7  C   LIG d   1       4.459  -1.776  -2.471  0.00  0.00    -0.047 A 
ATOM      8  C   LIG d   1       4.385  -1.536  -3.844  0.00  0.00     0.066 A 
ATOM      9  C   LIG d   1       4.420  -2.430  -5.016  0.00  0.00     0.340 A 
ATOM     10  O   LIG d   1       4.531  -3.639  -4.965  0.00  0.00    -0.245 OA
ATOM     11  O   LIG d   1       4.312  -1.716  -6.148  0.00  0.00    -0.453 OA
ATOM     12  H   LIG d   1       4.082   1.834  -3.775  0.00  0.00     0.062 H 
ATOM     13  H   LIG d   1       4.215   1.397  -1.354  0.00  0.00     0.062 H 
ATOM     14  H   LIG d   1       4.456  -0.906  -0.523  0.00  0.00     0.062 H 
ATOM     15  H   LIG d   1       4.564  -2.786  -2.103  0.00  0.00     0.063 H 
ENDROOT
BRANCH   1  16
ATOM     16  C   LIG d   1       2.867   0.251  -6.322  0.00  0.00    -0.011 C 
ATOM     17  H   LIG d   1       2.664   1.207  -5.840  0.00  0.00     0.030 H 
ATOM     18  H   LIG d   1       2.066  -0.452  -6.089  0.00  0.00     0.030 H 
BRANCH  16  19
ATOM     19  C   LIG d   1       2.947   0.449  -7.836  0.00  0.00    -0.050 C 
ATOM     20  H   LIG d   1       2.124  -0.080  -8.316  0.00  0.00     0.027 H 
ATOM     21  H   LIG d   1       3.894   0.057  -8.204  0.00  0.00     0.027 H 
BRANCH  19  22
ATOM     22  C   LIG d   1       2.853   1.942  -8.161  0.00  0.00    -0.056 C 
ATOM     23  H   LIG d   1       3.291   2.519  -7.347  0.00  0.00     0.026 H 
ATOM     24  H   LIG d   1       1.806   2.222  -8.281  0.00  0.00     0.026 H 
BRANCH  22  25
ATOM     25  C   LIG d   1       3.611   2.231  -9.458  0.00  0.00    -0.065 C 
ATOM     26  H   LIG d   1       4.466   1.561  -9.536  0.00  0.00     0.023 H 
ATOM     27  H   LIG d   1       2.947   2.076 -10.309  0.00  0.00     0.023 H 
ATOM     28  H   LIG d   1       3.958   3.265  -9.452  0.00  0.00     0.023 H 
ENDBRANCH  22  25
ENDBRANCH  19  22
ENDBRANCH  16  19
ENDBRANCH   1  16
TORSDOF 4
ENDMDL
MODEL 4
REMARK VINA RESULT:      -5.3      2.014      3.549
REMARK  4 active torsions:
REMARK  status: ('A' for Active; 'I' for Inactive)
REMARK    1  A    between atoms: C_1  and  C_2 
REMARK    2  A    between atoms: C_2  and  C_3 
REMARK    3  A    between atoms: C_3  and  C_4 
REMARK    4  A    between atoms: C_4  and  C_5 
ROOT
ATOM      1  C   LIG d   1       2.905  -0.704  -3.192  0.00  0.00     0.129 A 
ATOM      2  H   LIG d   1       1.866  -0.969  -2.996  0.00  0.00     0.079 H 
ATOM      3  C   LIG d   1       3.104  -0.444  -4.664  0.00  0.00     0.007 A 
ATOM      4  C   LIG d   1       2.563   0.463  -5.544  0.00  0.00    -0.054 A 
ATOM      5  C   LIG d   1       2.955   0.456  -6.873  0.00  0.00    -0.061 A 
ATOM      6  C   LIG d   1       3.889  -0.463  -7.319  0.00  0.00    -0.061 A 
ATOM      7  C   LIG d   1       4.438  -1.378  -6.443  0.00  0.00    -0.047 A 
ATOM      8  C   LIG d   1       4.048  -1.376  -5.103  0.00  0.00     0.066 A 
ATOM      9  C   LIG d   1       4.441  -2.205  -3.949  0.00  0.00     0.340 A 
ATOM     10  O   LIG d   1       5.248  -3.114  -3.989  0.00  0.00    -0.245 OA
ATOM     11  O   LIG d   1       3.779  -1.813  -2.849  0.00  0.00    -0.453 OA
ATOM     12  H   LIG d   1       1.834   1.183  -5.200  0.00  0.00     0.062 H 
ATOM     13  H   LIG d   1       2.530   1.169  -7.564  0.00  0.00     0.062 H 
ATOM     14  H   LIG d   1       4.191  -0.465  -8.356  0.00  0.00     0.062 H 
ATOM     15  H   LIG d   1       5.167  -2.093  -6.794  0.00  0.00     0.063 H 
ENDROOT
BRANCH   1  16
ATOM     16  C   LIG d   1       3.290   0.537  -2.383  0.00  0.00    -0.011 C 
ATOM     17  H   LIG d   1       2.651   0.611  -1.503  0.00  0.00     0.030 H 
ATOM     18  H   LIG d   1       3.161   1.427  -3.001  0.00  0.00     0.030 H 
BRANCH  16  19
ATOM     19  C   LIG d   1       4.751   0.427  -1.945  0.00  0.00    -0.050 C 
ATOM     20  H   LIG d   1       5.093  -0.600  -2.075  0.00  0.00     0.027 H 
ATOM     21  H   LIG d   1       4.838   0.709  -0.896  0.00  0.00     0.027 H 
BRANCH  19  22
ATOM     22  C   LIG d   1       5.611   1.362  -2.797  0.00  0.00    -0.056 C 
ATOM     23  H   LIG d   1       6.048   2.133  -2.163  0.00  0.00     0.026 H 
ATOM     24  H   LIG d   1       4.991   1.831  -3.562  0.00  0.00     0.026 H 
BRANCH  22  25
ATOM     25  C   LIG d   1       6.728   0.559  -3.468  0.00  0.00    -0.065 C 
ATOM     26  H   LIG d   1       7.690   0.860  -3.053  0.00  0.00     0.023 H 
ATOM     27  H   LIG d   1       6.569  -0.504  -3.288  0.00  0.00     0.023 H 
ATOM     28  H   LIG d   1       6.719   0.752  -4.541  0.00  0.00     0.023 H 
ENDBRANCH  22  25
ENDBRANCH  19  22
ENDBRANCH  16  19
ENDBRANCH   1  16
TORSDOF 4
ENDMDL
MODEL 5
REMARK VINA RESULT:      -5.2      2.297      3.906
REMARK  4 active torsions:
REMARK  status: ('A' for Active; 'I' for Inactive)
REMARK    1  A    between atoms: C_1  and  C_2 
REMARK    2  A    between atoms: C_2  and  C_3 
REMARK    3  A    between atoms: C_3  and  C_4 
REMARK    4  A    between atoms: C_4  and  C_5 
ROOT
ATOM      1  C   LIG d   1       6.850  -1.430  -3.407  0.00  0.00     0.129 A 
ATOM      2  H   LIG d   1       7.473  -1.594  -2.528  0.00  0.00     0.079 H 
ATOM      3  C   LIG d   1       5.610  -0.660  -3.024  0.00  0.00     0.007 A 
ATOM      4  C   LIG d   1       5.403   0.584  -2.476  0.00  0.00    -0.054 A 
ATOM      5  C   LIG d   1       4.113   1.026  -2.235  0.00  0.00    -0.061 A 
ATOM      6  C   LIG d   1       3.030   0.221  -2.543  0.00  0.00    -0.061 A 
ATOM      7  C   LIG d   1       3.228  -1.029  -3.094  0.00  0.00    -0.047 A 
ATOM      8  C   LIG d   1       4.524  -1.482  -3.340  0.00  0.00     0.066 A 
ATOM      9  C   LIG d   1       5.052  -2.737  -3.907  0.00  0.00     0.340 A 
ATOM     10  O   LIG d   1       4.370  -3.669  -4.285  0.00  0.00    -0.245 OA
ATOM     11  O   LIG d   1       6.394  -2.702  -3.942  0.00  0.00    -0.453 OA
ATOM     12  H   LIG d   1       6.245   1.215  -2.234  0.00  0.00     0.062 H 
ATOM     13  H   LIG d   1       3.950   2.003  -1.804  0.00  0.00     0.062 H 
ATOM     14  H   LIG d   1       2.026   0.571  -2.352  0.00  0.00     0.062 H 
ATOM     15  H   LIG d   1       2.381  -1.654  -3.334  0.00  0.00     0.063 H 
ENDROOT
BRANCH   1  16
ATOM     16  C   LIG d   1       7.637  -0.662  -4.472  0.00  0.00    -0.011 C 
ATOM     17  H   LIG d   1       8.704  -0.825  -4.323  0.00  0.00     0.030 H 
ATOM     18  H   LIG d   1       7.416   0.402  -4.388  0.00  0.00     0.030 H 
BRANCH  16  19
ATOM     19  C   LIG d   1       7.233  -1.160  -5.861  0.00  0.00    -0.050 C 
ATOM     20  H   LIG d   1       6.564  -2.015  -5.760  0.00  0.00     0.027 H 
ATOM     21  H   LIG d   1       8.124  -1.460  -6.412  0.00  0.00     0.027 H 
BRANCH  19  22
ATOM     22  C   LIG d   1       6.518  -0.039  -6.617  0.00  0.00    -0.056 C 
ATOM     23  H   LIG d   1       6.994   0.106  -7.586  0.00  0.00     0.026 H 
ATOM     24  H   LIG d   1       6.579   0.885  -6.041  0.00  0.00     0.026 H 
BRANCH  22  25
ATOM     25  C   LIG d   1       5.049  -0.417  -6.820  0.00  0.00    -0.065 C 
ATOM     26  H   LIG d   1       4.731  -0.110  -7.816  0.00  0.00     0.023 H 
ATOM     27  H   LIG d   1       4.934  -1.496  -6.717  0.00  0.00     0.023 H 
ATOM     28  H   LIG d   1       4.438   0.087  -6.072  0.00  0.00     0.023 H 
ENDBRANCH  22  25
ENDBRANCH  19  22
ENDBRANCH  16  19
ENDBRANCH   1  16
TORSDOF 4
ENDMDL
MODEL 6
REMARK VINA RESULT:      -5.1      1.977      4.644
REMARK  4 active torsions:
REMARK  status: ('A' for Active; 'I' for Inactive)
REMARK    1  A    between atoms: C_1  and  C_2 
REMARK    2  A    between atoms: C_2  and  C_3 
REMARK    3  A    between atoms: C_3  and  C_4 
REMARK    4  A    between atoms: C_4  and  C_5 
ROOT
ATOM      1  C   LIG d   1       7.113  -1.447  -4.202  0.00  0.00     0.129 A 
ATOM      2  H   LIG d   1       6.818  -1.787  -5.194  0.00  0.00     0.079 H 
ATOM      3  C   LIG d   1       5.895  -1.042  -3.410  0.00  0.00     0.007 A 
ATOM      4  C   LIG d   1       4.773  -1.718  -2.992  0.00  0.00    -0.054 A 
ATOM      5  C   LIG d   1       3.802  -1.058  -2.259  0.00  0.00    -0.061 A 
ATOM      6  C   LIG d   1       3.955   0.282  -1.944  0.00  0.00    -0.061 A 
ATOM      7  C   LIG d   1       5.078   0.969  -2.358  0.00  0.00    -0.047 A 
ATOM      8  C   LIG d   1       6.061   0.310  -3.098  0.00  0.00     0.066 A 
ATOM      9  C   LIG d   1       7.344   0.757  -3.672  0.00  0.00     0.340 A 
ATOM     10  O   LIG d   1       7.790   1.884  -3.582  0.00  0.00    -0.245 OA
ATOM     11  O   LIG d   1       7.947  -0.261  -4.308  0.00  0.00    -0.453 OA
ATOM     12  H   LIG d   1       4.650  -2.763  -3.235  0.00  0.00     0.062 H 
ATOM     13  H   LIG d   1       2.920  -1.589  -1.931  0.00  0.00     0.062 H 
ATOM     14  H   LIG d   1       3.194   0.791  -1.373  0.00  0.00     0.062 H 
ATOM     15  H   LIG d   1       5.195   2.014  -2.111  0.00  0.00     0.063 H 
ENDROOT
BRANCH   1  16
ATOM     16  C   LIG d   1       7.870  -2.557  -3.471  0.00  0.00    -0.011 C 
ATOM     17  H   LIG d   1       7.288  -2.889  -2.611  0.00  0.00     0.030 H 
ATOM     18  H   LIG d   1       8.834  -2.177  -3.132  0.00  0.00     0.030 H 
BRANCH  16  19
ATOM     19  C   LIG d   1       8.092  -3.735  -4.422  0.00  0.00    -0.050 C 
ATOM     20  H   LIG d   1       8.597  -3.385  -5.322  0.00  0.00     0.027 H 
ATOM     21  H   LIG d   1       7.130  -4.170  -4.691  0.00  0.00     0.027 H 
BRANCH  19  22
ATOM     22  C   LIG d   1       8.955  -4.792  -3.732  0.00  0.00    -0.056 C 
ATOM     23  H   LIG d   1       9.723  -5.142  -4.423  0.00  0.00     0.026 H 
ATOM     24  H   LIG d   1       8.330  -5.632  -3.429  0.00  0.00     0.026 H 
BRANCH  22  25
ATOM     25  C   LIG d   1       9.621  -4.182  -2.496  0.00  0.00    -0.065 C 
ATOM     26  H   LIG d   1      10.508  -4.760  -2.239  0.00  0.00     0.023 H 
ATOM     27  H   LIG d   1       9.906  -3.151  -2.710  0.00  0.00     0.023 H 
ATOM     28  H   LIG d   1       8.921  -4.200  -1.661  0.00  0.00     0.023 H 
ENDBRANCH  22  25
ENDBRANCH  19  22
ENDBRANCH  16  19
ENDBRANCH   1  16
TORSDOF 4
ENDMDL
MODEL 7
REMARK VINA RESULT:      -5.1      2.279      4.322
REMARK  4 active torsions:
REMARK  status: ('A' for Active; 'I' for Inactive)
REMARK    1  A    between atoms: C_1  and  C_2 
REMARK    2  A    between atoms: C_2  and  C_3 
REMARK    3  A    between atoms: C_3  and  C_4 
REMARK    4  A    between atoms: C_4  and  C_5 
ROOT
ATOM      1  C   LIG d   1       7.652   0.174  -3.946  0.00  0.00     0.129 A 
ATOM      2  H   LIG d   1       8.426   0.558  -3.281  0.00  0.00     0.079 H 
ATOM      3  C   LIG d   1       6.342   0.068  -3.207  0.00  0.00     0.007 A 
ATOM      4  C   LIG d   1       5.536   0.986  -2.577  0.00  0.00    -0.054 A 
ATOM      5  C   LIG d   1       4.361   0.574  -1.971  0.00  0.00    -0.061 A 
ATOM      6  C   LIG d   1       3.994  -0.761  -1.997  0.00  0.00    -0.061 A 
ATOM      7  C   LIG d   1       4.795  -1.690  -2.628  0.00  0.00    -0.047 A 
ATOM      8  C   LIG d   1       5.981  -1.282  -3.240  0.00  0.00     0.066 A 
ATOM      9  C   LIG d   1       7.027  -2.016  -3.977  0.00  0.00     0.340 A 
ATOM     10  O   LIG d   1       7.019  -3.213  -4.186  0.00  0.00    -0.245 OA
ATOM     11  O   LIG d   1       7.989  -1.171  -4.382  0.00  0.00    -0.453 OA
ATOM     12  H   LIG d   1       5.818   2.028  -2.555  0.00  0.00     0.062 H 
ATOM     13  H   LIG d   1       3.728   1.296  -1.476  0.00  0.00     0.062 H 
ATOM     14  H   LIG d   1       3.076  -1.076  -1.523  0.00  0.00     0.062 H 
ATOM     15  H   LIG d   1       4.505  -2.730  -2.647  0.00  0.00     0.063 H 
ENDROOT
BRANCH   1  16
ATOM     16  C   LIG d   1       7.498   1.096  -5.158  0.00  0.00    -0.011 C 
ATOM     17  H   LIG d   1       6.462   1.427  -5.234  0.00  0.00     0.030 H 
ATOM     18  H   LIG d   1       7.774   0.554  -6.063  0.00  0.00     0.030 H 
BRANCH  16  19
ATOM     19  C   LIG d   1       8.412   2.311  -4.993  0.00  0.00    -0.050 C 
ATOM     20  H   LIG d   1       7.812   3.222  -5.003  0.00  0.00     0.027 H 
ATOM     21  H   LIG d   1       9.129   2.340  -5.813  0.00  0.00     0.027 H 
BRANCH  19  22
ATOM     22  C   LIG d   1       9.162   2.209  -3.663  0.00  0.00    -0.056 C 
ATOM     23  H   LIG d   1      10.011   1.535  -3.776  0.00  0.00     0.026 H 
ATOM     24  H   LIG d   1       8.490   1.823  -2.896  0.00  0.00     0.026 H 
BRANCH  22  25
ATOM     25  C   LIG d   1       9.662   3.596  -3.252  0.00  0.00    -0.065 C 
ATOM     26  H   LIG d   1       9.518   3.730  -2.180  0.00  0.00     0.023 H 
ATOM     27  H   LIG d   1      10.722   3.685  -3.491  0.00  0.00     0.023 H 
ATOM     28  H   LIG d   1       9.102   4.359  -3.792  0.00  0.00     0.023 H 
ENDBRANCH  22  25
ENDBRANCH  19  22
ENDBRANCH  16  19
ENDBRANCH   1  16
TORSDOF 4
ENDMDL
MODEL 8
REMARK VINA RESULT:      -5.0      2.419      4.595
REMARK  4 active torsions:
REMARK  status: ('A' for Active; 'I' for Inactive)
REMARK    1  A    between atoms: C_1  and  C_2 
REMARK    2  A    between atoms: C_2  and  C_3 
REMARK    3  A    between atoms: C_3  and  C_4 
REMARK    4  A    between atoms: C_4  and  C_5 
ROOT
ATOM      1  C   LIG d   1       4.636  -2.494  -4.861  0.00  0.00     0.129 A 
ATOM      2  H   LIG d   1       3.925  -3.313  -4.751  0.00  0.00     0.079 H 
ATOM      3  C   LIG d   1       4.480  -1.518  -3.722  0.00  0.00     0.007 A 
ATOM      4  C   LIG d   1       4.611  -1.630  -2.358  0.00  0.00    -0.054 A 
ATOM      5  C   LIG d   1       4.399  -0.524  -1.550  0.00  0.00    -0.061 A 
ATOM      6  C   LIG d   1       4.055   0.693  -2.111  0.00  0.00    -0.061 A 
ATOM      7  C   LIG d   1       3.922   0.816  -3.479  0.00  0.00    -0.047 A 
ATOM      8  C   LIG d   1       4.133  -0.293  -4.299  0.00  0.00     0.066 A 
ATOM      9  C   LIG d   1       4.069  -0.480  -5.760  0.00  0.00     0.340 A 
ATOM     10  O   LIG d   1       3.792   0.392  -6.561  0.00  0.00    -0.245 OA
ATOM     11  O   LIG d   1       4.360  -1.752  -6.079  0.00  0.00    -0.453 OA
ATOM     12  H   LIG d   1       4.881  -2.578  -1.916  0.00  0.00     0.062 H 
ATOM     13  H   LIG d   1       4.503  -0.613  -0.478  0.00  0.00     0.062 H 
ATOM     14  H   LIG d   1       3.891   1.551  -1.476  0.00  0.00     0.062 H 
ATOM     15  H   LIG d   1       3.653   1.768  -3.913  0.00  0.00     0.063 H 
ENDROOT
BRANCH   1  16
ATOM     16  C   LIG d   1       6.065  -3.042  -4.891  0.00  0.00    -0.011 C 
ATOM     17  H   LIG d   1       6.431  -3.159  -3.871  0.00  0.00     0.030 H 
ATOM     18  H   LIG d   1       6.708  -2.346  -5.431  0.00  0.00     0.030 H 
BRANCH  16  19
ATOM     19  C   LIG d   1       6.076  -4.399  -5.597  0.00  0.00    -0.050 C 
ATOM     20  H   LIG d   1       6.906  -4.997  -5.222  0.00  0.00     0.027 H 
ATOM     21  H   LIG d   1       6.192  -4.249  -6.670  0.00  0.00     0.027 H 
BRANCH  19  22
ATOM     22  C   LIG d   1       4.758  -5.126  -5.323  0.00  0.00    -0.056 C 
ATOM     23  H   LIG d   1       3.982  -4.732  -5.980  0.00  0.00     0.026 H 
ATOM     24  H   LIG d   1       4.467  -4.973  -4.284  0.00  0.00     0.026 H 
BRANCH  22  25
ATOM     25  C   LIG d   1       4.937  -6.623  -5.587  0.00  0.00    -0.065 C 
ATOM     26  H   LIG d   1       5.995  -6.877  -5.529  0.00  0.00     0.023 H 
ATOM     27  H   LIG d   1       4.384  -7.192  -4.839  0.00  0.00     0.023 H 
ATOM     28  H   LIG d   1       4.558  -6.864  -6.580  0.00  0.00     0.023 H 
ENDBRANCH  22  25
ENDBRANCH  19  22
ENDBRANCH  16  19
ENDBRANCH   1  16
TORSDOF 4
ENDMDL
MODEL 9
REMARK VINA RESULT:      -4.9      2.065      4.137
REMARK  4 active torsions:
REMARK  status: ('A' for Active; 'I' for Inactive)
REMARK    1  A    between atoms: C_1  and  C_2 
REMARK    2  A    between atoms: C_2  and  C_3 
REMARK    3  A    between atoms: C_3  and  C_4 
REMARK    4  A    between atoms: C_4  and  C_5 
ROOT
ATOM      1  C   LIG d   1       4.774  -2.404  -4.554  0.00  0.00     0.129 A 
ATOM      2  H   LIG d   1       4.113  -3.251  -4.372  0.00  0.00     0.079 H 
ATOM      3  C   LIG d   1       4.523  -1.323  -3.533  0.00  0.00     0.007 A 
ATOM      4  C   LIG d   1       4.620  -1.279  -2.162  0.00  0.00    -0.054 A 
ATOM      5  C   LIG d   1       4.315  -0.110  -1.485  0.00  0.00    -0.061 A 
ATOM      6  C   LIG d   1       3.912   1.015  -2.183  0.00  0.00    -0.061 A 
ATOM      7  C   LIG d   1       3.812   0.981  -3.559  0.00  0.00    -0.047 A 
ATOM      8  C   LIG d   1       4.117  -0.193  -4.248  0.00  0.00     0.066 A 
ATOM      9  C   LIG d   1       4.108  -0.539  -5.681  0.00  0.00     0.340 A 
ATOM     10  O   LIG d   1       3.801   0.221  -6.578  0.00  0.00    -0.245 OA
ATOM     11  O   LIG d   1       4.488  -1.816  -5.852  0.00  0.00    -0.453 OA
ATOM     12  H   LIG d   1       4.935  -2.154  -1.613  0.00  0.00     0.062 H 
ATOM     13  H   LIG d   1       4.392  -0.075  -0.408  0.00  0.00     0.062 H 
ATOM     14  H   LIG d   1       3.675   1.924  -1.650  0.00  0.00     0.062 H 
ATOM     15  H   LIG d   1       3.497   1.861  -4.101  0.00  0.00     0.063 H 
ENDROOT
BRANCH   1  16
ATOM     16  C   LIG d   1       6.234  -2.856  -4.492  0.00  0.00    -0.011 C 
ATOM     17  H   LIG d   1       6.633  -2.939  -5.504  0.00  0.00     0.030 H 
ATOM     18  H   LIG d   1       6.292  -3.827  -3.998  0.00  0.00     0.030 H 
BRANCH  16  19
ATOM     19  C   LIG d   1       7.052  -1.832  -3.704  0.00  0.00    -0.050 C 
ATOM     20  H   LIG d   1       7.746  -2.352  -3.043  0.00  0.00     0.027 H 
ATOM     21  H   LIG d   1       6.381  -1.212  -3.110  0.00  0.00     0.027 H 
BRANCH  19  22
ATOM     22  C   LIG d   1       7.837  -0.949  -4.675  0.00  0.00    -0.056 C 
ATOM     23  H   LIG d   1       7.444  -1.079  -5.683  0.00  0.00     0.026 H 
ATOM     24  H   LIG d   1       8.889  -1.234  -4.657  0.00  0.00     0.026 H 
BRANCH  22  25
ATOM     25  C   LIG d   1       7.699   0.517  -4.259  0.00  0.00    -0.065 C 
ATOM     26  H   LIG d   1       7.549   1.133  -5.145  0.00  0.00     0.023 H 
ATOM     27  H   LIG d   1       6.845   0.625  -3.590  0.00  0.00     0.023 H 
ATOM     28  H   LIG d   1       8.606   0.835  -3.744  0.00  0.00     0.023 H 
ENDBRANCH  22  25
ENDBRANCH  19  22
ENDBRANCH  16  19
ENDBRANCH   1  16
TORSDOF 4
ENDMDL
MODEL 10
REMARK VINA RESULT:      -4.9      2.003      3.347
REMARK  4 active torsions:
REMARK  status: ('A' for Active; 'I' for Inactive)
REMARK    1  A    between atoms: C_1  and  C_2 
REMARK    2  A    between atoms: C_2  and  C_3 
REMARK    3  A    between atoms: C_3  and  C_4 
REMARK    4  A    between atoms: C_4  and  C_5 
ROOT
ATOM      1  C   LIG d   1       6.454  -0.306  -4.661  0.00  0.00     0.129 A 
ATOM      2  H   LIG d   1       7.363   0.075  -5.127  0.00  0.00     0.079 H 
ATOM      3  C   LIG d   1       6.324  -1.787  -4.917  0.00  0.00     0.007 A 
ATOM      4  C   LIG d   1       7.105  -2.872  -4.597  0.00  0.00    -0.054 A 
ATOM      5  C   LIG d   1       6.710  -4.144  -4.979  0.00  0.00    -0.061 A 
ATOM      6  C   LIG d   1       5.532  -4.327  -5.682  0.00  0.00    -0.061 A 
ATOM      7  C   LIG d   1       4.741  -3.244  -6.006  0.00  0.00    -0.047 A 
ATOM      8  C   LIG d   1       5.132  -1.960  -5.626  0.00  0.00     0.066 A 
ATOM      9  C   LIG d   1       4.519  -0.633  -5.818  0.00  0.00     0.340 A 
ATOM     10  O   LIG d   1       3.471  -0.428  -6.399  0.00  0.00    -0.245 OA
ATOM     11  O   LIG d   1       5.286   0.318  -5.260  0.00  0.00    -0.453 OA
ATOM     12  H   LIG d   1       8.025  -2.734  -4.048  0.00  0.00     0.062 H 
ATOM     13  H   LIG d   1       7.324  -4.996  -4.727  0.00  0.00     0.062 H 
ATOM     14  H   LIG d   1       5.230  -5.321  -5.977  0.00  0.00     0.062 H 
ATOM     15  H   LIG d   1       3.822  -3.390  -6.555  0.00  0.00     0.063 H 
ENDROOT
BRANCH   1  16
ATOM     16  C   LIG d   1       6.483  -0.033  -3.156  0.00  0.00    -0.011 C 
ATOM     17  H   LIG d   1       7.492   0.250  -2.856  0.00  0.00     0.030 H 
ATOM     18  H   LIG d   1       6.183  -0.934  -2.619  0.00  0.00     0.030 H 
BRANCH  16  19
ATOM     19  C   LIG d   1       5.514   1.104  -2.826  0.00  0.00    -0.050 C 
ATOM     20  H   LIG d   1       4.982   1.402  -3.729  0.00  0.00     0.027 H 
ATOM     21  H   LIG d   1       6.073   1.955  -2.437  0.00  0.00     0.027 H 
BRANCH  19  22
ATOM     22  C   LIG d   1       4.509   0.630  -1.775  0.00  0.00    -0.056 C 
ATOM     23  H   LIG d   1       3.549   1.117  -1.944  0.00  0.00     0.026 H 
ATOM     24  H   LIG d   1       4.875   0.885  -0.780  0.00  0.00     0.026 H 
BRANCH  22  25
ATOM     25  C   LIG d   1       4.337  -0.887  -1.881  0.00  0.00    -0.065 C 
ATOM     26  H   LIG d   1       3.849  -1.261  -0.981  0.00  0.00     0.023 H 
ATOM     27  H   LIG d   1       3.726  -1.123  -2.752  0.00  0.00     0.023 H 
ATOM     28  H   LIG d   1       5.315  -1.357  -1.986  0.00  0.00     0.023 H 
ENDBRANCH  22  25
ENDBRANCH  19  22
ENDBRANCH  16  19
ENDBRANCH   1  16
TORSDOF 4
ENDMDL
