MODEL 1
REMARK VINA RESULT:      -5.6      0.000      0.000
REMARK  9 active torsions:
REMARK  status: ('A' for Active; 'I' for Inactive)
REMARK    1  A    between atoms: CD1_1  and  CG_2 
REMARK    2  A    between atoms: CG_2  and  CD2_3 
REMARK    3  A    between atoms: CG_2  and  CB_4 
REMARK    4  A    between atoms: CB_4  and  CA_5 
REMARK       I    between atoms: CA_5  and  C_7 
REMARK       I    between atoms: CA_5  and  N_9 
REMARK       I    between atoms: N_9  and  C_10 
REMARK       I    between atoms: C_10  and  N_12 
REMARK    5  A    between atoms: N_12  and  C_13 
REMARK    6  A    between atoms: C_16  and  O_21 
REMARK    7  A    between atoms: C_18  and  O_19 
REMARK    8  A    between atoms: O_19  and  C_20 
REMARK    9  A    between atoms: O_21  and  C_22 
ROOT
ATOM      1  CA  LEU d   1       4.491  -0.350  -3.882  0.00  0.00     0.064 C 
ATOM      2  HA  LEU d   1       5.189  -1.040  -4.355  0.00  0.00     0.056 H 
ATOM      3  C   LEU d   1       3.374  -1.130  -3.236  0.00  0.00     0.062 C 
ATOM      4  O   LEU d   1       2.231  -0.949  -3.585  0.00  0.00    -0.548 OA
ATOM      5  N   LEU d   1       3.935   0.553  -4.893  0.00  0.00    -0.291 N 
ATOM      6  H   LEU d   1       3.735   1.474  -4.664  0.00  0.00     0.151 HD
ATOM      7  OXT LEU d   1       3.650  -2.024  -2.274  0.00  0.00    -0.548 OA
ATOM      8  C   UNK d   0       3.700   0.103  -6.142  0.00  0.00     0.304 C 
ATOM      9  O   UNK d   0       3.949  -1.052  -6.429  0.00  0.00    -0.253 OA
ATOM     10  N   UNK d   0       3.188   0.933  -7.072  0.00  0.00    -0.266 N 
ATOM     11  H   UNK d   0       2.928   1.835  -6.827  0.00  0.00     0.157 HD
ENDROOT
BRANCH  10  12
ATOM     12  C   UNK d   0       3.031   0.493  -8.395  0.00  0.00     0.077 A 
ATOM     13  C   UNK d   0       3.867   0.982  -9.397  0.00  0.00     0.145 A 
ATOM     14  C   UNK d   0       3.712   0.542 -10.701  0.00  0.00     0.024 A 
ATOM     15  C   UNK d   0       2.720  -0.376 -11.009  0.00  0.00     0.124 A 
ATOM     16  H   UNK d   0       4.361   0.916 -11.479  0.00  0.00     0.069 H 
ATOM     17  C   UNK d   0       1.885  -0.857 -10.012  0.00  0.00    -0.018 A 
ATOM     18  C   UNK d   0       2.039  -0.425  -8.709  0.00  0.00    -0.033 A 
ATOM     19  H   UNK d   0       1.112  -1.573 -10.253  0.00  0.00     0.066 H 
ATOM     20  H   UNK d   0       1.388  -0.800  -7.934  0.00  0.00     0.064 H 
BRANCH  13  21
ATOM     21  O   UNK d   0       4.836   1.886  -9.093  0.00  0.00    -0.493 OA
BRANCH  21  22
ATOM     22  C   UNK d   0       6.180   1.403  -9.040  0.00  0.00     0.079 C 
ATOM     23  H   UNK d   0       6.552   1.250 -10.052  0.00  0.00     0.066 H 
ATOM     24  H   UNK d   0       6.808   2.133  -8.529  0.00  0.00     0.066 H 
ATOM     25  H   UNK d   0       6.205   0.458  -8.496  0.00  0.00     0.066 H 
ENDBRANCH  21  22
ENDBRANCH  13  21
BRANCH  15  26
ATOM     26  O   UNK d   0       2.564  -0.804 -12.290  0.00  0.00    -0.495 OA
BRANCH  26  27
ATOM     27  C   UNK d   0       1.585  -1.819 -12.521  0.00  0.00     0.079 C 
ATOM     28  H   UNK d   0       1.777  -2.666 -11.863  0.00  0.00     0.066 H 
ATOM     29  H   UNK d   0       0.591  -1.418 -12.317  0.00  0.00     0.066 H 
ATOM     30  H   UNK d   0       1.638  -2.145 -13.560  0.00  0.00     0.066 H 
ENDBRANCH  26  27
ENDBRANCH  15  26
ENDBRANCH  10  12
BRANCH   1  31
ATOM     31  CB  LEU d   1       5.225   0.467  -2.817  0.00  0.00    -0.027 C 
ATOM     32  HB1 LEU d   1       4.935   0.117  -1.827  0.00  0.00     0.029 H 
ATOM     33  HB2 LEU d   1       4.961   1.519  -2.921  0.00  0.00     0.029 H 
BRANCH  31  34
ATOM     34  CG  LEU d   1       6.735   0.299  -2.997  0.00  0.00    -0.045 C 
ATOM     35  HG  LEU d   1       7.215   0.259  -2.019  0.00  0.00     0.030 H 
BRANCH  34  36
ATOM     36  CD1 LEU d   1       7.289   1.484  -3.790  0.00  0.00    -0.063 C 
ATOM     37 1HD1 LEU d   1       7.424   2.337  -3.125  0.00  0.00     0.023 H 
ATOM     38 2HD1 LEU d   1       8.249   1.209  -4.230  0.00  0.00     0.023 H 
ATOM     39 3HD1 LEU d   1       6.589   1.749  -4.583  0.00  0.00     0.023 H 
ENDBRANCH  34  36
BRANCH  34  40
ATOM     40  CD2 LEU d   1       7.017  -0.999  -3.755  0.00  0.00    -0.063 C 
ATOM     41 1HD2 LEU d   1       6.721  -1.850  -3.142  0.00  0.00     0.023 H 
ATOM     42 2HD2 LEU d   1       6.449  -1.007  -4.686  0.00  0.00     0.023 H 
ATOM     43 3HD2 LEU d   1       8.082  -1.065  -3.980  0.00  0.00     0.023 H 
ENDBRANCH  34  40
ENDBRANCH  31  34
ENDBRANCH   1  31
TORSDOF 11
ENDMDL
MODEL 2
REMARK VINA RESULT:      -5.5      2.075      2.852
REMARK  9 active torsions:
REMARK  status: ('A' for Active; 'I' for Inactive)
REMARK    1  A    between atoms: CD1_1  and  CG_2 
REMARK    2  A    between atoms: CG_2  and  CD2_3 
REMARK    3  A    between atoms: CG_2  and  CB_4 
REMARK    4  A    between atoms: CB_4  and  CA_5 
REMARK       I    between atoms: CA_5  and  C_7 
REMARK       I    between atoms: CA_5  and  N_9 
REMARK       I    between atoms: N_9  and  C_10 
REMARK       I    between atoms: C_10  and  N_12 
REMARK    5  A    between atoms: N_12  and  C_13 
REMARK    6  A    between atoms: C_16  and  O_21 
REMARK    7  A    between atoms: C_18  and  O_19 
REMARK    8  A    between atoms: O_19  and  C_20 
REMARK    9  A    between atoms: O_21  and  C_22 
ROOT
ATOM      1  CA  LEU d   1       5.220  -1.068  -3.832  0.00  0.00     0.064 C 
ATOM      2  HA  LEU d   1       5.829  -0.215  -4.130  0.00  0.00     0.056 H 
ATOM      3  C   LEU d   1       6.061  -2.318  -3.850  0.00  0.00     0.062 C 
ATOM      4  O   LEU d   1       5.758  -3.241  -4.569  0.00  0.00    -0.548 OA
ATOM      5  N   LEU d   1       4.100  -1.219  -4.766  0.00  0.00    -0.291 N 
ATOM      6  H   LEU d   1       3.239  -1.527  -4.445  0.00  0.00     0.151 HD
ATOM      7  OXT LEU d   1       7.148  -2.406  -3.067  0.00  0.00    -0.548 OA
ATOM      8  C   UNK d   0       4.270  -0.932  -6.072  0.00  0.00     0.304 C 
ATOM      9  O   UNK d   0       5.351  -0.548  -6.475  0.00  0.00    -0.253 OA
ATOM     10  N   UNK d   0       3.241  -1.071  -6.932  0.00  0.00    -0.266 N 
ATOM     11  H   UNK d   0       2.398  -1.440  -6.623  0.00  0.00     0.157 HD
ENDROOT
BRANCH  10  12
ATOM     12  C   UNK d   0       3.389  -0.684  -8.272  0.00  0.00     0.077 A 
ATOM     13  C   UNK d   0       3.732  -1.629  -9.237  0.00  0.00     0.145 A 
ATOM     14  C   UNK d   0       3.873  -1.244 -10.560  0.00  0.00     0.024 A 
ATOM     15  C   UNK d   0       3.682   0.081 -10.920  0.00  0.00     0.124 A 
ATOM     16  H   UNK d   0       4.135  -1.975 -11.311  0.00  0.00     0.069 H 
ATOM     17  C   UNK d   0       3.345   1.021  -9.958  0.00  0.00    -0.018 A 
ATOM     18  C   UNK d   0       3.199   0.641  -8.638  0.00  0.00    -0.033 A 
ATOM     19  H   UNK d   0       3.197   2.053 -10.241  0.00  0.00     0.066 H 
ATOM     20  H   UNK d   0       2.938   1.374  -7.890  0.00  0.00     0.064 H 
BRANCH  13  21
ATOM     21  O   UNK d   0       3.924  -2.926  -8.880  0.00  0.00    -0.493 OA
BRANCH  21  22
ATOM     22  C   UNK d   0       3.120  -3.906  -9.540  0.00  0.00     0.079 C 
ATOM     23  H   UNK d   0       2.265  -3.420 -10.008  0.00  0.00     0.066 H 
ATOM     24  H   UNK d   0       3.714  -4.410 -10.303  0.00  0.00     0.066 H 
ATOM     25  H   UNK d   0       2.767  -4.638  -8.811  0.00  0.00     0.066 H 
ENDBRANCH  21  22
ENDBRANCH  13  21
BRANCH  15  26
ATOM     26  O   UNK d   0       3.825   0.459 -12.218  0.00  0.00    -0.495 OA
BRANCH  26  27
ATOM     27  C   UNK d   0       4.317  -0.525 -13.130  0.00  0.00     0.079 C 
ATOM     28  H   UNK d   0       4.991  -1.203 -12.605  0.00  0.00     0.066 H 
ATOM     29  H   UNK d   0       3.479  -1.091 -13.539  0.00  0.00     0.066 H 
ATOM     30  H   UNK d   0       4.853  -0.034 -13.942  0.00  0.00     0.066 H 
ENDBRANCH  26  27
ENDBRANCH  15  26
ENDBRANCH  10  12
BRANCH   1  31
ATOM     31  CB  LEU d   1       4.677  -0.838  -2.420  0.00  0.00    -0.027 C 
ATOM     32  HB1 LEU d   1       5.253  -1.429  -1.709  0.00  0.00     0.029 H 
ATOM     33  HB2 LEU d   1       3.631  -1.140  -2.380  0.00  0.00     0.029 H 
BRANCH  31  34
ATOM     34  CG  LEU d   1       4.795   0.646  -2.065  0.00  0.00    -0.045 C 
ATOM     35  HG  LEU d   1       5.051   0.748  -1.010  0.00  0.00     0.030 H 
BRANCH  34  36
ATOM     36  CD1 LEU d   1       3.460   1.342  -2.336  0.00  0.00    -0.063 C 
ATOM     37 1HD1 LEU d   1       2.732   1.042  -1.583  0.00  0.00     0.023 H 
ATOM     38 2HD1 LEU d   1       3.600   2.424  -2.296  0.00  0.00     0.023 H 
ATOM     39 3HD1 LEU d   1       3.098   1.060  -3.325  0.00  0.00     0.023 H 
ENDBRANCH  34  36
BRANCH  34  40
ATOM     40  CD2 LEU d   1       5.889   1.290  -2.919  0.00  0.00    -0.063 C 
ATOM     41 1HD2 LEU d   1       6.751   0.625  -2.965  0.00  0.00     0.023 H 
ATOM     42 2HD2 LEU d   1       5.509   1.464  -3.926  0.00  0.00     0.023 H 
ATOM     43 3HD2 LEU d   1       6.186   2.240  -2.474  0.00  0.00     0.023 H 
ENDBRANCH  34  40
ENDBRANCH  31  34
ENDBRANCH   1  31
TORSDOF 11
ENDMDL
MODEL 3
REMARK VINA RESULT:      -5.4      2.081      7.228
REMARK  9 active torsions:
REMARK  status: ('A' for Active; 'I' for Inactive)
REMARK    1  A    between atoms: CD1_1  and  CG_2 
REMARK    2  A    between atoms: CG_2  and  CD2_3 
REMARK    3  A    between atoms: CG_2  and  CB_4 
REMARK    4  A    between atoms: CB_4  and  CA_5 
REMARK       I    between atoms: CA_5  and  C_7 
REMARK       I    between atoms: CA_5  and  N_9 
REMARK       I    between atoms: N_9  and  C_10 
REMARK       I    between atoms: C_10  and  N_12 
REMARK    5  A    between atoms: N_12  and  C_13 
REMARK    6  A    between atoms: C_16  and  O_21 
REMARK    7  A    between atoms: C_18  and  O_19 
REMARK    8  A    between atoms: O_19  and  C_20 
REMARK    9  A    between atoms: O_21  and  C_22 
ROOT
ATOM      1  CA  LEU d   1       2.914   0.161  -8.994  0.00  0.00     0.064 C 
ATOM      2  HA  LEU d   1       3.804  -0.209  -9.502  0.00  0.00     0.056 H 
ATOM      3  C   LEU d   1       3.022   1.654  -8.815  0.00  0.00     0.062 C 
ATOM      4  O   LEU d   1       3.003   2.132  -7.705  0.00  0.00    -0.548 OA
ATOM      5  N   LEU d   1       2.797  -0.481  -7.682  0.00  0.00    -0.291 N 
ATOM      6  H   LEU d   1       1.922  -0.693  -7.321  0.00  0.00     0.151 HD
ATOM      7  OXT LEU d   1       3.138   2.452  -9.888  0.00  0.00    -0.548 OA
ATOM      8  C   UNK d   0       3.906  -0.776  -6.975  0.00  0.00     0.304 C 
ATOM      9  O   UNK d   0       5.003  -0.508  -7.426  0.00  0.00    -0.253 OA
ATOM     10  N   UNK d   0       3.800  -1.366  -5.768  0.00  0.00    -0.266 N 
ATOM     11  H   UNK d   0       2.924  -1.519  -5.380  0.00  0.00     0.157 HD
ENDROOT
BRANCH  10  12
ATOM     12  C   UNK d   0       4.954  -1.758  -5.074  0.00  0.00     0.077 A 
ATOM     13  C   UNK d   0       5.579  -0.869  -4.202  0.00  0.00     0.145 A 
ATOM     14  C   UNK d   0       6.717  -1.260  -3.516  0.00  0.00     0.024 A 
ATOM     15  C   UNK d   0       7.235  -2.532  -3.703  0.00  0.00     0.124 A 
ATOM     16  H   UNK d   0       7.201  -0.574  -2.837  0.00  0.00     0.069 H 
ATOM     17  C   UNK d   0       6.615  -3.414  -4.575  0.00  0.00    -0.018 A 
ATOM     18  C   UNK d   0       5.478  -3.029  -5.259  0.00  0.00    -0.033 A 
ATOM     19  H   UNK d   0       7.021  -4.405  -4.720  0.00  0.00     0.066 H 
ATOM     20  H   UNK d   0       4.997  -3.717  -5.937  0.00  0.00     0.064 H 
BRANCH  13  21
ATOM     21  O   UNK d   0       5.071   0.380  -4.025  0.00  0.00    -0.493 OA
BRANCH  21  22
ATOM     22  C   UNK d   0       5.338   1.016  -2.773  0.00  0.00     0.079 C 
ATOM     23  H   UNK d   0       6.403   0.953  -2.553  0.00  0.00     0.066 H 
ATOM     24  H   UNK d   0       5.040   2.063  -2.827  0.00  0.00     0.066 H 
ATOM     25  H   UNK d   0       4.774   0.517  -1.984  0.00  0.00     0.066 H 
ENDBRANCH  21  22
ENDBRANCH  13  21
BRANCH  15  26
ATOM     26  O   UNK d   0       8.355  -2.914  -3.033  0.00  0.00    -0.495 OA
BRANCH  26  27
ATOM     27  C   UNK d   0       9.062  -4.046  -3.542  0.00  0.00     0.079 C 
ATOM     28  H   UNK d   0       8.692  -4.288  -4.539  0.00  0.00     0.066 H 
ATOM     29  H   UNK d   0      10.127  -3.815  -3.597  0.00  0.00     0.066 H 
ATOM     30  H   UNK d   0       8.910  -4.899  -2.880  0.00  0.00     0.066 H 
ENDBRANCH  26  27
ENDBRANCH  15  26
ENDBRANCH  10  12
BRANCH   1  31
ATOM     31  CB  LEU d   1       1.676  -0.163  -9.832  0.00  0.00    -0.027 C 
ATOM     32  HB1 LEU d   1       1.289   0.752 -10.278  0.00  0.00     0.029 H 
ATOM     33  HB2 LEU d   1       0.912  -0.608  -9.194  0.00  0.00     0.029 H 
BRANCH  31  34
ATOM     34  CG  LEU d   1       2.054  -1.151 -10.939  0.00  0.00    -0.045 C 
ATOM     35  HG  LEU d   1       2.331  -2.107 -10.494  0.00  0.00     0.030 H 
BRANCH  34  36
ATOM     36  CD1 LEU d   1       3.236  -0.596 -11.734  0.00  0.00    -0.063 C 
ATOM     37 1HD1 LEU d   1       4.052  -0.352 -11.054  0.00  0.00     0.023 H 
ATOM     38 2HD1 LEU d   1       3.573  -1.344 -12.453  0.00  0.00     0.023 H 
ATOM     39 3HD1 LEU d   1       2.926   0.304 -12.266  0.00  0.00     0.023 H 
ENDBRANCH  34  36
BRANCH  34  40
ATOM     40  CD2 LEU d   1       0.859  -1.351 -11.873  0.00  0.00    -0.063 C 
ATOM     41 1HD2 LEU d   1      -0.018  -0.859 -11.452  0.00  0.00     0.023 H 
ATOM     42 2HD2 LEU d   1       1.085  -0.921 -12.849  0.00  0.00     0.023 H 
ATOM     43 3HD2 LEU d   1       0.659  -2.417 -11.985  0.00  0.00     0.023 H 
ENDBRANCH  34  40
ENDBRANCH  31  34
ENDBRANCH   1  31
TORSDOF 11
ENDMDL
MODEL 4
REMARK VINA RESULT:      -5.4      1.752      2.233
REMARK  9 active torsions:
REMARK  status: ('A' for Active; 'I' for Inactive)
REMARK    1  A    between atoms: CD1_1  and  CG_2 
REMARK    2  A    between atoms: CG_2  and  CD2_3 
REMARK    3  A    between atoms: CG_2  and  CB_4 
REMARK    4  A    between atoms: CB_4  and  CA_5 
REMARK       I    between atoms: CA_5  and  C_7 
REMARK       I    between atoms: CA_5  and  N_9 
REMARK       I    between atoms: N_9  and  C_10 
REMARK       I    between atoms: C_10  and  N_12 
REMARK    5  A    between atoms: N_12  and  C_13 
REMARK    6  A    between atoms: C_16  and  O_21 
REMARK    7  A    between atoms: C_18  and  O_19 
REMARK    8  A    between atoms: O_19  and  C_20 
REMARK    9  A    between atoms: O_21  and  C_22 
ROOT
ATOM      1  CA  LEU d   1       5.916  -0.923  -4.532  0.00  0.00     0.064 C 
ATOM      2  HA  LEU d   1       6.634  -0.457  -5.206  0.00  0.00     0.056 H 
ATOM      3  C   LEU d   1       6.280  -2.373  -4.335  0.00  0.00     0.062 C 
ATOM      4  O   LEU d   1       5.497  -3.239  -4.646  0.00  0.00    -0.548 OA
ATOM      5  N   LEU d   1       4.572  -0.831  -5.108  0.00  0.00    -0.291 N 
ATOM      6  H   LEU d   1       3.804  -0.706  -4.530  0.00  0.00     0.151 HD
ATOM      7  OXT LEU d   1       7.474  -2.700  -3.817  0.00  0.00    -0.548 OA
ATOM      8  C   UNK d   0       4.404  -0.920  -6.442  0.00  0.00     0.304 C 
ATOM      9  O   UNK d   0       5.367  -1.077  -7.168  0.00  0.00    -0.253 OA
ATOM     10  N   UNK d   0       3.168  -0.835  -6.974  0.00  0.00    -0.266 N 
ATOM     11  H   UNK d   0       2.394  -0.775  -6.392  0.00  0.00     0.157 HD
ENDROOT
BRANCH  10  12
ATOM     12  C   UNK d   0       3.001  -0.834  -8.367  0.00  0.00     0.077 A 
ATOM     13  C   UNK d   0       3.030   0.367  -9.072  0.00  0.00     0.145 A 
ATOM     14  C   UNK d   0       2.869   0.364 -10.447  0.00  0.00     0.024 A 
ATOM     15  C   UNK d   0       2.671  -0.833 -11.119  0.00  0.00     0.124 A 
ATOM     16  H   UNK d   0       2.893   1.294 -10.996  0.00  0.00     0.069 H 
ATOM     17  C   UNK d   0       2.638  -2.027 -10.415  0.00  0.00    -0.018 A 
ATOM     18  C   UNK d   0       2.802  -2.029  -9.043  0.00  0.00    -0.033 A 
ATOM     19  H   UNK d   0       2.484  -2.959 -10.940  0.00  0.00     0.066 H 
ATOM     20  H   UNK d   0       2.776  -2.960  -8.497  0.00  0.00     0.064 H 
BRANCH  13  21
ATOM     21  O   UNK d   0       3.217   1.540  -8.410  0.00  0.00    -0.493 OA
BRANCH  21  22
ATOM     22  C   UNK d   0       3.923   2.570  -9.105  0.00  0.00     0.079 C 
ATOM     23  H   UNK d   0       3.455   2.743 -10.073  0.00  0.00     0.066 H 
ATOM     24  H   UNK d   0       3.895   3.489  -8.519  0.00  0.00     0.066 H 
ATOM     25  H   UNK d   0       4.960   2.265  -9.251  0.00  0.00     0.066 H 
ENDBRANCH  21  22
ENDBRANCH  13  21
BRANCH  15  26
ATOM     26  O   UNK d   0       2.508  -0.835 -12.468  0.00  0.00    -0.495 OA
BRANCH  26  27
ATOM     27  C   UNK d   0       2.739  -2.070 -13.149  0.00  0.00     0.079 C 
ATOM     28  H   UNK d   0       1.788  -2.480 -13.491  0.00  0.00     0.066 H 
ATOM     29  H   UNK d   0       3.390  -1.897 -14.006  0.00  0.00     0.066 H 
ATOM     30  H   UNK d   0       3.216  -2.777 -12.469  0.00  0.00     0.066 H 
ENDBRANCH  26  27
ENDBRANCH  15  26
ENDBRANCH  10  12
BRANCH   1  31
ATOM     31  CB  LEU d   1       5.942  -0.203  -3.182  0.00  0.00    -0.027 C 
ATOM     32  HB1 LEU d   1       6.312   0.812  -3.318  0.00  0.00     0.029 H 
ATOM     33  HB2 LEU d   1       6.599  -0.740  -2.497  0.00  0.00     0.029 H 
BRANCH  31  34
ATOM     34  CG  LEU d   1       4.527  -0.157  -2.601  0.00  0.00    -0.045 C 
ATOM     35  HG  LEU d   1       3.801  -0.302  -3.402  0.00  0.00     0.030 H 
BRANCH  34  36
ATOM     36  CD1 LEU d   1       4.293   1.200  -1.937  0.00  0.00    -0.063 C 
ATOM     37 1HD1 LEU d   1       4.783   1.980  -2.519  0.00  0.00     0.023 H 
ATOM     38 2HD1 LEU d   1       3.221   1.401  -1.889  0.00  0.00     0.023 H 
ATOM     39 3HD1 LEU d   1       4.704   1.186  -0.927  0.00  0.00     0.023 H 
ENDBRANCH  34  36
BRANCH  34  40
ATOM     40  CD2 LEU d   1       4.366  -1.269  -1.562  0.00  0.00    -0.063 C 
ATOM     41 1HD2 LEU d   1       4.230  -0.826  -0.575  0.00  0.00     0.023 H 
ATOM     42 2HD2 LEU d   1       3.496  -1.877  -1.811  0.00  0.00     0.023 H 
ATOM     43 3HD2 LEU d   1       5.258  -1.896  -1.559  0.00  0.00     0.023 H 
ENDBRANCH  34  40
ENDBRANCH  31  34
ENDBRANCH   1  31
TORSDOF 11
ENDMDL
MODEL 5
REMARK VINA RESULT:      -5.3      4.699      8.018
REMARK  9 active torsions:
REMARK  status: ('A' for Active; 'I' for Inactive)
REMARK    1  A    between atoms: CD1_1  and  CG_2 
REMARK    2  A    between atoms: CG_2  and  CD2_3 
REMARK    3  A    between atoms: CG_2  and  CB_4 
REMARK    4  A    between atoms: CB_4  and  CA_5 
REMARK       I    between atoms: CA_5  and  C_7 
REMARK       I    between atoms: CA_5  and  N_9 
REMARK       I    between atoms: N_9  and  C_10 
REMARK       I    between atoms: C_10  and  N_12 
REMARK    5  A    between atoms: N_12  and  C_13 
REMARK    6  A    between atoms: C_16  and  O_21 
REMARK    7  A    between atoms: C_18  and  O_19 
REMARK    8  A    between atoms: O_19  and  C_20 
REMARK    9  A    between atoms: O_21  and  C_22 
ROOT
ATOM      1  CA  LEU d   1       6.075  -0.568  -3.742  0.00  0.00     0.064 C 
ATOM      2  HA  LEU d   1       5.424  -1.339  -3.330  0.00  0.00     0.056 H 
ATOM      3  C   LEU d   1       5.732  -0.344  -5.193  0.00  0.00     0.062 C 
ATOM      4  O   LEU d   1       6.569  -0.524  -6.046  0.00  0.00    -0.548 OA
ATOM      5  N   LEU d   1       7.472  -0.998  -3.631  0.00  0.00    -0.291 N 
ATOM      6  H   LEU d   1       8.167  -0.346  -3.455  0.00  0.00     0.151 HD
ATOM      7  OXT LEU d   1       4.498   0.056  -5.536  0.00  0.00    -0.548 OA
ATOM      8  C   UNK d   0       7.789  -2.300  -3.774  0.00  0.00     0.304 C 
ATOM      9  O   UNK d   0       6.917  -3.118  -3.995  0.00  0.00    -0.253 OA
ATOM     10  N   UNK d   0       9.073  -2.696  -3.671  0.00  0.00    -0.266 N 
ATOM     11  H   UNK d   0       9.776  -2.036  -3.560  0.00  0.00     0.157 HD
ENDROOT
BRANCH  10  12
ATOM     12  C   UNK d   0       9.394  -4.061  -3.727  0.00  0.00     0.077 A 
ATOM     13  C   UNK d   0       9.612  -4.676  -4.957  0.00  0.00     0.145 A 
ATOM     14  C   UNK d   0       9.932  -6.023  -5.008  0.00  0.00     0.024 A 
ATOM     15  C   UNK d   0      10.026  -6.757  -3.836  0.00  0.00     0.124 A 
ATOM     16  H   UNK d   0      10.105  -6.502  -5.961  0.00  0.00     0.069 H 
ATOM     17  C   UNK d   0       9.804  -6.144  -2.612  0.00  0.00    -0.018 A 
ATOM     18  C   UNK d   0       9.488  -4.800  -2.557  0.00  0.00    -0.033 A 
ATOM     19  H   UNK d   0       9.877  -6.718  -1.700  0.00  0.00     0.066 H 
ATOM     20  H   UNK d   0       9.316  -4.325  -1.603  0.00  0.00     0.064 H 
BRANCH  13  21
ATOM     21  O   UNK d   0       9.513  -3.955  -6.106  0.00  0.00    -0.493 OA
BRANCH  21  22
ATOM     22  C   UNK d   0       8.481  -4.332  -7.020  0.00  0.00     0.079 C 
ATOM     23  H   UNK d   0       7.514  -4.023  -6.626  0.00  0.00     0.066 H 
ATOM     24  H   UNK d   0       8.653  -3.846  -7.981  0.00  0.00     0.066 H 
ATOM     25  H   UNK d   0       8.491  -5.414  -7.153  0.00  0.00     0.066 H 
ENDBRANCH  21  22
ENDBRANCH  13  21
BRANCH  15  26
ATOM     26  O   UNK d   0      10.335  -8.080  -3.887  0.00  0.00    -0.495 OA
BRANCH  26  27
ATOM     27  C   UNK d   0      10.099  -8.848  -2.705  0.00  0.00     0.079 C 
ATOM     28  H   UNK d   0      10.770  -9.707  -2.689  0.00  0.00     0.066 H 
ATOM     29  H   UNK d   0      10.281  -8.229  -1.826  0.00  0.00     0.066 H 
ATOM     30  H   UNK d   0       9.065  -9.194  -2.696  0.00  0.00     0.066 H 
ENDBRANCH  26  27
ENDBRANCH  15  26
ENDBRANCH  10  12
BRANCH   1  31
ATOM     31  CB  LEU d   1       5.879   0.735  -2.964  0.00  0.00    -0.027 C 
ATOM     32  HB1 LEU d   1       5.622   1.536  -3.656  0.00  0.00     0.029 H 
ATOM     33  HB2 LEU d   1       6.801   0.988  -2.442  0.00  0.00     0.029 H 
BRANCH  31  34
ATOM     34  CG  LEU d   1       4.749   0.556  -1.947  0.00  0.00    -0.045 C 
ATOM     35  HG  LEU d   1       5.083   0.902  -0.969  0.00  0.00     0.030 H 
BRANCH  34  36
ATOM     36  CD1 LEU d   1       4.367  -0.922  -1.864  0.00  0.00    -0.063 C 
ATOM     37 1HD1 LEU d   1       5.234  -1.537  -2.107  0.00  0.00     0.023 H 
ATOM     38 2HD1 LEU d   1       4.028  -1.154  -0.854  0.00  0.00     0.023 H 
ATOM     39 3HD1 LEU d   1       3.565  -1.131  -2.573  0.00  0.00     0.023 H 
ENDBRANCH  34  36
BRANCH  34  40
ATOM     40  CD2 LEU d   1       3.533   1.373  -2.388  0.00  0.00    -0.063 C 
ATOM     41 1HD2 LEU d   1       3.219   1.049  -3.381  0.00  0.00     0.023 H 
ATOM     42 2HD2 LEU d   1       2.717   1.222  -1.681  0.00  0.00     0.023 H 
ATOM     43 3HD2 LEU d   1       3.796   2.430  -2.417  0.00  0.00     0.023 H 
ENDBRANCH  34  40
ENDBRANCH  31  34
ENDBRANCH   1  31
TORSDOF 11
ENDMDL
MODEL 6
REMARK VINA RESULT:      -5.1      4.222      7.631
REMARK  9 active torsions:
REMARK  status: ('A' for Active; 'I' for Inactive)
REMARK    1  A    between atoms: CD1_1  and  CG_2 
REMARK    2  A    between atoms: CG_2  and  CD2_3 
REMARK    3  A    between atoms: CG_2  and  CB_4 
REMARK    4  A    between atoms: CB_4  and  CA_5 
REMARK       I    between atoms: CA_5  and  C_7 
REMARK       I    between atoms: CA_5  and  N_9 
REMARK       I    between atoms: N_9  and  C_10 
REMARK       I    between atoms: C_10  and  N_12 
REMARK    5  A    between atoms: N_12  and  C_13 
REMARK    6  A    between atoms: C_16  and  O_21 
REMARK    7  A    between atoms: C_18  and  O_19 
REMARK    8  A    between atoms: O_19  and  C_20 
REMARK    9  A    between atoms: O_21  and  C_22 
ROOT
ATOM      1  CA  LEU d   1       5.093  -0.787  -4.345  0.00  0.00     0.064 C 
ATOM      2  HA  LEU d   1       5.454  -1.147  -3.382  0.00  0.00     0.056 H 
ATOM      3  C   LEU d   1       5.071  -1.927  -5.331  0.00  0.00     0.062 C 
ATOM      4  O   LEU d   1       5.731  -1.864  -6.342  0.00  0.00    -0.548 OA
ATOM      5  N   LEU d   1       5.982   0.269  -4.838  0.00  0.00    -0.291 N 
ATOM      6  H   LEU d   1       5.618   1.014  -5.340  0.00  0.00     0.151 HD
ATOM      7  OXT LEU d   1       4.320  -3.011  -5.086  0.00  0.00    -0.548 OA
ATOM      8  C   UNK d   0       7.306   0.202  -4.594  0.00  0.00     0.304 C 
ATOM      9  O   UNK d   0       7.762  -0.733  -3.966  0.00  0.00    -0.253 OA
ATOM     10  N   UNK d   0       8.124   1.173  -5.047  0.00  0.00    -0.266 N 
ATOM     11  H   UNK d   0       7.770   1.884  -5.604  0.00  0.00     0.157 HD
ENDROOT
BRANCH  10  12
ATOM     12  C   UNK d   0       9.487   1.154  -4.715  0.00  0.00     0.077 A 
ATOM     13  C   UNK d   0       9.993   2.069  -3.794  0.00  0.00     0.145 A 
ATOM     14  C   UNK d   0      11.338   2.044  -3.465  0.00  0.00     0.024 A 
ATOM     15  C   UNK d   0      12.180   1.115  -4.059  0.00  0.00     0.124 A 
ATOM     16  H   UNK d   0      11.733   2.751  -2.749  0.00  0.00     0.069 H 
ATOM     17  C   UNK d   0      11.675   0.209  -4.978  0.00  0.00    -0.018 A 
ATOM     18  C   UNK d   0      10.334   0.227  -5.306  0.00  0.00    -0.033 A 
ATOM     19  H   UNK d   0      12.333  -0.514  -5.439  0.00  0.00     0.066 H 
ATOM     20  H   UNK d   0       9.943  -0.480  -6.022  0.00  0.00     0.064 H 
BRANCH  13  21
ATOM     21  O   UNK d   0       9.167   2.982  -3.219  0.00  0.00    -0.493 OA
BRANCH  21  22
ATOM     22  C   UNK d   0       9.709   4.281  -2.973  0.00  0.00     0.079 C 
ATOM     23  H   UNK d   0      10.468   4.218  -2.194  0.00  0.00     0.066 H 
ATOM     24  H   UNK d   0      10.159   4.667  -3.888  0.00  0.00     0.066 H 
ATOM     25  H   UNK d   0       8.911   4.952  -2.649  0.00  0.00     0.066 H 
ENDBRANCH  21  22
ENDBRANCH  13  21
BRANCH  15  26
ATOM     26  O   UNK d   0      13.501   1.095  -3.739  0.00  0.00    -0.495 OA
BRANCH  26  27
ATOM     27  C   UNK d   0      14.093  -0.184  -3.506  0.00  0.00     0.079 C 
ATOM     28  H   UNK d   0      14.864  -0.094  -2.740  0.00  0.00     0.066 H 
ATOM     29  H   UNK d   0      13.327  -0.883  -3.169  0.00  0.00     0.066 H 
ATOM     30  H   UNK d   0      14.539  -0.553  -4.429  0.00  0.00     0.066 H 
ENDBRANCH  26  27
ENDBRANCH  15  26
ENDBRANCH  10  12
BRANCH   1  31
ATOM     31  CB  LEU d   1       3.678  -0.227  -4.182  0.00  0.00    -0.027 C 
ATOM     32  HB1 LEU d   1       2.961  -0.916  -4.626  0.00  0.00     0.029 H 
ATOM     33  HB2 LEU d   1       3.611   0.739  -4.682  0.00  0.00     0.029 H 
BRANCH  31  34
ATOM     34  CG  LEU d   1       3.367  -0.055  -2.694  0.00  0.00    -0.045 C 
ATOM     35  HG  LEU d   1       2.313  -0.268  -2.515  0.00  0.00     0.030 H 
BRANCH  34  36
ATOM     36  CD1 LEU d   1       3.676   1.382  -2.271  0.00  0.00    -0.063 C 
ATOM     37 1HD1 LEU d   1       3.912   1.978  -3.153  0.00  0.00     0.023 H 
ATOM     38 2HD1 LEU d   1       2.808   1.807  -1.766  0.00  0.00     0.023 H 
ATOM     39 3HD1 LEU d   1       4.529   1.386  -1.591  0.00  0.00     0.023 H 
ENDBRANCH  34  36
BRANCH  34  40
ATOM     40  CD2 LEU d   1       4.227  -1.022  -1.878  0.00  0.00    -0.063 C 
ATOM     41 1HD2 LEU d   1       4.874  -1.587  -2.549  0.00  0.00     0.023 H 
ATOM     42 2HD2 LEU d   1       4.838  -0.460  -1.172  0.00  0.00     0.023 H 
ATOM     43 3HD2 LEU d   1       3.582  -1.710  -1.331  0.00  0.00     0.023 H 
ENDBRANCH  34  40
ENDBRANCH  31  34
ENDBRANCH   1  31
TORSDOF 11
ENDMDL
MODEL 7
REMARK VINA RESULT:      -5.0      4.143      7.373
REMARK  9 active torsions:
REMARK  status: ('A' for Active; 'I' for Inactive)
REMARK    1  A    between atoms: CD1_1  and  CG_2 
REMARK    2  A    between atoms: CG_2  and  CD2_3 
REMARK    3  A    between atoms: CG_2  and  CB_4 
REMARK    4  A    between atoms: CB_4  and  CA_5 
REMARK       I    between atoms: CA_5  and  C_7 
REMARK       I    between atoms: CA_5  and  N_9 
REMARK       I    between atoms: N_9  and  C_10 
REMARK       I    between atoms: C_10  and  N_12 
REMARK    5  A    between atoms: N_12  and  C_13 
REMARK    6  A    between atoms: C_16  and  O_21 
REMARK    7  A    between atoms: C_18  and  O_19 
REMARK    8  A    between atoms: O_19  and  C_20 
REMARK    9  A    between atoms: O_21  and  C_22 
ROOT
ATOM      1  CA  LEU d   1       5.038  -0.912  -4.470  0.00  0.00     0.064 C 
ATOM      2  HA  LEU d   1       5.489  -1.292  -3.554  0.00  0.00     0.056 H 
ATOM      3  C   LEU d   1       5.185  -1.936  -5.566  0.00  0.00     0.062 C 
ATOM      4  O   LEU d   1       5.789  -1.659  -6.575  0.00  0.00    -0.548 OA
ATOM      5  N   LEU d   1       5.709   0.329  -4.868  0.00  0.00    -0.291 N 
ATOM      6  H   LEU d   1       5.203   1.042  -5.286  0.00  0.00     0.151 HD
ATOM      7  OXT LEU d   1       4.645  -3.156  -5.420  0.00  0.00    -0.548 OA
ATOM      8  C   UNK d   0       7.031   0.478  -4.652  0.00  0.00     0.304 C 
ATOM      9  O   UNK d   0       7.666  -0.417  -4.129  0.00  0.00    -0.253 OA
ATOM     10  N   UNK d   0       7.650   1.618  -5.018  0.00  0.00    -0.266 N 
ATOM     11  H   UNK d   0       7.157   2.305  -5.494  0.00  0.00     0.157 HD
ENDROOT
BRANCH  10  12
ATOM     12  C   UNK d   0       9.005   1.811  -4.710  0.00  0.00     0.077 A 
ATOM     13  C   UNK d   0       9.988   1.439  -5.624  0.00  0.00     0.145 A 
ATOM     14  C   UNK d   0      11.324   1.636  -5.319  0.00  0.00     0.024 A 
ATOM     15  C   UNK d   0      11.682   2.193  -4.101  0.00  0.00     0.124 A 
ATOM     16  H   UNK d   0      12.088   1.351  -6.028  0.00  0.00     0.069 H 
ATOM     17  C   UNK d   0      10.703   2.558  -3.190  0.00  0.00    -0.018 A 
ATOM     18  C   UNK d   0       9.368   2.368  -3.492  0.00  0.00    -0.033 A 
ATOM     19  H   UNK d   0      10.983   2.993  -2.241  0.00  0.00     0.066 H 
ATOM     20  H   UNK d   0       8.607   2.653  -2.782  0.00  0.00     0.064 H 
BRANCH  13  21
ATOM     21  O   UNK d   0       9.634   0.887  -6.815  0.00  0.00    -0.493 OA
BRANCH  21  22
ATOM     22  C   UNK d   0       9.918  -0.502  -6.995  0.00  0.00     0.079 C 
ATOM     23  H   UNK d   0      10.904  -0.728  -6.590  0.00  0.00     0.066 H 
ATOM     24  H   UNK d   0       9.167  -1.097  -6.474  0.00  0.00     0.066 H 
ATOM     25  H   UNK d   0       9.899  -0.742  -8.059  0.00  0.00     0.066 H 
ENDBRANCH  21  22
ENDBRANCH  13  21
BRANCH  15  26
ATOM     26  O   UNK d   0      12.994   2.381  -3.800  0.00  0.00    -0.495 OA
BRANCH  26  27
ATOM     27  C   UNK d   0      13.402   3.712  -3.476  0.00  0.00     0.079 C 
ATOM     28  H   UNK d   0      14.298   3.676  -2.856  0.00  0.00     0.066 H 
ATOM     29  H   UNK d   0      13.617   4.259  -4.394  0.00  0.00     0.066 H 
ATOM     30  H   UNK d   0      12.603   4.216  -2.932  0.00  0.00     0.066 H 
ENDBRANCH  26  27
ENDBRANCH  15  26
ENDBRANCH  10  12
BRANCH   1  31
ATOM     31  CB  LEU d   1       3.553  -0.632  -4.229  0.00  0.00    -0.027 C 
ATOM     32  HB1 LEU d   1       2.959  -1.454  -4.628  0.00  0.00     0.029 H 
ATOM     33  HB2 LEU d   1       3.272   0.294  -4.730  0.00  0.00     0.029 H 
BRANCH  31  34
ATOM     34  CG  LEU d   1       3.296  -0.499  -2.727  0.00  0.00    -0.045 C 
ATOM     35  HG  LEU d   1       2.264  -0.774  -2.508  0.00  0.00     0.030 H 
BRANCH  34  36
ATOM     36  CD1 LEU d   1       3.543   0.947  -2.294  0.00  0.00    -0.063 C 
ATOM     37 1HD1 LEU d   1       3.090   1.118  -1.317  0.00  0.00     0.023 H 
ATOM     38 2HD1 LEU d   1       4.617   1.130  -2.234  0.00  0.00     0.023 H 
ATOM     39 3HD1 LEU d   1       3.100   1.625  -3.023  0.00  0.00     0.023 H 
ENDBRANCH  34  36
BRANCH  34  40
ATOM     40  CD2 LEU d   1       4.243  -1.428  -1.964  0.00  0.00    -0.063 C 
ATOM     41 1HD2 LEU d   1       3.661  -2.175  -1.424  0.00  0.00     0.023 H 
ATOM     42 2HD2 LEU d   1       4.911  -1.925  -2.668  0.00  0.00     0.023 H 
ATOM     43 3HD2 LEU d   1       4.832  -0.845  -1.255  0.00  0.00     0.023 H 
ENDBRANCH  34  40
ENDBRANCH  31  34
ENDBRANCH   1  31
TORSDOF 11
ENDMDL
MODEL 8
REMARK VINA RESULT:      -4.8      2.444      7.197
REMARK  9 active torsions:
REMARK  status: ('A' for Active; 'I' for Inactive)
REMARK    1  A    between atoms: CD1_1  and  CG_2 
REMARK    2  A    between atoms: CG_2  and  CD2_3 
REMARK    3  A    between atoms: CG_2  and  CB_4 
REMARK    4  A    between atoms: CB_4  and  CA_5 
REMARK       I    between atoms: CA_5  and  C_7 
REMARK       I    between atoms: CA_5  and  N_9 
REMARK       I    between atoms: N_9  and  C_10 
REMARK       I    between atoms: C_10  and  N_12 
REMARK    5  A    between atoms: N_12  and  C_13 
REMARK    6  A    between atoms: C_16  and  O_21 
REMARK    7  A    between atoms: C_18  and  O_19 
REMARK    8  A    between atoms: O_19  and  C_20 
REMARK    9  A    between atoms: O_21  and  C_22 
ROOT
ATOM      1  CA  LEU d   1       2.841   0.109  -8.926  0.00  0.00     0.064 C 
ATOM      2  HA  LEU d   1       3.686  -0.292  -9.483  0.00  0.00     0.056 H 
ATOM      3  C   LEU d   1       3.018   1.596  -8.747  0.00  0.00     0.062 C 
ATOM      4  O   LEU d   1       3.079   2.067  -7.636  0.00  0.00    -0.548 OA
ATOM      5  N   LEU d   1       2.769  -0.536  -7.612  0.00  0.00    -0.291 N 
ATOM      6  H   LEU d   1       1.908  -0.715  -7.206  0.00  0.00     0.151 HD
ATOM      7  OXT LEU d   1       3.108   2.395  -9.821  0.00  0.00    -0.548 OA
ATOM      8  C   UNK d   0       3.903  -0.879  -6.968  0.00  0.00     0.304 C 
ATOM      9  O   UNK d   0       4.984  -0.653  -7.477  0.00  0.00    -0.253 OA
ATOM     10  N   UNK d   0       3.839  -1.472  -5.760  0.00  0.00    -0.266 N 
ATOM     11  H   UNK d   0       2.980  -1.593  -5.325  0.00  0.00     0.157 HD
ENDROOT
BRANCH  10  12
ATOM     12  C   UNK d   0       5.013  -1.914  -5.131  0.00  0.00     0.077 A 
ATOM     13  C   UNK d   0       5.498  -3.196  -5.381  0.00  0.00     0.145 A 
ATOM     14  C   UNK d   0       6.659  -3.627  -4.762  0.00  0.00     0.024 A 
ATOM     15  C   UNK d   0       7.332  -2.786  -3.889  0.00  0.00     0.124 A 
ATOM     16  H   UNK d   0       7.039  -4.620  -4.956  0.00  0.00     0.069 H 
ATOM     17  C   UNK d   0       6.845  -1.512  -3.638  0.00  0.00    -0.018 A 
ATOM     18  C   UNK d   0       5.689  -1.076  -4.256  0.00  0.00    -0.033 A 
ATOM     19  H   UNK d   0       7.371  -0.858  -2.956  0.00  0.00     0.066 H 
ATOM     20  H   UNK d   0       5.312  -0.085  -4.059  0.00  0.00     0.064 H 
BRANCH  13  21
ATOM     21  O   UNK d   0       4.833  -4.021  -6.233  0.00  0.00    -0.493 OA
BRANCH  21  22
ATOM     22  C   UNK d   0       5.488  -4.349  -7.460  0.00  0.00     0.079 C 
ATOM     23  H   UNK d   0       6.062  -3.491  -7.807  0.00  0.00     0.066 H 
ATOM     24  H   UNK d   0       6.159  -5.194  -7.298  0.00  0.00     0.066 H 
ATOM     25  H   UNK d   0       4.742  -4.616  -8.210  0.00  0.00     0.066 H 
ENDBRANCH  21  22
ENDBRANCH  13  21
BRANCH  15  26
ATOM     26  O   UNK d   0       8.469  -3.211  -3.277  0.00  0.00    -0.495 OA
BRANCH  26  27
ATOM     27  C   UNK d   0       9.130  -4.341  -3.851  0.00  0.00     0.079 C 
ATOM     28  H   UNK d   0      10.137  -4.056  -4.156  0.00  0.00     0.066 H 
ATOM     29  H   UNK d   0       9.188  -5.142  -3.113  0.00  0.00     0.066 H 
ATOM     30  H   UNK d   0       8.571  -4.688  -4.719  0.00  0.00     0.066 H 
ENDBRANCH  26  27
ENDBRANCH  15  26
ENDBRANCH  10  12
BRANCH   1  31
ATOM     31  CB  LEU d   1       1.547  -0.161  -9.697  0.00  0.00    -0.027 C 
ATOM     32  HB1 LEU d   1       1.138   0.781 -10.061  0.00  0.00     0.029 H 
ATOM     33  HB2 LEU d   1       0.824  -0.639  -9.037  0.00  0.00     0.029 H 
BRANCH  31  34
ATOM     34  CG  LEU d   1       1.843  -1.082 -10.883  0.00  0.00    -0.045 C 
ATOM     35  HG  LEU d   1       1.289  -0.739 -11.757  0.00  0.00     0.030 H 
BRANCH  34  36
ATOM     36  CD1 LEU d   1       1.420  -2.510 -10.537  0.00  0.00    -0.063 C 
ATOM     37 1HD1 LEU d   1       0.476  -2.489  -9.993  0.00  0.00     0.023 H 
ATOM     38 2HD1 LEU d   1       1.299  -3.085 -11.456  0.00  0.00     0.023 H 
ATOM     39 3HD1 LEU d   1       2.186  -2.976  -9.916  0.00  0.00     0.023 H 
ENDBRANCH  34  36
BRANCH  34  40
ATOM     40  CD2 LEU d   1       3.342  -1.054 -11.188  0.00  0.00    -0.063 C 
ATOM     41 1HD2 LEU d   1       3.850  -0.422 -10.458  0.00  0.00     0.023 H 
ATOM     42 2HD2 LEU d   1       3.744  -2.066 -11.134  0.00  0.00     0.023 H 
ATOM     43 3HD2 LEU d   1       3.503  -0.653 -12.188  0.00  0.00     0.023 H 
ENDBRANCH  34  40
ENDBRANCH  31  34
ENDBRANCH   1  31
TORSDOF 11
ENDMDL
MODEL 9
REMARK VINA RESULT:      -4.8      9.864     13.873
REMARK  9 active torsions:
REMARK  status: ('A' for Active; 'I' for Inactive)
REMARK    1  A    between atoms: CD1_1  and  CG_2 
REMARK    2  A    between atoms: CG_2  and  CD2_3 
REMARK    3  A    between atoms: CG_2  and  CB_4 
REMARK    4  A    between atoms: CB_4  and  CA_5 
REMARK       I    between atoms: CA_5  and  C_7 
REMARK       I    between atoms: CA_5  and  N_9 
REMARK       I    between atoms: N_9  and  C_10 
REMARK       I    between atoms: C_10  and  N_12 
REMARK    5  A    between atoms: N_12  and  C_13 
REMARK    6  A    between atoms: C_16  and  O_21 
REMARK    7  A    between atoms: C_18  and  O_19 
REMARK    8  A    between atoms: O_19  and  C_20 
REMARK    9  A    between atoms: O_21  and  C_22 
ROOT
ATOM      1  CA  LEU d   1      10.035   9.100  -5.596  0.00  0.00     0.064 C 
ATOM      2  HA  LEU d   1      11.008   8.617  -5.525  0.00  0.00     0.056 H 
ATOM      3  C   LEU d   1      10.220  10.556  -5.942  0.00  0.00     0.062 C 
ATOM      4  O   LEU d   1       9.813  11.411  -5.192  0.00  0.00    -0.548 OA
ATOM      5  N   LEU d   1       9.338   8.989  -4.311  0.00  0.00    -0.291 N 
ATOM      6  H   LEU d   1       8.376   8.879  -4.289  0.00  0.00     0.151 HD
ATOM      7  OXT LEU d   1      10.838  10.900  -7.083  0.00  0.00    -0.548 OA
ATOM      8  C   UNK d   0      10.038   9.040  -3.160  0.00  0.00     0.304 C 
ATOM      9  O   UNK d   0      11.246   9.180  -3.188  0.00  0.00    -0.253 OA
ATOM     10  N   UNK d   0       9.399   8.938  -1.978  0.00  0.00    -0.266 N 
ATOM     11  H   UNK d   0       8.430   8.893  -1.953  0.00  0.00     0.157 HD
ENDROOT
BRANCH  10  12
ATOM     12  C   UNK d   0      10.134   8.898  -0.783  0.00  0.00     0.077 A 
ATOM     13  C   UNK d   0      10.410   7.675  -0.175  0.00  0.00     0.145 A 
ATOM     14  C   UNK d   0      11.139   7.639   1.002  0.00  0.00     0.024 A 
ATOM     15  C   UNK d   0      11.586   8.819   1.576  0.00  0.00     0.124 A 
ATOM     16  H   UNK d   0      11.357   6.691   1.473  0.00  0.00     0.069 H 
ATOM     17  C   UNK d   0      11.306  10.035   0.972  0.00  0.00    -0.018 A 
ATOM     18  C   UNK d   0      10.582  10.076  -0.204  0.00  0.00    -0.033 A 
ATOM     19  H   UNK d   0      11.655  10.954   1.422  0.00  0.00     0.066 H 
ATOM     20  H   UNK d   0      10.365  11.023  -0.672  0.00  0.00     0.064 H 
BRANCH  13  21
ATOM     21  O   UNK d   0       9.966   6.520  -0.738  0.00  0.00    -0.493 OA
BRANCH  21  22
ATOM     22  C   UNK d   0      10.954   5.640  -1.278  0.00  0.00     0.079 C 
ATOM     23  H   UNK d   0      11.552   5.224  -0.468  0.00  0.00     0.066 H 
ATOM     24  H   UNK d   0      10.464   4.831  -1.820  0.00  0.00     0.066 H 
ATOM     25  H   UNK d   0      11.601   6.195  -1.959  0.00  0.00     0.066 H 
ENDBRANCH  21  22
ENDBRANCH  13  21
BRANCH  15  26
ATOM     26  O   UNK d   0      12.298   8.783   2.734  0.00  0.00    -0.495 OA
BRANCH  26  27
ATOM     27  C   UNK d   0      12.577  10.035   3.364  0.00  0.00     0.079 C 
ATOM     28  H   UNK d   0      11.731  10.709   3.223  0.00  0.00     0.066 H 
ATOM     29  H   UNK d   0      12.741   9.877   4.431  0.00  0.00     0.066 H 
ATOM     30  H   UNK d   0      13.470  10.474   2.921  0.00  0.00     0.066 H 
ENDBRANCH  26  27
ENDBRANCH  15  26
ENDBRANCH  10  12
BRANCH   1  31
ATOM     31  CB  LEU d   1       9.205   8.419  -6.686  0.00  0.00    -0.027 C 
ATOM     32  HB1 LEU d   1       8.950   9.145  -7.456  0.00  0.00     0.029 H 
ATOM     33  HB2 LEU d   1       8.291   8.017  -6.248  0.00  0.00     0.029 H 
BRANCH  31  34
ATOM     34  CG  LEU d   1      10.016   7.279  -7.307  0.00  0.00    -0.045 C 
ATOM     35  HG  LEU d   1      11.040   7.613  -7.476  0.00  0.00     0.030 H 
BRANCH  34  36
ATOM     36  CD1 LEU d   1       9.385   6.871  -8.638  0.00  0.00    -0.063 C 
ATOM     37 1HD1 LEU d   1       8.661   6.074  -8.469  0.00  0.00     0.023 H 
ATOM     38 2HD1 LEU d   1       8.881   7.732  -9.081  0.00  0.00     0.023 H 
ATOM     39 3HD1 LEU d   1      10.162   6.518  -9.316  0.00  0.00     0.023 H 
ENDBRANCH  34  36
BRANCH  34  40
ATOM     40  CD2 LEU d   1      10.022   6.081  -6.356  0.00  0.00    -0.063 C 
ATOM     41 1HD2 LEU d   1       9.574   6.369  -5.405  0.00  0.00     0.023 H 
ATOM     42 2HD2 LEU d   1       9.447   5.265  -6.796  0.00  0.00     0.023 H 
ATOM     43 3HD2 LEU d   1      11.048   5.753  -6.190  0.00  0.00     0.023 H 
ENDBRANCH  34  40
ENDBRANCH  31  34
ENDBRANCH   1  31
TORSDOF 11
ENDMDL
MODEL 10
REMARK VINA RESULT:      -4.8      8.232     12.205
REMARK  9 active torsions:
REMARK  status: ('A' for Active; 'I' for Inactive)
REMARK    1  A    between atoms: CD1_1  and  CG_2 
REMARK    2  A    between atoms: CG_2  and  CD2_3 
REMARK    3  A    between atoms: CG_2  and  CB_4 
REMARK    4  A    between atoms: CB_4  and  CA_5 
REMARK       I    between atoms: CA_5  and  C_7 
REMARK       I    between atoms: CA_5  and  N_9 
REMARK       I    between atoms: N_9  and  C_10 
REMARK       I    between atoms: C_10  and  N_12 
REMARK    5  A    between atoms: N_12  and  C_13 
REMARK    6  A    between atoms: C_16  and  O_21 
REMARK    7  A    between atoms: C_18  and  O_19 
REMARK    8  A    between atoms: O_19  and  C_20 
REMARK    9  A    between atoms: O_21  and  C_22 
ROOT
ATOM      1  CA  LEU d   1       9.703   8.504  -6.983  0.00  0.00     0.064 C 
ATOM      2  HA  LEU d   1      10.689   8.044  -7.025  0.00  0.00     0.056 H 
ATOM      3  C   LEU d   1       9.850   9.999  -6.857  0.00  0.00     0.062 C 
ATOM      4  O   LEU d   1       9.390  10.573  -5.898  0.00  0.00    -0.548 OA
ATOM      5  N   LEU d   1       8.969   7.986  -5.825  0.00  0.00    -0.291 N 
ATOM      6  H   LEU d   1       8.011   7.853  -5.877  0.00  0.00     0.151 HD
ATOM      7  OXT LEU d   1      10.492  10.693  -7.810  0.00  0.00    -0.548 OA
ATOM      8  C   UNK d   0       9.629   7.695  -4.686  0.00  0.00     0.304 C 
ATOM      9  O   UNK d   0      10.832   7.863  -4.620  0.00  0.00    -0.253 OA
ATOM     10  N   UNK d   0       8.956   7.219  -3.620  0.00  0.00    -0.266 N 
ATOM     11  H   UNK d   0       7.989   7.147  -3.650  0.00  0.00     0.157 HD
ENDROOT
BRANCH  10  12
ATOM     12  C   UNK d   0       9.654   6.828  -2.467  0.00  0.00     0.077 A 
ATOM     13  C   UNK d   0      10.179   5.541  -2.372  0.00  0.00     0.145 A 
ATOM     14  C   UNK d   0      10.871   5.160  -1.234  0.00  0.00     0.024 A 
ATOM     15  C   UNK d   0      11.031   6.057  -0.188  0.00  0.00     0.124 A 
ATOM     16  H   UNK d   0      11.282   4.164  -1.159  0.00  0.00     0.069 H 
ATOM     17  C   UNK d   0      10.503   7.335  -0.282  0.00  0.00    -0.018 A 
ATOM     18  C   UNK d   0       9.816   7.721  -1.417  0.00  0.00    -0.033 A 
ATOM     19  H   UNK d   0      10.629   8.032   0.534  0.00  0.00     0.066 H 
ATOM     20  H   UNK d   0       9.406   8.717  -1.488  0.00  0.00     0.064 H 
BRANCH  13  21
ATOM     21  O   UNK d   0      10.015   4.663  -3.396  0.00  0.00    -0.493 OA
BRANCH  21  22
ATOM     22  C   UNK d   0      10.021   3.273  -3.065  0.00  0.00     0.079 C 
ATOM     23  H   UNK d   0       9.066   2.828  -3.342  0.00  0.00     0.066 H 
ATOM     24  H   UNK d   0      10.824   2.773  -3.607  0.00  0.00     0.066 H 
ATOM     25  H   UNK d   0      10.179   3.155  -1.992  0.00  0.00     0.066 H 
ENDBRANCH  21  22
ENDBRANCH  13  21
BRANCH  15  26
ATOM     26  O   UNK d   0      11.705   5.681   0.931  0.00  0.00    -0.495 OA
BRANCH  26  27
ATOM     27  C   UNK d   0      10.969   5.657   2.155  0.00  0.00     0.079 C 
ATOM     28  H   UNK d   0      10.247   6.474   2.161  0.00  0.00     0.066 H 
ATOM     29  H   UNK d   0      10.442   4.706   2.244  0.00  0.00     0.066 H 
ATOM     30  H   UNK d   0      11.654   5.771   2.995  0.00  0.00     0.066 H 
ENDBRANCH  26  27
ENDBRANCH  15  26
ENDBRANCH  10  12
BRANCH   1  31
ATOM     31  CB  LEU d   1       8.932   8.174  -8.263  0.00  0.00    -0.027 C 
ATOM     32  HB1 LEU d   1       8.765   9.088  -8.832  0.00  0.00     0.029 H 
ATOM     33  HB2 LEU d   1       7.972   7.728  -8.004  0.00  0.00     0.029 H 
BRANCH  31  34
ATOM     34  CG  LEU d   1       9.743   7.188  -9.106  0.00  0.00    -0.045 C 
ATOM     35  HG  LEU d   1      10.048   7.669 -10.036  0.00  0.00     0.030 H 
BRANCH  34  36
ATOM     36  CD1 LEU d   1       8.884   5.962  -9.423  0.00  0.00    -0.063 C 
ATOM     37 1HD1 LEU d   1       9.530   5.111  -9.637  0.00  0.00     0.023 H 
ATOM     38 2HD1 LEU d   1       8.250   5.732  -8.566  0.00  0.00     0.023 H 
ATOM     39 3HD1 LEU d   1       8.259   6.171 -10.291  0.00  0.00     0.023 H 
ENDBRANCH  34  36
BRANCH  34  40
ATOM     40  CD2 LEU d   1      10.985   6.752  -8.327  0.00  0.00    -0.063 C 
ATOM     41 1HD2 LEU d   1      10.780   5.813  -7.813  0.00  0.00     0.023 H 
ATOM     42 2HD2 LEU d   1      11.818   6.615  -9.017  0.00  0.00     0.023 H 
ATOM     43 3HD2 LEU d   1      11.243   7.518  -7.595  0.00  0.00     0.023 H 
ENDBRANCH  34  40
ENDBRANCH  31  34
ENDBRANCH   1  31
TORSDOF 11
ENDMDL
