MODEL 1
REMARK VINA RESULT:      -5.4      0.000      0.000
REMARK  11 active torsions:
REMARK  status: ('A' for Active; 'I' for Inactive)
REMARK    1  A    between atoms: C_1  and  C_2 
REMARK    2  A    between atoms: C_2  and  C_3 
REMARK    3  A    between atoms: C_3  and  N_4 
REMARK       I    between atoms: N_4  and  C_5 
REMARK    4  A    between atoms: C_5  and  C_7 
REMARK    5  A    between atoms: C_7  and  C_8 
REMARK    6  A    between atoms: N_12  and  S_18 
REMARK    7  A    between atoms: C_14  and  C_16 
REMARK    8  A    between atoms: C_16  and  C_17 
REMARK    9  A    between atoms: S_18  and  C_21 
REMARK   10  A    between atoms: C_22  and  C_27 
REMARK   11  A    between atoms: C_25  and  C_26 
ROOT
ATOM      1  C   LIG d   1       9.446   1.762  -4.703  0.00  0.00    -0.028 C 
ATOM      2  H   LIG d   1       9.989   0.855  -4.437  0.00  0.00     0.031 H 
ATOM      3  C   LIG d   1       9.155   2.571  -3.437  0.00  0.00    -0.035 C 
ATOM      4  C   LIG d   1      10.475   2.915  -2.741  0.00  0.00     0.021 C 
ATOM      5  N   LIG d   1      11.353   3.596  -3.703  0.00  0.00    -0.176 N 
ATOM      6  C   LIG d   1      11.626   2.945  -4.992  0.00  0.00     0.024 C 
ATOM      7  C   LIG d   1      10.293   2.600  -5.663  0.00  0.00    -0.024 C 
ATOM      8  H   LIG d   1      10.480   2.032  -6.573  0.00  0.00     0.032 H 
ATOM      9  H   LIG d   1       8.634   3.490  -3.704  0.00  0.00     0.028 H 
ATOM     10  H   LIG d   1       8.532   1.982  -2.763  0.00  0.00     0.028 H 
ATOM     11  H   LIG d   1      10.954   2.000  -2.392  0.00  0.00     0.044 H 
ATOM     12  H   LIG d   1      10.281   3.575  -1.895  0.00  0.00     0.044 H 
ATOM     13  H   LIG d   1      12.199   2.034  -4.827  0.00  0.00     0.045 H 
ATOM     14  H   LIG d   1      12.192   3.624  -5.631  0.00  0.00     0.045 H 
ENDROOT
BRANCH   1  15
ATOM     15  C   LIG d   1       8.127   1.386  -5.382  0.00  0.00     0.027 C 
ATOM     16  H   LIG d   1       7.543   2.289  -5.566  0.00  0.00     0.036 H 
ATOM     17  H   LIG d   1       8.335   0.890  -6.329  0.00  0.00     0.036 H 
BRANCH  15  18
ATOM     18  C   LIG d   1       7.349   0.457  -4.487  0.00  0.00     0.213 C 
ATOM     19  N   LIG d   1       6.151   0.837  -4.001  0.00  0.00    -0.315 N 
ATOM     20  H   LIG d   1       5.789   1.709  -4.227  0.00  0.00     0.149 HD
ATOM     21  O   LIG d   1       7.800  -0.632  -4.204  0.00  0.00    -0.276 OA
BRANCH  19  22
ATOM     22  C   LIG d   1       5.393  -0.067  -3.130  0.00  0.00     0.011 C 
ATOM     23  H   LIG d   1       4.566  -0.503  -3.691  0.00  0.00     0.046 H 
ATOM     24  H   LIG d   1       6.048  -0.861  -2.773  0.00  0.00     0.046 H 
BRANCH  22  25
ATOM     25  C   LIG d   1       4.843   0.717  -1.937  0.00  0.00    -0.040 C 
ATOM     26  H   LIG d   1       4.647   0.031  -1.113  0.00  0.00     0.028 H 
ATOM     27  H   LIG d   1       5.574   1.462  -1.623  0.00  0.00     0.028 H 
BRANCH  25  28
ATOM     28  C   LIG d   1       3.543   1.415  -2.341  0.00  0.00    -0.064 C 
ATOM     29  H   LIG d   1       2.981   1.683  -1.447  0.00  0.00     0.023 H 
ATOM     30  H   LIG d   1       3.776   2.316  -2.908  0.00  0.00     0.023 H 
ATOM     31  H   LIG d   1       2.947   0.742  -2.958  0.00  0.00     0.023 H 
ENDBRANCH  25  28
ENDBRANCH  22  25
ENDBRANCH  19  22
ENDBRANCH  15  18
ENDBRANCH   1  15
BRANCH   7  32
ATOM     32  C   LIG d   1       9.546   3.891  -6.008  0.00  0.00    -0.052 C 
ATOM     33  H   LIG d   1       8.491   3.668  -6.168  0.00  0.00     0.027 H 
ATOM     34  H   LIG d   1       9.648   4.601  -5.189  0.00  0.00     0.027 H 
BRANCH  32  35
ATOM     35  C   LIG d   1      10.138   4.496  -7.283  0.00  0.00    -0.065 C 
ATOM     36  H   LIG d   1       9.792   5.524  -7.392  0.00  0.00     0.023 H 
ATOM     37  H   LIG d   1      11.226   4.483  -7.221  0.00  0.00     0.023 H 
ATOM     38  H   LIG d   1       9.817   3.912  -8.146  0.00  0.00     0.023 H 
ENDBRANCH  32  35
ENDBRANCH   7  32
BRANCH   5  39
ATOM     39  S   LIG d   1      12.022   5.067  -3.342  0.00  0.00     0.066 S 
ATOM     40  O   LIG d   1      13.184   4.806  -2.566  0.00  0.00    -0.153 OA
ATOM     41  O   LIG d   1      12.065   5.803  -4.556  0.00  0.00    -0.153 OA
BRANCH  39  42
ATOM     42  C   LIG d   1      10.889   5.907  -2.284  0.00  0.00     0.170 A 
ATOM     43  C   LIG d   1       9.745   6.545  -2.626  0.00  0.00     0.161 A 
ATOM     44  O   LIG d   1       9.224   7.027  -1.489  0.00  0.00    -0.358 OA
ATOM     45  N   LIG d   1       9.918   6.762  -0.535  0.00  0.00    -0.081 NA
ATOM     46  C   LIG d   1      10.970   6.079  -0.882  0.00  0.00     0.107 A 
BRANCH  43  47
ATOM     47  C   LIG d   1       9.167   6.681  -4.011  0.00  0.00    -0.002 C 
ATOM     48  H   LIG d   1       8.858   5.702  -4.375  0.00  0.00     0.031 H 
ATOM     49  H   LIG d   1       8.305   7.347  -3.981  0.00  0.00     0.031 H 
ATOM     50  H   LIG d   1       9.922   7.095  -4.680  0.00  0.00     0.031 H 
ENDBRANCH  43  47
BRANCH  46  51
ATOM     51  C   LIG d   1      12.058   5.571   0.028  0.00  0.00    -0.017 C 
ATOM     52  H   LIG d   1      12.985   6.107  -0.179  0.00  0.00     0.029 H 
ATOM     53  H   LIG d   1      11.769   5.733   1.066  0.00  0.00     0.029 H 
ATOM     54  H   LIG d   1      12.210   4.505  -0.145  0.00  0.00     0.029 H 
ENDBRANCH  46  51
ENDBRANCH  39  42
ENDBRANCH   5  39
TORSDOF 11
ENDMDL
MODEL 2
REMARK VINA RESULT:      -5.4      0.355      1.606
REMARK  11 active torsions:
REMARK  status: ('A' for Active; 'I' for Inactive)
REMARK    1  A    between atoms: C_1  and  C_2 
REMARK    2  A    between atoms: C_2  and  C_3 
REMARK    3  A    between atoms: C_3  and  N_4 
REMARK       I    between atoms: N_4  and  C_5 
REMARK    4  A    between atoms: C_5  and  C_7 
REMARK    5  A    between atoms: C_7  and  C_8 
REMARK    6  A    between atoms: N_12  and  S_18 
REMARK    7  A    between atoms: C_14  and  C_16 
REMARK    8  A    between atoms: C_16  and  C_17 
REMARK    9  A    between atoms: S_18  and  C_21 
REMARK   10  A    between atoms: C_22  and  C_27 
REMARK   11  A    between atoms: C_25  and  C_26 
ROOT
ATOM      1  C   LIG d   1       9.510   1.811  -4.744  0.00  0.00    -0.028 C 
ATOM      2  H   LIG d   1      10.056   0.901  -4.496  0.00  0.00     0.031 H 
ATOM      3  C   LIG d   1       9.204   2.587  -3.461  0.00  0.00    -0.035 C 
ATOM      4  C   LIG d   1      10.517   2.922  -2.747  0.00  0.00     0.021 C 
ATOM      5  N   LIG d   1      11.398   3.631  -3.685  0.00  0.00    -0.176 N 
ATOM      6  C   LIG d   1      11.685   3.013  -4.988  0.00  0.00     0.024 C 
ATOM      7  C   LIG d   1      10.359   2.677  -5.677  0.00  0.00    -0.024 C 
ATOM      8  H   LIG d   1      10.557   2.133  -6.599  0.00  0.00     0.032 H 
ATOM      9  H   LIG d   1       8.680   3.509  -3.710  0.00  0.00     0.028 H 
ATOM     10  H   LIG d   1       8.580   1.978  -2.807  0.00  0.00     0.028 H 
ATOM     11  H   LIG d   1      10.999   2.002  -2.416  0.00  0.00     0.044 H 
ATOM     12  H   LIG d   1      10.313   3.560  -1.886  0.00  0.00     0.044 H 
ATOM     13  H   LIG d   1      12.262   2.101  -4.840  0.00  0.00     0.045 H 
ATOM     14  H   LIG d   1      12.252   3.711  -5.605  0.00  0.00     0.045 H 
ENDROOT
BRANCH   1  15
ATOM     15  C   LIG d   1       8.198   1.444  -5.442  0.00  0.00     0.027 C 
ATOM     16  H   LIG d   1       7.612   2.348  -5.611  0.00  0.00     0.036 H 
ATOM     17  H   LIG d   1       8.417   0.970  -6.398  0.00  0.00     0.036 H 
BRANCH  15  18
ATOM     18  C   LIG d   1       7.417   0.491  -4.575  0.00  0.00     0.213 C 
ATOM     19  N   LIG d   1       6.232   0.870  -4.057  0.00  0.00    -0.315 N 
ATOM     20  H   LIG d   1       5.881   1.756  -4.244  0.00  0.00     0.149 HD
ATOM     21  O   LIG d   1       7.854  -0.615  -4.341  0.00  0.00    -0.276 OA
BRANCH  19  22
ATOM     22  C   LIG d   1       5.471  -0.056  -3.213  0.00  0.00     0.011 C 
ATOM     23  H   LIG d   1       4.655  -0.489  -3.792  0.00  0.00     0.046 H 
ATOM     24  H   LIG d   1       6.129  -0.851  -2.862  0.00  0.00     0.046 H 
BRANCH  22  25
ATOM     25  C   LIG d   1       4.900   0.701  -2.013  0.00  0.00    -0.040 C 
ATOM     26  H   LIG d   1       4.700  -0.001  -1.203  0.00  0.00     0.028 H 
ATOM     27  H   LIG d   1       5.620   1.447  -1.677  0.00  0.00     0.028 H 
BRANCH  25  28
ATOM     28  C   LIG d   1       3.598   1.393  -2.419  0.00  0.00    -0.064 C 
ATOM     29  H   LIG d   1       2.812   0.648  -2.544  0.00  0.00     0.023 H 
ATOM     30  H   LIG d   1       3.306   2.103  -1.645  0.00  0.00     0.023 H 
ATOM     31  H   LIG d   1       3.748   1.924  -3.360  0.00  0.00     0.023 H 
ENDBRANCH  25  28
ENDBRANCH  22  25
ENDBRANCH  19  22
ENDBRANCH  15  18
ENDBRANCH   1  15
BRANCH   7  32
ATOM     32  C   LIG d   1       9.607   3.971  -5.997  0.00  0.00    -0.052 C 
ATOM     33  H   LIG d   1       8.534   3.779  -5.986  0.00  0.00     0.027 H 
ATOM     34  H   LIG d   1       9.850   4.726  -5.250  0.00  0.00     0.027 H 
BRANCH  32  35
ATOM     35  C   LIG d   1      10.022   4.472  -7.382  0.00  0.00    -0.065 C 
ATOM     36  H   LIG d   1       9.851   3.686  -8.118  0.00  0.00     0.023 H 
ATOM     37  H   LIG d   1       9.431   5.350  -7.643  0.00  0.00     0.023 H 
ATOM     38  H   LIG d   1      11.080   4.736  -7.372  0.00  0.00     0.023 H 
ENDBRANCH  32  35
ENDBRANCH   7  32
BRANCH   5  39
ATOM     39  S   LIG d   1      12.056   5.097  -3.283  0.00  0.00     0.066 S 
ATOM     40  O   LIG d   1      13.189   4.825  -2.470  0.00  0.00    -0.153 OA
ATOM     41  O   LIG d   1      12.143   5.847  -4.486  0.00  0.00    -0.153 OA
BRANCH  39  42
ATOM     42  C   LIG d   1      10.887   5.927  -2.257  0.00  0.00     0.170 A 
ATOM     43  C   LIG d   1      10.913   6.072  -0.912  0.00  0.00     0.161 A 
ATOM     44  O   LIG d   1       9.820   6.775  -0.584  0.00  0.00    -0.358 OA
ATOM     45  N   LIG d   1       9.160   7.049  -1.558  0.00  0.00    -0.081 NA
ATOM     46  C   LIG d   1       9.700   6.590  -2.649  0.00  0.00     0.107 A 
BRANCH  43  47
ATOM     47  C   LIG d   1      11.966   5.549   0.032  0.00  0.00    -0.002 C 
ATOM     48  H   LIG d   1      12.203   4.517  -0.223  0.00  0.00     0.031 H 
ATOM     49  H   LIG d   1      12.864   6.160  -0.052  0.00  0.00     0.031 H 
ATOM     50  H   LIG d   1      11.591   5.595   1.055  0.00  0.00     0.031 H 
ENDBRANCH  43  47
BRANCH  46  51
ATOM     51  C   LIG d   1       9.168   6.734  -4.052  0.00  0.00    -0.017 C 
ATOM     52  H   LIG d   1       9.605   5.964  -4.687  0.00  0.00     0.029 H 
ATOM     53  H   LIG d   1       8.084   6.626  -4.042  0.00  0.00     0.029 H 
ATOM     54  H   LIG d   1       9.432   7.718  -4.441  0.00  0.00     0.029 H 
ENDBRANCH  46  51
ENDBRANCH  39  42
ENDBRANCH   5  39
TORSDOF 11
ENDMDL
MODEL 3
REMARK VINA RESULT:      -5.2      1.458      2.577
REMARK  11 active torsions:
REMARK  status: ('A' for Active; 'I' for Inactive)
REMARK    1  A    between atoms: C_1  and  C_2 
REMARK    2  A    between atoms: C_2  and  C_3 
REMARK    3  A    between atoms: C_3  and  N_4 
REMARK       I    between atoms: N_4  and  C_5 
REMARK    4  A    between atoms: C_5  and  C_7 
REMARK    5  A    between atoms: C_7  and  C_8 
REMARK    6  A    between atoms: N_12  and  S_18 
REMARK    7  A    between atoms: C_14  and  C_16 
REMARK    8  A    between atoms: C_16  and  C_17 
REMARK    9  A    between atoms: S_18  and  C_21 
REMARK   10  A    between atoms: C_22  and  C_27 
REMARK   11  A    between atoms: C_25  and  C_26 
ROOT
ATOM      1  C   LIG d   1       8.742   2.863  -4.215  0.00  0.00    -0.028 C 
ATOM      2  H   LIG d   1       7.993   3.139  -3.472  0.00  0.00     0.031 H 
ATOM      3  C   LIG d   1       9.090   4.087  -5.066  0.00  0.00    -0.035 C 
ATOM      4  C   LIG d   1       9.616   5.202  -4.157  0.00  0.00     0.021 C 
ATOM      5  N   LIG d   1      10.738   4.678  -3.365  0.00  0.00    -0.176 N 
ATOM      6  C   LIG d   1      10.536   3.452  -2.581  0.00  0.00     0.024 C 
ATOM      7  C   LIG d   1      10.000   2.356  -3.507  0.00  0.00    -0.024 C 
ATOM      8  H   LIG d   1       9.756   1.472  -2.920  0.00  0.00     0.032 H 
ATOM      9  H   LIG d   1       9.857   3.818  -5.792  0.00  0.00     0.028 H 
ATOM     10  H   LIG d   1       8.198   4.434  -5.588  0.00  0.00     0.028 H 
ATOM     11  H   LIG d   1       8.821   5.535  -3.489  0.00  0.00     0.044 H 
ATOM     12  H   LIG d   1       9.959   6.039  -4.766  0.00  0.00     0.044 H 
ATOM     13  H   LIG d   1       9.817   3.642  -1.785  0.00  0.00     0.045 H 
ATOM     14  H   LIG d   1      11.486   3.134  -2.149  0.00  0.00     0.045 H 
ENDROOT
BRANCH   1  15
ATOM     15  C   LIG d   1       8.183   1.759  -5.116  0.00  0.00     0.027 C 
ATOM     16  H   LIG d   1       7.511   2.198  -5.853  0.00  0.00     0.036 H 
ATOM     17  H   LIG d   1       9.004   1.258  -5.627  0.00  0.00     0.036 H 
BRANCH  15  18
ATOM     18  C   LIG d   1       7.428   0.761  -4.277  0.00  0.00     0.213 C 
ATOM     19  N   LIG d   1       6.400   1.170  -3.507  0.00  0.00    -0.315 N 
ATOM     20  H   LIG d   1       6.146   2.107  -3.494  0.00  0.00     0.149 HD
ATOM     21  O   LIG d   1       7.745  -0.409  -4.293  0.00  0.00    -0.276 OA
BRANCH  19  22
ATOM     22  C   LIG d   1       5.664   0.200  -2.691  0.00  0.00     0.011 C 
ATOM     23  H   LIG d   1       5.175  -0.525  -3.341  0.00  0.00     0.046 H 
ATOM     24  H   LIG d   1       6.359  -0.317  -2.029  0.00  0.00     0.046 H 
BRANCH  22  25
ATOM     25  C   LIG d   1       4.612   0.931  -1.856  0.00  0.00    -0.040 C 
ATOM     26  H   LIG d   1       4.136   0.226  -1.174  0.00  0.00     0.028 H 
ATOM     27  H   LIG d   1       5.090   1.725  -1.282  0.00  0.00     0.028 H 
BRANCH  25  28
ATOM     28  C   LIG d   1       3.556   1.536  -2.783  0.00  0.00    -0.064 C 
ATOM     29  H   LIG d   1       2.655   1.758  -2.212  0.00  0.00     0.023 H 
ATOM     30  H   LIG d   1       3.943   2.455  -3.224  0.00  0.00     0.023 H 
ATOM     31  H   LIG d   1       3.319   0.826  -3.575  0.00  0.00     0.023 H 
ENDBRANCH  25  28
ENDBRANCH  22  25
ENDBRANCH  19  22
ENDBRANCH  15  18
ENDBRANCH   1  15
BRANCH   7  32
ATOM     32  C   LIG d   1      11.064   2.002  -4.548  0.00  0.00    -0.052 C 
ATOM     33  H   LIG d   1      10.595   1.481  -5.383  0.00  0.00     0.027 H 
ATOM     34  H   LIG d   1      11.538   2.914  -4.908  0.00  0.00     0.027 H 
BRANCH  32  35
ATOM     35  C   LIG d   1      12.119   1.097  -3.911  0.00  0.00    -0.065 C 
ATOM     36  H   LIG d   1      13.085   1.604  -3.916  0.00  0.00     0.023 H 
ATOM     37  H   LIG d   1      11.833   0.872  -2.883  0.00  0.00     0.023 H 
ATOM     38  H   LIG d   1      12.194   0.169  -4.478  0.00  0.00     0.023 H 
ENDBRANCH  32  35
ENDBRANCH   7  32
BRANCH   5  39
ATOM     39  S   LIG d   1      12.201   5.454  -3.358  0.00  0.00     0.066 S 
ATOM     40  O   LIG d   1      13.181   4.476  -3.676  0.00  0.00    -0.153 OA
ATOM     41  O   LIG d   1      12.034   6.642  -4.118  0.00  0.00    -0.153 OA
BRANCH  39  42
ATOM     42  C   LIG d   1      12.513   5.959  -1.698  0.00  0.00     0.170 A 
ATOM     43  C   LIG d   1      13.640   5.781  -0.970  0.00  0.00     0.161 A 
ATOM     44  O   LIG d   1      13.410   6.332   0.229  0.00  0.00    -0.358 OA
ATOM     45  N   LIG d   1      12.296   6.798   0.297  0.00  0.00    -0.081 NA
ATOM     46  C   LIG d   1      11.640   6.638  -0.815  0.00  0.00     0.107 A 
BRANCH  43  47
ATOM     47  C   LIG d   1      14.907   5.101  -1.421  0.00  0.00    -0.002 C 
ATOM     48  H   LIG d   1      15.057   4.189  -0.844  0.00  0.00     0.031 H 
ATOM     49  H   LIG d   1      14.830   4.853  -2.479  0.00  0.00     0.031 H 
ATOM     50  H   LIG d   1      15.754   5.771  -1.267  0.00  0.00     0.031 H 
ENDBRANCH  43  47
BRANCH  46  51
ATOM     51  C   LIG d   1      10.231   7.085  -1.106  0.00  0.00    -0.017 C 
ATOM     52  H   LIG d   1      10.055   8.056  -0.642  0.00  0.00     0.029 H 
ATOM     53  H   LIG d   1      10.090   7.165  -2.184  0.00  0.00     0.029 H 
ATOM     54  H   LIG d   1       9.527   6.357  -0.701  0.00  0.00     0.029 H 
ENDBRANCH  46  51
ENDBRANCH  39  42
ENDBRANCH   5  39
TORSDOF 11
ENDMDL
MODEL 4
REMARK VINA RESULT:      -5.2      7.660      9.844
REMARK  11 active torsions:
REMARK  status: ('A' for Active; 'I' for Inactive)
REMARK    1  A    between atoms: C_1  and  C_2 
REMARK    2  A    between atoms: C_2  and  C_3 
REMARK    3  A    between atoms: C_3  and  N_4 
REMARK       I    between atoms: N_4  and  C_5 
REMARK    4  A    between atoms: C_5  and  C_7 
REMARK    5  A    between atoms: C_7  and  C_8 
REMARK    6  A    between atoms: N_12  and  S_18 
REMARK    7  A    between atoms: C_14  and  C_16 
REMARK    8  A    between atoms: C_16  and  C_17 
REMARK    9  A    between atoms: S_18  and  C_21 
REMARK   10  A    between atoms: C_22  and  C_27 
REMARK   11  A    between atoms: C_25  and  C_26 
ROOT
ATOM      1  C   LIG d   1       3.112  -1.608  -9.917  0.00  0.00    -0.028 C 
ATOM      2  H   LIG d   1       3.721  -2.025 -10.720  0.00  0.00     0.031 H 
ATOM      3  C   LIG d   1       3.199  -2.515  -8.688  0.00  0.00    -0.035 C 
ATOM      4  C   LIG d   1       4.662  -2.635  -8.250  0.00  0.00     0.021 C 
ATOM      5  N   LIG d   1       5.207  -1.286  -8.044  0.00  0.00    -0.176 N 
ATOM      6  C   LIG d   1       5.093  -0.305  -9.133  0.00  0.00     0.024 C 
ATOM      7  C   LIG d   1       3.626  -0.211  -9.561  0.00  0.00    -0.024 C 
ATOM      8  H   LIG d   1       3.542   0.439 -10.430  0.00  0.00     0.032 H 
ATOM      9  H   LIG d   1       2.611  -2.086  -7.877  0.00  0.00     0.028 H 
ATOM     10  H   LIG d   1       2.812  -3.504  -8.936  0.00  0.00     0.028 H 
ATOM     11  H   LIG d   1       5.235  -3.147  -9.023  0.00  0.00     0.044 H 
ATOM     12  H   LIG d   1       4.720  -3.198  -7.317  0.00  0.00     0.044 H 
ATOM     13  H   LIG d   1       5.701  -0.626  -9.978  0.00  0.00     0.045 H 
ATOM     14  H   LIG d   1       5.436   0.669  -8.783  0.00  0.00     0.045 H 
ENDROOT
BRANCH   1  15
ATOM     15  C   LIG d   1       1.656  -1.514 -10.379  0.00  0.00     0.027 C 
ATOM     16  H   LIG d   1       1.029  -1.206  -9.542  0.00  0.00     0.036 H 
ATOM     17  H   LIG d   1       1.576  -0.782 -11.181  0.00  0.00     0.036 H 
BRANCH  15  18
ATOM     18  C   LIG d   1       1.201  -2.860 -10.880  0.00  0.00     0.213 C 
ATOM     19  N   LIG d   1       0.208  -3.515 -10.245  0.00  0.00    -0.315 N 
ATOM     20  H   LIG d   1      -0.213  -3.119  -9.465  0.00  0.00     0.149 HD
ATOM     21  O   LIG d   1       1.726  -3.355 -11.854  0.00  0.00    -0.276 OA
BRANCH  19  22
ATOM     22  C   LIG d   1      -0.235  -4.824 -10.731  0.00  0.00     0.011 C 
ATOM     23  H   LIG d   1      -0.135  -4.861 -11.816  0.00  0.00     0.046 H 
ATOM     24  H   LIG d   1       0.379  -5.605 -10.283  0.00  0.00     0.046 H 
BRANCH  22  25
ATOM     25  C   LIG d   1      -1.699  -5.042 -10.346  0.00  0.00    -0.040 C 
ATOM     26  H   LIG d   1      -2.109  -4.117  -9.939  0.00  0.00     0.028 H 
ATOM     27  H   LIG d   1      -2.268  -5.335 -11.228  0.00  0.00     0.028 H 
BRANCH  25  28
ATOM     28  C   LIG d   1      -1.790  -6.147  -9.291  0.00  0.00    -0.064 C 
ATOM     29  H   LIG d   1      -0.804  -6.584  -9.137  0.00  0.00     0.023 H 
ATOM     30  H   LIG d   1      -2.151  -5.725  -8.353  0.00  0.00     0.023 H 
ATOM     31  H   LIG d   1      -2.481  -6.918  -9.631  0.00  0.00     0.023 H 
ENDBRANCH  25  28
ENDBRANCH  22  25
ENDBRANCH  19  22
ENDBRANCH  15  18
ENDBRANCH   1  15
BRANCH   7  32
ATOM     32  C   LIG d   1       2.794   0.360  -8.411  0.00  0.00    -0.052 C 
ATOM     33  H   LIG d   1       1.754   0.054  -8.529  0.00  0.00     0.027 H 
ATOM     34  H   LIG d   1       3.178  -0.015  -7.463  0.00  0.00     0.027 H 
BRANCH  32  35
ATOM     35  C   LIG d   1       2.881   1.887  -8.429  0.00  0.00    -0.065 C 
ATOM     36  H   LIG d   1       2.265   2.277  -9.240  0.00  0.00     0.023 H 
ATOM     37  H   LIG d   1       2.523   2.283  -7.478  0.00  0.00     0.023 H 
ATOM     38  H   LIG d   1       3.917   2.190  -8.582  0.00  0.00     0.023 H 
ENDBRANCH  32  35
ENDBRANCH   7  32
BRANCH   5  39
ATOM     39  S   LIG d   1       5.933  -0.878  -6.613  0.00  0.00     0.066 S 
ATOM     40  O   LIG d   1       7.229  -1.460  -6.635  0.00  0.00    -0.153 OA
ATOM     41  O   LIG d   1       5.727   0.516  -6.435  0.00  0.00    -0.153 OA
BRANCH  39  42
ATOM     42  C   LIG d   1       5.040  -1.686  -5.326  0.00  0.00     0.170 A 
ATOM     43  C   LIG d   1       3.967  -1.226  -4.640  0.00  0.00     0.161 A 
ATOM     44  O   LIG d   1       3.634  -2.187  -3.767  0.00  0.00    -0.358 OA
ATOM     45  N   LIG d   1       4.375  -3.139  -3.850  0.00  0.00    -0.081 NA
ATOM     46  C   LIG d   1       5.281  -2.963  -4.767  0.00  0.00     0.107 A 
BRANCH  43  47
ATOM     47  C   LIG d   1       3.281   0.103  -4.823  0.00  0.00    -0.002 C 
ATOM     48  H   LIG d   1       2.336   0.103  -4.281  0.00  0.00     0.031 H 
ATOM     49  H   LIG d   1       3.920   0.898  -4.440  0.00  0.00     0.031 H 
ATOM     50  H   LIG d   1       3.091   0.270  -5.884  0.00  0.00     0.031 H 
ENDBRANCH  43  47
BRANCH  46  51
ATOM     51  C   LIG d   1       6.372  -3.927  -5.156  0.00  0.00    -0.017 C 
ATOM     52  H   LIG d   1       6.132  -4.379  -6.118  0.00  0.00     0.029 H 
ATOM     53  H   LIG d   1       7.319  -3.392  -5.231  0.00  0.00     0.029 H 
ATOM     54  H   LIG d   1       6.455  -4.708  -4.399  0.00  0.00     0.029 H 
ENDBRANCH  46  51
ENDBRANCH  39  42
ENDBRANCH   5  39
TORSDOF 11
ENDMDL
MODEL 5
REMARK VINA RESULT:      -5.2      8.130     12.134
REMARK  11 active torsions:
REMARK  status: ('A' for Active; 'I' for Inactive)
REMARK    1  A    between atoms: C_1  and  C_2 
REMARK    2  A    between atoms: C_2  and  C_3 
REMARK    3  A    between atoms: C_3  and  N_4 
REMARK       I    between atoms: N_4  and  C_5 
REMARK    4  A    between atoms: C_5  and  C_7 
REMARK    5  A    between atoms: C_7  and  C_8 
REMARK    6  A    between atoms: N_12  and  S_18 
REMARK    7  A    between atoms: C_14  and  C_16 
REMARK    8  A    between atoms: C_16  and  C_17 
REMARK    9  A    between atoms: S_18  and  C_21 
REMARK   10  A    between atoms: C_22  and  C_27 
REMARK   11  A    between atoms: C_25  and  C_26 
ROOT
ATOM      1  C   LIG d   1       3.065  -0.811  -7.722  0.00  0.00    -0.028 C 
ATOM      2  H   LIG d   1       2.257  -1.257  -7.141  0.00  0.00     0.031 H 
ATOM      3  C   LIG d   1       3.877  -1.917  -8.400  0.00  0.00    -0.035 C 
ATOM      4  C   LIG d   1       2.953  -2.741  -9.303  0.00  0.00     0.021 C 
ATOM      5  N   LIG d   1       2.272  -1.834 -10.237  0.00  0.00    -0.176 N 
ATOM      6  C   LIG d   1       1.537  -0.684  -9.693  0.00  0.00     0.024 C 
ATOM      7  C   LIG d   1       2.475   0.118  -8.786  0.00  0.00    -0.024 C 
ATOM      8  H   LIG d   1       1.917   0.918  -8.301  0.00  0.00     0.032 H 
ATOM      9  H   LIG d   1       4.669  -1.471  -9.000  0.00  0.00     0.028 H 
ATOM     10  H   LIG d   1       4.315  -2.565  -7.641  0.00  0.00     0.028 H 
ATOM     11  H   LIG d   1       2.215  -3.262  -8.693  0.00  0.00     0.044 H 
ATOM     12  H   LIG d   1       3.543  -3.467  -9.864  0.00  0.00     0.044 H 
ATOM     13  H   LIG d   1       0.683  -1.036  -9.116  0.00  0.00     0.045 H 
ATOM     14  H   LIG d   1       1.191  -0.051 -10.512  0.00  0.00     0.045 H 
ENDROOT
BRANCH   1  15
ATOM     15  C   LIG d   1       3.977  -0.007  -6.792  0.00  0.00     0.027 C 
ATOM     16  H   LIG d   1       4.954  -0.488  -6.737  0.00  0.00     0.036 H 
ATOM     17  H   LIG d   1       4.092   1.004  -7.181  0.00  0.00     0.036 H 
BRANCH  15  18
ATOM     18  C   LIG d   1       3.366   0.051  -5.416  0.00  0.00     0.213 C 
ATOM     19  N   LIG d   1       3.513  -0.989  -4.570  0.00  0.00    -0.315 N 
ATOM     20  H   LIG d   1       4.013  -1.773  -4.848  0.00  0.00     0.149 HD
ATOM     21  O   LIG d   1       2.741   1.030  -5.069  0.00  0.00    -0.276 OA
BRANCH  19  22
ATOM     22  C   LIG d   1       2.919  -0.934  -3.232  0.00  0.00     0.011 C 
ATOM     23  H   LIG d   1       2.346  -0.013  -3.126  0.00  0.00     0.046 H 
ATOM     24  H   LIG d   1       2.259  -1.791  -3.092  0.00  0.00     0.046 H 
BRANCH  22  25
ATOM     25  C   LIG d   1       4.028  -0.969  -2.180  0.00  0.00    -0.040 C 
ATOM     26  H   LIG d   1       3.664  -1.474  -1.284  0.00  0.00     0.028 H 
ATOM     27  H   LIG d   1       4.888  -1.510  -2.576  0.00  0.00     0.028 H 
BRANCH  25  28
ATOM     28  C   LIG d   1       4.442   0.461  -1.827  0.00  0.00    -0.064 C 
ATOM     29  H   LIG d   1       3.788   1.165  -2.339  0.00  0.00     0.023 H 
ATOM     30  H   LIG d   1       4.362   0.607  -0.750  0.00  0.00     0.023 H 
ATOM     31  H   LIG d   1       5.473   0.628  -2.140  0.00  0.00     0.023 H 
ENDBRANCH  25  28
ENDBRANCH  22  25
ENDBRANCH  19  22
ENDBRANCH  15  18
ENDBRANCH   1  15
BRANCH   7  32
ATOM     32  C   LIG d   1       3.607   0.717  -9.624  0.00  0.00    -0.052 C 
ATOM     33  H   LIG d   1       4.567   0.449  -9.182  0.00  0.00     0.027 H 
ATOM     34  H   LIG d   1       3.553   0.328 -10.640  0.00  0.00     0.027 H 
BRANCH  32  35
ATOM     35  C   LIG d   1       3.467   2.240  -9.653  0.00  0.00    -0.065 C 
ATOM     36  H   LIG d   1       4.453   2.698  -9.561  0.00  0.00     0.023 H 
ATOM     37  H   LIG d   1       3.012   2.546 -10.595  0.00  0.00     0.023 H 
ATOM     38  H   LIG d   1       2.838   2.564  -8.823  0.00  0.00     0.023 H 
ENDBRANCH  32  35
ENDBRANCH   7  32
BRANCH   5  39
ATOM     39  S   LIG d   1       2.331  -2.103 -11.869  0.00  0.00     0.066 S 
ATOM     40  O   LIG d   1       1.159  -1.519 -12.421  0.00  0.00    -0.153 OA
ATOM     41  O   LIG d   1       3.637  -1.738 -12.294  0.00  0.00    -0.153 OA
BRANCH  39  42
ATOM     42  C   LIG d   1       2.191  -3.843 -12.115  0.00  0.00     0.170 A 
ATOM     43  C   LIG d   1       1.189  -4.663 -11.719  0.00  0.00     0.161 A 
ATOM     44  O   LIG d   1       1.521  -5.895 -12.131  0.00  0.00    -0.358 OA
ATOM     45  N   LIG d   1       2.584  -5.899 -12.706  0.00  0.00    -0.081 NA
ATOM     46  C   LIG d   1       3.102  -4.707 -12.766  0.00  0.00     0.107 A 
BRANCH  43  47
ATOM     47  C   LIG d   1      -0.055  -4.269 -10.966  0.00  0.00    -0.002 C 
ATOM     48  H   LIG d   1       0.166  -4.210  -9.901  0.00  0.00     0.031 H 
ATOM     49  H   LIG d   1      -0.402  -3.298 -11.320  0.00  0.00     0.031 H 
ATOM     50  H   LIG d   1      -0.833  -5.015 -11.135  0.00  0.00     0.031 H 
ENDBRANCH  43  47
BRANCH  46  51
ATOM     51  C   LIG d   1       4.413  -4.323 -13.402  0.00  0.00    -0.017 C 
ATOM     52  H   LIG d   1       5.229  -4.536 -12.712  0.00  0.00     0.029 H 
ATOM     53  H   LIG d   1       4.553  -4.894 -14.320  0.00  0.00     0.029 H 
ATOM     54  H   LIG d   1       4.405  -3.257 -13.636  0.00  0.00     0.029 H 
ENDBRANCH  46  51
ENDBRANCH  39  42
ENDBRANCH   5  39
TORSDOF 11
ENDMDL
MODEL 6
REMARK VINA RESULT:      -5.1      5.882      8.625
REMARK  11 active torsions:
REMARK  status: ('A' for Active; 'I' for Inactive)
REMARK    1  A    between atoms: C_1  and  C_2 
REMARK    2  A    between atoms: C_2  and  C_3 
REMARK    3  A    between atoms: C_3  and  N_4 
REMARK       I    between atoms: N_4  and  C_5 
REMARK    4  A    between atoms: C_5  and  C_7 
REMARK    5  A    between atoms: C_7  and  C_8 
REMARK    6  A    between atoms: N_12  and  S_18 
REMARK    7  A    between atoms: C_14  and  C_16 
REMARK    8  A    between atoms: C_16  and  C_17 
REMARK    9  A    between atoms: S_18  and  C_21 
REMARK   10  A    between atoms: C_22  and  C_27 
REMARK   11  A    between atoms: C_25  and  C_26 
ROOT
ATOM      1  C   LIG d   1       2.770  -0.526  -8.185  0.00  0.00    -0.028 C 
ATOM      2  H   LIG d   1       1.930  -1.146  -7.872  0.00  0.00     0.031 H 
ATOM      3  C   LIG d   1       3.068   0.513  -7.102  0.00  0.00    -0.035 C 
ATOM      4  C   LIG d   1       3.387  -0.204  -5.787  0.00  0.00     0.021 C 
ATOM      5  N   LIG d   1       4.478  -1.160  -6.022  0.00  0.00    -0.176 N 
ATOM      6  C   LIG d   1       4.331  -2.146  -7.102  0.00  0.00     0.024 C 
ATOM      7  C   LIG d   1       4.001  -1.408  -8.403  0.00  0.00    -0.024 C 
ATOM      8  H   LIG d   1       3.795  -2.132  -9.190  0.00  0.00     0.032 H 
ATOM      9  H   LIG d   1       3.923   1.117  -7.404  0.00  0.00     0.028 H 
ATOM     10  H   LIG d   1       2.198   1.156  -6.964  0.00  0.00     0.028 H 
ATOM     11  H   LIG d   1       2.503  -0.736  -5.436  0.00  0.00     0.044 H 
ATOM     12  H   LIG d   1       3.698   0.526  -5.039  0.00  0.00     0.044 H 
ATOM     13  H   LIG d   1       3.524  -2.837  -6.859  0.00  0.00     0.045 H 
ATOM     14  H   LIG d   1       5.264  -2.699  -7.221  0.00  0.00     0.045 H 
ENDROOT
BRANCH   1  15
ATOM     15  C   LIG d   1       2.416   0.188  -9.493  0.00  0.00     0.027 C 
ATOM     16  H   LIG d   1       1.579   0.865  -9.321  0.00  0.00     0.036 H 
ATOM     17  H   LIG d   1       3.278   0.756  -9.840  0.00  0.00     0.036 H 
BRANCH  15  18
ATOM     18  C   LIG d   1       2.033  -0.832 -10.533  0.00  0.00     0.213 C 
ATOM     19  N   LIG d   1       1.069  -1.736 -10.266  0.00  0.00    -0.315 N 
ATOM     20  H   LIG d   1       0.622  -1.730  -9.405  0.00  0.00     0.149 HD
ATOM     21  O   LIG d   1       2.589  -0.841 -11.609  0.00  0.00    -0.276 OA
BRANCH  19  22
ATOM     22  C   LIG d   1       0.695  -2.729 -11.278  0.00  0.00     0.011 C 
ATOM     23  H   LIG d   1      -0.389  -2.731 -11.401  0.00  0.00     0.046 H 
ATOM     24  H   LIG d   1       1.167  -2.476 -12.227  0.00  0.00     0.046 H 
BRANCH  22  25
ATOM     25  C   LIG d   1       1.161  -4.115 -10.829  0.00  0.00    -0.040 C 
ATOM     26  H   LIG d   1       1.589  -4.048  -9.829  0.00  0.00     0.028 H 
ATOM     27  H   LIG d   1       0.311  -4.798 -10.815  0.00  0.00     0.028 H 
BRANCH  25  28
ATOM     28  C   LIG d   1       2.219  -4.637 -11.803  0.00  0.00    -0.064 C 
ATOM     29  H   LIG d   1       2.280  -5.722 -11.727  0.00  0.00     0.023 H 
ATOM     30  H   LIG d   1       1.946  -4.358 -12.821  0.00  0.00     0.023 H 
ATOM     31  H   LIG d   1       3.187  -4.199 -11.555  0.00  0.00     0.023 H 
ENDBRANCH  25  28
ENDBRANCH  22  25
ENDBRANCH  19  22
ENDBRANCH  15  18
ENDBRANCH   1  15
BRANCH   7  32
ATOM     32  C   LIG d   1       5.189  -0.533  -8.809  0.00  0.00    -0.052 C 
ATOM     33  H   LIG d   1       4.890   0.132  -9.619  0.00  0.00     0.027 H 
ATOM     34  H   LIG d   1       5.516   0.057  -7.954  0.00  0.00     0.027 H 
BRANCH  32  35
ATOM     35  C   LIG d   1       6.340  -1.425  -9.281  0.00  0.00    -0.065 C 
ATOM     36  H   LIG d   1       6.697  -1.074 -10.250  0.00  0.00     0.023 H 
ATOM     37  H   LIG d   1       7.153  -1.384  -8.557  0.00  0.00     0.023 H 
ATOM     38  H   LIG d   1       5.989  -2.453  -9.375  0.00  0.00     0.023 H 
ENDBRANCH  32  35
ENDBRANCH   7  32
BRANCH   5  39
ATOM     39  S   LIG d   1       5.845  -1.128  -5.089  0.00  0.00     0.066 S 
ATOM     40  O   LIG d   1       6.099  -2.469  -4.692  0.00  0.00    -0.153 OA
ATOM     41  O   LIG d   1       6.800  -0.348  -5.794  0.00  0.00    -0.153 OA
BRANCH  39  42
ATOM     42  C   LIG d   1       5.452  -0.235  -3.620  0.00  0.00     0.170 A 
ATOM     43  C   LIG d   1       6.041   0.887  -3.144  0.00  0.00     0.161 A 
ATOM     44  O   LIG d   1       5.404   1.196  -2.006  0.00  0.00    -0.358 OA
ATOM     45  N   LIG d   1       4.530   0.399  -1.755  0.00  0.00    -0.081 NA
ATOM     46  C   LIG d   1       4.452  -0.529  -2.664  0.00  0.00     0.107 A 
BRANCH  43  47
ATOM     47  C   LIG d   1       7.184   1.642  -3.771  0.00  0.00    -0.002 C 
ATOM     48  H   LIG d   1       7.591   1.064  -4.600  0.00  0.00     0.031 H 
ATOM     49  H   LIG d   1       6.826   2.603  -4.139  0.00  0.00     0.031 H 
ATOM     50  H   LIG d   1       7.962   1.807  -3.026  0.00  0.00     0.031 H 
ENDBRANCH  43  47
BRANCH  46  51
ATOM     51  C   LIG d   1       3.490  -1.689  -2.691  0.00  0.00    -0.017 C 
ATOM     52  H   LIG d   1       3.500  -2.146  -3.680  0.00  0.00     0.029 H 
ATOM     53  H   LIG d   1       3.787  -2.426  -1.946  0.00  0.00     0.029 H 
ATOM     54  H   LIG d   1       2.484  -1.331  -2.467  0.00  0.00     0.029 H 
ENDBRANCH  46  51
ENDBRANCH  39  42
ENDBRANCH   5  39
TORSDOF 11
ENDMDL
MODEL 7
REMARK VINA RESULT:      -5.0      2.824      3.812
REMARK  11 active torsions:
REMARK  status: ('A' for Active; 'I' for Inactive)
REMARK    1  A    between atoms: C_1  and  C_2 
REMARK    2  A    between atoms: C_2  and  C_3 
REMARK    3  A    between atoms: C_3  and  N_4 
REMARK       I    between atoms: N_4  and  C_5 
REMARK    4  A    between atoms: C_5  and  C_7 
REMARK    5  A    between atoms: C_7  and  C_8 
REMARK    6  A    between atoms: N_12  and  S_18 
REMARK    7  A    between atoms: C_14  and  C_16 
REMARK    8  A    between atoms: C_16  and  C_17 
REMARK    9  A    between atoms: S_18  and  C_21 
REMARK   10  A    between atoms: C_22  and  C_27 
REMARK   11  A    between atoms: C_25  and  C_26 
ROOT
ATOM      1  C   LIG d   1       9.291   4.250  -3.886  0.00  0.00    -0.028 C 
ATOM      2  H   LIG d   1       8.218   4.387  -3.751  0.00  0.00     0.031 H 
ATOM      3  C   LIG d   1       9.749   5.009  -5.133  0.00  0.00    -0.035 C 
ATOM      4  C   LIG d   1       9.410   6.495  -4.974  0.00  0.00     0.021 C 
ATOM      5  N   LIG d   1       9.999   6.983  -3.720  0.00  0.00    -0.176 N 
ATOM      6  C   LIG d   1       9.696   6.268  -2.472  0.00  0.00     0.024 C 
ATOM      7  C   LIG d   1      10.032   4.786  -2.659  0.00  0.00    -0.024 C 
ATOM      8  H   LIG d   1       9.722   4.229  -1.775  0.00  0.00     0.032 H 
ATOM      9  H   LIG d   1      10.825   4.893  -5.255  0.00  0.00     0.028 H 
ATOM     10  H   LIG d   1       9.238   4.612  -6.010  0.00  0.00     0.028 H 
ATOM     11  H   LIG d   1       8.327   6.622  -4.944  0.00  0.00     0.044 H 
ATOM     12  H   LIG d   1       9.822   7.056  -5.814  0.00  0.00     0.044 H 
ATOM     13  H   LIG d   1       8.638   6.377  -2.237  0.00  0.00     0.045 H 
ATOM     14  H   LIG d   1      10.297   6.680  -1.661  0.00  0.00     0.045 H 
ENDROOT
BRANCH   1  15
ATOM     15  C   LIG d   1       9.597   2.760  -4.056  0.00  0.00     0.027 C 
ATOM     16  H   LIG d   1      10.227   2.617  -4.934  0.00  0.00     0.036 H 
ATOM     17  H   LIG d   1      10.118   2.393  -3.172  0.00  0.00     0.036 H 
BRANCH  15  18
ATOM     18  C   LIG d   1       8.308   2.000  -4.232  0.00  0.00     0.213 C 
ATOM     19  N   LIG d   1       7.896   1.143  -3.276  0.00  0.00    -0.315 N 
ATOM     20  H   LIG d   1       8.430   1.016  -2.475  0.00  0.00     0.149 HD
ATOM     21  O   LIG d   1       7.641   2.158  -5.231  0.00  0.00    -0.276 OA
BRANCH  19  22
ATOM     22  C   LIG d   1       6.642   0.404  -3.445  0.00  0.00     0.011 C 
ATOM     23  H   LIG d   1       6.449   0.255  -4.507  0.00  0.00     0.046 H 
ATOM     24  H   LIG d   1       6.723  -0.565  -2.952  0.00  0.00     0.046 H 
BRANCH  22  25
ATOM     25  C   LIG d   1       5.493   1.199  -2.823  0.00  0.00    -0.040 C 
ATOM     26  H   LIG d   1       5.899   2.001  -2.206  0.00  0.00     0.028 H 
ATOM     27  H   LIG d   1       4.877   1.626  -3.614  0.00  0.00     0.028 H 
BRANCH  25  28
ATOM     28  C   LIG d   1       4.641   0.270  -1.957  0.00  0.00    -0.064 C 
ATOM     29  H   LIG d   1       3.754  -0.034  -2.512  0.00  0.00     0.023 H 
ATOM     30  H   LIG d   1       5.222  -0.613  -1.689  0.00  0.00     0.023 H 
ATOM     31  H   LIG d   1       4.340   0.795  -1.049  0.00  0.00     0.023 H 
ENDBRANCH  25  28
ENDBRANCH  22  25
ENDBRANCH  19  22
ENDBRANCH  15  18
ENDBRANCH   1  15
BRANCH   7  32
ATOM     32  C   LIG d   1      11.540   4.626  -2.863  0.00  0.00    -0.052 C 
ATOM     33  H   LIG d   1      11.768   3.583  -3.085  0.00  0.00     0.027 H 
ATOM     34  H   LIG d   1      11.863   5.253  -3.693  0.00  0.00     0.027 H 
BRANCH  32  35
ATOM     35  C   LIG d   1      12.274   5.047  -1.589  0.00  0.00    -0.065 C 
ATOM     36  H   LIG d   1      11.900   4.466  -0.745  0.00  0.00     0.023 H 
ATOM     37  H   LIG d   1      13.343   4.868  -1.708  0.00  0.00     0.023 H 
ATOM     38  H   LIG d   1      12.102   6.107  -1.404  0.00  0.00     0.023 H 
ENDBRANCH  32  35
ENDBRANCH   7  32
BRANCH   5  39
ATOM     39  S   LIG d   1      10.986   8.313  -3.713  0.00  0.00     0.066 S 
ATOM     40  O   LIG d   1      11.614   8.347  -2.439  0.00  0.00    -0.153 OA
ATOM     41  O   LIG d   1      11.725   8.277  -4.926  0.00  0.00    -0.153 OA
BRANCH  39  42
ATOM     42  C   LIG d   1       9.946   9.733  -3.800  0.00  0.00     0.170 A 
ATOM     43  C   LIG d   1       9.444  10.333  -4.905  0.00  0.00     0.161 A 
ATOM     44  O   LIG d   1       8.712  11.370  -4.475  0.00  0.00    -0.358 OA
ATOM     45  N   LIG d   1       8.728  11.456  -3.269  0.00  0.00    -0.081 NA
ATOM     46  C   LIG d   1       9.447  10.514  -2.731  0.00  0.00     0.107 A 
BRANCH  43  47
ATOM     47  C   LIG d   1       9.663   9.916  -6.336  0.00  0.00    -0.002 C 
ATOM     48  H   LIG d   1       9.958   8.868  -6.369  0.00  0.00     0.031 H 
ATOM     49  H   LIG d   1       8.740  10.051  -6.899  0.00  0.00     0.031 H 
ATOM     50  H   LIG d   1      10.450  10.528  -6.777  0.00  0.00     0.031 H 
ENDBRANCH  43  47
BRANCH  46  51
ATOM     51  C   LIG d   1       9.701  10.299  -1.261  0.00  0.00    -0.017 C 
ATOM     52  H   LIG d   1      10.694  10.668  -1.006  0.00  0.00     0.029 H 
ATOM     53  H   LIG d   1       8.952  10.838  -0.681  0.00  0.00     0.029 H 
ATOM     54  H   LIG d   1       9.639   9.234  -1.034  0.00  0.00     0.029 H 
ENDBRANCH  46  51
ENDBRANCH  39  42
ENDBRANCH   5  39
TORSDOF 11
ENDMDL
MODEL 8
REMARK VINA RESULT:      -4.9      1.830      2.763
REMARK  11 active torsions:
REMARK  status: ('A' for Active; 'I' for Inactive)
REMARK    1  A    between atoms: C_1  and  C_2 
REMARK    2  A    between atoms: C_2  and  C_3 
REMARK    3  A    between atoms: C_3  and  N_4 
REMARK       I    between atoms: N_4  and  C_5 
REMARK    4  A    between atoms: C_5  and  C_7 
REMARK    5  A    between atoms: C_7  and  C_8 
REMARK    6  A    between atoms: N_12  and  S_18 
REMARK    7  A    between atoms: C_14  and  C_16 
REMARK    8  A    between atoms: C_16  and  C_17 
REMARK    9  A    between atoms: S_18  and  C_21 
REMARK   10  A    between atoms: C_22  and  C_27 
REMARK   11  A    between atoms: C_25  and  C_26 
ROOT
ATOM      1  C   LIG d   1       9.159   2.595  -3.829  0.00  0.00    -0.028 C 
ATOM      2  H   LIG d   1       8.354   2.787  -3.119  0.00  0.00     0.031 H 
ATOM      3  C   LIG d   1       9.145   3.671  -4.917  0.00  0.00    -0.035 C 
ATOM      4  C   LIG d   1       9.313   5.048  -4.269  0.00  0.00     0.021 C 
ATOM      5  N   LIG d   1      10.531   5.038  -3.446  0.00  0.00    -0.176 N 
ATOM      6  C   LIG d   1      10.686   3.989  -2.429  0.00  0.00     0.024 C 
ATOM      7  C   LIG d   1      10.502   2.623  -3.097  0.00  0.00    -0.024 C 
ATOM      8  H   LIG d   1      10.519   1.842  -2.338  0.00  0.00     0.032 H 
ATOM      9  H   LIG d   1       9.964   3.494  -5.614  0.00  0.00     0.028 H 
ATOM     10  H   LIG d   1       8.196   3.635  -5.453  0.00  0.00     0.028 H 
ATOM     11  H   LIG d   1       8.449   5.266  -3.641  0.00  0.00     0.044 H 
ATOM     12  H   LIG d   1       9.404   5.809  -5.046  0.00  0.00     0.044 H 
ATOM     13  H   LIG d   1       9.935   4.120  -1.651  0.00  0.00     0.045 H 
ATOM     14  H   LIG d   1      11.683   4.051  -1.991  0.00  0.00     0.045 H 
ENDROOT
BRANCH   1  15
ATOM     15  C   LIG d   1       8.955   1.220  -4.470  0.00  0.00     0.027 C 
ATOM     16  H   LIG d   1       9.240   1.264  -5.521  0.00  0.00     0.036 H 
ATOM     17  H   LIG d   1       9.574   0.485  -3.956  0.00  0.00     0.036 H 
BRANCH  15  18
ATOM     18  C   LIG d   1       7.506   0.823  -4.357  0.00  0.00     0.213 C 
ATOM     19  N   LIG d   1       7.031   0.335  -3.193  0.00  0.00    -0.315 N 
ATOM     20  H   LIG d   1       7.622   0.239  -2.430  0.00  0.00     0.149 HD
ATOM     21  O   LIG d   1       6.767   0.943  -5.310  0.00  0.00    -0.276 OA
BRANCH  19  22
ATOM     22  C   LIG d   1       5.621  -0.051  -3.082  0.00  0.00     0.011 C 
ATOM     23  H   LIG d   1       5.110   0.167  -4.020  0.00  0.00     0.046 H 
ATOM     24  H   LIG d   1       5.552  -1.118  -2.870  0.00  0.00     0.046 H 
BRANCH  22  25
ATOM     25  C   LIG d   1       4.965   0.737  -1.947  0.00  0.00    -0.040 C 
ATOM     26  H   LIG d   1       4.805   0.078  -1.093  0.00  0.00     0.028 H 
ATOM     27  H   LIG d   1       5.615   1.561  -1.653  0.00  0.00     0.028 H 
BRANCH  25  28
ATOM     28  C   LIG d   1       3.621   1.292  -2.423  0.00  0.00    -0.064 C 
ATOM     29  H   LIG d   1       3.018   1.574  -1.560  0.00  0.00     0.023 H 
ATOM     30  H   LIG d   1       3.790   2.167  -3.050  0.00  0.00     0.023 H 
ATOM     31  H   LIG d   1       3.097   0.529  -2.999  0.00  0.00     0.023 H 
ENDBRANCH  25  28
ENDBRANCH  22  25
ENDBRANCH  19  22
ENDBRANCH  15  18
ENDBRANCH   1  15
BRANCH   7  32
ATOM     32  C   LIG d   1      11.634   2.389  -4.100  0.00  0.00    -0.052 C 
ATOM     33  H   LIG d   1      11.210   2.162  -5.079  0.00  0.00     0.027 H 
ATOM     34  H   LIG d   1      12.251   3.284  -4.169  0.00  0.00     0.027 H 
BRANCH  32  35
ATOM     35  C   LIG d   1      12.493   1.212  -3.633  0.00  0.00    -0.065 C 
ATOM     36  H   LIG d   1      12.450   0.414  -4.374  0.00  0.00     0.023 H 
ATOM     37  H   LIG d   1      13.525   1.541  -3.512  0.00  0.00     0.023 H 
ATOM     38  H   LIG d   1      12.116   0.843  -2.679  0.00  0.00     0.023 H 
ENDBRANCH  32  35
ENDBRANCH   7  32
BRANCH   5  39
ATOM     39  S   LIG d   1      11.704   6.187  -3.660  0.00  0.00     0.066 S 
ATOM     40  O   LIG d   1      12.638   6.016  -2.603  0.00  0.00    -0.153 OA
ATOM     41  O   LIG d   1      12.083   6.131  -5.028  0.00  0.00    -0.153 OA
BRANCH  39  42
ATOM     42  C   LIG d   1      10.945   7.758  -3.413  0.00  0.00     0.170 A 
ATOM     43  C   LIG d   1      10.253   8.189  -2.332  0.00  0.00     0.161 A 
ATOM     44  O   LIG d   1       9.872   9.446  -2.601  0.00  0.00    -0.358 OA
ATOM     45  N   LIG d   1      10.242   9.797  -3.697  0.00  0.00    -0.081 NA
ATOM     46  C   LIG d   1      10.911   8.859  -4.301  0.00  0.00     0.107 A 
BRANCH  43  47
ATOM     47  C   LIG d   1       9.971   7.412  -1.072  0.00  0.00    -0.002 C 
ATOM     48  H   LIG d   1      10.567   7.816  -0.255  0.00  0.00     0.031 H 
ATOM     49  H   LIG d   1       8.913   7.493  -0.825  0.00  0.00     0.031 H 
ATOM     50  H   LIG d   1      10.229   6.364  -1.227  0.00  0.00     0.031 H 
ENDBRANCH  43  47
BRANCH  46  51
ATOM     51  C   LIG d   1      11.528   8.929  -5.675  0.00  0.00    -0.017 C 
ATOM     52  H   LIG d   1      12.566   9.250  -5.591  0.00  0.00     0.029 H 
ATOM     53  H   LIG d   1      11.487   7.946  -6.142  0.00  0.00     0.029 H 
ATOM     54  H   LIG d   1      10.975   9.645  -6.285  0.00  0.00     0.029 H 
ENDBRANCH  46  51
ENDBRANCH  39  42
ENDBRANCH   5  39
TORSDOF 11
ENDMDL
MODEL 9
REMARK VINA RESULT:      -4.8      6.788      8.808
REMARK  11 active torsions:
REMARK  status: ('A' for Active; 'I' for Inactive)
REMARK    1  A    between atoms: C_1  and  C_2 
REMARK    2  A    between atoms: C_2  and  C_3 
REMARK    3  A    between atoms: C_3  and  N_4 
REMARK       I    between atoms: N_4  and  C_5 
REMARK    4  A    between atoms: C_5  and  C_7 
REMARK    5  A    between atoms: C_7  and  C_8 
REMARK    6  A    between atoms: N_12  and  S_18 
REMARK    7  A    between atoms: C_14  and  C_16 
REMARK    8  A    between atoms: C_16  and  C_17 
REMARK    9  A    between atoms: S_18  and  C_21 
REMARK   10  A    between atoms: C_22  and  C_27 
REMARK   11  A    between atoms: C_25  and  C_26 
ROOT
ATOM      1  C   LIG d   1       5.923  -4.916  -5.345  0.00  0.00    -0.028 C 
ATOM      2  H   LIG d   1       5.936  -5.470  -4.407  0.00  0.00     0.031 H 
ATOM      3  C   LIG d   1       4.712  -3.980  -5.367  0.00  0.00    -0.035 C 
ATOM      4  C   LIG d   1       4.790  -3.022  -4.174  0.00  0.00     0.021 C 
ATOM      5  N   LIG d   1       6.087  -2.332  -4.207  0.00  0.00    -0.176 N 
ATOM      6  C   LIG d   1       7.314  -3.137  -4.278  0.00  0.00     0.024 C 
ATOM      7  C   LIG d   1       7.208  -4.094  -5.469  0.00  0.00    -0.024 C 
ATOM      8  H   LIG d   1       8.067  -4.763  -5.477  0.00  0.00     0.032 H 
ATOM      9  H   LIG d   1       4.712  -3.407  -6.294  0.00  0.00     0.028 H 
ATOM     10  H   LIG d   1       3.796  -4.568  -5.302  0.00  0.00     0.028 H 
ATOM     11  H   LIG d   1       4.699  -3.586  -3.246  0.00  0.00     0.044 H 
ATOM     12  H   LIG d   1       3.985  -2.290  -4.240  0.00  0.00     0.044 H 
ATOM     13  H   LIG d   1       7.429  -3.710  -3.358  0.00  0.00     0.045 H 
ATOM     14  H   LIG d   1       8.175  -2.481  -4.411  0.00  0.00     0.045 H 
ENDROOT
BRANCH   1  15
ATOM     15  C   LIG d   1       5.829  -5.897  -6.516  0.00  0.00     0.027 C 
ATOM     16  H   LIG d   1       5.350  -5.407  -7.363  0.00  0.00     0.036 H 
ATOM     17  H   LIG d   1       6.831  -6.217  -6.801  0.00  0.00     0.036 H 
BRANCH  15  18
ATOM     18  C   LIG d   1       5.017  -7.096  -6.102  0.00  0.00     0.213 C 
ATOM     19  N   LIG d   1       5.497  -7.946  -5.172  0.00  0.00    -0.315 N 
ATOM     20  H   LIG d   1       6.365  -7.785  -4.770  0.00  0.00     0.149 HD
ATOM     21  O   LIG d   1       3.932  -7.298  -6.603  0.00  0.00    -0.276 OA
BRANCH  19  22
ATOM     22  C   LIG d   1       4.707  -9.113  -4.768  0.00  0.00     0.011 C 
ATOM     23  H   LIG d   1       3.739  -8.783  -4.392  0.00  0.00     0.046 H 
ATOM     24  H   LIG d   1       4.560  -9.767  -5.628  0.00  0.00     0.046 H 
BRANCH  22  25
ATOM     25  C   LIG d   1       5.449  -9.875  -3.669  0.00  0.00    -0.040 C 
ATOM     26  H   LIG d   1       4.984  -9.666  -2.705  0.00  0.00     0.028 H 
ATOM     27  H   LIG d   1       5.400 -10.945  -3.872  0.00  0.00     0.028 H 
BRANCH  25  28
ATOM     28  C   LIG d   1       6.912  -9.428  -3.637  0.00  0.00    -0.064 C 
ATOM     29  H   LIG d   1       7.177  -8.980  -4.594  0.00  0.00     0.023 H 
ATOM     30  H   LIG d   1       7.051  -8.695  -2.841  0.00  0.00     0.023 H 
ATOM     31  H   LIG d   1       7.551 -10.291  -3.450  0.00  0.00     0.023 H 
ENDBRANCH  25  28
ENDBRANCH  22  25
ENDBRANCH  19  22
ENDBRANCH  15  18
ENDBRANCH   1  15
BRANCH   7  32
ATOM     32  C   LIG d   1       7.174  -3.288  -6.770  0.00  0.00    -0.052 C 
ATOM     33  H   LIG d   1       6.666  -3.866  -7.542  0.00  0.00     0.027 H 
ATOM     34  H   LIG d   1       6.639  -2.353  -6.605  0.00  0.00     0.027 H 
BRANCH  32  35
ATOM     35  C   LIG d   1       8.605  -2.985  -7.218  0.00  0.00    -0.065 C 
ATOM     36  H   LIG d   1       9.052  -3.885  -7.640  0.00  0.00     0.023 H 
ATOM     37  H   LIG d   1       8.591  -2.198  -7.973  0.00  0.00     0.023 H 
ATOM     38  H   LIG d   1       9.192  -2.655  -6.361  0.00  0.00     0.023 H 
ENDBRANCH  32  35
ENDBRANCH   7  32
BRANCH   5  39
ATOM     39  S   LIG d   1       6.164  -0.678  -4.163  0.00  0.00     0.066 S 
ATOM     40  O   LIG d   1       6.308  -0.313  -2.798  0.00  0.00    -0.153 OA
ATOM     41  O   LIG d   1       7.100  -0.289  -5.159  0.00  0.00    -0.153 OA
BRANCH  39  42
ATOM     42  C   LIG d   1       4.594  -0.070  -4.684  0.00  0.00     0.170 A 
ATOM     43  C   LIG d   1       4.053  -0.111  -5.924  0.00  0.00     0.161 A 
ATOM     44  O   LIG d   1       2.848   0.469  -5.833  0.00  0.00    -0.358 OA
ATOM     45  N   LIG d   1       2.622   0.848  -4.708  0.00  0.00    -0.081 NA
ATOM     46  C   LIG d   1       3.609   0.579  -3.903  0.00  0.00     0.107 A 
BRANCH  43  47
ATOM     47  C   LIG d   1       4.681  -0.696  -7.163  0.00  0.00    -0.002 C 
ATOM     48  H   LIG d   1       5.355  -1.504  -6.883  0.00  0.00     0.031 H 
ATOM     49  H   LIG d   1       3.900  -1.084  -7.817  0.00  0.00     0.031 H 
ATOM     50  H   LIG d   1       5.241   0.079  -7.688  0.00  0.00     0.031 H 
ENDBRANCH  43  47
BRANCH  46  51
ATOM     51  C   LIG d   1       3.689   0.898  -2.433  0.00  0.00    -0.017 C 
ATOM     52  H   LIG d   1       3.413   1.940  -2.271  0.00  0.00     0.029 H 
ATOM     53  H   LIG d   1       3.005   0.251  -1.883  0.00  0.00     0.029 H 
ATOM     54  H   LIG d   1       4.708   0.734  -2.079  0.00  0.00     0.029 H 
ENDBRANCH  46  51
ENDBRANCH  39  42
ENDBRANCH   5  39
TORSDOF 11
ENDMDL
MODEL 10
REMARK VINA RESULT:      -4.8      4.461      8.082
REMARK  11 active torsions:
REMARK  status: ('A' for Active; 'I' for Inactive)
REMARK    1  A    between atoms: C_1  and  C_2 
REMARK    2  A    between atoms: C_2  and  C_3 
REMARK    3  A    between atoms: C_3  and  N_4 
REMARK       I    between atoms: N_4  and  C_5 
REMARK    4  A    between atoms: C_5  and  C_7 
REMARK    5  A    between atoms: C_7  and  C_8 
REMARK    6  A    between atoms: N_12  and  S_18 
REMARK    7  A    between atoms: C_14  and  C_16 
REMARK    8  A    between atoms: C_16  and  C_17 
REMARK    9  A    between atoms: S_18  and  C_21 
REMARK   10  A    between atoms: C_22  and  C_27 
REMARK   11  A    between atoms: C_25  and  C_26 
ROOT
ATOM      1  C   LIG d   1       9.160  -1.938  -5.581  0.00  0.00    -0.028 C 
ATOM      2  H   LIG d   1       9.085  -1.812  -6.661  0.00  0.00     0.031 H 
ATOM      3  C   LIG d   1       8.538  -0.727  -4.882  0.00  0.00    -0.035 C 
ATOM      4  C   LIG d   1       7.074  -0.593  -5.309  0.00  0.00     0.021 C 
ATOM      5  N   LIG d   1       6.385  -1.863  -5.043  0.00  0.00    -0.176 N 
ATOM      6  C   LIG d   1       6.951  -3.102  -5.594  0.00  0.00     0.024 C 
ATOM      7  C   LIG d   1       8.417  -3.209  -5.164  0.00  0.00    -0.024 C 
ATOM      8  H   LIG d   1       8.875  -4.072  -5.644  0.00  0.00     0.032 H 
ATOM      9  H   LIG d   1       8.591  -0.864  -3.802  0.00  0.00     0.028 H 
ATOM     10  H   LIG d   1       9.083   0.175  -5.162  0.00  0.00     0.028 H 
ATOM     11  H   LIG d   1       7.022  -0.365  -6.374  0.00  0.00     0.044 H 
ATOM     12  H   LIG d   1       6.598   0.206  -4.740  0.00  0.00     0.044 H 
ATOM     13  H   LIG d   1       6.890  -3.080  -6.682  0.00  0.00     0.045 H 
ATOM     14  H   LIG d   1       6.394  -3.959  -5.213  0.00  0.00     0.045 H 
ENDROOT
BRANCH   1  15
ATOM     15  C   LIG d   1      10.634  -2.055  -5.183  0.00  0.00     0.027 C 
ATOM     16  H   LIG d   1      10.705  -2.418  -4.158  0.00  0.00     0.036 H 
ATOM     17  H   LIG d   1      11.135  -2.754  -5.852  0.00  0.00     0.036 H 
BRANCH  15  18
ATOM     18  C   LIG d   1      11.289  -0.702  -5.286  0.00  0.00     0.213 C 
ATOM     19  N   LIG d   1      11.684  -0.059  -4.168  0.00  0.00    -0.315 N 
ATOM     20  H   LIG d   1      11.546  -0.468  -3.299  0.00  0.00     0.149 HD
ATOM     21  O   LIG d   1      11.463  -0.192  -6.371  0.00  0.00    -0.276 OA
BRANCH  19  22
ATOM     22  C   LIG d   1      12.322   1.257  -4.266  0.00  0.00     0.011 C 
ATOM     23  H   LIG d   1      13.367   1.177  -3.965  0.00  0.00     0.046 H 
ATOM     24  H   LIG d   1      12.267   1.611  -5.296  0.00  0.00     0.046 H 
BRANCH  22  25
ATOM     25  C   LIG d   1      11.600   2.244  -3.348  0.00  0.00    -0.040 C 
ATOM     26  H   LIG d   1      11.539   1.826  -2.343  0.00  0.00     0.028 H 
ATOM     27  H   LIG d   1      12.152   3.183  -3.318  0.00  0.00     0.028 H 
BRANCH  25  28
ATOM     28  C   LIG d   1      10.189   2.497  -3.882  0.00  0.00    -0.064 C 
ATOM     29  H   LIG d   1      10.238   3.168  -4.739  0.00  0.00     0.023 H 
ATOM     30  H   LIG d   1       9.739   1.551  -4.186  0.00  0.00     0.023 H 
ATOM     31  H   LIG d   1       9.581   2.952  -3.099  0.00  0.00     0.023 H 
ENDBRANCH  25  28
ENDBRANCH  22  25
ENDBRANCH  19  22
ENDBRANCH  15  18
ENDBRANCH   1  15
BRANCH   7  32
ATOM     32  C   LIG d   1       8.493  -3.368  -3.644  0.00  0.00    -0.052 C 
ATOM     33  H   LIG d   1       9.058  -2.537  -3.220  0.00  0.00     0.027 H 
ATOM     34  H   LIG d   1       7.486  -3.373  -3.228  0.00  0.00     0.027 H 
BRANCH  32  35
ATOM     35  C   LIG d   1       9.191  -4.686  -3.304  0.00  0.00    -0.065 C 
ATOM     36  H   LIG d   1       8.881  -5.016  -2.312  0.00  0.00     0.023 H 
ATOM     37  H   LIG d   1       8.920  -5.442  -4.040  0.00  0.00     0.023 H 
ATOM     38  H   LIG d   1      10.272  -4.538  -3.315  0.00  0.00     0.023 H 
ENDBRANCH  32  35
ENDBRANCH   7  32
BRANCH   5  39
ATOM     39  S   LIG d   1       4.997  -1.898  -4.140  0.00  0.00     0.066 S 
ATOM     40  O   LIG d   1       4.302  -3.082  -4.507  0.00  0.00    -0.153 OA
ATOM     41  O   LIG d   1       5.378  -1.622  -2.799  0.00  0.00    -0.153 OA
BRANCH  39  42
ATOM     42  C   LIG d   1       3.999  -0.544  -4.667  0.00  0.00     0.170 A 
ATOM     43  C   LIG d   1       3.596  -0.246  -5.925  0.00  0.00     0.161 A 
ATOM     44  O   LIG d   1       2.857   0.868  -5.833  0.00  0.00    -0.358 OA
ATOM     45  N   LIG d   1       2.784   1.260  -4.691  0.00  0.00    -0.081 NA
ATOM     46  C   LIG d   1       3.440   0.486  -3.876  0.00  0.00     0.107 A 
BRANCH  43  47
ATOM     47  C   LIG d   1       3.912  -1.016  -7.181  0.00  0.00    -0.002 C 
ATOM     48  H   LIG d   1       3.969  -2.079  -6.951  0.00  0.00     0.031 H 
ATOM     49  H   LIG d   1       3.129  -0.845  -7.919  0.00  0.00     0.031 H 
ATOM     50  H   LIG d   1       4.869  -0.680  -7.582  0.00  0.00     0.031 H 
ENDBRANCH  43  47
BRANCH  46  51
ATOM     51  C   LIG d   1       3.576   0.653  -2.384  0.00  0.00    -0.017 C 
ATOM     52  H   LIG d   1       2.589   0.778  -1.941  0.00  0.00     0.029 H 
ATOM     53  H   LIG d   1       4.057  -0.229  -1.962  0.00  0.00     0.029 H 
ATOM     54  H   LIG d   1       4.183   1.534  -2.171  0.00  0.00     0.029 H 
ENDBRANCH  46  51
ENDBRANCH  39  42
ENDBRANCH   5  39
TORSDOF 11
ENDMDL
