MODEL 1
REMARK VINA RESULT:      -7.2      0.000      0.000
REMARK  7 active torsions:
REMARK  status: ('A' for Active; 'I' for Inactive)
REMARK    1  A    between atoms: C_1  and  O_2 
REMARK    2  A    between atoms: O_2  and  C_3 
REMARK    3  A    between atoms: C_6  and  C_9 
REMARK    4  A    between atoms: C_9  and  C_10 
REMARK    5  A    between atoms: C_10  and  N_11 
REMARK       I    between atoms: N_11  and  C_12 
REMARK    6  A    between atoms: C_12  and  C_14 
REMARK    7  A    between atoms: N_25  and  C_27 
ROOT
ATOM      1  C   LIG d   1       3.373  -0.634  -5.841  0.00  0.00     0.079 C 
ATOM      2  H   LIG d   1       3.034  -1.670  -5.850  0.00  0.00     0.043 H 
ATOM      3  C   LIG d   1       2.857   0.119  -4.554  0.00  0.00     0.090 C 
ATOM      4  H   LIG d   1       1.884   0.602  -4.639  0.00  0.00     0.065 H 
ATOM      5  C   LIG d   1       2.982  -0.963  -3.475  0.00  0.00    -0.056 C 
ATOM      6  C   LIG d   1       4.284  -1.089  -3.264  0.00  0.00    -0.052 C 
ATOM      7  C   LIG d   1       4.948  -0.056  -4.156  0.00  0.00     0.116 C 
ATOM      8  C   LIG d   1       4.866  -0.555  -5.654  0.00  0.00     0.084 C 
ATOM      9  H   LIG d   1       5.269   0.229  -6.296  0.00  0.00     0.043 H 
ATOM     10  C   LIG d   1       5.816  -1.681  -5.608  0.00  0.00     0.227 C 
ATOM     11  O   LIG d   1       5.739  -2.718  -6.233  0.00  0.00    -0.275 OA
ATOM     12  N   LIG d   1       6.806  -1.334  -4.719  0.00  0.00    -0.268 N 
ATOM     13  C   LIG d   1       6.440  -0.055  -4.034  0.00  0.00     0.053 C 
ATOM     14  O   LIG d   1       4.014   0.996  -4.222  0.00  0.00    -0.359 OA
ATOM     15  H   LIG d   1       2.183  -1.504  -2.991  0.00  0.00     0.060 H 
ATOM     16  H   LIG d   1       4.772  -1.784  -2.596  0.00  0.00     0.060 H 
ATOM     17  H   LIG d   1       6.745  -0.073  -2.987  0.00  0.00     0.050 H 
ATOM     18  H   LIG d   1       6.873   0.802  -4.549  0.00  0.00     0.050 H 
ENDROOT
BRANCH   1  19
ATOM     19  C   LIG d   1       2.946   0.084  -7.096  0.00  0.00     0.220 C 
ATOM     20  N   LIG d   1       3.145   1.411  -7.214  0.00  0.00    -0.315 N 
ATOM     21  H   LIG d   1       3.563   1.905  -6.492  0.00  0.00     0.149 HD
ATOM     22  O   LIG d   1       2.423  -0.534  -7.999  0.00  0.00    -0.275 OA
BRANCH  20  23
ATOM     23  C   LIG d   1       2.730   2.109  -8.433  0.00  0.00     0.016 C 
ATOM     24  H   LIG d   1       2.089   2.951  -8.170  0.00  0.00     0.046 H 
ATOM     25  H   LIG d   1       2.179   1.421  -9.076  0.00  0.00     0.046 H 
BRANCH  23  26
ATOM     26  C   LIG d   1       3.967   2.621  -9.175  0.00  0.00    -0.012 C 
ATOM     27  H   LIG d   1       3.684   3.453  -9.819  0.00  0.00     0.033 H 
ATOM     28  H   LIG d   1       4.711   2.955  -8.452  0.00  0.00     0.033 H 
BRANCH  26  29
ATOM     29  C   LIG d   1       4.544   1.510 -10.013  0.00  0.00    -0.046 A 
ATOM     30  C   LIG d   1       3.844   1.036 -11.108  0.00  0.00    -0.055 A 
ATOM     31  C   LIG d   1       4.371   0.017 -11.878  0.00  0.00    -0.020 A 
ATOM     32  H   LIG d   1       2.884   1.461 -11.359  0.00  0.00     0.062 H 
ATOM     33  C   LIG d   1       5.604  -0.529 -11.554  0.00  0.00     0.120 A 
ATOM     34  H   LIG d   1       3.823  -0.354 -12.733  0.00  0.00     0.065 H 
ATOM     35  C   LIG d   1       6.305  -0.051 -10.457  0.00  0.00    -0.020 A 
ATOM     36  C   LIG d   1       5.776   0.971  -9.693  0.00  0.00    -0.055 A 
ATOM     37  H   LIG d   1       7.266  -0.475 -10.202  0.00  0.00     0.065 H 
ATOM     38  H   LIG d   1       6.323   1.346  -8.840  0.00  0.00     0.062 H 
BRANCH  33  39
ATOM     39  O   LIG d   1       6.125  -1.530 -12.311  0.00  0.00    -0.495 OA
BRANCH  39  40
ATOM     40  C   LIG d   1       6.652  -1.170 -13.589  0.00  0.00     0.079 C 
ATOM     41  H   LIG d   1       5.874  -0.688 -14.180  0.00  0.00     0.066 H 
ATOM     42  H   LIG d   1       7.487  -0.481 -13.457  0.00  0.00     0.066 H 
ATOM     43  H   LIG d   1       6.999  -2.066 -14.105  0.00  0.00     0.066 H 
ENDBRANCH  39  40
ENDBRANCH  33  39
ENDBRANCH  26  29
ENDBRANCH  23  26
ENDBRANCH  20  23
ENDBRANCH   1  19
BRANCH  12  44
ATOM     44  C   LIG d   1       7.980  -2.064  -4.492  0.00  0.00     0.040 A 
ATOM     45  C   LIG d   1       8.016  -3.026  -3.492  0.00  0.00     0.005 A 
ATOM     46  C   LIG d   1       9.175  -3.752  -3.272  0.00  0.00     0.168 A 
ATOM     47  H   LIG d   1       7.139  -3.212  -2.889  0.00  0.00     0.067 H 
ATOM     48  C   LIG d   1      10.305  -3.506  -4.048  0.00  0.00     0.166 A 
ATOM     49  O   LIG d   1       9.467  -4.737  -2.373  0.00  0.00    -0.453 OA
ATOM     50  C   LIG d   1      10.267  -2.543  -5.042  0.00  0.00    -0.014 A 
ATOM     51  O   LIG d   1      11.306  -4.341  -3.635  0.00  0.00    -0.453 OA
ATOM     52  C   LIG d   1       9.109  -1.823  -5.264  0.00  0.00    -0.037 A 
ATOM     53  H   LIG d   1      11.143  -2.352  -5.642  0.00  0.00     0.066 H 
ATOM     54  H   LIG d   1       9.081  -1.070  -6.039  0.00  0.00     0.064 H 
ATOM     55  C   LIG d   1      10.655  -5.377  -2.877  0.00  0.00     0.233 C 
ATOM     56  H   LIG d   1      10.394  -6.216  -3.521  0.00  0.00     0.117 H 
ATOM     57  H   LIG d   1      11.292  -5.708  -2.056  0.00  0.00     0.117 H 
ENDBRANCH  12  44
TORSDOF 7
ENDMDL
MODEL 2
REMARK VINA RESULT:      -6.8      1.700      2.147
REMARK  7 active torsions:
REMARK  status: ('A' for Active; 'I' for Inactive)
REMARK    1  A    between atoms: C_1  and  O_2 
REMARK    2  A    between atoms: O_2  and  C_3 
REMARK    3  A    between atoms: C_6  and  C_9 
REMARK    4  A    between atoms: C_9  and  C_10 
REMARK    5  A    between atoms: C_10  and  N_11 
REMARK       I    between atoms: N_11  and  C_12 
REMARK    6  A    between atoms: C_12  and  C_14 
REMARK    7  A    between atoms: N_25  and  C_27 
ROOT
ATOM      1  C   LIG d   1       3.575  -0.356  -4.471  0.00  0.00     0.079 C 
ATOM      2  H   LIG d   1       2.927  -1.153  -4.107  0.00  0.00     0.043 H 
ATOM      3  C   LIG d   1       3.868   0.699  -3.336  0.00  0.00     0.090 C 
ATOM      4  H   LIG d   1       3.161   1.524  -3.254  0.00  0.00     0.065 H 
ATOM      5  C   LIG d   1       4.011  -0.192  -2.096  0.00  0.00    -0.056 C 
ATOM      6  C   LIG d   1       5.171  -0.814  -2.253  0.00  0.00    -0.052 C 
ATOM      7  C   LIG d   1       5.761  -0.268  -3.539  0.00  0.00     0.116 C 
ATOM      8  C   LIG d   1       4.960  -0.875  -4.760  0.00  0.00     0.084 C 
ATOM      9  H   LIG d   1       5.334  -0.414  -5.674  0.00  0.00     0.043 H 
ATOM     10  C   LIG d   1       5.414  -2.276  -4.701  0.00  0.00     0.227 C 
ATOM     11  O   LIG d   1       4.762  -3.259  -4.979  0.00  0.00    -0.275 OA
ATOM     12  N   LIG d   1       6.719  -2.256  -4.268  0.00  0.00    -0.268 N 
ATOM     13  C   LIG d   1       7.094  -0.864  -3.867  0.00  0.00     0.053 C 
ATOM     14  O   LIG d   1       5.288   1.058  -3.602  0.00  0.00    -0.359 OA
ATOM     15  H   LIG d   1       3.318  -0.291  -1.274  0.00  0.00     0.060 H 
ATOM     16  H   LIG d   1       5.605  -1.556  -1.599  0.00  0.00     0.060 H 
ATOM     17  H   LIG d   1       7.743  -0.873  -2.991  0.00  0.00     0.050 H 
ATOM     18  H   LIG d   1       7.567  -0.334  -4.693  0.00  0.00     0.050 H 
ENDROOT
BRANCH   1  19
ATOM     19  C   LIG d   1       2.981   0.308  -5.687  0.00  0.00     0.220 C 
ATOM     20  N   LIG d   1       2.959  -0.342  -6.867  0.00  0.00    -0.315 N 
ATOM     21  H   LIG d   1       3.327  -1.238  -6.934  0.00  0.00     0.149 HD
ATOM     22  O   LIG d   1       2.522   1.426  -5.603  0.00  0.00    -0.275 OA
BRANCH  20  23
ATOM     23  C   LIG d   1       2.382   0.303  -8.049  0.00  0.00     0.016 C 
ATOM     24  H   LIG d   1       1.760   1.142  -7.737  0.00  0.00     0.046 H 
ATOM     25  H   LIG d   1       1.773  -0.418  -8.595  0.00  0.00     0.046 H 
BRANCH  23  26
ATOM     26  C   LIG d   1       3.506   0.811  -8.954  0.00  0.00    -0.012 C 
ATOM     27  H   LIG d   1       3.429   1.893  -9.056  0.00  0.00     0.033 H 
ATOM     28  H   LIG d   1       4.470   0.553  -8.515  0.00  0.00     0.033 H 
BRANCH  26  29
ATOM     29  C   LIG d   1       3.386   0.168 -10.312  0.00  0.00    -0.046 A 
ATOM     30  C   LIG d   1       4.381   0.354 -11.253  0.00  0.00    -0.055 A 
ATOM     31  C   LIG d   1       4.273  -0.234 -12.499  0.00  0.00    -0.020 A 
ATOM     32  H   LIG d   1       5.243   0.960 -11.016  0.00  0.00     0.062 H 
ATOM     33  C   LIG d   1       3.166  -1.012 -12.804  0.00  0.00     0.120 A 
ATOM     34  H   LIG d   1       5.051  -0.088 -13.235  0.00  0.00     0.065 H 
ATOM     35  C   LIG d   1       2.170  -1.197 -11.857  0.00  0.00    -0.020 A 
ATOM     36  C   LIG d   1       2.285  -0.611 -10.612  0.00  0.00    -0.055 A 
ATOM     37  H   LIG d   1       1.306  -1.802 -12.093  0.00  0.00     0.065 H 
ATOM     38  H   LIG d   1       1.511  -0.759  -9.873  0.00  0.00     0.062 H 
BRANCH  33  39
ATOM     39  O   LIG d   1       3.058  -1.592 -14.028  0.00  0.00    -0.495 OA
BRANCH  39  40
ATOM     40  C   LIG d   1       3.822  -1.015 -15.090  0.00  0.00     0.079 C 
ATOM     41  H   LIG d   1       3.610   0.052 -15.152  0.00  0.00     0.066 H 
ATOM     42  H   LIG d   1       4.885  -1.163 -14.894  0.00  0.00     0.066 H 
ATOM     43  H   LIG d   1       3.557  -1.495 -16.031  0.00  0.00     0.066 H 
ENDBRANCH  39  40
ENDBRANCH  33  39
ENDBRANCH  26  29
ENDBRANCH  23  26
ENDBRANCH  20  23
ENDBRANCH   1  19
BRANCH  12  44
ATOM     44  C   LIG d   1       7.568  -3.369  -4.213  0.00  0.00     0.040 A 
ATOM     45  C   LIG d   1       8.559  -3.439  -3.242  0.00  0.00     0.005 A 
ATOM     46  C   LIG d   1       9.394  -4.542  -3.185  0.00  0.00     0.168 A 
ATOM     47  H   LIG d   1       8.675  -2.635  -2.530  0.00  0.00     0.067 H 
ATOM     48  C   LIG d   1       9.245  -5.574  -4.109  0.00  0.00     0.166 A 
ATOM     49  O   LIG d   1      10.424  -4.853  -2.344  0.00  0.00    -0.453 OA
ATOM     50  C   LIG d   1       8.259  -5.499  -5.078  0.00  0.00    -0.014 A 
ATOM     51  O   LIG d   1      10.182  -6.533  -3.844  0.00  0.00    -0.453 OA
ATOM     52  C   LIG d   1       7.422  -4.400  -5.131  0.00  0.00    -0.037 A 
ATOM     53  H   LIG d   1       8.144  -6.298  -5.794  0.00  0.00     0.066 H 
ATOM     54  H   LIG d   1       6.655  -4.342  -5.889  0.00  0.00     0.064 H 
ATOM     55  C   LIG d   1      10.637  -6.268  -2.505  0.00  0.00     0.233 C 
ATOM     56  H   LIG d   1      10.044  -6.829  -1.781  0.00  0.00     0.117 H 
ATOM     57  H   LIG d   1      11.695  -6.513  -2.403  0.00  0.00     0.117 H 
ENDBRANCH  12  44
TORSDOF 7
ENDMDL
MODEL 3
REMARK VINA RESULT:      -6.8      5.231     10.397
REMARK  7 active torsions:
REMARK  status: ('A' for Active; 'I' for Inactive)
REMARK    1  A    between atoms: C_1  and  O_2 
REMARK    2  A    between atoms: O_2  and  C_3 
REMARK    3  A    between atoms: C_6  and  C_9 
REMARK    4  A    between atoms: C_9  and  C_10 
REMARK    5  A    between atoms: C_10  and  N_11 
REMARK       I    between atoms: N_11  and  C_12 
REMARK    6  A    between atoms: C_12  and  C_14 
REMARK    7  A    between atoms: N_25  and  C_27 
ROOT
ATOM      1  C   LIG d   1       5.353  -7.692  -6.625  0.00  0.00     0.079 C 
ATOM      2  H   LIG d   1       4.662  -7.521  -7.451  0.00  0.00     0.043 H 
ATOM      3  C   LIG d   1       6.846  -7.727  -7.133  0.00  0.00     0.090 C 
ATOM      4  H   LIG d   1       7.224  -8.700  -7.445  0.00  0.00     0.065 H 
ATOM      5  C   LIG d   1       6.849  -6.628  -8.203  0.00  0.00    -0.056 C 
ATOM      6  C   LIG d   1       6.774  -5.491  -7.527  0.00  0.00    -0.052 C 
ATOM      7  C   LIG d   1       6.788  -5.881  -6.061  0.00  0.00     0.116 C 
ATOM      8  C   LIG d   1       5.384  -6.508  -5.692  0.00  0.00     0.084 C 
ATOM      9  H   LIG d   1       5.430  -6.862  -4.662  0.00  0.00     0.043 H 
ATOM     10  C   LIG d   1       4.534  -5.305  -5.755  0.00  0.00     0.227 C 
ATOM     11  O   LIG d   1       3.378  -5.256  -6.116  0.00  0.00    -0.275 OA
ATOM     12  N   LIG d   1       5.304  -4.249  -5.328  0.00  0.00    -0.268 N 
ATOM     13  C   LIG d   1       6.719  -4.700  -5.144  0.00  0.00     0.053 C 
ATOM     14  O   LIG d   1       7.570  -7.052  -6.021  0.00  0.00    -0.359 OA
ATOM     15  H   LIG d   1       6.901  -6.754  -9.274  0.00  0.00     0.060 H 
ATOM     16  H   LIG d   1       6.716  -4.493  -7.936  0.00  0.00     0.060 H 
ATOM     17  H   LIG d   1       7.418  -3.924  -5.455  0.00  0.00     0.050 H 
ATOM     18  H   LIG d   1       6.902  -4.996  -4.111  0.00  0.00     0.050 H 
ENDROOT
BRANCH   1  19
ATOM     19  C   LIG d   1       5.004  -8.957  -5.883  0.00  0.00     0.220 C 
ATOM     20  N   LIG d   1       5.675  -9.288  -4.762  0.00  0.00    -0.315 N 
ATOM     21  H   LIG d   1       6.382  -8.711  -4.432  0.00  0.00     0.149 HD
ATOM     22  O   LIG d   1       4.120  -9.676  -6.295  0.00  0.00    -0.275 OA
BRANCH  20  23
ATOM     23  C   LIG d   1       5.336 -10.517  -4.041  0.00  0.00     0.016 C 
ATOM     24  H   LIG d   1       6.147 -11.237  -4.150  0.00  0.00     0.046 H 
ATOM     25  H   LIG d   1       4.418 -10.938  -4.453  0.00  0.00     0.046 H 
BRANCH  23  26
ATOM     26  C   LIG d   1       5.131 -10.199  -2.558  0.00  0.00    -0.012 C 
ATOM     27  H   LIG d   1       4.958  -9.130  -2.437  0.00  0.00     0.033 H 
ATOM     28  H   LIG d   1       4.269 -10.752  -2.185  0.00  0.00     0.033 H 
BRANCH  26  29
ATOM     29  C   LIG d   1       6.359 -10.602  -1.785  0.00  0.00    -0.046 A 
ATOM     30  C   LIG d   1       7.374  -9.686  -1.578  0.00  0.00    -0.055 A 
ATOM     31  C   LIG d   1       8.502 -10.052  -0.869  0.00  0.00    -0.020 A 
ATOM     32  H   LIG d   1       7.287  -8.684  -1.971  0.00  0.00     0.062 H 
ATOM     33  C   LIG d   1       8.615 -11.339  -0.363  0.00  0.00     0.120 A 
ATOM     34  H   LIG d   1       9.296  -9.337  -0.707  0.00  0.00     0.065 H 
ATOM     35  C   LIG d   1       7.594 -12.255  -0.571  0.00  0.00    -0.020 A 
ATOM     36  C   LIG d   1       6.467 -11.882  -1.276  0.00  0.00    -0.055 A 
ATOM     37  H   LIG d   1       7.680 -13.258  -0.179  0.00  0.00     0.065 H 
ATOM     38  H   LIG d   1       5.670 -12.594  -1.435  0.00  0.00     0.062 H 
BRANCH  33  39
ATOM     39  O   LIG d   1       9.723 -11.701   0.335  0.00  0.00    -0.495 OA
BRANCH  39  40
ATOM     40  C   LIG d   1      10.542 -10.648   0.846  0.00  0.00     0.079 C 
ATOM     41  H   LIG d   1      10.138 -10.303   1.798  0.00  0.00     0.066 H 
ATOM     42  H   LIG d   1      11.557 -11.017   0.996  0.00  0.00     0.066 H 
ATOM     43  H   LIG d   1      10.556  -9.821   0.136  0.00  0.00     0.066 H 
ENDBRANCH  39  40
ENDBRANCH  33  39
ENDBRANCH  26  29
ENDBRANCH  23  26
ENDBRANCH  20  23
ENDBRANCH   1  19
BRANCH  12  44
ATOM     44  C   LIG d   1       4.834  -2.949  -5.099  0.00  0.00     0.040 A 
ATOM     45  C   LIG d   1       4.395  -2.582  -3.834  0.00  0.00     0.005 A 
ATOM     46  C   LIG d   1       3.936  -1.296  -3.608  0.00  0.00     0.168 A 
ATOM     47  H   LIG d   1       4.416  -3.299  -3.026  0.00  0.00     0.067 H 
ATOM     48  C   LIG d   1       3.906  -0.375  -4.653  0.00  0.00     0.166 A 
ATOM     49  O   LIG d   1       3.462  -0.691  -2.479  0.00  0.00    -0.453 OA
ATOM     50  C   LIG d   1       4.340  -0.746  -5.915  0.00  0.00    -0.014 A 
ATOM     51  O   LIG d   1       3.413   0.807  -4.178  0.00  0.00    -0.453 OA
ATOM     52  C   LIG d   1       4.803  -2.029  -6.139  0.00  0.00    -0.037 A 
ATOM     53  H   LIG d   1       4.316  -0.033  -6.725  0.00  0.00     0.066 H 
ATOM     54  H   LIG d   1       5.140  -2.317  -7.124  0.00  0.00     0.064 H 
ATOM     55  C   LIG d   1       3.526   0.723  -2.745  0.00  0.00     0.233 C 
ATOM     56  H   LIG d   1       4.479   1.133  -2.411  0.00  0.00     0.117 H 
ATOM     57  H   LIG d   1       2.697   1.243  -2.264  0.00  0.00     0.117 H 
ENDBRANCH  12  44
TORSDOF 7
ENDMDL
MODEL 4
REMARK VINA RESULT:      -6.7      8.929     11.661
REMARK  7 active torsions:
REMARK  status: ('A' for Active; 'I' for Inactive)
REMARK    1  A    between atoms: C_1  and  O_2 
REMARK    2  A    between atoms: O_2  and  C_3 
REMARK    3  A    between atoms: C_6  and  C_9 
REMARK    4  A    between atoms: C_9  and  C_10 
REMARK    5  A    between atoms: C_10  and  N_11 
REMARK       I    between atoms: N_11  and  C_12 
REMARK    6  A    between atoms: C_12  and  C_14 
REMARK    7  A    between atoms: N_25  and  C_27 
ROOT
ATOM      1  C   LIG d   1       9.523   5.818  -3.637  0.00  0.00     0.079 C 
ATOM      2  H   LIG d   1       8.473   6.094  -3.532  0.00  0.00     0.043 H 
ATOM      3  C   LIG d   1      10.061   6.179  -5.076  0.00  0.00     0.090 C 
ATOM      4  H   LIG d   1       9.944   5.410  -5.839  0.00  0.00     0.065 H 
ATOM      5  C   LIG d   1       9.366   7.517  -5.355  0.00  0.00    -0.056 C 
ATOM      6  C   LIG d   1       9.972   8.391  -4.564  0.00  0.00    -0.052 C 
ATOM      7  C   LIG d   1      11.066   7.614  -3.855  0.00  0.00     0.116 C 
ATOM      8  C   LIG d   1      10.399   6.681  -2.766  0.00  0.00     0.084 C 
ATOM      9  H   LIG d   1      11.181   6.067  -2.320  0.00  0.00     0.043 H 
ATOM     10  C   LIG d   1       9.958   7.693  -1.788  0.00  0.00     0.227 C 
ATOM     11  O   LIG d   1       8.962   7.645  -1.099  0.00  0.00    -0.275 OA
ATOM     12  N   LIG d   1      10.892   8.702  -1.808  0.00  0.00    -0.268 N 
ATOM     13  C   LIG d   1      11.868   8.462  -2.917  0.00  0.00     0.053 C 
ATOM     14  O   LIG d   1      11.451   6.628  -4.785  0.00  0.00    -0.359 OA
ATOM     15  H   LIG d   1       8.558   7.707  -6.045  0.00  0.00     0.060 H 
ATOM     16  H   LIG d   1       9.737   9.438  -4.448  0.00  0.00     0.060 H 
ATOM     17  H   LIG d   1      12.156   9.401  -3.391  0.00  0.00     0.050 H 
ATOM     18  H   LIG d   1      12.744   7.925  -2.556  0.00  0.00     0.050 H 
ENDROOT
BRANCH   1  19
ATOM     19  C   LIG d   1       9.729   4.356  -3.333  0.00  0.00     0.220 C 
ATOM     20  N   LIG d   1       9.236   3.419  -4.166  0.00  0.00    -0.315 N 
ATOM     21  H   LIG d   1       8.748   3.685  -4.961  0.00  0.00     0.149 HD
ATOM     22  O   LIG d   1      10.340   4.024  -2.340  0.00  0.00    -0.275 OA
BRANCH  20  23
ATOM     23  C   LIG d   1       9.436   1.998  -3.871  0.00  0.00     0.016 C 
ATOM     24  H   LIG d   1       9.160   1.800  -2.835  0.00  0.00     0.046 H 
ATOM     25  H   LIG d   1      10.484   1.740  -4.023  0.00  0.00     0.046 H 
BRANCH  23  26
ATOM     26  C   LIG d   1       8.562   1.155  -4.803  0.00  0.00    -0.012 C 
ATOM     27  H   LIG d   1       8.181   1.782  -5.608  0.00  0.00     0.033 H 
ATOM     28  H   LIG d   1       9.157   0.343  -5.222  0.00  0.00     0.033 H 
BRANCH  26  29
ATOM     29  C   LIG d   1       7.408   0.580  -4.024  0.00  0.00    -0.046 A 
ATOM     30  C   LIG d   1       7.234  -0.790  -3.958  0.00  0.00    -0.055 A 
ATOM     31  C   LIG d   1       6.176  -1.319  -3.244  0.00  0.00    -0.020 A 
ATOM     32  H   LIG d   1       7.924  -1.447  -4.465  0.00  0.00     0.062 H 
ATOM     33  C   LIG d   1       5.289  -0.476  -2.592  0.00  0.00     0.120 A 
ATOM     34  H   LIG d   1       6.040  -2.390  -3.193  0.00  0.00     0.065 H 
ATOM     35  C   LIG d   1       5.466   0.898  -2.659  0.00  0.00    -0.020 A 
ATOM     36  C   LIG d   1       6.528   1.423  -3.369  0.00  0.00    -0.055 A 
ATOM     37  H   LIG d   1       4.776   1.558  -2.152  0.00  0.00     0.065 H 
ATOM     38  H   LIG d   1       6.669   2.492  -3.418  0.00  0.00     0.062 H 
BRANCH  33  39
ATOM     39  O   LIG d   1       4.248  -0.994  -1.889  0.00  0.00    -0.495 OA
BRANCH  39  40
ATOM     40  C   LIG d   1       3.715  -2.241  -2.342  0.00  0.00     0.079 C 
ATOM     41  H   LIG d   1       4.506  -2.823  -2.815  0.00  0.00     0.066 H 
ATOM     42  H   LIG d   1       3.315  -2.795  -1.492  0.00  0.00     0.066 H 
ATOM     43  H   LIG d   1       2.919  -2.056  -3.062  0.00  0.00     0.066 H 
ENDBRANCH  39  40
ENDBRANCH  33  39
ENDBRANCH  26  29
ENDBRANCH  23  26
ENDBRANCH  20  23
ENDBRANCH   1  19
BRANCH  12  44
ATOM     44  C   LIG d   1      10.926   9.787  -0.922  0.00  0.00     0.040 A 
ATOM     45  C   LIG d   1      10.534  11.047  -1.354  0.00  0.00     0.005 A 
ATOM     46  C   LIG d   1      10.562  12.118  -0.477  0.00  0.00     0.168 A 
ATOM     47  H   LIG d   1      10.203  11.191  -2.372  0.00  0.00     0.067 H 
ATOM     48  C   LIG d   1      10.996  11.931   0.834  0.00  0.00     0.166 A 
ATOM     49  O   LIG d   1      10.232  13.432  -0.644  0.00  0.00    -0.453 OA
ATOM     50  C   LIG d   1      11.391  10.673   1.259  0.00  0.00    -0.014 A 
ATOM     51  O   LIG d   1      10.935  13.129   1.488  0.00  0.00    -0.453 OA
ATOM     52  C   LIG d   1      11.357   9.604   0.385  0.00  0.00    -0.037 A 
ATOM     53  H   LIG d   1      11.727  10.528   2.275  0.00  0.00     0.066 H 
ATOM     54  H   LIG d   1      11.667   8.624   0.718  0.00  0.00     0.064 H 
ATOM     55  C   LIG d   1      10.077  13.962   0.686  0.00  0.00     0.233 C 
ATOM     56  H   LIG d   1       9.042  13.874   1.015  0.00  0.00     0.117 H 
ATOM     57  H   LIG d   1      10.405  15.001   0.728  0.00  0.00     0.117 H 
ENDBRANCH  12  44
TORSDOF 7
ENDMDL
MODEL 5
REMARK VINA RESULT:      -6.7      3.374      4.126
REMARK  7 active torsions:
REMARK  status: ('A' for Active; 'I' for Inactive)
REMARK    1  A    between atoms: C_1  and  O_2 
REMARK    2  A    between atoms: O_2  and  C_3 
REMARK    3  A    between atoms: C_6  and  C_9 
REMARK    4  A    between atoms: C_9  and  C_10 
REMARK    5  A    between atoms: C_10  and  N_11 
REMARK       I    between atoms: N_11  and  C_12 
REMARK    6  A    between atoms: C_12  and  C_14 
REMARK    7  A    between atoms: N_25  and  C_27 
ROOT
ATOM      1  C   LIG d   1       4.941  -0.882  -4.800  0.00  0.00     0.079 C 
ATOM      2  H   LIG d   1       4.798  -1.050  -3.732  0.00  0.00     0.043 H 
ATOM      3  C   LIG d   1       6.312  -0.154  -5.079  0.00  0.00     0.090 C 
ATOM      4  H   LIG d   1       6.287   0.935  -5.070  0.00  0.00     0.065 H 
ATOM      5  C   LIG d   1       7.244  -0.816  -4.057  0.00  0.00    -0.056 C 
ATOM      6  C   LIG d   1       7.441  -2.044  -4.517  0.00  0.00    -0.052 C 
ATOM      7  C   LIG d   1       6.692  -2.115  -5.835  0.00  0.00     0.116 C 
ATOM      8  C   LIG d   1       5.141  -2.185  -5.531  0.00  0.00     0.084 C 
ATOM      9  H   LIG d   1       4.607  -2.151  -6.480  0.00  0.00     0.043 H 
ATOM     10  C   LIG d   1       5.045  -3.544  -4.967  0.00  0.00     0.227 C 
ATOM     11  O   LIG d   1       4.292  -3.910  -4.090  0.00  0.00    -0.275 OA
ATOM     12  N   LIG d   1       5.974  -4.316  -5.624  0.00  0.00    -0.268 N 
ATOM     13  C   LIG d   1       6.817  -3.448  -6.504  0.00  0.00     0.053 C 
ATOM     14  O   LIG d   1       6.758  -0.803  -6.343  0.00  0.00    -0.359 OA
ATOM     15  H   LIG d   1       7.651  -0.379  -3.158  0.00  0.00     0.060 H 
ATOM     16  H   LIG d   1       8.016  -2.830  -4.050  0.00  0.00     0.060 H 
ATOM     17  H   LIG d   1       7.854  -3.787  -6.506  0.00  0.00     0.050 H 
ATOM     18  H   LIG d   1       6.418  -3.416  -7.517  0.00  0.00     0.050 H 
ENDROOT
BRANCH   1  19
ATOM     19  C   LIG d   1       3.788  -0.106  -5.383  0.00  0.00     0.220 C 
ATOM     20  N   LIG d   1       3.800   0.246  -6.683  0.00  0.00    -0.315 N 
ATOM     21  H   LIG d   1       4.553  -0.000  -7.245  0.00  0.00     0.149 HD
ATOM     22  O   LIG d   1       2.848   0.201  -4.681  0.00  0.00    -0.275 OA
BRANCH  20  23
ATOM     23  C   LIG d   1       2.680   1.000  -7.249  0.00  0.00     0.016 C 
ATOM     24  H   LIG d   1       2.286   1.685  -6.498  0.00  0.00     0.046 H 
ATOM     25  H   LIG d   1       1.895   0.309  -7.557  0.00  0.00     0.046 H 
BRANCH  23  26
ATOM     26  C   LIG d   1       3.162   1.797  -8.464  0.00  0.00    -0.012 C 
ATOM     27  H   LIG d   1       2.521   2.667  -8.604  0.00  0.00     0.033 H 
ATOM     28  H   LIG d   1       4.189   2.123  -8.299  0.00  0.00     0.033 H 
BRANCH  26  29
ATOM     29  C   LIG d   1       3.103   0.926  -9.691  0.00  0.00    -0.046 A 
ATOM     30  C   LIG d   1       2.102  -0.020  -9.818  0.00  0.00    -0.055 A 
ATOM     31  C   LIG d   1       2.045  -0.821 -10.943  0.00  0.00    -0.020 A 
ATOM     32  H   LIG d   1       1.365  -0.135  -9.037  0.00  0.00     0.062 H 
ATOM     33  C   LIG d   1       2.992  -0.674 -11.946  0.00  0.00     0.120 A 
ATOM     34  H   LIG d   1       1.263  -1.560 -11.041  0.00  0.00     0.065 H 
ATOM     35  C   LIG d   1       3.994   0.276 -11.817  0.00  0.00    -0.020 A 
ATOM     36  C   LIG d   1       4.043   1.077 -10.693  0.00  0.00    -0.055 A 
ATOM     37  H   LIG d   1       4.733   0.392 -12.596  0.00  0.00     0.065 H 
ATOM     38  H   LIG d   1       4.821   1.820 -10.594  0.00  0.00     0.062 H 
BRANCH  33  39
ATOM     39  O   LIG d   1       2.938  -1.460 -13.053  0.00  0.00    -0.495 OA
BRANCH  39  40
ATOM     40  C   LIG d   1       1.726  -2.183 -13.277  0.00  0.00     0.079 C 
ATOM     41  H   LIG d   1       1.536  -2.844 -12.432  0.00  0.00     0.066 H 
ATOM     42  H   LIG d   1       0.898  -1.481 -13.381  0.00  0.00     0.066 H 
ATOM     43  H   LIG d   1       1.817  -2.774 -14.189  0.00  0.00     0.066 H 
ENDBRANCH  39  40
ENDBRANCH  33  39
ENDBRANCH  26  29
ENDBRANCH  23  26
ENDBRANCH  20  23
ENDBRANCH   1  19
BRANCH  12  44
ATOM     44  C   LIG d   1       6.109  -5.704  -5.490  0.00  0.00     0.040 A 
ATOM     45  C   LIG d   1       4.990  -6.521  -5.572  0.00  0.00     0.005 A 
ATOM     46  C   LIG d   1       5.125  -7.894  -5.446  0.00  0.00     0.168 A 
ATOM     47  H   LIG d   1       4.015  -6.088  -5.741  0.00  0.00     0.067 H 
ATOM     48  C   LIG d   1       6.383  -8.450  -5.224  0.00  0.00     0.166 A 
ATOM     49  O   LIG d   1       4.204  -8.901  -5.491  0.00  0.00    -0.453 OA
ATOM     50  C   LIG d   1       7.496  -7.631  -5.137  0.00  0.00    -0.014 A 
ATOM     51  O   LIG d   1       6.248  -9.806  -5.131  0.00  0.00    -0.453 OA
ATOM     52  C   LIG d   1       7.361  -6.262  -5.269  0.00  0.00    -0.037 A 
ATOM     53  H   LIG d   1       8.471  -8.062  -4.964  0.00  0.00     0.066 H 
ATOM     54  H   LIG d   1       8.231  -5.624  -5.199  0.00  0.00     0.064 H 
ATOM     55  C   LIG d   1       4.963 -10.106  -5.704  0.00  0.00     0.233 C 
ATOM     56  H   LIG d   1       5.057 -10.316  -6.769  0.00  0.00     0.117 H 
ATOM     57  H   LIG d   1       4.500 -10.948  -5.188  0.00  0.00     0.117 H 
ENDBRANCH  12  44
TORSDOF 7
ENDMDL
MODEL 6
REMARK VINA RESULT:      -6.6      4.272      8.307
REMARK  7 active torsions:
REMARK  status: ('A' for Active; 'I' for Inactive)
REMARK    1  A    between atoms: C_1  and  O_2 
REMARK    2  A    between atoms: O_2  and  C_3 
REMARK    3  A    between atoms: C_6  and  C_9 
REMARK    4  A    between atoms: C_9  and  C_10 
REMARK    5  A    between atoms: C_10  and  N_11 
REMARK       I    between atoms: N_11  and  C_12 
REMARK    6  A    between atoms: C_12  and  C_14 
REMARK    7  A    between atoms: N_25  and  C_27 
ROOT
ATOM      1  C   LIG d   1       5.608  -0.377  -3.932  0.00  0.00     0.079 C 
ATOM      2  H   LIG d   1       4.636  -0.202  -3.470  0.00  0.00     0.043 H 
ATOM      3  C   LIG d   1       6.194  -1.778  -3.504  0.00  0.00     0.090 C 
ATOM      4  H   LIG d   1       6.798  -1.788  -2.597  0.00  0.00     0.065 H 
ATOM      5  C   LIG d   1       4.941  -2.662  -3.491  0.00  0.00    -0.056 C 
ATOM      6  C   LIG d   1       4.626  -2.830  -4.767  0.00  0.00    -0.052 C 
ATOM      7  C   LIG d   1       5.705  -2.112  -5.556  0.00  0.00     0.116 C 
ATOM      8  C   LIG d   1       5.474  -0.553  -5.423  0.00  0.00     0.084 C 
ATOM      9  H   LIG d   1       6.299  -0.043  -5.921  0.00  0.00     0.043 H 
ATOM     10  C   LIG d   1       4.249  -0.399  -6.229  0.00  0.00     0.227 C 
ATOM     11  O   LIG d   1       3.348   0.387  -6.030  0.00  0.00    -0.275 OA
ATOM     12  N   LIG d   1       4.324  -1.318  -7.249  0.00  0.00    -0.268 N 
ATOM     13  C   LIG d   1       5.506  -2.210  -7.036  0.00  0.00     0.053 C 
ATOM     14  O   LIG d   1       6.858  -2.233  -4.757  0.00  0.00    -0.359 OA
ATOM     15  H   LIG d   1       4.428  -3.061  -2.629  0.00  0.00     0.060 H 
ATOM     16  H   LIG d   1       3.777  -3.367  -5.163  0.00  0.00     0.060 H 
ATOM     17  H   LIG d   1       5.278  -3.235  -7.331  0.00  0.00     0.050 H 
ATOM     18  H   LIG d   1       6.377  -1.837  -7.573  0.00  0.00     0.050 H 
ENDROOT
BRANCH   1  19
ATOM     19  C   LIG d   1       6.569   0.736  -3.602  0.00  0.00     0.220 C 
ATOM     20  N   LIG d   1       7.862   0.642  -3.972  0.00  0.00    -0.315 N 
ATOM     21  H   LIG d   1       8.173  -0.142  -4.452  0.00  0.00     0.149 HD
ATOM     22  O   LIG d   1       6.180   1.715  -3.003  0.00  0.00    -0.275 OA
BRANCH  20  23
ATOM     23  C   LIG d   1       8.796   1.723  -3.652  0.00  0.00     0.016 C 
ATOM     24  H   LIG d   1       9.786   1.305  -3.469  0.00  0.00     0.046 H 
ATOM     25  H   LIG d   1       8.453   2.248  -2.760  0.00  0.00     0.046 H 
BRANCH  23  26
ATOM     26  C   LIG d   1       8.865   2.704  -4.825  0.00  0.00    -0.012 C 
ATOM     27  H   LIG d   1       9.578   2.336  -5.563  0.00  0.00     0.033 H 
ATOM     28  H   LIG d   1       7.879   2.792  -5.282  0.00  0.00     0.033 H 
BRANCH  26  29
ATOM     29  C   LIG d   1       9.309   4.053  -4.325  0.00  0.00    -0.046 A 
ATOM     30  C   LIG d   1       9.746   4.197  -3.021  0.00  0.00    -0.055 A 
ATOM     31  C   LIG d   1      10.154   5.433  -2.560  0.00  0.00    -0.020 A 
ATOM     32  H   LIG d   1       9.767   3.342  -2.362  0.00  0.00     0.062 H 
ATOM     33  C   LIG d   1      10.127   6.532  -3.407  0.00  0.00     0.120 A 
ATOM     34  H   LIG d   1      10.495   5.545  -1.541  0.00  0.00     0.065 H 
ATOM     35  C   LIG d   1       9.690   6.385  -4.715  0.00  0.00    -0.020 A 
ATOM     36  C   LIG d   1       9.288   5.145  -5.173  0.00  0.00    -0.055 A 
ATOM     37  H   LIG d   1       9.668   7.239  -5.377  0.00  0.00     0.065 H 
ATOM     38  H   LIG d   1       8.951   5.030  -6.192  0.00  0.00     0.062 H 
BRANCH  33  39
ATOM     39  O   LIG d   1      10.529   7.749  -2.956  0.00  0.00    -0.495 OA
BRANCH  39  40
ATOM     40  C   LIG d   1       9.883   8.254  -1.786  0.00  0.00     0.079 C 
ATOM     41  H   LIG d   1      10.594   8.836  -1.201  0.00  0.00     0.066 H 
ATOM     42  H   LIG d   1       9.047   8.891  -2.079  0.00  0.00     0.066 H 
ATOM     43  H   LIG d   1       9.512   7.422  -1.187  0.00  0.00     0.066 H 
ENDBRANCH  39  40
ENDBRANCH  33  39
ENDBRANCH  26  29
ENDBRANCH  23  26
ENDBRANCH  20  23
ENDBRANCH   1  19
BRANCH  12  44
ATOM     44  C   LIG d   1       3.429  -1.404  -8.324  0.00  0.00     0.040 A 
ATOM     45  C   LIG d   1       3.180  -2.632  -8.923  0.00  0.00     0.005 A 
ATOM     46  C   LIG d   1       2.292  -2.717  -9.982  0.00  0.00     0.168 A 
ATOM     47  H   LIG d   1       3.675  -3.520  -8.560  0.00  0.00     0.067 H 
ATOM     48  C   LIG d   1       1.659  -1.568 -10.451  0.00  0.00     0.166 A 
ATOM     49  O   LIG d   1       1.876  -3.781 -10.729  0.00  0.00    -0.453 OA
ATOM     50  C   LIG d   1       1.914  -0.345  -9.854  0.00  0.00    -0.014 A 
ATOM     51  O   LIG d   1       0.845  -1.915 -11.492  0.00  0.00    -0.453 OA
ATOM     52  C   LIG d   1       2.796  -0.261  -8.794  0.00  0.00    -0.037 A 
ATOM     53  H   LIG d   1       1.424   0.545 -10.218  0.00  0.00     0.066 H 
ATOM     54  H   LIG d   1       2.995   0.694  -8.331  0.00  0.00     0.064 H 
ATOM     55  C   LIG d   1       0.675  -3.340 -11.391  0.00  0.00     0.233 C 
ATOM     56  H   LIG d   1      -0.203  -3.580 -10.791  0.00  0.00     0.117 H 
ATOM     57  H   LIG d   1       0.595  -3.788 -12.382  0.00  0.00     0.117 H 
ENDBRANCH  12  44
TORSDOF 7
ENDMDL
MODEL 7
REMARK VINA RESULT:      -6.5      8.447     10.861
REMARK  7 active torsions:
REMARK  status: ('A' for Active; 'I' for Inactive)
REMARK    1  A    between atoms: C_1  and  O_2 
REMARK    2  A    between atoms: O_2  and  C_3 
REMARK    3  A    between atoms: C_6  and  C_9 
REMARK    4  A    between atoms: C_9  and  C_10 
REMARK    5  A    between atoms: C_10  and  N_11 
REMARK       I    between atoms: N_11  and  C_12 
REMARK    6  A    between atoms: C_12  and  C_14 
REMARK    7  A    between atoms: N_25  and  C_27 
ROOT
ATOM      1  C   LIG d   1       9.539   5.305  -3.892  0.00  0.00     0.079 C 
ATOM      2  H   LIG d   1       8.526   5.683  -3.750  0.00  0.00     0.043 H 
ATOM      3  C   LIG d   1      10.132   5.785  -5.273  0.00  0.00     0.090 C 
ATOM      4  H   LIG d   1       9.938   5.139  -6.129  0.00  0.00     0.065 H 
ATOM      5  C   LIG d   1       9.597   7.218  -5.375  0.00  0.00    -0.056 C 
ATOM      6  C   LIG d   1      10.289   7.907  -4.479  0.00  0.00    -0.052 C 
ATOM      7  C   LIG d   1      11.279   6.926  -3.879  0.00  0.00     0.116 C 
ATOM      8  C   LIG d   1      10.496   5.943  -2.919  0.00  0.00     0.084 C 
ATOM      9  H   LIG d   1      11.197   5.190  -2.558  0.00  0.00     0.043 H 
ATOM     10  C   LIG d   1      10.161   6.863  -1.817  0.00  0.00     0.227 C 
ATOM     11  O   LIG d   1       9.157   6.841  -1.138  0.00  0.00    -0.275 OA
ATOM     12  N   LIG d   1      11.204   7.753  -1.708  0.00  0.00    -0.268 N 
ATOM     13  C   LIG d   1      12.160   7.549  -2.841  0.00  0.00     0.053 C 
ATOM     14  O   LIG d   1      11.560   6.031  -4.930  0.00  0.00    -0.359 OA
ATOM     15  H   LIG d   1       8.824   7.586  -6.033  0.00  0.00     0.060 H 
ATOM     16  H   LIG d   1      10.172   8.951  -4.228  0.00  0.00     0.060 H 
ATOM     17  H   LIG d   1      12.558   8.502  -3.190  0.00  0.00     0.050 H 
ATOM     18  H   LIG d   1      12.964   6.873  -2.555  0.00  0.00     0.050 H 
ENDROOT
BRANCH   1  19
ATOM     19  C   LIG d   1       9.574   3.802  -3.781  0.00  0.00     0.220 C 
ATOM     20  N   LIG d   1       9.638   3.045  -4.894  0.00  0.00    -0.315 N 
ATOM     21  H   LIG d   1       9.662   3.468  -5.767  0.00  0.00     0.149 HD
ATOM     22  O   LIG d   1       9.545   3.275  -2.690  0.00  0.00    -0.275 OA
BRANCH  20  23
ATOM     23  C   LIG d   1       9.672   1.585  -4.786  0.00  0.00     0.016 C 
ATOM     24  H   LIG d   1       9.610   1.297  -3.737  0.00  0.00     0.046 H 
ATOM     25  H   LIG d   1      10.604   1.211  -5.211  0.00  0.00     0.046 H 
BRANCH  23  26
ATOM     26  C   LIG d   1       8.488   0.989  -5.551  0.00  0.00    -0.012 C 
ATOM     27  H   LIG d   1       8.032   1.759  -6.172  0.00  0.00     0.033 H 
ATOM     28  H   LIG d   1       8.838   0.171  -6.181  0.00  0.00     0.033 H 
BRANCH  26  29
ATOM     29  C   LIG d   1       7.470   0.466  -4.570  0.00  0.00    -0.046 A 
ATOM     30  C   LIG d   1       6.728   1.351  -3.809  0.00  0.00    -0.055 A 
ATOM     31  C   LIG d   1       5.794   0.875  -2.910  0.00  0.00    -0.020 A 
ATOM     32  H   LIG d   1       6.880   2.415  -3.917  0.00  0.00     0.062 H 
ATOM     33  C   LIG d   1       5.600  -0.491  -2.770  0.00  0.00     0.120 A 
ATOM     34  H   LIG d   1       5.215   1.567  -2.314  0.00  0.00     0.065 H 
ATOM     35  C   LIG d   1       6.344  -1.376  -3.536  0.00  0.00    -0.020 A 
ATOM     36  C   LIG d   1       7.274  -0.895  -4.438  0.00  0.00    -0.055 A 
ATOM     37  H   LIG d   1       6.195  -2.441  -3.429  0.00  0.00     0.065 H 
ATOM     38  H   LIG d   1       7.851  -1.584  -5.037  0.00  0.00     0.062 H 
BRANCH  33  39
ATOM     39  O   LIG d   1       4.681  -0.962  -1.887  0.00  0.00    -0.495 OA
BRANCH  39  40
ATOM     40  C   LIG d   1       3.825  -2.014  -2.339  0.00  0.00     0.079 C 
ATOM     41  H   LIG d   1       4.203  -2.970  -1.978  0.00  0.00     0.066 H 
ATOM     42  H   LIG d   1       2.818  -1.853  -1.953  0.00  0.00     0.066 H 
ATOM     43  H   LIG d   1       3.800  -2.020  -3.428  0.00  0.00     0.066 H 
ENDBRANCH  39  40
ENDBRANCH  33  39
ENDBRANCH  26  29
ENDBRANCH  23  26
ENDBRANCH  20  23
ENDBRANCH   1  19
BRANCH  12  44
ATOM     44  C   LIG d   1      11.349   8.704  -0.689  0.00  0.00     0.040 A 
ATOM     45  C   LIG d   1      11.723   8.303   0.586  0.00  0.00     0.005 A 
ATOM     46  C   LIG d   1      11.873   9.245   1.591  0.00  0.00     0.168 A 
ATOM     47  H   LIG d   1      11.903   7.258   0.794  0.00  0.00     0.067 H 
ATOM     48  C   LIG d   1      11.636  10.591   1.321  0.00  0.00     0.166 A 
ATOM     49  O   LIG d   1      12.228   9.118   2.903  0.00  0.00    -0.453 OA
ATOM     50  C   LIG d   1      11.258  10.986   0.049  0.00  0.00    -0.014 A 
ATOM     51  O   LIG d   1      11.845  11.307   2.466  0.00  0.00    -0.453 OA
ATOM     52  C   LIG d   1      11.115  10.046  -0.955  0.00  0.00    -0.037 A 
ATOM     53  H   LIG d   1      11.074  12.029  -0.160  0.00  0.00     0.066 H 
ATOM     54  H   LIG d   1      10.818  10.356  -1.946  0.00  0.00     0.064 H 
ATOM     55  C   LIG d   1      12.605  10.441   3.328  0.00  0.00     0.233 C 
ATOM     56  H   LIG d   1      13.674  10.600   3.185  0.00  0.00     0.117 H 
ATOM     57  H   LIG d   1      12.331  10.603   4.371  0.00  0.00     0.117 H 
ENDBRANCH  12  44
TORSDOF 7
ENDMDL
MODEL 8
REMARK VINA RESULT:      -6.5      3.672      8.295
REMARK  7 active torsions:
REMARK  status: ('A' for Active; 'I' for Inactive)
REMARK    1  A    between atoms: C_1  and  O_2 
REMARK    2  A    between atoms: O_2  and  C_3 
REMARK    3  A    between atoms: C_6  and  C_9 
REMARK    4  A    between atoms: C_9  and  C_10 
REMARK    5  A    between atoms: C_10  and  N_11 
REMARK       I    between atoms: N_11  and  C_12 
REMARK    6  A    between atoms: C_12  and  C_14 
REMARK    7  A    between atoms: N_25  and  C_27 
ROOT
ATOM      1  C   LIG d   1       3.571   0.153  -7.617  0.00  0.00     0.079 C 
ATOM      2  H   LIG d   1       4.548  -0.330  -7.629  0.00  0.00     0.043 H 
ATOM      3  C   LIG d   1       3.589   1.488  -8.458  0.00  0.00     0.090 C 
ATOM      4  H   LIG d   1       3.869   2.391  -7.917  0.00  0.00     0.065 H 
ATOM      5  C   LIG d   1       4.480   1.109  -9.647  0.00  0.00    -0.056 C 
ATOM      6  C   LIG d   1       3.744   0.285 -10.379  0.00  0.00    -0.052 C 
ATOM      7  C   LIG d   1       2.397   0.208  -9.684  0.00  0.00     0.116 C 
ATOM      8  C   LIG d   1       2.554  -0.663  -8.373  0.00  0.00     0.084 C 
ATOM      9  H   LIG d   1       1.606  -0.644  -7.837  0.00  0.00     0.043 H 
ATOM     10  C   LIG d   1       2.751  -1.998  -8.968  0.00  0.00     0.227 C 
ATOM     11  O   LIG d   1       3.447  -2.888  -8.529  0.00  0.00    -0.275 OA
ATOM     12  N   LIG d   1       1.994  -2.040 -10.115  0.00  0.00    -0.268 N 
ATOM     13  C   LIG d   1       1.426  -0.684 -10.393  0.00  0.00     0.053 C 
ATOM     14  O   LIG d   1       2.240   1.476  -9.090  0.00  0.00    -0.359 OA
ATOM     15  H   LIG d   1       5.489   1.440  -9.844  0.00  0.00     0.060 H 
ATOM     16  H   LIG d   1       4.041  -0.225 -11.284  0.00  0.00     0.060 H 
ATOM     17  H   LIG d   1       1.419  -0.478 -11.464  0.00  0.00     0.050 H 
ATOM     18  H   LIG d   1       0.427  -0.586  -9.972  0.00  0.00     0.050 H 
ENDROOT
BRANCH   1  19
ATOM     19  C   LIG d   1       3.115   0.410  -6.203  0.00  0.00     0.220 C 
ATOM     20  N   LIG d   1       3.176  -0.575  -5.285  0.00  0.00    -0.315 N 
ATOM     21  H   LIG d   1       3.514  -1.450  -5.535  0.00  0.00     0.149 HD
ATOM     22  O   LIG d   1       2.694   1.503  -5.892  0.00  0.00    -0.275 OA
BRANCH  20  23
ATOM     23  C   LIG d   1       2.734  -0.325  -3.912  0.00  0.00     0.016 C 
ATOM     24  H   LIG d   1       1.646  -0.258  -3.887  0.00  0.00     0.046 H 
ATOM     25  H   LIG d   1       3.163   0.612  -3.556  0.00  0.00     0.046 H 
BRANCH  23  26
ATOM     26  C   LIG d   1       3.195  -1.472  -3.010  0.00  0.00    -0.012 C 
ATOM     27  H   LIG d   1       3.189  -1.142  -1.972  0.00  0.00     0.033 H 
ATOM     28  H   LIG d   1       2.520  -2.320  -3.127  0.00  0.00     0.033 H 
BRANCH  26  29
ATOM     29  C   LIG d   1       4.591  -1.885  -3.398  0.00  0.00    -0.046 A 
ATOM     30  C   LIG d   1       4.787  -3.014  -4.172  0.00  0.00    -0.055 A 
ATOM     31  C   LIG d   1       6.066  -3.394  -4.529  0.00  0.00    -0.020 A 
ATOM     32  H   LIG d   1       3.940  -3.599  -4.497  0.00  0.00     0.062 H 
ATOM     33  C   LIG d   1       7.155  -2.643  -4.112  0.00  0.00     0.120 A 
ATOM     34  H   LIG d   1       6.219  -4.277  -5.134  0.00  0.00     0.065 H 
ATOM     35  C   LIG d   1       6.955  -1.510  -3.337  0.00  0.00    -0.020 A 
ATOM     36  C   LIG d   1       5.674  -1.131  -2.986  0.00  0.00    -0.055 A 
ATOM     37  H   LIG d   1       7.801  -0.922  -3.010  0.00  0.00     0.065 H 
ATOM     38  H   LIG d   1       5.518  -0.246  -2.386  0.00  0.00     0.062 H 
BRANCH  33  39
ATOM     39  O   LIG d   1       8.414  -3.014  -4.463  0.00  0.00    -0.495 OA
BRANCH  39  40
ATOM     40  C   LIG d   1       8.772  -4.381  -4.245  0.00  0.00     0.079 C 
ATOM     41  H   LIG d   1       9.737  -4.427  -3.741  0.00  0.00     0.066 H 
ATOM     42  H   LIG d   1       8.014  -4.860  -3.623  0.00  0.00     0.066 H 
ATOM     43  H   LIG d   1       8.835  -4.897  -5.203  0.00  0.00     0.066 H 
ENDBRANCH  39  40
ENDBRANCH  33  39
ENDBRANCH  26  29
ENDBRANCH  23  26
ENDBRANCH  20  23
ENDBRANCH   1  19
BRANCH  12  44
ATOM     44  C   LIG d   1       1.786  -3.180 -10.902  0.00  0.00     0.040 A 
ATOM     45  C   LIG d   1       0.704  -4.012 -10.646  0.00  0.00     0.005 A 
ATOM     46  C   LIG d   1       0.495  -5.135 -11.429  0.00  0.00     0.168 A 
ATOM     47  H   LIG d   1       0.022  -3.779  -9.841  0.00  0.00     0.067 H 
ATOM     48  C   LIG d   1       1.379  -5.435 -12.463  0.00  0.00     0.166 A 
ATOM     49  O   LIG d   1      -0.475  -6.095 -11.391  0.00  0.00    -0.453 OA
ATOM     50  C   LIG d   1       2.460  -4.605 -12.712  0.00  0.00    -0.014 A 
ATOM     51  O   LIG d   1       0.960  -6.583 -13.074  0.00  0.00    -0.453 OA
ATOM     52  C   LIG d   1       2.664  -3.481 -11.934  0.00  0.00    -0.037 A 
ATOM     53  H   LIG d   1       3.145  -4.838 -13.513  0.00  0.00     0.066 H 
ATOM     54  H   LIG d   1       3.509  -2.837 -12.129  0.00  0.00     0.064 H 
ATOM     55  C   LIG d   1      -0.409  -6.758 -12.668  0.00  0.00     0.233 C 
ATOM     56  H   LIG d   1      -1.084  -6.284 -13.381  0.00  0.00     0.117 H 
ATOM     57  H   LIG d   1      -0.646  -7.817 -12.564  0.00  0.00     0.117 H 
ENDBRANCH  12  44
TORSDOF 7
ENDMDL
MODEL 9
REMARK VINA RESULT:      -6.5      2.985      6.346
REMARK  7 active torsions:
REMARK  status: ('A' for Active; 'I' for Inactive)
REMARK    1  A    between atoms: C_1  and  O_2 
REMARK    2  A    between atoms: O_2  and  C_3 
REMARK    3  A    between atoms: C_6  and  C_9 
REMARK    4  A    between atoms: C_9  and  C_10 
REMARK    5  A    between atoms: C_10  and  N_11 
REMARK       I    between atoms: N_11  and  C_12 
REMARK    6  A    between atoms: C_12  and  C_14 
REMARK    7  A    between atoms: N_25  and  C_27 
ROOT
ATOM      1  C   LIG d   1       3.469   0.465  -6.996  0.00  0.00     0.079 C 
ATOM      2  H   LIG d   1       3.602   1.504  -7.299  0.00  0.00     0.043 H 
ATOM      3  C   LIG d   1       2.499  -0.292  -7.984  0.00  0.00     0.090 C 
ATOM      4  H   LIG d   1       1.437  -0.248  -7.741  0.00  0.00     0.065 H 
ATOM      5  C   LIG d   1       2.903   0.290  -9.344  0.00  0.00    -0.056 C 
ATOM      6  C   LIG d   1       4.091  -0.239  -9.604  0.00  0.00    -0.052 C 
ATOM      7  C   LIG d   1       4.384  -1.180  -8.450  0.00  0.00     0.116 C 
ATOM      8  C   LIG d   1       4.744  -0.318  -7.174  0.00  0.00     0.084 C 
ATOM      9  H   LIG d   1       4.871  -0.996  -6.331  0.00  0.00     0.043 H 
ATOM     10  C   LIG d   1       6.061   0.208  -7.577  0.00  0.00     0.227 C 
ATOM     11  O   LIG d   1       6.521   1.295  -7.297  0.00  0.00    -0.275 OA
ATOM     12  N   LIG d   1       6.668  -0.767  -8.332  0.00  0.00    -0.268 N 
ATOM     13  C   LIG d   1       5.700  -1.879  -8.589  0.00  0.00     0.053 C 
ATOM     14  O   LIG d   1       3.116  -1.645  -8.051  0.00  0.00    -0.359 OA
ATOM     15  H   LIG d   1       2.344   0.980  -9.957  0.00  0.00     0.060 H 
ATOM     16  H   LIG d   1       4.719  -0.041 -10.459  0.00  0.00     0.060 H 
ATOM     17  H   LIG d   1       5.825  -2.278  -9.596  0.00  0.00     0.050 H 
ATOM     18  H   LIG d   1       5.805  -2.667  -7.844  0.00  0.00     0.050 H 
ENDROOT
BRANCH   1  19
ATOM     19  C   LIG d   1       2.972   0.377  -5.576  0.00  0.00     0.220 C 
ATOM     20  N   LIG d   1       3.072  -0.783  -4.898  0.00  0.00    -0.315 N 
ATOM     21  H   LIG d   1       3.464  -1.562  -5.324  0.00  0.00     0.149 HD
ATOM     22  O   LIG d   1       2.484   1.350  -5.044  0.00  0.00    -0.275 OA
BRANCH  20  23
ATOM     23  C   LIG d   1       2.590  -0.869  -3.518  0.00  0.00     0.016 C 
ATOM     24  H   LIG d   1       1.761  -1.575  -3.466  0.00  0.00     0.046 H 
ATOM     25  H   LIG d   1       2.251   0.114  -3.189  0.00  0.00     0.046 H 
BRANCH  23  26
ATOM     26  C   LIG d   1       3.725  -1.348  -2.609  0.00  0.00    -0.012 C 
ATOM     27  H   LIG d   1       3.496  -1.088  -1.576  0.00  0.00     0.033 H 
ATOM     28  H   LIG d   1       3.830  -2.429  -2.699  0.00  0.00     0.033 H 
BRANCH  26  29
ATOM     29  C   LIG d   1       5.012  -0.683  -3.022  0.00  0.00    -0.046 A 
ATOM     30  C   LIG d   1       5.192   0.670  -2.797  0.00  0.00    -0.055 A 
ATOM     31  C   LIG d   1       6.372   1.282  -3.174  0.00  0.00    -0.020 A 
ATOM     32  H   LIG d   1       4.411   1.248  -2.327  0.00  0.00     0.062 H 
ATOM     33  C   LIG d   1       7.376   0.540  -3.777  0.00  0.00     0.120 A 
ATOM     34  H   LIG d   1       6.513   2.339  -2.999  0.00  0.00     0.065 H 
ATOM     35  C   LIG d   1       7.193  -0.817  -4.001  0.00  0.00    -0.020 A 
ATOM     36  C   LIG d   1       6.014  -1.426  -3.617  0.00  0.00    -0.055 A 
ATOM     37  H   LIG d   1       7.973  -1.398  -4.471  0.00  0.00     0.065 H 
ATOM     38  H   LIG d   1       5.872  -2.483  -3.788  0.00  0.00     0.062 H 
BRANCH  33  39
ATOM     39  O   LIG d   1       8.537   1.140  -4.148  0.00  0.00    -0.495 OA
BRANCH  39  40
ATOM     40  C   LIG d   1       8.461   2.507  -4.555  0.00  0.00     0.079 C 
ATOM     41  H   LIG d   1       8.547   2.569  -5.640  0.00  0.00     0.066 H 
ATOM     42  H   LIG d   1       7.503   2.926  -4.244  0.00  0.00     0.066 H 
ATOM     43  H   LIG d   1       9.271   3.071  -4.093  0.00  0.00     0.066 H 
ENDBRANCH  39  40
ENDBRANCH  33  39
ENDBRANCH  26  29
ENDBRANCH  23  26
ENDBRANCH  20  23
ENDBRANCH   1  19
BRANCH  12  44
ATOM     44  C   LIG d   1       7.992  -0.726  -8.790  0.00  0.00     0.040 A 
ATOM     45  C   LIG d   1       8.279  -0.184 -10.035  0.00  0.00     0.005 A 
ATOM     46  C   LIG d   1       9.588  -0.139 -10.484  0.00  0.00     0.168 A 
ATOM     47  H   LIG d   1       7.483   0.207 -10.651  0.00  0.00     0.067 H 
ATOM     48  C   LIG d   1      10.613  -0.649  -9.690  0.00  0.00     0.166 A 
ATOM     49  O   LIG d   1      10.130   0.336 -11.644  0.00  0.00    -0.453 OA
ATOM     50  C   LIG d   1      10.321  -1.194  -8.450  0.00  0.00    -0.014 A 
ATOM     51  O   LIG d   1      11.797  -0.492 -10.353  0.00  0.00    -0.453 OA
ATOM     52  C   LIG d   1       9.015  -1.233  -8.000  0.00  0.00    -0.037 A 
ATOM     53  H   LIG d   1      11.115  -1.590  -7.835  0.00  0.00     0.066 H 
ATOM     54  H   LIG d   1       8.790  -1.660  -7.034  0.00  0.00     0.064 H 
ATOM     55  C   LIG d   1      11.538   0.484 -11.378  0.00  0.00     0.233 C 
ATOM     56  H   LIG d   1      11.754   1.489 -11.014  0.00  0.00     0.117 H 
ATOM     57  H   LIG d   1      12.124   0.267 -12.271  0.00  0.00     0.117 H 
ENDBRANCH  12  44
TORSDOF 7
ENDMDL
