MODEL 1
REMARK VINA RESULT:      -6.0      0.000      0.000
REMARK  14 active torsions:
REMARK  status: ('A' for Active; 'I' for Inactive)
REMARK    1  A    between atoms: C_1  and  C_2 
REMARK       I    between atoms: N_5  and  C_8 
REMARK    2  A    between atoms: C_8  and  C_10 
REMARK    3  A    between atoms: C_10  and  C_11 
REMARK    4  A    between atoms: C_16  and  N_18 
REMARK       I    between atoms: N_18  and  C_19 
REMARK    5  A    between atoms: C_19  and  C_21 
REMARK    6  A    between atoms: C_21  and  C_22 
REMARK    7  A    between atoms: C_22  and  C_23 
REMARK    8  A    between atoms: C_22  and  C_24 
REMARK    9  A    between atoms: C_22  and  C_25 
REMARK   10  A    between atoms: C_29  and  C_39 
REMARK   11  A    between atoms: C_32  and  O_38 
REMARK   12  A    between atoms: C_34  and  C_35 
REMARK   13  A    between atoms: C_34  and  C_36 
REMARK   14  A    between atoms: C_36  and  O_37 
ROOT
ATOM      1  C   LIG d   1       8.450   2.374  -4.685  0.00  0.00     0.016 C 
ATOM      2  H   LIG d   1       7.686   3.036  -4.277  0.00  0.00     0.037 H 
ATOM      3  C   LIG d   1       8.219   2.192  -6.178  0.00  0.00     0.058 A 
ATOM      4  C   LIG d   1       8.974   2.880  -7.073  0.00  0.00     0.015 A 
ATOM      5  S   LIG d   1       8.325   2.334  -8.629  0.00  0.00    -0.057 SA
ATOM      6  C   LIG d   1       7.123   1.251  -7.991  0.00  0.00     0.165 A 
ATOM      7  N   LIG d   1       7.298   1.381  -6.693  0.00  0.00    -0.229 NA
ATOM      8  C   LIG d   1      10.068   3.847  -6.787  0.00  0.00    -0.016 C 
ATOM      9  C   LIG d   1      10.006   4.249  -5.301  0.00  0.00    -0.021 C 
ATOM     10  H   LIG d   1       9.168   4.927  -5.133  0.00  0.00     0.032 H 
ATOM     11  C   LIG d   1       9.836   2.989  -4.451  0.00  0.00    -0.019 C 
ATOM     12  C   LIG d   1       9.937   3.339  -2.962  0.00  0.00    -0.044 C 
ATOM     13  C   LIG d   1      11.279   4.004  -2.662  0.00  0.00    -0.026 C 
ATOM     14  C   LIG d   1      11.383   5.295  -3.480  0.00  0.00     0.063 C 
ATOM     15  H   LIG d   1      10.552   5.954  -3.229  0.00  0.00     0.060 H 
ATOM     16  C   LIG d   1      11.330   4.941  -4.964  0.00  0.00     0.021 C 
ATOM     17  H   LIG d   1      11.030   3.381  -6.999  0.00  0.00     0.032 H 
ATOM     18  H   LIG d   1       9.945   4.732  -7.412  0.00  0.00     0.032 H 
ATOM     19  H   LIG d   1       9.129   4.021  -2.697  0.00  0.00     0.027 H 
ATOM     20  H   LIG d   1       9.846   2.428  -2.371  0.00  0.00     0.027 H 
ATOM     21  H   LIG d   1      11.341   4.238  -1.600  0.00  0.00     0.029 H 
ATOM     22  H   LIG d   1      12.091   3.331  -2.938  0.00  0.00     0.029 H 
ENDROOT
BRANCH   1  23
ATOM     23  C   LIG d   1       8.371   1.015  -3.988  0.00  0.00     0.033 C 
ATOM     24  H   LIG d   1       9.033   1.011  -3.122  0.00  0.00     0.036 H 
ATOM     25  H   LIG d   1       8.675   0.232  -4.682  0.00  0.00     0.036 H 
BRANCH  23  26
ATOM     26  C   LIG d   1       6.955   0.762  -3.537  0.00  0.00     0.216 C 
ATOM     27  N   LIG d   1       6.500  -0.500  -3.418  0.00  0.00    -0.301 N 
ATOM     28  C   LIG d   1       7.373  -1.642  -3.724  0.00  0.00     0.015 C 
ATOM     29  C   LIG d   1       5.123  -0.762  -2.979  0.00  0.00     0.015 C 
ATOM     30  C   LIG d   1       6.668  -2.543  -4.741  0.00  0.00    -0.035 C 
ATOM     31  H   LIG d   1       7.570  -2.205  -2.811  0.00  0.00     0.046 H 
ATOM     32  H   LIG d   1       8.313  -1.282  -4.143  0.00  0.00     0.046 H 
ATOM     33  C   LIG d   1       5.288  -2.933  -4.204  0.00  0.00    -0.041 C 
ATOM     34  H   LIG d   1       7.261  -3.443  -4.904  0.00  0.00     0.028 H 
ATOM     35  H   LIG d   1       6.553  -2.008  -5.684  0.00  0.00     0.028 H 
ATOM     36  C   LIG d   1       4.442  -1.672  -4.006  0.00  0.00    -0.035 C 
ATOM     37  H   LIG d   1       5.403  -3.446  -3.249  0.00  0.00     0.030 H 
ATOM     38  H   LIG d   1       4.348  -1.145  -4.955  0.00  0.00     0.028 H 
ATOM     39  H   LIG d   1       3.452  -1.952  -3.646  0.00  0.00     0.028 H 
ATOM     40  H   LIG d   1       4.577   0.179  -2.908  0.00  0.00     0.046 H 
ATOM     41  H   LIG d   1       5.136  -1.253  -2.007  0.00  0.00     0.046 H 
ATOM     42  O   LIG d   1       6.225   1.697  -3.281  0.00  0.00    -0.276 OA
BRANCH  33  43
ATOM     43  C   LIG d   1       4.595  -3.861  -5.203  0.00  0.00    -0.062 C 
ATOM     44  H   LIG d   1       4.580  -3.390  -6.185  0.00  0.00     0.023 H 
ATOM     45  H   LIG d   1       5.137  -4.804  -5.259  0.00  0.00     0.023 H 
ATOM     46  H   LIG d   1       3.572  -4.049  -4.875  0.00  0.00     0.023 H 
ENDBRANCH  33  43
ENDBRANCH  23  26
ENDBRANCH   1  23
BRANCH  11  47
ATOM     47  C   LIG d   1      10.917   1.971  -4.822  0.00  0.00    -0.059 C 
ATOM     48  H   LIG d   1      10.584   0.971  -4.546  0.00  0.00     0.024 H 
ATOM     49  H   LIG d   1      11.097   2.009  -5.897  0.00  0.00     0.024 H 
ATOM     50  H   LIG d   1      11.839   2.208  -4.291  0.00  0.00     0.024 H 
ENDBRANCH  11  47
BRANCH  16  51
ATOM     51  C   LIG d   1      11.459   6.221  -5.793  0.00  0.00    -0.055 C 
ATOM     52  H   LIG d   1      11.236   6.002  -6.837  0.00  0.00     0.024 H 
ATOM     53  H   LIG d   1      10.759   6.968  -5.421  0.00  0.00     0.024 H 
ATOM     54  H   LIG d   1      12.478   6.604  -5.712  0.00  0.00     0.024 H 
ENDBRANCH  16  51
BRANCH  16  55
ATOM     55  C   LIG d   1      12.491   4.003  -5.301  0.00  0.00     0.052 C 
ATOM     56  H   LIG d   1      12.713   3.375  -4.440  0.00  0.00     0.056 H 
ATOM     57  H   LIG d   1      12.215   3.375  -6.149  0.00  0.00     0.056 H 
BRANCH  55  58
ATOM     58  O   LIG d   1      13.646   4.776  -5.638  0.00  0.00    -0.394 OA
ATOM     59  H   LIG d   1      14.392   4.651  -5.037  0.00  0.00     0.209 HD
ENDBRANCH  55  58
ENDBRANCH  16  55
BRANCH   6  60
ATOM     60  N   LIG d   1       6.213   0.454  -8.676  0.00  0.00    -0.265 N 
ATOM     61  C   LIG d   1       5.013   0.953  -9.028  0.00  0.00     0.219 C 
ATOM     62  O   LIG d   1       4.725   2.098  -8.748  0.00  0.00    -0.275 OA
ATOM     63  H   LIG d   1       6.443  -0.461  -8.900  0.00  0.00     0.157 HD
BRANCH  61  64
ATOM     64  C   LIG d   1       4.026   0.089  -9.769  0.00  0.00     0.029 C 
ATOM     65  H   LIG d   1       3.425   0.712 -10.433  0.00  0.00     0.036 H 
ATOM     66  H   LIG d   1       4.563  -0.655 -10.357  0.00  0.00     0.036 H 
BRANCH  64  67
ATOM     67  C   LIG d   1       3.111  -0.618  -8.766  0.00  0.00    -0.029 C 
BRANCH  67  68
ATOM     68  C   LIG d   1       1.743  -0.860  -9.408  0.00  0.00    -0.060 C 
ATOM     69  H   LIG d   1       1.829  -0.773 -10.491  0.00  0.00     0.024 H 
ATOM     70  H   LIG d   1       1.395  -1.861  -9.151  0.00  0.00     0.024 H 
ATOM     71  H   LIG d   1       1.032  -0.122  -9.039  0.00  0.00     0.024 H 
ENDBRANCH  67  68
BRANCH  67  72
ATOM     72  C   LIG d   1       3.732  -1.958  -8.366  0.00  0.00    -0.060 C 
ATOM     73  H   LIG d   1       4.407  -2.294  -9.152  0.00  0.00     0.024 H 
ATOM     74  H   LIG d   1       4.288  -1.837  -7.437  0.00  0.00     0.024 H 
ATOM     75  H   LIG d   1       2.943  -2.696  -8.223  0.00  0.00     0.024 H 
ENDBRANCH  67  72
BRANCH  67  76
ATOM     76  C   LIG d   1       2.944   0.259  -7.523  0.00  0.00    -0.060 C 
ATOM     77  H   LIG d   1       3.891   0.748  -7.295  0.00  0.00     0.024 H 
ATOM     78  H   LIG d   1       2.180   1.013  -7.711  0.00  0.00     0.024 H 
ATOM     79  H   LIG d   1       2.643  -0.362  -6.680  0.00  0.00     0.024 H 
ENDBRANCH  67  76
ENDBRANCH  64  67
ENDBRANCH  61  64
ENDBRANCH   6  60
BRANCH  14  80
ATOM     80  O   LIG d   1      12.619   5.950  -3.187  0.00  0.00    -0.391 OA
ATOM     81  H   LIG d   1      12.819   6.693  -3.772  0.00  0.00     0.210 HD
ENDBRANCH  14  80
TORSDOF 14
ENDMDL
MODEL 2
REMARK VINA RESULT:      -5.7      2.943      6.340
REMARK  14 active torsions:
REMARK  status: ('A' for Active; 'I' for Inactive)
REMARK    1  A    between atoms: C_1  and  C_2 
REMARK       I    between atoms: N_5  and  C_8 
REMARK    2  A    between atoms: C_8  and  C_10 
REMARK    3  A    between atoms: C_10  and  C_11 
REMARK    4  A    between atoms: C_16  and  N_18 
REMARK       I    between atoms: N_18  and  C_19 
REMARK    5  A    between atoms: C_19  and  C_21 
REMARK    6  A    between atoms: C_21  and  C_22 
REMARK    7  A    between atoms: C_22  and  C_23 
REMARK    8  A    between atoms: C_22  and  C_24 
REMARK    9  A    between atoms: C_22  and  C_25 
REMARK   10  A    between atoms: C_29  and  C_39 
REMARK   11  A    between atoms: C_32  and  O_38 
REMARK   12  A    between atoms: C_34  and  C_35 
REMARK   13  A    between atoms: C_34  and  C_36 
REMARK   14  A    between atoms: C_36  and  O_37 
ROOT
ATOM      1  C   LIG d   1       9.377   4.254  -5.010  0.00  0.00     0.016 C 
ATOM      2  H   LIG d   1       8.602   5.015  -5.098  0.00  0.00     0.037 H 
ATOM      3  C   LIG d   1       8.752   2.874  -5.150  0.00  0.00     0.058 A 
ATOM      4  C   LIG d   1       8.850   2.198  -6.324  0.00  0.00     0.015 A 
ATOM      5  S   LIG d   1       7.980   0.693  -5.979  0.00  0.00    -0.057 SA
ATOM      6  C   LIG d   1       7.560   1.062  -4.333  0.00  0.00     0.165 A 
ATOM      7  N   LIG d   1       8.091   2.256  -4.175  0.00  0.00    -0.229 NA
ATOM      8  C   LIG d   1       9.527   2.639  -7.573  0.00  0.00    -0.016 C 
ATOM      9  C   LIG d   1       9.813   4.150  -7.482  0.00  0.00    -0.021 C 
ATOM     10  H   LIG d   1       8.888   4.713  -7.614  0.00  0.00     0.032 H 
ATOM     11  C   LIG d   1      10.423   4.460  -6.114  0.00  0.00    -0.019 C 
ATOM     12  C   LIG d   1      10.870   5.924  -6.055  0.00  0.00    -0.044 C 
ATOM     13  C   LIG d   1      11.880   6.217  -7.163  0.00  0.00    -0.026 C 
ATOM     14  C   LIG d   1      11.212   5.960  -8.518  0.00  0.00     0.063 C 
ATOM     15  H   LIG d   1      10.328   6.590  -8.614  0.00  0.00     0.060 H 
ATOM     16  C   LIG d   1      10.809   4.490  -8.595  0.00  0.00     0.021 C 
ATOM     17  H   LIG d   1      10.465   2.097  -7.690  0.00  0.00     0.032 H 
ATOM     18  H   LIG d   1       8.880   2.439  -8.428  0.00  0.00     0.032 H 
ATOM     19  H   LIG d   1      10.002   6.572  -6.178  0.00  0.00     0.027 H 
ATOM     20  H   LIG d   1      11.330   6.122  -5.087  0.00  0.00     0.027 H 
ATOM     21  H   LIG d   1      12.196   7.258  -7.103  0.00  0.00     0.029 H 
ATOM     22  H   LIG d   1      12.744   5.563  -7.052  0.00  0.00     0.029 H 
ENDROOT
BRANCH   1  23
ATOM     23  C   LIG d   1      10.052   4.371  -3.642  0.00  0.00     0.033 C 
ATOM     24  H   LIG d   1      11.117   4.162  -3.742  0.00  0.00     0.036 H 
ATOM     25  H   LIG d   1       9.604   3.654  -2.953  0.00  0.00     0.036 H 
BRANCH  23  26
ATOM     26  C   LIG d   1       9.863   5.767  -3.105  0.00  0.00     0.216 C 
ATOM     27  N   LIG d   1      10.638   6.212  -2.097  0.00  0.00    -0.301 N 
ATOM     28  C   LIG d   1      11.671   5.348  -1.510  0.00  0.00     0.015 C 
ATOM     29  C   LIG d   1      10.466   7.570  -1.563  0.00  0.00     0.015 C 
ATOM     30  C   LIG d   1      11.460   5.286   0.006  0.00  0.00    -0.035 C 
ATOM     31  H   LIG d   1      12.657   5.760  -1.725  0.00  0.00     0.046 H 
ATOM     32  H   LIG d   1      11.593   4.345  -1.931  0.00  0.00     0.046 H 
ATOM     33  C   LIG d   1      11.433   6.708   0.573  0.00  0.00    -0.041 C 
ATOM     34  H   LIG d   1      12.277   4.728   0.465  0.00  0.00     0.028 H 
ATOM     35  H   LIG d   1      10.514   4.791   0.222  0.00  0.00     0.028 H 
ATOM     36  C   LIG d   1      10.267   7.483  -0.047  0.00  0.00    -0.035 C 
ATOM     37  H   LIG d   1      12.370   7.212   0.335  0.00  0.00     0.030 H 
ATOM     38  H   LIG d   1       9.332   6.967   0.169  0.00  0.00     0.028 H 
ATOM     39  H   LIG d   1      10.234   8.487   0.375  0.00  0.00     0.028 H 
ATOM     40  H   LIG d   1       9.591   8.034  -2.020  0.00  0.00     0.046 H 
ATOM     41  H   LIG d   1      11.352   8.164  -1.782  0.00  0.00     0.046 H 
ATOM     42  O   LIG d   1       9.014   6.489  -3.582  0.00  0.00    -0.276 OA
BRANCH  33  43
ATOM     43  C   LIG d   1      11.256   6.649   2.091  0.00  0.00    -0.062 C 
ATOM     44  H   LIG d   1      10.773   5.711   2.364  0.00  0.00     0.023 H 
ATOM     45  H   LIG d   1      12.232   6.710   2.573  0.00  0.00     0.023 H 
ATOM     46  H   LIG d   1      10.638   7.485   2.418  0.00  0.00     0.023 H 
ENDBRANCH  33  43
ENDBRANCH  23  26
ENDBRANCH   1  23
BRANCH  11  47
ATOM     47  C   LIG d   1      11.619   3.538  -5.865  0.00  0.00    -0.059 C 
ATOM     48  H   LIG d   1      12.177   3.893  -4.999  0.00  0.00     0.024 H 
ATOM     49  H   LIG d   1      11.262   2.524  -5.677  0.00  0.00     0.024 H 
ATOM     50  H   LIG d   1      12.267   3.537  -6.741  0.00  0.00     0.024 H 
ENDBRANCH  11  47
BRANCH  16  51
ATOM     51  C   LIG d   1      10.164   4.214  -9.955  0.00  0.00    -0.055 C 
ATOM     52  H   LIG d   1       9.754   5.140 -10.358  0.00  0.00     0.024 H 
ATOM     53  H   LIG d   1      10.915   3.821 -10.641  0.00  0.00     0.024 H 
ATOM     54  H   LIG d   1       9.363   3.483  -9.835  0.00  0.00     0.024 H 
ENDBRANCH  16  51
BRANCH  16  55
ATOM     55  C   LIG d   1      12.056   3.616  -8.443  0.00  0.00     0.052 C 
ATOM     56  H   LIG d   1      12.784   4.127  -7.815  0.00  0.00     0.056 H 
ATOM     57  H   LIG d   1      11.779   2.667  -7.980  0.00  0.00     0.056 H 
BRANCH  55  58
ATOM     58  O   LIG d   1      12.626   3.369  -9.730  0.00  0.00    -0.394 OA
ATOM     59  H   LIG d   1      12.111   3.730 -10.464  0.00  0.00     0.209 HD
ENDBRANCH  55  58
ENDBRANCH  16  55
BRANCH   6  60
ATOM     60  N   LIG d   1       6.846   0.294  -3.420  0.00  0.00    -0.265 N 
ATOM     61  C   LIG d   1       5.607   0.669  -3.047  0.00  0.00     0.219 C 
ATOM     62  O   LIG d   1       5.113   1.677  -3.508  0.00  0.00    -0.275 OA
ATOM     63  H   LIG d   1       7.241  -0.512  -3.052  0.00  0.00     0.157 HD
BRANCH  61  64
ATOM     64  C   LIG d   1       4.834  -0.163  -2.057  0.00  0.00     0.029 C 
ATOM     65  H   LIG d   1       5.530  -0.730  -1.438  0.00  0.00     0.036 H 
ATOM     66  H   LIG d   1       4.234   0.490  -1.424  0.00  0.00     0.036 H 
BRANCH  64  67
ATOM     67  C   LIG d   1       3.916  -1.129  -2.809  0.00  0.00    -0.029 C 
BRANCH  67  68
ATOM     68  C   LIG d   1       3.781  -2.428  -2.010  0.00  0.00    -0.060 C 
ATOM     69  H   LIG d   1       4.170  -2.278  -1.004  0.00  0.00     0.024 H 
ATOM     70  H   LIG d   1       2.730  -2.711  -1.955  0.00  0.00     0.024 H 
ATOM     71  H   LIG d   1       4.345  -3.219  -2.505  0.00  0.00     0.024 H 
ENDBRANCH  67  68
BRANCH  67  72
ATOM     72  C   LIG d   1       2.535  -0.491  -2.981  0.00  0.00    -0.060 C 
ATOM     73  H   LIG d   1       1.797  -1.069  -2.427  0.00  0.00     0.024 H 
ATOM     74  H   LIG d   1       2.558   0.530  -2.600  0.00  0.00     0.024 H 
ATOM     75  H   LIG d   1       2.270  -0.477  -4.038  0.00  0.00     0.024 H 
ENDBRANCH  67  72
BRANCH  67  76
ATOM     76  C   LIG d   1       4.512  -1.434  -4.184  0.00  0.00    -0.060 C 
ATOM     77  H   LIG d   1       4.822  -2.479  -4.221  0.00  0.00     0.024 H 
ATOM     78  H   LIG d   1       3.763  -1.249  -4.953  0.00  0.00     0.024 H 
ATOM     79  H   LIG d   1       5.376  -0.792  -4.355  0.00  0.00     0.024 H 
ENDBRANCH  67  76
ENDBRANCH  64  67
ENDBRANCH  61  64
ENDBRANCH   6  60
BRANCH  14  80
ATOM     80  O   LIG d   1      12.132   6.262  -9.570  0.00  0.00    -0.391 OA
ATOM     81  H   LIG d   1      12.665   7.052  -9.411  0.00  0.00     0.210 HD
ENDBRANCH  14  80
TORSDOF 14
ENDMDL
MODEL 3
REMARK VINA RESULT:      -5.7      4.284      6.810
REMARK  14 active torsions:
REMARK  status: ('A' for Active; 'I' for Inactive)
REMARK    1  A    between atoms: C_1  and  C_2 
REMARK       I    between atoms: N_5  and  C_8 
REMARK    2  A    between atoms: C_8  and  C_10 
REMARK    3  A    between atoms: C_10  and  C_11 
REMARK    4  A    between atoms: C_16  and  N_18 
REMARK       I    between atoms: N_18  and  C_19 
REMARK    5  A    between atoms: C_19  and  C_21 
REMARK    6  A    between atoms: C_21  and  C_22 
REMARK    7  A    between atoms: C_22  and  C_23 
REMARK    8  A    between atoms: C_22  and  C_24 
REMARK    9  A    between atoms: C_22  and  C_25 
REMARK   10  A    between atoms: C_29  and  C_39 
REMARK   11  A    between atoms: C_32  and  O_38 
REMARK   12  A    between atoms: C_34  and  C_35 
REMARK   13  A    between atoms: C_34  and  C_36 
REMARK   14  A    between atoms: C_36  and  O_37 
ROOT
ATOM      1  C   LIG d   1      10.124   6.058  -3.314  0.00  0.00     0.016 C 
ATOM      2  H   LIG d   1       9.140   5.729  -2.981  0.00  0.00     0.037 H 
ATOM      3  C   LIG d   1       9.967   7.185  -4.325  0.00  0.00     0.058 A 
ATOM      4  C   LIG d   1      10.161   8.473  -3.943  0.00  0.00     0.015 A 
ATOM      5  S   LIG d   1       9.862   9.371  -5.442  0.00  0.00    -0.057 SA
ATOM      6  C   LIG d   1       9.511   7.997  -6.448  0.00  0.00     0.165 A 
ATOM      7  N   LIG d   1       9.642   6.997  -5.601  0.00  0.00    -0.229 NA
ATOM      8  C   LIG d   1      10.530   8.976  -2.593  0.00  0.00    -0.016 C 
ATOM      9  C   LIG d   1      10.321   7.849  -1.563  0.00  0.00    -0.021 C 
ATOM     10  H   LIG d   1       9.256   7.708  -1.376  0.00  0.00     0.032 H 
ATOM     11  C   LIG d   1      10.931   6.557  -2.109  0.00  0.00    -0.019 C 
ATOM     12  C   LIG d   1      10.885   5.460  -1.040  0.00  0.00    -0.044 C 
ATOM     13  C   LIG d   1      11.630   5.908   0.216  0.00  0.00    -0.026 C 
ATOM     14  C   LIG d   1      10.950   7.164   0.769  0.00  0.00     0.063 C 
ATOM     15  H   LIG d   1       9.904   6.947   0.989  0.00  0.00     0.060 H 
ATOM     16  C   LIG d   1      11.038   8.272  -0.277  0.00  0.00     0.021 C 
ATOM     17  H   LIG d   1      11.577   9.281  -2.591  0.00  0.00     0.032 H 
ATOM     18  H   LIG d   1       9.901   9.829  -2.336  0.00  0.00     0.032 H 
ATOM     19  H   LIG d   1       9.847   5.247  -0.787  0.00  0.00     0.027 H 
ATOM     20  H   LIG d   1      11.351   4.555  -1.431  0.00  0.00     0.027 H 
ATOM     21  H   LIG d   1      11.598   5.116   0.963  0.00  0.00     0.029 H 
ATOM     22  H   LIG d   1      12.666   6.135  -0.035  0.00  0.00     0.029 H 
ENDROOT
BRANCH   1  23
ATOM     23  C   LIG d   1      10.857   4.886  -3.968  0.00  0.00     0.033 C 
ATOM     24  H   LIG d   1      11.722   4.614  -3.363  0.00  0.00     0.036 H 
ATOM     25  H   LIG d   1      11.189   5.175  -4.966  0.00  0.00     0.036 H 
BRANCH  23  26
ATOM     26  C   LIG d   1       9.927   3.704  -4.072  0.00  0.00     0.216 C 
ATOM     27  N   LIG d   1       9.921   2.946  -5.185  0.00  0.00    -0.301 N 
ATOM     28  C   LIG d   1      10.818   3.258  -6.307  0.00  0.00     0.015 C 
ATOM     29  C   LIG d   1       9.020   1.791  -5.301  0.00  0.00     0.015 C 
ATOM     30  C   LIG d   1       9.983   3.378  -7.587  0.00  0.00    -0.035 C 
ATOM     31  H   LIG d   1      11.550   2.458  -6.423  0.00  0.00     0.046 H 
ATOM     32  H   LIG d   1      11.330   4.200  -6.116  0.00  0.00     0.046 H 
ATOM     33  C   LIG d   1       9.159   2.101  -7.776  0.00  0.00    -0.041 C 
ATOM     34  H   LIG d   1      10.645   3.512  -8.442  0.00  0.00     0.028 H 
ATOM     35  H   LIG d   1       9.314   4.234  -7.505  0.00  0.00     0.028 H 
ATOM     36  C   LIG d   1       8.205   1.929  -6.591  0.00  0.00    -0.035 C 
ATOM     37  H   LIG d   1       9.827   1.242  -7.831  0.00  0.00     0.030 H 
ATOM     38  H   LIG d   1       7.553   2.799  -6.518  0.00  0.00     0.028 H 
ATOM     39  H   LIG d   1       7.602   1.033  -6.737  0.00  0.00     0.028 H 
ATOM     40  H   LIG d   1       8.346   1.767  -4.444  0.00  0.00     0.046 H 
ATOM     41  H   LIG d   1       9.605   0.873  -5.334  0.00  0.00     0.046 H 
ATOM     42  O   LIG d   1       9.183   3.437  -3.152  0.00  0.00    -0.276 OA
BRANCH  33  43
ATOM     43  C   LIG d   1       8.349   2.204  -9.070  0.00  0.00    -0.062 C 
ATOM     44  H   LIG d   1       8.812   2.937  -9.730  0.00  0.00     0.023 H 
ATOM     45  H   LIG d   1       8.328   1.232  -9.563  0.00  0.00     0.023 H 
ATOM     46  H   LIG d   1       7.331   2.516  -8.839  0.00  0.00     0.023 H 
ENDBRANCH  33  43
ENDBRANCH  23  26
ENDBRANCH   1  23
BRANCH  11  47
ATOM     47  C   LIG d   1      12.379   6.813  -2.533  0.00  0.00    -0.059 C 
ATOM     48  H   LIG d   1      13.055   6.331  -1.826  0.00  0.00     0.024 H 
ATOM     49  H   LIG d   1      12.543   6.403  -3.529  0.00  0.00     0.024 H 
ATOM     50  H   LIG d   1      12.571   7.886  -2.545  0.00  0.00     0.024 H 
ENDBRANCH  11  47
BRANCH  16  51
ATOM     51  C   LIG d   1      10.384   9.541   0.274  0.00  0.00    -0.055 C 
ATOM     52  H   LIG d   1      10.539  10.363  -0.424  0.00  0.00     0.024 H 
ATOM     53  H   LIG d   1       9.315   9.372   0.406  0.00  0.00     0.024 H 
ATOM     54  H   LIG d   1      10.834   9.792   1.236  0.00  0.00     0.024 H 
ENDBRANCH  16  51
BRANCH  16  55
ATOM     55  C   LIG d   1      12.508   8.558  -0.588  0.00  0.00     0.052 C 
ATOM     56  H   LIG d   1      13.086   7.639  -0.490  0.00  0.00     0.056 H 
ATOM     57  H   LIG d   1      12.597   8.936  -1.607  0.00  0.00     0.056 H 
BRANCH  55  58
ATOM     58  O   LIG d   1      13.008   9.536   0.327  0.00  0.00    -0.394 OA
ATOM     59  H   LIG d   1      13.265  10.369  -0.090  0.00  0.00     0.209 HD
ENDBRANCH  55  58
ENDBRANCH  16  55
BRANCH   6  60
ATOM     60  N   LIG d   1       9.179   7.963  -7.797  0.00  0.00    -0.265 N 
ATOM     61  C   LIG d   1      10.150   7.877  -8.727  0.00  0.00     0.219 C 
ATOM     62  O   LIG d   1      11.314   7.829  -8.388  0.00  0.00    -0.275 OA
ATOM     63  H   LIG d   1       8.249   8.001  -8.068  0.00  0.00     0.157 HD
BRANCH  61  64
ATOM     64  C   LIG d   1       9.790   7.841 -10.190  0.00  0.00     0.029 C 
ATOM     65  H   LIG d   1       8.911   8.461 -10.363  0.00  0.00     0.036 H 
ATOM     66  H   LIG d   1      10.624   8.220 -10.779  0.00  0.00     0.036 H 
BRANCH  64  67
ATOM     67  C   LIG d   1       9.487   6.399 -10.606  0.00  0.00    -0.029 C 
BRANCH  67  68
ATOM     68  C   LIG d   1       9.074   6.372 -12.079  0.00  0.00    -0.060 C 
ATOM     69  H   LIG d   1       8.068   5.961 -12.167  0.00  0.00     0.024 H 
ATOM     70  H   LIG d   1       9.087   7.386 -12.478  0.00  0.00     0.024 H 
ATOM     71  H   LIG d   1       9.771   5.751 -12.641  0.00  0.00     0.024 H 
ENDBRANCH  67  68
BRANCH  67  72
ATOM     72  C   LIG d   1      10.737   5.539 -10.410  0.00  0.00    -0.060 C 
ATOM     73  H   LIG d   1      10.530   4.519 -10.734  0.00  0.00     0.024 H 
ATOM     74  H   LIG d   1      11.555   5.947 -11.002  0.00  0.00     0.024 H 
ATOM     75  H   LIG d   1      11.016   5.537  -9.357  0.00  0.00     0.024 H 
ENDBRANCH  67  72
BRANCH  67  76
ATOM     76  C   LIG d   1       8.348   5.849  -9.746  0.00  0.00    -0.060 C 
ATOM     77  H   LIG d   1       7.472   6.489  -9.851  0.00  0.00     0.024 H 
ATOM     78  H   LIG d   1       8.103   4.838 -10.072  0.00  0.00     0.024 H 
ATOM     79  H   LIG d   1       8.660   5.829  -8.701  0.00  0.00     0.024 H 
ENDBRANCH  67  76
ENDBRANCH  64  67
ENDBRANCH  61  64
ENDBRANCH   6  60
BRANCH  14  80
ATOM     80  O   LIG d   1      11.613   7.581   1.965  0.00  0.00    -0.391 OA
ATOM     81  H   LIG d   1      11.019   7.726   2.714  0.00  0.00     0.210 HD
ENDBRANCH  14  80
TORSDOF 14
ENDMDL
MODEL 4
REMARK VINA RESULT:      -5.6      4.913      8.845
REMARK  14 active torsions:
REMARK  status: ('A' for Active; 'I' for Inactive)
REMARK    1  A    between atoms: C_1  and  C_2 
REMARK       I    between atoms: N_5  and  C_8 
REMARK    2  A    between atoms: C_8  and  C_10 
REMARK    3  A    between atoms: C_10  and  C_11 
REMARK    4  A    between atoms: C_16  and  N_18 
REMARK       I    between atoms: N_18  and  C_19 
REMARK    5  A    between atoms: C_19  and  C_21 
REMARK    6  A    between atoms: C_21  and  C_22 
REMARK    7  A    between atoms: C_22  and  C_23 
REMARK    8  A    between atoms: C_22  and  C_24 
REMARK    9  A    between atoms: C_22  and  C_25 
REMARK   10  A    between atoms: C_29  and  C_39 
REMARK   11  A    between atoms: C_32  and  O_38 
REMARK   12  A    between atoms: C_34  and  C_35 
REMARK   13  A    between atoms: C_34  and  C_36 
REMARK   14  A    between atoms: C_36  and  O_37 
ROOT
ATOM      1  C   LIG d   1       6.038  -4.696  -6.222  0.00  0.00     0.016 C 
ATOM      2  H   LIG d   1       7.045  -4.314  -6.391  0.00  0.00     0.037 H 
ATOM      3  C   LIG d   1       5.151  -4.331  -7.402  0.00  0.00     0.058 A 
ATOM      4  C   LIG d   1       4.861  -5.260  -8.349  0.00  0.00     0.015 A 
ATOM      5  S   LIG d   1       3.831  -4.358  -9.475  0.00  0.00    -0.057 SA
ATOM      6  C   LIG d   1       3.858  -2.843  -8.623  0.00  0.00     0.165 A 
ATOM      7  N   LIG d   1       4.619  -3.125  -7.586  0.00  0.00    -0.229 NA
ATOM      8  C   LIG d   1       5.312  -6.677  -8.401  0.00  0.00    -0.016 C 
ATOM      9  C   LIG d   1       6.468  -6.872  -7.402  0.00  0.00    -0.021 C 
ATOM     10  H   LIG d   1       7.379  -6.418  -7.793  0.00  0.00     0.032 H 
ATOM     11  C   LIG d   1       6.090  -6.222  -6.070  0.00  0.00    -0.019 C 
ATOM     12  C   LIG d   1       7.148  -6.542  -5.008  0.00  0.00    -0.044 C 
ATOM     13  C   LIG d   1       7.291  -8.053  -4.838  0.00  0.00    -0.026 C 
ATOM     14  C   LIG d   1       7.735  -8.658  -6.173  0.00  0.00     0.063 C 
ATOM     15  H   LIG d   1       8.677  -8.207  -6.484  0.00  0.00     0.060 H 
ATOM     16  C   LIG d   1       6.659  -8.381  -7.220  0.00  0.00     0.021 C 
ATOM     17  H   LIG d   1       4.484  -7.332  -8.133  0.00  0.00     0.032 H 
ATOM     18  H   LIG d   1       5.654  -6.914  -9.409  0.00  0.00     0.032 H 
ATOM     19  H   LIG d   1       8.105  -6.121  -5.315  0.00  0.00     0.027 H 
ATOM     20  H   LIG d   1       6.850  -6.099  -4.058  0.00  0.00     0.027 H 
ATOM     21  H   LIG d   1       8.039  -8.265  -4.074  0.00  0.00     0.029 H 
ATOM     22  H   LIG d   1       6.333  -8.480  -4.544  0.00  0.00     0.029 H 
ENDROOT
BRANCH   1  23
ATOM     23  C   LIG d   1       5.467  -4.076  -4.945  0.00  0.00     0.033 C 
ATOM     24  H   LIG d   1       5.489  -4.813  -4.141  0.00  0.00     0.036 H 
ATOM     25  H   LIG d   1       4.439  -3.762  -5.121  0.00  0.00     0.036 H 
BRANCH  23  26
ATOM     26  C   LIG d   1       6.297  -2.881  -4.550  0.00  0.00     0.216 C 
ATOM     27  N   LIG d   1       5.883  -2.071  -3.557  0.00  0.00    -0.301 N 
ATOM     28  C   LIG d   1       4.625  -2.342  -2.846  0.00  0.00     0.015 C 
ATOM     29  C   LIG d   1       6.681  -0.903  -3.161  0.00  0.00     0.015 C 
ATOM     30  C   LIG d   1       3.755  -1.082  -2.889  0.00  0.00    -0.035 C 
ATOM     31  H   LIG d   1       4.840  -2.602  -1.810  0.00  0.00     0.046 H 
ATOM     32  H   LIG d   1       4.100  -3.165  -3.331  0.00  0.00     0.046 H 
ATOM     33  C   LIG d   1       4.549   0.103  -2.332  0.00  0.00    -0.041 C 
ATOM     34  H   LIG d   1       2.862  -1.236  -2.283  0.00  0.00     0.028 H 
ATOM     35  H   LIG d   1       3.465  -0.874  -3.919  0.00  0.00     0.028 H 
ATOM     36  C   LIG d   1       5.787   0.341  -3.202  0.00  0.00    -0.035 C 
ATOM     37  H   LIG d   1       4.860  -0.116  -1.311  0.00  0.00     0.030 H 
ATOM     38  H   LIG d   1       5.479   0.535  -4.229  0.00  0.00     0.028 H 
ATOM     39  H   LIG d   1       6.340   1.199  -2.819  0.00  0.00     0.028 H 
ATOM     40  H   LIG d   1       7.512  -0.776  -3.855  0.00  0.00     0.046 H 
ATOM     41  H   LIG d   1       7.063  -1.046  -2.151  0.00  0.00     0.046 H 
ATOM     42  O   LIG d   1       7.336  -2.648  -5.129  0.00  0.00    -0.276 OA
BRANCH  33  43
ATOM     43  C   LIG d   1       3.671   1.356  -2.342  0.00  0.00    -0.062 C 
ATOM     44  H   LIG d   1       3.624   1.774  -1.337  0.00  0.00     0.023 H 
ATOM     45  H   LIG d   1       4.097   2.092  -3.024  0.00  0.00     0.023 H 
ATOM     46  H   LIG d   1       2.667   1.093  -2.673  0.00  0.00     0.023 H 
ENDBRANCH  33  43
ENDBRANCH  23  26
ENDBRANCH   1  23
BRANCH  11  47
ATOM     47  C   LIG d   1       4.723  -6.738  -5.617  0.00  0.00    -0.059 C 
ATOM     48  H   LIG d   1       4.660  -6.696  -4.530  0.00  0.00     0.024 H 
ATOM     49  H   LIG d   1       3.939  -6.116  -6.050  0.00  0.00     0.024 H 
ATOM     50  H   LIG d   1       4.594  -7.768  -5.949  0.00  0.00     0.024 H 
ENDBRANCH  11  47
BRANCH  16  51
ATOM     51  C   LIG d   1       7.078  -9.004  -8.553  0.00  0.00    -0.055 C 
ATOM     52  H   LIG d   1       6.222  -9.030  -9.227  0.00  0.00     0.024 H 
ATOM     53  H   LIG d   1       7.874  -8.408  -8.998  0.00  0.00     0.024 H 
ATOM     54  H   LIG d   1       7.436 -10.020  -8.381  0.00  0.00     0.024 H 
ENDBRANCH  16  51
BRANCH  16  55
ATOM     55  C   LIG d   1       5.338  -9.006  -6.765  0.00  0.00     0.052 C 
ATOM     56  H   LIG d   1       5.288  -8.998  -5.676  0.00  0.00     0.056 H 
ATOM     57  H   LIG d   1       4.506  -8.432  -7.172  0.00  0.00     0.056 H 
BRANCH  55  58
ATOM     58  O   LIG d   1       5.262 -10.354  -7.235  0.00  0.00    -0.394 OA
ATOM     59  H   LIG d   1       5.781 -10.522  -8.033  0.00  0.00     0.209 HD
ENDBRANCH  55  58
ENDBRANCH  16  55
BRANCH   6  60
ATOM     60  N   LIG d   1       3.236  -1.644  -8.951  0.00  0.00    -0.265 N 
ATOM     61  C   LIG d   1       3.816  -0.804  -9.830  0.00  0.00     0.219 C 
ATOM     62  O   LIG d   1       4.881  -1.093 -10.335  0.00  0.00    -0.275 OA
ATOM     63  H   LIG d   1       2.385  -1.413  -8.548  0.00  0.00     0.157 HD
BRANCH  61  64
ATOM     64  C   LIG d   1       3.143   0.496 -10.186  0.00  0.00     0.029 C 
ATOM     65  H   LIG d   1       3.405   0.773 -11.207  0.00  0.00     0.036 H 
ATOM     66  H   LIG d   1       2.062   0.380 -10.106  0.00  0.00     0.036 H 
BRANCH  64  67
ATOM     67  C   LIG d   1       3.609   1.592  -9.225  0.00  0.00    -0.029 C 
BRANCH  67  68
ATOM     68  C   LIG d   1       5.092   1.392  -8.905  0.00  0.00    -0.060 C 
ATOM     69  H   LIG d   1       5.195   0.989  -7.898  0.00  0.00     0.024 H 
ATOM     70  H   LIG d   1       5.526   0.694  -9.621  0.00  0.00     0.024 H 
ATOM     71  H   LIG d   1       5.610   2.348  -8.969  0.00  0.00     0.024 H 
ENDBRANCH  67  68
BRANCH  67  72
ATOM     72  C   LIG d   1       3.408   2.962  -9.878  0.00  0.00    -0.060 C 
ATOM     73  H   LIG d   1       2.373   3.277  -9.750  0.00  0.00     0.024 H 
ATOM     74  H   LIG d   1       4.070   3.689  -9.407  0.00  0.00     0.024 H 
ATOM     75  H   LIG d   1       3.640   2.895 -10.941  0.00  0.00     0.024 H 
ENDBRANCH  67  72
BRANCH  67  76
ATOM     76  C   LIG d   1       2.793   1.519  -7.933  0.00  0.00    -0.060 C 
ATOM     77  H   LIG d   1       2.095   0.683  -7.992  0.00  0.00     0.024 H 
ATOM     78  H   LIG d   1       3.464   1.373  -7.087  0.00  0.00     0.024 H 
ATOM     79  H   LIG d   1       2.237   2.447  -7.801  0.00  0.00     0.024 H 
ENDBRANCH  67  76
ENDBRANCH  64  67
ENDBRANCH  61  64
ENDBRANCH   6  60
BRANCH  14  80
ATOM     80  O   LIG d   1       7.907 -10.070  -6.025  0.00  0.00    -0.391 OA
ATOM     81  H   LIG d   1       7.586 -10.419  -5.183  0.00  0.00     0.210 HD
ENDBRANCH  14  80
TORSDOF 14
ENDMDL
MODEL 5
REMARK VINA RESULT:      -5.4      5.160     10.708
REMARK  14 active torsions:
REMARK  status: ('A' for Active; 'I' for Inactive)
REMARK    1  A    between atoms: C_1  and  C_2 
REMARK       I    between atoms: N_5  and  C_8 
REMARK    2  A    between atoms: C_8  and  C_10 
REMARK    3  A    between atoms: C_10  and  C_11 
REMARK    4  A    between atoms: C_16  and  N_18 
REMARK       I    between atoms: N_18  and  C_19 
REMARK    5  A    between atoms: C_19  and  C_21 
REMARK    6  A    between atoms: C_21  and  C_22 
REMARK    7  A    between atoms: C_22  and  C_23 
REMARK    8  A    between atoms: C_22  and  C_24 
REMARK    9  A    between atoms: C_22  and  C_25 
REMARK   10  A    between atoms: C_29  and  C_39 
REMARK   11  A    between atoms: C_32  and  O_38 
REMARK   12  A    between atoms: C_34  and  C_35 
REMARK   13  A    between atoms: C_34  and  C_36 
REMARK   14  A    between atoms: C_36  and  O_37 
ROOT
ATOM      1  C   LIG d   1       9.875   6.323  -5.033  0.00  0.00     0.016 C 
ATOM      2  H   LIG d   1       8.862   6.628  -5.294  0.00  0.00     0.037 H 
ATOM      3  C   LIG d   1      10.109   6.558  -3.549  0.00  0.00     0.058 A 
ATOM      4  C   LIG d   1      10.052   5.519  -2.677  0.00  0.00     0.015 A 
ATOM      5  S   LIG d   1      10.379   6.299  -1.120  0.00  0.00    -0.057 SA
ATOM      6  C   LIG d   1      10.567   7.917  -1.727  0.00  0.00     0.165 A 
ATOM      7  N   LIG d   1      10.374   7.750  -3.019  0.00  0.00    -0.229 NA
ATOM      8  C   LIG d   1       9.779   4.089  -2.984  0.00  0.00    -0.016 C 
ATOM      9  C   LIG d   1       9.207   3.982  -4.410  0.00  0.00    -0.021 C 
ATOM     10  H   LIG d   1       8.174   4.331  -4.425  0.00  0.00     0.032 H 
ATOM     11  C   LIG d   1      10.059   4.834  -5.353  0.00  0.00    -0.019 C 
ATOM     12  C   LIG d   1       9.616   4.618  -6.804  0.00  0.00    -0.044 C 
ATOM     13  C   LIG d   1       9.725   3.141  -7.180  0.00  0.00    -0.026 C 
ATOM     14  C   LIG d   1       8.808   2.330  -6.259  0.00  0.00     0.063 C 
ATOM     15  H   LIG d   1       7.783   2.687  -6.358  0.00  0.00     0.060 H 
ATOM     16  C   LIG d   1       9.279   2.507  -4.817  0.00  0.00     0.021 C 
ATOM     17  H   LIG d   1      10.706   3.519  -2.919  0.00  0.00     0.032 H 
ATOM     18  H   LIG d   1       9.057   3.694  -2.269  0.00  0.00     0.032 H 
ATOM     19  H   LIG d   1       8.582   4.944  -6.917  0.00  0.00     0.027 H 
ATOM     20  H   LIG d   1      10.251   5.206  -7.466  0.00  0.00     0.027 H 
ATOM     21  H   LIG d   1       9.417   3.004  -8.216  0.00  0.00     0.029 H 
ATOM     22  H   LIG d   1      10.755   2.807  -7.055  0.00  0.00     0.029 H 
ENDROOT
BRANCH   1  23
ATOM     23  C   LIG d   1      10.879   7.146  -5.843  0.00  0.00     0.033 C 
ATOM     24  H   LIG d   1      11.308   6.524  -6.630  0.00  0.00     0.036 H 
ATOM     25  H   LIG d   1      11.673   7.500  -5.187  0.00  0.00     0.036 H 
BRANCH  23  26
ATOM     26  C   LIG d   1      10.177   8.326  -6.465  0.00  0.00     0.216 C 
ATOM     27  N   LIG d   1      10.804   9.515  -6.550  0.00  0.00    -0.301 N 
ATOM     28  C   LIG d   1      12.174   9.676  -6.043  0.00  0.00     0.015 C 
ATOM     29  C   LIG d   1      10.133  10.675  -7.153  0.00  0.00     0.015 C 
ATOM     30  C   LIG d   1      12.203  10.857  -5.066  0.00  0.00    -0.035 C 
ATOM     31  H   LIG d   1      12.850   9.874  -6.874  0.00  0.00     0.046 H 
ATOM     32  H   LIG d   1      12.483   8.768  -5.526  0.00  0.00     0.046 H 
ATOM     33  C   LIG d   1      11.637  12.100  -5.758  0.00  0.00    -0.041 C 
ATOM     34  H   LIG d   1      13.230  11.049  -4.757  0.00  0.00     0.028 H 
ATOM     35  H   LIG d   1      11.597  10.620  -4.192  0.00  0.00     0.028 H 
ATOM     36  C   LIG d   1      10.183  11.844  -6.163  0.00  0.00    -0.035 C 
ATOM     37  H   LIG d   1      12.228  12.322  -6.647  0.00  0.00     0.030 H 
ATOM     38  H   LIG d   1       9.597  11.597  -5.279  0.00  0.00     0.028 H 
ATOM     39  H   LIG d   1       9.774  12.737  -6.634  0.00  0.00     0.028 H 
ATOM     40  H   LIG d   1       9.094  10.424  -7.368  0.00  0.00     0.046 H 
ATOM     41  H   LIG d   1      10.642  10.954  -8.074  0.00  0.00     0.046 H 
ATOM     42  O   LIG d   1       9.047   8.205  -6.887  0.00  0.00    -0.276 OA
BRANCH  33  43
ATOM     43  C   LIG d   1      11.696  13.289  -4.796  0.00  0.00    -0.062 C 
ATOM     44  H   LIG d   1      10.691  13.521  -4.445  0.00  0.00     0.023 H 
ATOM     45  H   LIG d   1      12.330  13.038  -3.947  0.00  0.00     0.023 H 
ATOM     46  H   LIG d   1      12.108  14.155  -5.314  0.00  0.00     0.023 H 
ENDBRANCH  33  43
ENDBRANCH  23  26
ENDBRANCH   1  23
BRANCH  11  47
ATOM     47  C   LIG d   1      11.533   4.454  -5.195  0.00  0.00    -0.059 C 
ATOM     48  H   LIG d   1      11.619   3.375  -5.073  0.00  0.00     0.024 H 
ATOM     49  H   LIG d   1      12.084   4.763  -6.084  0.00  0.00     0.024 H 
ATOM     50  H   LIG d   1      11.946   4.954  -4.319  0.00  0.00     0.024 H 
ENDBRANCH  11  47
BRANCH  16  51
ATOM     51  C   LIG d   1       8.387   1.680  -3.889  0.00  0.00    -0.055 C 
ATOM     52  H   LIG d   1       7.714   1.065  -4.486  0.00  0.00     0.024 H 
ATOM     53  H   LIG d   1       9.008   1.039  -3.264  0.00  0.00     0.024 H 
ATOM     54  H   LIG d   1       7.802   2.350  -3.257  0.00  0.00     0.024 H 
ENDBRANCH  16  51
BRANCH  16  55
ATOM     55  C   LIG d   1      10.724   2.018  -4.694  0.00  0.00     0.052 C 
ATOM     56  H   LIG d   1      11.228   2.127  -5.654  0.00  0.00     0.056 H 
ATOM     57  H   LIG d   1      11.244   2.611  -3.941  0.00  0.00     0.056 H 
BRANCH  55  58
ATOM     58  O   LIG d   1      10.730   0.643  -4.305  0.00  0.00    -0.394 OA
ATOM     59  H   LIG d   1      11.604   0.231  -4.329  0.00  0.00     0.209 HD
ENDBRANCH  55  58
ENDBRANCH  16  55
BRANCH   6  60
ATOM     60  N   LIG d   1      10.849   9.086  -1.029  0.00  0.00    -0.265 N 
ATOM     61  C   LIG d   1       9.843   9.841  -0.546  0.00  0.00     0.219 C 
ATOM     62  O   LIG d   1       8.691   9.501  -0.720  0.00  0.00    -0.275 OA
ATOM     63  H   LIG d   1      11.770   9.357  -0.890  0.00  0.00     0.157 HD
BRANCH  61  64
ATOM     64  C   LIG d   1      10.148  11.108   0.210  0.00  0.00     0.029 C 
ATOM     65  H   LIG d   1       9.255  11.437   0.741  0.00  0.00     0.036 H 
ATOM     66  H   LIG d   1      10.949  10.921   0.925  0.00  0.00     0.036 H 
BRANCH  64  67
ATOM     67  C   LIG d   1      10.586  12.196  -0.773  0.00  0.00    -0.029 C 
BRANCH  67  68
ATOM     68  C   LIG d   1      10.362  13.572  -0.142  0.00  0.00    -0.060 C 
ATOM     69  H   LIG d   1       9.293  13.758  -0.044  0.00  0.00     0.024 H 
ATOM     70  H   LIG d   1      10.826  13.598   0.844  0.00  0.00     0.024 H 
ATOM     71  H   LIG d   1      10.809  14.339  -0.773  0.00  0.00     0.024 H 
ENDBRANCH  67  68
BRANCH  67  72
ATOM     72  C   LIG d   1      12.071  12.021  -1.100  0.00  0.00    -0.060 C 
ATOM     73  H   LIG d   1      12.672  12.476  -0.313  0.00  0.00     0.024 H 
ATOM     74  H   LIG d   1      12.305  10.958  -1.166  0.00  0.00     0.024 H 
ATOM     75  H   LIG d   1      12.293  12.501  -2.053  0.00  0.00     0.024 H 
ENDBRANCH  67  72
BRANCH  67  76
ATOM     76  C   LIG d   1       9.764  12.084  -2.058  0.00  0.00    -0.060 C 
ATOM     77  H   LIG d   1       8.792  12.554  -1.909  0.00  0.00     0.024 H 
ATOM     78  H   LIG d   1      10.291  12.585  -2.871  0.00  0.00     0.024 H 
ATOM     79  H   LIG d   1       9.625  11.032  -2.309  0.00  0.00     0.024 H 
ENDBRANCH  67  76
ENDBRANCH  64  67
ENDBRANCH  61  64
ENDBRANCH   6  60
BRANCH  14  80
ATOM     80  O   LIG d   1       8.871   0.948  -6.617  0.00  0.00    -0.391 OA
ATOM     81  H   LIG d   1       8.671   0.773  -7.547  0.00  0.00     0.210 HD
ENDBRANCH  14  80
TORSDOF 14
ENDMDL
MODEL 6
REMARK VINA RESULT:      -5.3      4.883      7.267
REMARK  14 active torsions:
REMARK  status: ('A' for Active; 'I' for Inactive)
REMARK    1  A    between atoms: C_1  and  C_2 
REMARK       I    between atoms: N_5  and  C_8 
REMARK    2  A    between atoms: C_8  and  C_10 
REMARK    3  A    between atoms: C_10  and  C_11 
REMARK    4  A    between atoms: C_16  and  N_18 
REMARK       I    between atoms: N_18  and  C_19 
REMARK    5  A    between atoms: C_19  and  C_21 
REMARK    6  A    between atoms: C_21  and  C_22 
REMARK    7  A    between atoms: C_22  and  C_23 
REMARK    8  A    between atoms: C_22  and  C_24 
REMARK    9  A    between atoms: C_22  and  C_25 
REMARK   10  A    between atoms: C_29  and  C_39 
REMARK   11  A    between atoms: C_32  and  O_38 
REMARK   12  A    between atoms: C_34  and  C_35 
REMARK   13  A    between atoms: C_34  and  C_36 
REMARK   14  A    between atoms: C_36  and  O_37 
ROOT
ATOM      1  C   LIG d   1       4.624  -3.303  -5.731  0.00  0.00     0.016 C 
ATOM      2  H   LIG d   1       3.615  -3.696  -5.610  0.00  0.00     0.037 H 
ATOM      3  C   LIG d   1       4.778  -2.724  -7.130  0.00  0.00     0.058 A 
ATOM      4  C   LIG d   1       4.715  -1.381  -7.321  0.00  0.00     0.015 A 
ATOM      5  S   LIG d   1       4.941  -1.227  -9.072  0.00  0.00    -0.057 SA
ATOM      6  C   LIG d   1       5.103  -2.924  -9.416  0.00  0.00     0.165 A 
ATOM      7  N   LIG d   1       4.977  -3.460  -8.220  0.00  0.00    -0.229 NA
ATOM      8  C   LIG d   1       4.505  -0.325  -6.294  0.00  0.00    -0.016 C 
ATOM      9  C   LIG d   1       4.006  -0.982  -4.993  0.00  0.00    -0.021 C 
ATOM     10  H   LIG d   1       2.964  -1.283  -5.104  0.00  0.00     0.032 H 
ATOM     11  C   LIG d   1       4.873  -2.205  -4.689  0.00  0.00    -0.019 C 
ATOM     12  C   LIG d   1       4.508  -2.783  -3.318  0.00  0.00    -0.044 C 
ATOM     13  C   LIG d   1       4.685  -1.725  -2.230  0.00  0.00    -0.026 C 
ATOM     14  C   LIG d   1       3.752  -0.547  -2.533  0.00  0.00     0.063 C 
ATOM     15  H   LIG d   1       2.722  -0.899  -2.576  0.00  0.00     0.060 H 
ATOM     16  C   LIG d   1       4.147   0.058  -3.878  0.00  0.00     0.021 C 
ATOM     17  H   LIG d   1       5.447   0.190  -6.104  0.00  0.00     0.032 H 
ATOM     18  H   LIG d   1       3.763   0.390  -6.652  0.00  0.00     0.032 H 
ATOM     19  H   LIG d   1       3.470  -3.116  -3.332  0.00  0.00     0.027 H 
ATOM     20  H   LIG d   1       5.154  -3.633  -3.101  0.00  0.00     0.027 H 
ATOM     21  H   LIG d   1       4.431  -2.151  -1.260  0.00  0.00     0.029 H 
ATOM     22  H   LIG d   1       5.718  -1.379  -2.221  0.00  0.00     0.029 H 
ENDROOT
BRANCH   1  23
ATOM     23  C   LIG d   1       5.637  -4.432  -5.533  0.00  0.00     0.033 C 
ATOM     24  H   LIG d   1       6.157  -4.293  -4.585  0.00  0.00     0.036 H 
ATOM     25  H   LIG d   1       6.360  -4.420  -6.349  0.00  0.00     0.036 H 
BRANCH  23  26
ATOM     26  C   LIG d   1       4.918  -5.757  -5.521  0.00  0.00     0.216 C 
ATOM     27  N   LIG d   1       5.444  -6.817  -6.164  0.00  0.00    -0.301 N 
ATOM     28  C   LIG d   1       6.721  -6.696  -6.883  0.00  0.00     0.015 C 
ATOM     29  C   LIG d   1       4.755  -8.114  -6.161  0.00  0.00     0.015 C 
ATOM     30  C   LIG d   1       6.523  -7.183  -8.322  0.00  0.00    -0.035 C 
ATOM     31  H   LIG d   1       7.476  -7.309  -6.391  0.00  0.00     0.046 H 
ATOM     32  H   LIG d   1       7.040  -5.655  -6.890  0.00  0.00     0.046 H 
ATOM     33  C   LIG d   1       5.943  -8.599  -8.304  0.00  0.00    -0.041 C 
ATOM     34  H   LIG d   1       7.483  -7.191  -8.838  0.00  0.00     0.028 H 
ATOM     35  H   LIG d   1       5.836  -6.515  -8.841  0.00  0.00     0.028 H 
ATOM     36  C   LIG d   1       4.579  -8.584  -7.608  0.00  0.00    -0.035 C 
ATOM     37  H   LIG d   1       6.618  -9.262  -7.763  0.00  0.00     0.030 H 
ATOM     38  H   LIG d   1       3.910  -7.902  -8.133  0.00  0.00     0.028 H 
ATOM     39  H   LIG d   1       4.155  -9.588  -7.617  0.00  0.00     0.028 H 
ATOM     40  H   LIG d   1       3.777  -8.007  -5.691  0.00  0.00     0.046 H 
ATOM     41  H   LIG d   1       5.349  -8.842  -5.610  0.00  0.00     0.046 H 
ATOM     42  O   LIG d   1       3.864  -5.868  -4.931  0.00  0.00    -0.276 OA
BRANCH  33  43
ATOM     43  C   LIG d   1       5.776  -9.101  -9.740  0.00  0.00    -0.062 C 
ATOM     44  H   LIG d   1       5.379  -8.298 -10.361  0.00  0.00     0.023 H 
ATOM     45  H   LIG d   1       6.744  -9.418 -10.128  0.00  0.00     0.023 H 
ATOM     46  H   LIG d   1       5.086  -9.944  -9.753  0.00  0.00     0.023 H 
ENDBRANCH  33  43
ENDBRANCH  23  26
ENDBRANCH   1  23
BRANCH  11  47
ATOM     47  C   LIG d   1       6.350  -1.804  -4.711  0.00  0.00    -0.059 C 
ATOM     48  H   LIG d   1       6.590  -1.253  -3.802  0.00  0.00     0.024 H 
ATOM     49  H   LIG d   1       6.968  -2.701  -4.765  0.00  0.00     0.024 H 
ATOM     50  H   LIG d   1       6.545  -1.176  -5.580  0.00  0.00     0.024 H 
ENDBRANCH  11  47
BRANCH  16  51
ATOM     51  C   LIG d   1       3.240   1.253  -4.180  0.00  0.00    -0.055 C 
ATOM     52  H   LIG d   1       3.850   2.141  -4.342  0.00  0.00     0.024 H 
ATOM     53  H   LIG d   1       2.654   1.047  -5.075  0.00  0.00     0.024 H 
ATOM     54  H   LIG d   1       2.569   1.421  -3.336  0.00  0.00     0.024 H 
ENDBRANCH  16  51
BRANCH  16  55
ATOM     55  C   LIG d   1       5.600   0.534  -3.810  0.00  0.00     0.052 C 
ATOM     56  H   LIG d   1       6.211  -0.229  -3.330  0.00  0.00     0.056 H 
ATOM     57  H   LIG d   1       5.970   0.713  -4.821  0.00  0.00     0.056 H 
BRANCH  55  58
ATOM     58  O   LIG d   1       5.671   1.746  -3.056  0.00  0.00    -0.394 OA
ATOM     59  H   LIG d   1       4.808   2.116  -2.825  0.00  0.00     0.209 HD
ENDBRANCH  55  58
ENDBRANCH  16  55
BRANCH   6  60
ATOM     60  N   LIG d   1       5.311  -3.552 -10.638  0.00  0.00    -0.265 N 
ATOM     61  C   LIG d   1       4.262  -3.862 -11.424  0.00  0.00     0.219 C 
ATOM     62  O   LIG d   1       3.134  -3.593 -11.065  0.00  0.00    -0.275 OA
ATOM     63  H   LIG d   1       6.212  -3.766 -10.926  0.00  0.00     0.157 HD
BRANCH  61  64
ATOM     64  C   LIG d   1       4.487  -4.543 -12.749  0.00  0.00     0.029 C 
ATOM     65  H   LIG d   1       3.627  -4.371 -13.396  0.00  0.00     0.036 H 
ATOM     66  H   LIG d   1       5.383  -4.138 -13.218  0.00  0.00     0.036 H 
BRANCH  64  67
ATOM     67  C   LIG d   1       4.664  -6.047 -12.526  0.00  0.00    -0.029 C 
BRANCH  67  68
ATOM     68  C   LIG d   1       6.131  -6.344 -12.205  0.00  0.00    -0.060 C 
ATOM     69  H   LIG d   1       6.622  -5.432 -11.871  0.00  0.00     0.024 H 
ATOM     70  H   LIG d   1       6.184  -7.095 -11.416  0.00  0.00     0.024 H 
ATOM     71  H   LIG d   1       6.629  -6.721 -13.098  0.00  0.00     0.024 H 
ENDBRANCH  67  68
BRANCH  67  72
ATOM     72  C   LIG d   1       3.785  -6.496 -11.357  0.00  0.00    -0.060 C 
ATOM     73  H   LIG d   1       2.756  -6.605 -11.697  0.00  0.00     0.024 H 
ATOM     74  H   LIG d   1       4.145  -7.453 -10.978  0.00  0.00     0.024 H 
ATOM     75  H   LIG d   1       3.829  -5.752 -10.561  0.00  0.00     0.024 H 
ENDBRANCH  67  72
BRANCH  67  76
ATOM     76  C   LIG d   1       4.254  -6.802 -13.792  0.00  0.00    -0.060 C 
ATOM     77  H   LIG d   1       3.972  -7.822 -13.530  0.00  0.00     0.024 H 
ATOM     78  H   LIG d   1       3.408  -6.297 -14.257  0.00  0.00     0.024 H 
ATOM     79  H   LIG d   1       5.092  -6.824 -14.488  0.00  0.00     0.024 H 
ENDBRANCH  67  76
ENDBRANCH  64  67
ENDBRANCH  61  64
ENDBRANCH   6  60
BRANCH  14  80
ATOM     80  O   LIG d   1       3.879   0.440  -1.507  0.00  0.00    -0.391 OA
ATOM     81  H   LIG d   1       3.195   0.388  -0.825  0.00  0.00     0.210 HD
ENDBRANCH  14  80
TORSDOF 14
ENDMDL
MODEL 7
REMARK VINA RESULT:      -5.3      5.333      9.517
REMARK  14 active torsions:
REMARK  status: ('A' for Active; 'I' for Inactive)
REMARK    1  A    between atoms: C_1  and  C_2 
REMARK       I    between atoms: N_5  and  C_8 
REMARK    2  A    between atoms: C_8  and  C_10 
REMARK    3  A    between atoms: C_10  and  C_11 
REMARK    4  A    between atoms: C_16  and  N_18 
REMARK       I    between atoms: N_18  and  C_19 
REMARK    5  A    between atoms: C_19  and  C_21 
REMARK    6  A    between atoms: C_21  and  C_22 
REMARK    7  A    between atoms: C_22  and  C_23 
REMARK    8  A    between atoms: C_22  and  C_24 
REMARK    9  A    between atoms: C_22  and  C_25 
REMARK   10  A    between atoms: C_29  and  C_39 
REMARK   11  A    between atoms: C_32  and  O_38 
REMARK   12  A    between atoms: C_34  and  C_35 
REMARK   13  A    between atoms: C_34  and  C_36 
REMARK   14  A    between atoms: C_36  and  O_37 
ROOT
ATOM      1  C   LIG d   1      10.788   5.579  -3.686  0.00  0.00     0.016 C 
ATOM      2  H   LIG d   1      11.821   5.784  -3.405  0.00  0.00     0.037 H 
ATOM      3  C   LIG d   1      10.336   6.589  -4.730  0.00  0.00     0.058 A 
ATOM      4  C   LIG d   1      10.291   6.238  -6.041  0.00  0.00     0.015 A 
ATOM      5  S   LIG d   1       9.723   7.725  -6.821  0.00  0.00    -0.057 SA
ATOM      6  C   LIG d   1       9.588   8.685  -5.378  0.00  0.00     0.165 A 
ATOM      7  N   LIG d   1       9.970   7.837  -4.447  0.00  0.00    -0.229 NA
ATOM      8  C   LIG d   1      10.638   4.923  -6.643  0.00  0.00    -0.016 C 
ATOM      9  C   LIG d   1      11.413   4.086  -5.608  0.00  0.00    -0.021 C 
ATOM     10  H   LIG d   1      12.429   4.469  -5.504  0.00  0.00     0.032 H 
ATOM     11  C   LIG d   1      10.687   4.161  -4.264  0.00  0.00    -0.019 C 
ATOM     12  C   LIG d   1      11.340   3.208  -3.257  0.00  0.00    -0.044 C 
ATOM     13  C   LIG d   1      11.321   1.777  -3.790  0.00  0.00    -0.026 C 
ATOM     14  C   LIG d   1      12.113   1.729  -5.100  0.00  0.00     0.063 C 
ATOM     15  H   LIG d   1      13.133   2.069  -4.922  0.00  0.00     0.060 H 
ATOM     16  C   LIG d   1      11.435   2.642  -6.118  0.00  0.00     0.021 C 
ATOM     17  H   LIG d   1       9.725   4.399  -6.926  0.00  0.00     0.032 H 
ATOM     18  H   LIG d   1      11.258   5.079  -7.527  0.00  0.00     0.032 H 
ATOM     19  H   LIG d   1      12.372   3.516  -3.086  0.00  0.00     0.027 H 
ATOM     20  H   LIG d   1      10.794   3.249  -2.315  0.00  0.00     0.027 H 
ATOM     21  H   LIG d   1      11.779   1.109  -3.061  0.00  0.00     0.029 H 
ATOM     22  H   LIG d   1      10.292   1.469  -3.975  0.00  0.00     0.029 H 
ENDROOT
BRANCH   1  23
ATOM     23  C   LIG d   1       9.893   5.690  -2.450  0.00  0.00     0.033 C 
ATOM     24  H   LIG d   1       9.475   4.712  -2.214  0.00  0.00     0.036 H 
ATOM     25  H   LIG d   1       9.084   6.394  -2.648  0.00  0.00     0.036 H 
BRANCH  23  26
ATOM     26  C   LIG d   1      10.709   6.181  -1.281  0.00  0.00     0.216 C 
ATOM     27  N   LIG d   1      10.307   7.262  -0.585  0.00  0.00    -0.301 N 
ATOM     28  C   LIG d   1       9.075   7.973  -0.953  0.00  0.00     0.015 C 
ATOM     29  C   LIG d   1      11.091   7.752   0.557  0.00  0.00     0.015 C 
ATOM     30  C   LIG d   1       9.402   9.457  -1.147  0.00  0.00    -0.035 C 
ATOM     31  H   LIG d   1       8.338   7.863  -0.157  0.00  0.00     0.046 H 
ATOM     32  H   LIG d   1       8.678   7.562  -1.881  0.00  0.00     0.046 H 
ATOM     33  C   LIG d   1      10.086   9.995   0.113  0.00  0.00    -0.041 C 
ATOM     34  H   LIG d   1       8.481  10.012  -1.325  0.00  0.00     0.028 H 
ATOM     35  H   LIG d   1      10.068   9.574  -2.001  0.00  0.00     0.028 H 
ATOM     36  C   LIG d   1      11.397   9.238   0.345  0.00  0.00    -0.035 C 
ATOM     37  H   LIG d   1       9.429   9.855   0.971  0.00  0.00     0.030 H 
ATOM     38  H   LIG d   1      12.044   9.357  -0.523  0.00  0.00     0.028 H 
ATOM     39  H   LIG d   1      11.895   9.637   1.228  0.00  0.00     0.028 H 
ATOM     40  H   LIG d   1      12.026   7.194   0.625  0.00  0.00     0.046 H 
ATOM     41  H   LIG d   1      10.520   7.623   1.475  0.00  0.00     0.046 H 
ATOM     42  O   LIG d   1      11.727   5.602  -0.968  0.00  0.00    -0.276 OA
BRANCH  33  43
ATOM     43  C   LIG d   1      10.383  11.486  -0.065  0.00  0.00    -0.062 C 
ATOM     44  H   LIG d   1      10.935  11.637  -0.992  0.00  0.00     0.023 H 
ATOM     45  H   LIG d   1       9.446  12.040  -0.104  0.00  0.00     0.023 H 
ATOM     46  H   LIG d   1      10.981  11.840   0.775  0.00  0.00     0.023 H 
ENDBRANCH  33  43
ENDBRANCH  23  26
ENDBRANCH   1  23
BRANCH  11  47
ATOM     47  C   LIG d   1       9.214   3.790  -4.455  0.00  0.00    -0.059 C 
ATOM     48  H   LIG d   1       9.065   3.406  -5.464  0.00  0.00     0.024 H 
ATOM     49  H   LIG d   1       8.937   3.024  -3.730  0.00  0.00     0.024 H 
ATOM     50  H   LIG d   1       8.594   4.673  -4.305  0.00  0.00     0.024 H 
ENDBRANCH  11  47
BRANCH  16  51
ATOM     51  C   LIG d   1      12.202   2.583  -7.440  0.00  0.00    -0.055 C 
ATOM     52  H   LIG d   1      12.345   3.593  -7.824  0.00  0.00     0.024 H 
ATOM     53  H   LIG d   1      13.173   2.116  -7.277  0.00  0.00     0.024 H 
ATOM     54  H   LIG d   1      11.634   1.996  -8.164  0.00  0.00     0.024 H 
ENDBRANCH  16  51
BRANCH  16  55
ATOM     55  C   LIG d   1       9.999   2.165  -6.347  0.00  0.00     0.052 C 
ATOM     56  H   LIG d   1       9.618   1.708  -5.435  0.00  0.00     0.056 H 
ATOM     57  H   LIG d   1       9.373   3.015  -6.618  0.00  0.00     0.056 H 
BRANCH  55  58
ATOM     58  O   LIG d   1       9.979   1.204  -7.406  0.00  0.00    -0.394 OA
ATOM     59  H   LIG d   1      10.696   0.557  -7.363  0.00  0.00     0.209 HD
ENDBRANCH  55  58
ENDBRANCH  16  55
BRANCH   6  60
ATOM     60  N   LIG d   1       9.181  10.007  -5.243  0.00  0.00    -0.265 N 
ATOM     61  C   LIG d   1       9.990  11.006  -5.648  0.00  0.00     0.219 C 
ATOM     62  O   LIG d   1      11.073  10.751  -6.131  0.00  0.00    -0.275 OA
ATOM     63  H   LIG d   1       8.315  10.211  -4.857  0.00  0.00     0.157 HD
BRANCH  61  64
ATOM     64  C   LIG d   1       9.549  12.439  -5.501  0.00  0.00     0.029 C 
ATOM     65  H   LIG d   1      10.135  13.069  -6.171  0.00  0.00     0.036 H 
ATOM     66  H   LIG d   1       8.493  12.523  -5.753  0.00  0.00     0.036 H 
BRANCH  64  67
ATOM     67  C   LIG d   1       9.765  12.894  -4.055  0.00  0.00    -0.029 C 
BRANCH  67  68
ATOM     68  C   LIG d   1       8.572  12.459  -3.202  0.00  0.00    -0.060 C 
ATOM     69  H   LIG d   1       8.445  13.155  -2.373  0.00  0.00     0.024 H 
ATOM     70  H   LIG d   1       7.670  12.457  -3.814  0.00  0.00     0.024 H 
ATOM     71  H   LIG d   1       8.749  11.457  -2.812  0.00  0.00     0.024 H 
ENDBRANCH  67  68
BRANCH  67  72
ATOM     72  C   LIG d   1      11.044  12.257  -3.506  0.00  0.00    -0.060 C 
ATOM     73  H   LIG d   1      11.912  12.763  -3.929  0.00  0.00     0.024 H 
ATOM     74  H   LIG d   1      11.061  12.354  -2.421  0.00  0.00     0.024 H 
ATOM     75  H   LIG d   1      11.070  11.201  -3.776  0.00  0.00     0.024 H 
ENDBRANCH  67  72
BRANCH  67  76
ATOM     76  C   LIG d   1       9.895  14.417  -4.014  0.00  0.00    -0.060 C 
ATOM     77  H   LIG d   1      10.948  14.693  -4.076  0.00  0.00     0.024 H 
ATOM     78  H   LIG d   1       9.355  14.850  -4.856  0.00  0.00     0.024 H 
ATOM     79  H   LIG d   1       9.475  14.792  -3.081  0.00  0.00     0.024 H 
ENDBRANCH  67  76
ENDBRANCH  64  67
ENDBRANCH  61  64
ENDBRANCH   6  60
BRANCH  14  80
ATOM     80  O   LIG d   1      12.135   0.389  -5.598  0.00  0.00    -0.391 OA
ATOM     81  H   LIG d   1      11.268  -0.039  -5.613  0.00  0.00     0.210 HD
ENDBRANCH  14  80
TORSDOF 14
ENDMDL
MODEL 8
REMARK VINA RESULT:      -5.2      5.897      9.605
REMARK  14 active torsions:
REMARK  status: ('A' for Active; 'I' for Inactive)
REMARK    1  A    between atoms: C_1  and  C_2 
REMARK       I    between atoms: N_5  and  C_8 
REMARK    2  A    between atoms: C_8  and  C_10 
REMARK    3  A    between atoms: C_10  and  C_11 
REMARK    4  A    between atoms: C_16  and  N_18 
REMARK       I    between atoms: N_18  and  C_19 
REMARK    5  A    between atoms: C_19  and  C_21 
REMARK    6  A    between atoms: C_21  and  C_22 
REMARK    7  A    between atoms: C_22  and  C_23 
REMARK    8  A    between atoms: C_22  and  C_24 
REMARK    9  A    between atoms: C_22  and  C_25 
REMARK   10  A    between atoms: C_29  and  C_39 
REMARK   11  A    between atoms: C_32  and  O_38 
REMARK   12  A    between atoms: C_34  and  C_35 
REMARK   13  A    between atoms: C_34  and  C_36 
REMARK   14  A    between atoms: C_36  and  O_37 
ROOT
ATOM      1  C   LIG d   1       4.139  -3.551  -7.232  0.00  0.00     0.016 C 
ATOM      2  H   LIG d   1       3.150  -3.627  -6.780  0.00  0.00     0.037 H 
ATOM      3  C   LIG d   1       4.664  -4.945  -7.542  0.00  0.00     0.058 A 
ATOM      4  C   LIG d   1       4.614  -5.425  -8.810  0.00  0.00     0.015 A 
ATOM      5  S   LIG d   1       5.322  -7.041  -8.642  0.00  0.00    -0.057 SA
ATOM      6  C   LIG d   1       5.630  -6.962  -6.933  0.00  0.00     0.165 A 
ATOM      7  N   LIG d   1       5.188  -5.760  -6.629  0.00  0.00    -0.229 NA
ATOM      8  C   LIG d   1       4.087  -4.741 -10.022  0.00  0.00    -0.016 C 
ATOM      9  C   LIG d   1       3.261  -3.515  -9.586  0.00  0.00    -0.021 C 
ATOM     10  H   LIG d   1       2.303  -3.838  -9.177  0.00  0.00     0.032 H 
ATOM     11  C   LIG d   1       4.046  -2.737  -8.529  0.00  0.00    -0.019 C 
ATOM     12  C   LIG d   1       3.326  -1.425  -8.197  0.00  0.00    -0.044 C 
ATOM     13  C   LIG d   1       3.152  -0.580  -9.458  0.00  0.00    -0.026 C 
ATOM     14  C   LIG d   1       2.306  -1.366 -10.464  0.00  0.00     0.063 C 
ATOM     15  H   LIG d   1       1.342  -1.611 -10.019  0.00  0.00     0.060 H 
ATOM     16  C   LIG d   1       3.046  -2.650 -10.831  0.00  0.00     0.021 C 
ATOM     17  H   LIG d   1       4.918  -4.417 -10.647  0.00  0.00     0.032 H 
ATOM     18  H   LIG d   1       3.454  -5.429 -10.583  0.00  0.00     0.032 H 
ATOM     19  H   LIG d   1       2.346  -1.649  -7.775  0.00  0.00     0.027 H 
ATOM     20  H   LIG d   1       3.911  -0.867  -7.467  0.00  0.00     0.027 H 
ATOM     21  H   LIG d   1       2.647   0.352  -9.206  0.00  0.00     0.029 H 
ATOM     22  H   LIG d   1       4.128  -0.365  -9.891  0.00  0.00     0.029 H 
ENDROOT
BRANCH   1  23
ATOM     23  C   LIG d   1       5.090  -2.852  -6.259  0.00  0.00     0.033 C 
ATOM     24  H   LIG d   1       5.123  -1.786  -6.485  0.00  0.00     0.036 H 
ATOM     25  H   LIG d   1       6.090  -3.275  -6.361  0.00  0.00     0.036 H 
BRANCH  23  26
ATOM     26  C   LIG d   1       4.603  -3.052  -4.847  0.00  0.00     0.216 C 
ATOM     27  N   LIG d   1       4.085  -2.016  -4.160  0.00  0.00    -0.301 N 
ATOM     28  C   LIG d   1       3.988  -0.684  -4.774  0.00  0.00     0.015 C 
ATOM     29  C   LIG d   1       3.606  -2.195  -2.782  0.00  0.00     0.015 C 
ATOM     30  C   LIG d   1       4.667   0.335  -3.853  0.00  0.00    -0.035 C 
ATOM     31  H   LIG d   1       2.939  -0.417  -4.904  0.00  0.00     0.046 H 
ATOM     32  H   LIG d   1       4.488  -0.690  -5.742  0.00  0.00     0.046 H 
ATOM     33  C   LIG d   1       4.052   0.241  -2.453  0.00  0.00    -0.041 C 
ATOM     34  H   LIG d   1       4.518   1.339  -4.248  0.00  0.00     0.028 H 
ATOM     35  H   LIG d   1       5.734   0.120  -3.796  0.00  0.00     0.028 H 
ATOM     36  C   LIG d   1       4.290  -1.160  -1.883  0.00  0.00    -0.035 C 
ATOM     37  H   LIG d   1       2.980   0.431  -2.514  0.00  0.00     0.030 H 
ATOM     38  H   LIG d   1       5.360  -1.361  -1.846  0.00  0.00     0.028 H 
ATOM     39  H   LIG d   1       3.873  -1.218  -0.878  0.00  0.00     0.028 H 
ATOM     40  H   LIG d   1       3.854  -3.198  -2.437  0.00  0.00     0.046 H 
ATOM     41  H   LIG d   1       2.526  -2.051  -2.749  0.00  0.00     0.046 H 
ATOM     42  O   LIG d   1       4.677  -4.146  -4.330  0.00  0.00    -0.276 OA
BRANCH  33  43
ATOM     43  C   LIG d   1       4.704   1.281  -1.539  0.00  0.00    -0.062 C 
ATOM     44  H   LIG d   1       4.262   1.218  -0.545  0.00  0.00     0.023 H 
ATOM     45  H   LIG d   1       5.774   1.087  -1.476  0.00  0.00     0.023 H 
ATOM     46  H   LIG d   1       4.539   2.278  -1.947  0.00  0.00     0.023 H 
ENDBRANCH  33  43
ENDBRANCH  23  26
ENDBRANCH   1  23
BRANCH  11  47
ATOM     47  C   LIG d   1       5.454  -2.442  -9.051  0.00  0.00    -0.059 C 
ATOM     48  H   LIG d   1       6.077  -2.085  -8.231  0.00  0.00     0.024 H 
ATOM     49  H   LIG d   1       5.886  -3.354  -9.464  0.00  0.00     0.024 H 
ATOM     50  H   LIG d   1       5.403  -1.679  -9.828  0.00  0.00     0.024 H 
ENDBRANCH  11  47
BRANCH  16  51
ATOM     51  C   LIG d   1       2.223  -3.431 -11.857  0.00  0.00    -0.055 C 
ATOM     52  H   LIG d   1       2.528  -3.145 -12.863  0.00  0.00     0.024 H 
ATOM     53  H   LIG d   1       2.388  -4.500 -11.718  0.00  0.00     0.024 H 
ATOM     54  H   LIG d   1       1.164  -3.206 -11.721  0.00  0.00     0.024 H 
ENDBRANCH  16  51
BRANCH  16  55
ATOM     55  C   LIG d   1       4.403  -2.294 -11.441  0.00  0.00     0.052 C 
ATOM     56  H   LIG d   1       4.768  -1.366 -11.001  0.00  0.00     0.056 H 
ATOM     57  H   LIG d   1       5.113  -3.096 -11.239  0.00  0.00     0.056 H 
BRANCH  55  58
ATOM     58  O   LIG d   1       4.263  -2.127 -12.854  0.00  0.00    -0.394 OA
ATOM     59  H   LIG d   1       5.024  -1.709 -13.278  0.00  0.00     0.209 HD
ENDBRANCH  55  58
ENDBRANCH  16  55
BRANCH   6  60
ATOM     60  N   LIG d   1       6.197  -7.921  -6.101  0.00  0.00    -0.265 N 
ATOM     61  C   LIG d   1       5.460  -8.488  -5.127  0.00  0.00     0.219 C 
ATOM     62  O   LIG d   1       4.301  -8.162  -4.974  0.00  0.00    -0.275 OA
ATOM     63  H   LIG d   1       7.123  -8.182  -6.224  0.00  0.00     0.157 HD
BRANCH  61  64
ATOM     64  C   LIG d   1       6.075  -9.527  -4.225  0.00  0.00     0.029 C 
ATOM     65  H   LIG d   1       7.150  -9.567  -4.398  0.00  0.00     0.036 H 
ATOM     66  H   LIG d   1       5.883  -9.265  -3.185  0.00  0.00     0.036 H 
BRANCH  64  67
ATOM     67  C   LIG d   1       5.458 -10.895  -4.527  0.00  0.00    -0.029 C 
BRANCH  67  68
ATOM     68  C   LIG d   1       4.271 -11.136  -3.592  0.00  0.00    -0.060 C 
ATOM     69  H   LIG d   1       3.587 -10.290  -3.648  0.00  0.00     0.024 H 
ATOM     70  H   LIG d   1       3.750 -12.044  -3.895  0.00  0.00     0.024 H 
ATOM     71  H   LIG d   1       4.630 -11.246  -2.569  0.00  0.00     0.024 H 
ENDBRANCH  67  68
BRANCH  67  72
ATOM     72  C   LIG d   1       4.978 -10.928  -5.980  0.00  0.00    -0.060 C 
ATOM     73  H   LIG d   1       4.168 -11.650  -6.078  0.00  0.00     0.024 H 
ATOM     74  H   LIG d   1       4.620  -9.940  -6.267  0.00  0.00     0.024 H 
ATOM     75  H   LIG d   1       5.805 -11.217  -6.630  0.00  0.00     0.024 H 
ENDBRANCH  67  72
BRANCH  67  76
ATOM     76  C   LIG d   1       6.508 -11.986  -4.311  0.00  0.00    -0.060 C 
ATOM     77  H   LIG d   1       6.715 -12.084  -3.246  0.00  0.00     0.024 H 
ATOM     78  H   LIG d   1       6.132 -12.933  -4.698  0.00  0.00     0.024 H 
ATOM     79  H   LIG d   1       7.424 -11.717  -4.836  0.00  0.00     0.024 H 
ENDBRANCH  67  76
ENDBRANCH  64  67
ENDBRANCH  61  64
ENDBRANCH   6  60
BRANCH  14  80
ATOM     80  O   LIG d   1       2.103  -0.577 -11.639  0.00  0.00    -0.391 OA
ATOM     81  H   LIG d   1       2.907  -0.156 -11.973  0.00  0.00     0.210 HD
ENDBRANCH  14  80
TORSDOF 14
ENDMDL
MODEL 9
REMARK VINA RESULT:      -5.1      4.413      8.286
REMARK  14 active torsions:
REMARK  status: ('A' for Active; 'I' for Inactive)
REMARK    1  A    between atoms: C_1  and  C_2 
REMARK       I    between atoms: N_5  and  C_8 
REMARK    2  A    between atoms: C_8  and  C_10 
REMARK    3  A    between atoms: C_10  and  C_11 
REMARK    4  A    between atoms: C_16  and  N_18 
REMARK       I    between atoms: N_18  and  C_19 
REMARK    5  A    between atoms: C_19  and  C_21 
REMARK    6  A    between atoms: C_21  and  C_22 
REMARK    7  A    between atoms: C_22  and  C_23 
REMARK    8  A    between atoms: C_22  and  C_24 
REMARK    9  A    between atoms: C_22  and  C_25 
REMARK   10  A    between atoms: C_29  and  C_39 
REMARK   11  A    between atoms: C_32  and  O_38 
REMARK   12  A    between atoms: C_34  and  C_35 
REMARK   13  A    between atoms: C_34  and  C_36 
REMARK   14  A    between atoms: C_36  and  O_37 
ROOT
ATOM      1  C   LIG d   1       8.216  -0.838  -4.375  0.00  0.00     0.016 C 
ATOM      2  H   LIG d   1       8.755  -0.772  -3.430  0.00  0.00     0.037 H 
ATOM      3  C   LIG d   1       8.256  -2.271  -4.884  0.00  0.00     0.058 A 
ATOM      4  C   LIG d   1       7.177  -3.080  -4.727  0.00  0.00     0.015 A 
ATOM      5  S   LIG d   1       7.720  -4.599  -5.461  0.00  0.00    -0.057 SA
ATOM      6  C   LIG d   1       9.309  -4.059  -5.917  0.00  0.00     0.165 A 
ATOM      7  N   LIG d   1       9.308  -2.813  -5.492  0.00  0.00    -0.229 NA
ATOM      8  C   LIG d   1       5.875  -2.745  -4.091  0.00  0.00    -0.016 C 
ATOM      9  C   LIG d   1       6.027  -1.435  -3.295  0.00  0.00    -0.021 C 
ATOM     10  H   LIG d   1       6.590  -1.618  -2.379  0.00  0.00     0.032 H 
ATOM     11  C   LIG d   1       6.758  -0.409  -4.162  0.00  0.00    -0.019 C 
ATOM     12  C   LIG d   1       6.779   0.954  -3.462  0.00  0.00    -0.044 C 
ATOM     13  C   LIG d   1       5.355   1.425  -3.171  0.00  0.00    -0.026 C 
ATOM     14  C   LIG d   1       4.679   0.406  -2.248  0.00  0.00     0.063 C 
ATOM     15  H   LIG d   1       5.256   0.308  -1.329  0.00  0.00     0.060 H 
ATOM     16  C   LIG d   1       4.615  -0.940  -2.965  0.00  0.00     0.021 C 
ATOM     17  H   LIG d   1       5.115  -2.618  -4.862  0.00  0.00     0.032 H 
ATOM     18  H   LIG d   1       5.580  -3.551  -3.418  0.00  0.00     0.032 H 
ATOM     19  H   LIG d   1       7.329   0.870  -2.525  0.00  0.00     0.027 H 
ATOM     20  H   LIG d   1       7.275   1.682  -4.104  0.00  0.00     0.027 H 
ATOM     21  H   LIG d   1       5.384   2.398  -2.682  0.00  0.00     0.029 H 
ATOM     22  H   LIG d   1       4.796   1.498  -4.104  0.00  0.00     0.029 H 
ENDROOT
BRANCH   1  23
ATOM     23  C   LIG d   1       8.874   0.086  -5.401  0.00  0.00     0.033 C 
ATOM     24  H   LIG d   1       8.122   0.751  -5.828  0.00  0.00     0.036 H 
ATOM     25  H   LIG d   1       9.322  -0.512  -6.195  0.00  0.00     0.036 H 
BRANCH  23  26
ATOM     26  C   LIG d   1       9.944   0.906  -4.727  0.00  0.00     0.216 C 
ATOM     27  N   LIG d   1      11.242   0.588  -4.892  0.00  0.00    -0.301 N 
ATOM     28  C   LIG d   1      11.631  -0.557  -5.727  0.00  0.00     0.015 C 
ATOM     29  C   LIG d   1      12.296   1.378  -4.241  0.00  0.00     0.015 C 
ATOM     30  C   LIG d   1      12.540  -1.479  -4.908  0.00  0.00    -0.035 C 
ATOM     31  H   LIG d   1      12.170  -0.201  -6.606  0.00  0.00     0.046 H 
ATOM     32  H   LIG d   1      10.741  -1.103  -6.038  0.00  0.00     0.046 H 
ATOM     33  C   LIG d   1      13.719  -0.672  -4.358  0.00  0.00    -0.041 C 
ATOM     34  H   LIG d   1      12.914  -2.281  -5.544  0.00  0.00     0.028 H 
ATOM     35  H   LIG d   1      11.973  -1.906  -4.080  0.00  0.00     0.028 H 
ATOM     36  C   LIG d   1      13.196   0.434  -3.437  0.00  0.00    -0.035 C 
ATOM     37  H   LIG d   1      14.270  -0.225  -5.185  0.00  0.00     0.030 H 
ATOM     38  H   LIG d   1      12.623  -0.010  -2.624  0.00  0.00     0.028 H 
ATOM     39  H   LIG d   1      14.037   0.993  -3.027  0.00  0.00     0.028 H 
ATOM     40  H   LIG d   1      11.843   2.109  -3.571  0.00  0.00     0.046 H 
ATOM     41  H   LIG d   1      12.888   1.891  -4.998  0.00  0.00     0.046 H 
ATOM     42  O   LIG d   1       9.635   1.853  -4.036  0.00  0.00    -0.276 OA
BRANCH  33  43
ATOM     43  C   LIG d   1      14.645  -1.598  -3.567  0.00  0.00    -0.062 C 
ATOM     44  H   LIG d   1      15.289  -2.143  -4.257  0.00  0.00     0.023 H 
ATOM     45  H   LIG d   1      15.258  -1.004  -2.888  0.00  0.00     0.023 H 
ATOM     46  H   LIG d   1      14.048  -2.305  -2.992  0.00  0.00     0.023 H 
ENDBRANCH  33  43
ENDBRANCH  23  26
ENDBRANCH   1  23
BRANCH  11  47
ATOM     47  C   LIG d   1       6.056  -0.289  -5.517  0.00  0.00    -0.059 C 
ATOM     48  H   LIG d   1       6.803  -0.185  -6.304  0.00  0.00     0.024 H 
ATOM     49  H   LIG d   1       5.461  -1.185  -5.697  0.00  0.00     0.024 H 
ATOM     50  H   LIG d   1       5.406   0.585  -5.514  0.00  0.00     0.024 H 
ENDBRANCH  11  47
BRANCH  16  51
ATOM     51  C   LIG d   1       3.918  -1.960  -2.062  0.00  0.00    -0.055 C 
ATOM     52  H   LIG d   1       3.084  -2.411  -2.600  0.00  0.00     0.024 H 
ATOM     53  H   LIG d   1       4.627  -2.736  -1.775  0.00  0.00     0.024 H 
ATOM     54  H   LIG d   1       3.545  -1.458  -1.168  0.00  0.00     0.024 H 
ENDBRANCH  16  51
BRANCH  16  55
ATOM     55  C   LIG d   1       3.817  -0.785  -4.261  0.00  0.00     0.052 C 
ATOM     56  H   LIG d   1       4.057   0.171  -4.724  0.00  0.00     0.056 H 
ATOM     57  H   LIG d   1       4.074  -1.596  -4.944  0.00  0.00     0.056 H 
BRANCH  55  58
ATOM     58  O   LIG d   1       2.418  -0.835  -3.968  0.00  0.00    -0.394 OA
ATOM     59  H   LIG d   1       1.877  -1.170  -4.695  0.00  0.00     0.209 HD
ENDBRANCH  55  58
ENDBRANCH  16  55
BRANCH   6  60
ATOM     60  N   LIG d   1      10.319  -4.762  -6.563  0.00  0.00    -0.265 N 
ATOM     61  C   LIG d   1      11.320  -5.313  -5.848  0.00  0.00     0.219 C 
ATOM     62  O   LIG d   1      11.340  -5.195  -4.640  0.00  0.00    -0.275 OA
ATOM     63  H   LIG d   1      10.303  -4.857  -7.528  0.00  0.00     0.157 HD
BRANCH  61  64
ATOM     64  C   LIG d   1      12.415  -6.074  -6.548  0.00  0.00     0.029 C 
ATOM     65  H   LIG d   1      12.728  -6.914  -5.926  0.00  0.00     0.036 H 
ATOM     66  H   LIG d   1      12.047  -6.447  -7.503  0.00  0.00     0.036 H 
BRANCH  64  67
ATOM     67  C   LIG d   1      13.608  -5.147  -6.789  0.00  0.00    -0.029 C 
BRANCH  67  68
ATOM     68  C   LIG d   1      13.127  -3.867  -7.477  0.00  0.00    -0.060 C 
ATOM     69  H   LIG d   1      12.792  -4.102  -8.487  0.00  0.00     0.024 H 
ATOM     70  H   LIG d   1      12.300  -3.440  -6.910  0.00  0.00     0.024 H 
ATOM     71  H   LIG d   1      13.946  -3.149  -7.523  0.00  0.00     0.024 H 
ENDBRANCH  67  68
BRANCH  67  72
ATOM     72  C   LIG d   1      14.258  -4.792  -5.450  0.00  0.00    -0.060 C 
ATOM     73  H   LIG d   1      13.555  -4.219  -4.846  0.00  0.00     0.024 H 
ATOM     74  H   LIG d   1      14.527  -5.707  -4.923  0.00  0.00     0.024 H 
ATOM     75  H   LIG d   1      15.155  -4.198  -5.626  0.00  0.00     0.024 H 
ENDBRANCH  67  72
BRANCH  67  76
ATOM     76  C   LIG d   1      14.631  -5.853  -7.681  0.00  0.00    -0.060 C 
ATOM     77  H   LIG d   1      15.198  -6.569  -7.086  0.00  0.00     0.024 H 
ATOM     78  H   LIG d   1      14.112  -6.377  -8.483  0.00  0.00     0.024 H 
ATOM     79  H   LIG d   1      15.311  -5.116  -8.108  0.00  0.00     0.024 H 
ENDBRANCH  67  76
ENDBRANCH  64  67
ENDBRANCH  61  64
ENDBRANCH   6  60
BRANCH  14  80
ATOM     80  O   LIG d   1       3.355   0.847  -1.937  0.00  0.00    -0.391 OA
ATOM     81  H   LIG d   1       3.031   1.555  -2.510  0.00  0.00     0.210 HD
ENDBRANCH  14  80
TORSDOF 14
ENDMDL
