MODEL 1
REMARK VINA RESULT:      -6.2      0.000      0.000
REMARK  10 active torsions:
REMARK  status: ('A' for Active; 'I' for Inactive)
REMARK    1  A    between atoms: C_1  and  C_2 
REMARK    2  A    between atoms: C_2  and  O_3 
REMARK    3  A    between atoms: O_3  and  C_4 
REMARK    4  A    between atoms: C_12  and  C_13 
REMARK    5  A    between atoms: C_16  and  O_19 
REMARK    6  A    between atoms: O_19  and  C_20 
REMARK    7  A    between atoms: C_20  and  C_22 
REMARK    8  A    between atoms: C_20  and  C_23 
REMARK    9  A    between atoms: C_23  and  O_25 
REMARK   10  A    between atoms: O_25  and  C_26 
ROOT
ATOM      1  C   LIG d   1       9.804   4.014  -3.971  0.00  0.00    -0.021 A 
ATOM      2  C   LIG d   1      10.253   4.257  -2.666  0.00  0.00    -0.051 A 
ATOM      3  C   LIG d   1      10.254   5.540  -2.169  0.00  0.00    -0.019 A 
ATOM      4  C   LIG d   1       9.802   6.594  -2.955  0.00  0.00     0.122 A 
ATOM      5  C   LIG d   1       9.350   6.358  -4.249  0.00  0.00    -0.019 A 
ATOM      6  C   LIG d   1       9.348   5.080  -4.758  0.00  0.00    -0.051 A 
ATOM      7  H   LIG d   1      10.601   3.438  -2.053  0.00  0.00     0.062 H 
ATOM      8  H   LIG d   1      10.605   5.728  -1.165  0.00  0.00     0.065 H 
ATOM      9  H   LIG d   1       9.000   7.180  -4.856  0.00  0.00     0.065 H 
ATOM     10  H   LIG d   1       8.998   4.898  -5.764  0.00  0.00     0.062 H 
ENDROOT
BRANCH   1  11
ATOM     11  C   LIG d   1       9.805   2.648  -4.508  0.00  0.00    -0.008 C 
ATOM     12  C   LIG d   1       8.779   1.806  -4.222  0.00  0.00     0.176 A 
ATOM     13  O   LIG d   1       7.641   2.125  -3.565  0.00  0.00    -0.451 OA
ATOM     14  C   LIG d   1       8.704   0.379  -4.572  0.00  0.00     0.232 A 
ATOM     15  C   LIG d   1       6.816   1.063  -3.439  0.00  0.00     0.143 A 
ATOM     16  C   LIG d   1       7.401  -0.062  -4.044  0.00  0.00     0.068 A 
ATOM     17  C   LIG d   1       5.566   0.934  -2.847  0.00  0.00     0.023 A 
ATOM     18  C   LIG d   1       6.739  -1.292  -4.040  0.00  0.00    -0.044 A 
ATOM     19  C   LIG d   1       5.511  -1.401  -3.452  0.00  0.00    -0.019 A 
ATOM     20  H   LIG d   1       7.197  -2.153  -4.503  0.00  0.00     0.063 H 
ATOM     21  C   LIG d   1       4.919  -0.292  -2.854  0.00  0.00     0.124 A 
ATOM     22  H   LIG d   1       4.997  -2.351  -3.451  0.00  0.00     0.065 H 
ATOM     23  H   LIG d   1       5.099   1.789  -2.380  0.00  0.00     0.069 H 
ATOM     24  O   LIG d   1       9.532  -0.288  -5.168  0.00  0.00    -0.283 OA
ATOM     25  H   LIG d   1      10.621   2.313  -5.132  0.00  0.00     0.066 H 
BRANCH  21  26
ATOM     26  O   LIG d   1       3.698  -0.411  -2.273  0.00  0.00    -0.492 OA
BRANCH  26  27
ATOM     27  C   LIG d   1       2.636  -0.904  -3.091  0.00  0.00     0.087 C 
ATOM     28  H   LIG d   1       2.910  -1.879  -3.495  0.00  0.00     0.069 H 
ATOM     29  H   LIG d   1       1.730  -1.000  -2.492  0.00  0.00     0.069 H 
BRANCH  27  30
ATOM     30  C   LIG d   1       2.385   0.071  -4.243  0.00  0.00    -0.031 C 
ATOM     31  H   LIG d   1       2.554   1.091  -3.900  0.00  0.00     0.026 H 
ATOM     32  H   LIG d   1       3.067  -0.154  -5.064  0.00  0.00     0.026 H 
ATOM     33  H   LIG d   1       1.356  -0.030  -4.588  0.00  0.00     0.026 H 
ENDBRANCH  27  30
ENDBRANCH  26  27
ENDBRANCH  21  26
ENDBRANCH   1  11
BRANCH   4  34
ATOM     34  O   LIG d   1       9.801   7.856  -2.458  0.00  0.00    -0.478 OA
BRANCH  34  35
ATOM     35  C   LIG d   1       9.689   7.995  -1.041  0.00  0.00     0.193 C 
ATOM     36  H   LIG d   1       9.457   7.026  -0.597  0.00  0.00     0.085 H 
BRANCH  35  37
ATOM     37  C   LIG d   1       8.570   8.986  -0.712  0.00  0.00    -0.017 C 
ATOM     38  H   LIG d   1       8.090   9.313  -1.634  0.00  0.00     0.027 H 
ATOM     39  H   LIG d   1       7.833   8.502  -0.072  0.00  0.00     0.027 H 
ATOM     40  H   LIG d   1       8.989   9.849  -0.194  0.00  0.00     0.027 H 
ENDBRANCH  35  37
BRANCH  35  41
ATOM     41  C   LIG d   1      10.992   8.505  -0.481  0.00  0.00     0.348 C 
ATOM     42  O   LIG d   1      11.665   9.275  -1.123  0.00  0.00    -0.247 OA
BRANCH  41  43
ATOM     43  O   LIG d   1      11.405   8.101   0.731  0.00  0.00    -0.465 OA
BRANCH  43  44
ATOM     44  C   LIG d   1      11.094   6.735   1.112  0.00  0.00     0.082 C 
ATOM     45  H   LIG d   1      10.918   6.689   2.187  0.00  0.00     0.066 H 
ATOM     46  H   LIG d   1      10.199   6.405   0.583  0.00  0.00     0.066 H 
ATOM     47  H   LIG d   1      11.929   6.085   0.852  0.00  0.00     0.066 H 
ENDBRANCH  43  44
ENDBRANCH  41  43
ENDBRANCH  35  41
ENDBRANCH  34  35
ENDBRANCH   4  34
TORSDOF 10
ENDMDL
MODEL 2
REMARK VINA RESULT:      -6.1      1.492      2.342
REMARK  10 active torsions:
REMARK  status: ('A' for Active; 'I' for Inactive)
REMARK    1  A    between atoms: C_1  and  C_2 
REMARK    2  A    between atoms: C_2  and  O_3 
REMARK    3  A    between atoms: O_3  and  C_4 
REMARK    4  A    between atoms: C_12  and  C_13 
REMARK    5  A    between atoms: C_16  and  O_19 
REMARK    6  A    between atoms: O_19  and  C_20 
REMARK    7  A    between atoms: C_20  and  C_22 
REMARK    8  A    between atoms: C_20  and  C_23 
REMARK    9  A    between atoms: C_23  and  O_25 
REMARK   10  A    between atoms: O_25  and  C_26 
ROOT
ATOM      1  C   LIG d   1       9.805   4.119  -3.874  0.00  0.00    -0.021 A 
ATOM      2  C   LIG d   1       9.353   5.211  -4.626  0.00  0.00    -0.051 A 
ATOM      3  C   LIG d   1       9.332   6.468  -4.065  0.00  0.00    -0.019 A 
ATOM      4  C   LIG d   1       9.768   6.657  -2.759  0.00  0.00     0.122 A 
ATOM      5  C   LIG d   1      10.223   5.578  -2.010  0.00  0.00    -0.019 A 
ATOM      6  C   LIG d   1      10.245   4.316  -2.558  0.00  0.00    -0.051 A 
ATOM      7  H   LIG d   1       9.017   5.065  -5.643  0.00  0.00     0.062 H 
ATOM      8  H   LIG d   1       8.978   7.308  -4.643  0.00  0.00     0.065 H 
ATOM      9  H   LIG d   1      10.562   5.731  -0.995  0.00  0.00     0.065 H 
ATOM     10  H   LIG d   1      10.598   3.478  -1.974  0.00  0.00     0.062 H 
ENDROOT
BRANCH   1  11
ATOM     11  C   LIG d   1       9.825   2.775  -4.464  0.00  0.00    -0.008 C 
ATOM     12  C   LIG d   1       8.816   1.905  -4.202  0.00  0.00     0.176 A 
ATOM     13  O   LIG d   1       7.678   2.179  -3.524  0.00  0.00    -0.451 OA
ATOM     14  C   LIG d   1       8.763   0.491  -4.606  0.00  0.00     0.232 A 
ATOM     15  C   LIG d   1       6.873   1.098  -3.434  0.00  0.00     0.143 A 
ATOM     16  C   LIG d   1       7.471   0.008  -4.086  0.00  0.00     0.068 A 
ATOM     17  C   LIG d   1       5.630   0.925  -2.837  0.00  0.00     0.023 A 
ATOM     18  C   LIG d   1       6.831  -1.232  -4.124  0.00  0.00    -0.044 A 
ATOM     19  C   LIG d   1       5.609  -1.386  -3.531  0.00  0.00    -0.019 A 
ATOM     20  H   LIG d   1       7.299  -2.067  -4.624  0.00  0.00     0.063 H 
ATOM     21  C   LIG d   1       5.004  -0.311  -2.886  0.00  0.00     0.124 A 
ATOM     22  H   LIG d   1       5.112  -2.344  -3.563  0.00  0.00     0.065 H 
ATOM     23  H   LIG d   1       5.152   1.753  -2.334  0.00  0.00     0.069 H 
ATOM     24  O   LIG d   1       9.596  -0.137  -5.234  0.00  0.00    -0.283 OA
ATOM     25  H   LIG d   1      10.641   2.479  -5.107  0.00  0.00     0.066 H 
BRANCH  21  26
ATOM     26  O   LIG d   1       3.790  -0.473  -2.300  0.00  0.00    -0.492 OA
BRANCH  26  27
ATOM     27  C   LIG d   1       2.731  -0.958  -3.128  0.00  0.00     0.087 C 
ATOM     28  H   LIG d   1       3.026  -1.905  -3.579  0.00  0.00     0.069 H 
ATOM     29  H   LIG d   1       1.836  -1.106  -2.523  0.00  0.00     0.069 H 
BRANCH  27  30
ATOM     30  C   LIG d   1       2.438   0.062  -4.231  0.00  0.00    -0.031 C 
ATOM     31  H   LIG d   1       2.269   1.042  -3.785  0.00  0.00     0.026 H 
ATOM     32  H   LIG d   1       3.289   0.114  -4.911  0.00  0.00     0.026 H 
ATOM     33  H   LIG d   1       1.550  -0.245  -4.783  0.00  0.00     0.026 H 
ENDBRANCH  27  30
ENDBRANCH  26  27
ENDBRANCH  21  26
ENDBRANCH   1  11
BRANCH   4  34
ATOM     34  O   LIG d   1       9.750   7.900  -2.214  0.00  0.00    -0.478 OA
BRANCH  34  35
ATOM     35  C   LIG d   1      10.298   8.960  -2.999  0.00  0.00     0.193 C 
ATOM     36  H   LIG d   1      10.094   8.775  -4.054  0.00  0.00     0.085 H 
BRANCH  35  37
ATOM     37  C   LIG d   1      11.810   9.031  -2.777  0.00  0.00    -0.017 C 
ATOM     38  H   LIG d   1      12.104  10.066  -2.603  0.00  0.00     0.027 H 
ATOM     39  H   LIG d   1      12.079   8.428  -1.910  0.00  0.00     0.027 H 
ATOM     40  H   LIG d   1      12.325   8.650  -3.659  0.00  0.00     0.027 H 
ENDBRANCH  35  37
BRANCH  35  41
ATOM     41  C   LIG d   1       9.668  10.267  -2.587  0.00  0.00     0.348 C 
ATOM     42  O   LIG d   1       9.167  10.377  -1.494  0.00  0.00    -0.247 OA
BRANCH  41  43
ATOM     43  O   LIG d   1       9.663  11.306  -3.436  0.00  0.00    -0.465 OA
BRANCH  43  44
ATOM     44  C   LIG d   1       9.294  11.030  -4.813  0.00  0.00     0.082 C 
ATOM     45  H   LIG d   1       8.949   9.998  -4.897  0.00  0.00     0.066 H 
ATOM     46  H   LIG d   1       8.494  11.706  -5.118  0.00  0.00     0.066 H 
ATOM     47  H   LIG d   1      10.159  11.177  -5.459  0.00  0.00     0.066 H 
ENDBRANCH  43  44
ENDBRANCH  41  43
ENDBRANCH  35  41
ENDBRANCH  34  35
ENDBRANCH   4  34
TORSDOF 10
ENDMDL
MODEL 3
REMARK VINA RESULT:      -5.8      1.560      2.404
REMARK  10 active torsions:
REMARK  status: ('A' for Active; 'I' for Inactive)
REMARK    1  A    between atoms: C_1  and  C_2 
REMARK    2  A    between atoms: C_2  and  O_3 
REMARK    3  A    between atoms: O_3  and  C_4 
REMARK    4  A    between atoms: C_12  and  C_13 
REMARK    5  A    between atoms: C_16  and  O_19 
REMARK    6  A    between atoms: O_19  and  C_20 
REMARK    7  A    between atoms: C_20  and  C_22 
REMARK    8  A    between atoms: C_20  and  C_23 
REMARK    9  A    between atoms: C_23  and  O_25 
REMARK   10  A    between atoms: O_25  and  C_26 
ROOT
ATOM      1  C   LIG d   1      10.533   4.852  -2.890  0.00  0.00    -0.021 A 
ATOM      2  C   LIG d   1      11.081   4.696  -1.610  0.00  0.00    -0.051 A 
ATOM      3  C   LIG d   1      10.863   5.657  -0.649  0.00  0.00    -0.019 A 
ATOM      4  C   LIG d   1      10.092   6.776  -0.943  0.00  0.00     0.122 A 
ATOM      5  C   LIG d   1       9.541   6.933  -2.210  0.00  0.00    -0.019 A 
ATOM      6  C   LIG d   1       9.756   5.981  -3.180  0.00  0.00    -0.051 A 
ATOM      7  H   LIG d   1      11.677   3.825  -1.380  0.00  0.00     0.062 H 
ATOM      8  H   LIG d   1      11.289   5.539   0.336  0.00  0.00     0.065 H 
ATOM      9  H   LIG d   1       8.942   7.804  -2.433  0.00  0.00     0.065 H 
ATOM     10  H   LIG d   1       9.328   6.105  -4.164  0.00  0.00     0.062 H 
ENDROOT
BRANCH   1  11
ATOM     11  C   LIG d   1      10.766   3.833  -3.921  0.00  0.00    -0.008 C 
ATOM     12  C   LIG d   1       9.876   2.823  -4.090  0.00  0.00     0.176 A 
ATOM     13  O   LIG d   1       8.679   2.698  -3.471  0.00  0.00    -0.451 OA
ATOM     14  C   LIG d   1      10.038   1.662  -4.980  0.00  0.00     0.232 A 
ATOM     15  C   LIG d   1       8.027   1.579  -3.855  0.00  0.00     0.143 A 
ATOM     16  C   LIG d   1       8.801   0.882  -4.796  0.00  0.00     0.068 A 
ATOM     17  C   LIG d   1       6.793   1.061  -3.483  0.00  0.00     0.023 A 
ATOM     18  C   LIG d   1       8.340  -0.319  -5.341  0.00  0.00    -0.044 A 
ATOM     19  C   LIG d   1       7.124  -0.815  -4.963  0.00  0.00    -0.019 A 
ATOM     20  H   LIG d   1       8.943  -0.852  -6.061  0.00  0.00     0.063 H 
ATOM     21  C   LIG d   1       6.346  -0.129  -4.035  0.00  0.00     0.124 A 
ATOM     22  H   LIG d   1       6.766  -1.741  -5.387  0.00  0.00     0.065 H 
ATOM     23  H   LIG d   1       6.181   1.586  -2.764  0.00  0.00     0.069 H 
ATOM     24  O   LIG d   1      10.979   1.407  -5.709  0.00  0.00    -0.283 OA
ATOM     25  H   LIG d   1      11.646   3.888  -4.546  0.00  0.00     0.066 H 
BRANCH  21  26
ATOM     26  O   LIG d   1       5.139  -0.629  -3.667  0.00  0.00    -0.492 OA
BRANCH  26  27
ATOM     27  C   LIG d   1       5.138  -1.650  -2.668  0.00  0.00     0.087 C 
ATOM     28  H   LIG d   1       5.712  -2.507  -3.022  0.00  0.00     0.069 H 
ATOM     29  H   LIG d   1       5.589  -1.264  -1.753  0.00  0.00     0.069 H 
BRANCH  27  30
ATOM     30  C   LIG d   1       3.699  -2.085  -2.384  0.00  0.00    -0.031 C 
ATOM     31  H   LIG d   1       3.681  -2.739  -1.513  0.00  0.00     0.026 H 
ATOM     32  H   LIG d   1       3.086  -1.204  -2.188  0.00  0.00     0.026 H 
ATOM     33  H   LIG d   1       3.302  -2.618  -3.247  0.00  0.00     0.026 H 
ENDBRANCH  27  30
ENDBRANCH  26  27
ENDBRANCH  21  26
ENDBRANCH   1  11
BRANCH   4  34
ATOM     34  O   LIG d   1       9.876   7.717   0.010  0.00  0.00    -0.478 OA
BRANCH  34  35
ATOM     35  C   LIG d   1      10.754   8.844   0.019  0.00  0.00     0.193 C 
ATOM     36  H   LIG d   1      11.464   8.759  -0.803  0.00  0.00     0.085 H 
BRANCH  35  37
ATOM     37  C   LIG d   1      11.514   8.887   1.347  0.00  0.00    -0.017 C 
ATOM     38  H   LIG d   1      11.409   7.931   1.858  0.00  0.00     0.027 H 
ATOM     39  H   LIG d   1      12.570   9.080   1.154  0.00  0.00     0.027 H 
ATOM     40  H   LIG d   1      11.109   9.682   1.973  0.00  0.00     0.027 H 
ENDBRANCH  35  37
BRANCH  35  41
ATOM     41  C   LIG d   1       9.950  10.109  -0.140  0.00  0.00     0.348 C 
ATOM     42  O   LIG d   1      10.202  11.074   0.542  0.00  0.00    -0.247 OA
BRANCH  41  43
ATOM     43  O   LIG d   1       8.954  10.162  -1.037  0.00  0.00    -0.465 OA
BRANCH  43  44
ATOM     44  C   LIG d   1       9.216  10.884  -2.270  0.00  0.00     0.082 C 
ATOM     45  H   LIG d   1      10.253  10.728  -2.569  0.00  0.00     0.066 H 
ATOM     46  H   LIG d   1       8.552  10.518  -3.054  0.00  0.00     0.066 H 
ATOM     47  H   LIG d   1       9.039  11.948  -2.114  0.00  0.00     0.066 H 
ENDBRANCH  43  44
ENDBRANCH  41  43
ENDBRANCH  35  41
ENDBRANCH  34  35
ENDBRANCH   4  34
TORSDOF 10
ENDMDL
MODEL 4
REMARK VINA RESULT:      -5.4      5.960      9.400
REMARK  10 active torsions:
REMARK  status: ('A' for Active; 'I' for Inactive)
REMARK    1  A    between atoms: C_1  and  C_2 
REMARK    2  A    between atoms: C_2  and  O_3 
REMARK    3  A    between atoms: O_3  and  C_4 
REMARK    4  A    between atoms: C_12  and  C_13 
REMARK    5  A    between atoms: C_16  and  O_19 
REMARK    6  A    between atoms: O_19  and  C_20 
REMARK    7  A    between atoms: C_20  and  C_22 
REMARK    8  A    between atoms: C_20  and  C_23 
REMARK    9  A    between atoms: C_23  and  O_25 
REMARK   10  A    between atoms: O_25  and  C_26 
ROOT
ATOM      1  C   LIG d   1       3.613   0.085  -7.181  0.00  0.00    -0.021 A 
ATOM      2  C   LIG d   1       4.603  -0.783  -6.703  0.00  0.00    -0.051 A 
ATOM      3  C   LIG d   1       4.645  -1.104  -5.365  0.00  0.00    -0.019 A 
ATOM      4  C   LIG d   1       3.701  -0.577  -4.491  0.00  0.00     0.122 A 
ATOM      5  C   LIG d   1       2.712   0.280  -4.961  0.00  0.00    -0.019 A 
ATOM      6  C   LIG d   1       2.663   0.612  -6.296  0.00  0.00    -0.051 A 
ATOM      7  H   LIG d   1       5.335  -1.195  -7.382  0.00  0.00     0.062 H 
ATOM      8  H   LIG d   1       5.411  -1.769  -4.995  0.00  0.00     0.065 H 
ATOM      9  H   LIG d   1       1.981   0.686  -4.277  0.00  0.00     0.065 H 
ATOM     10  H   LIG d   1       1.895   1.279  -6.660  0.00  0.00     0.062 H 
ENDROOT
BRANCH   1  11
ATOM     11  C   LIG d   1       3.566   0.436  -8.606  0.00  0.00    -0.008 C 
ATOM     12  C   LIG d   1       2.937  -0.384  -9.486  0.00  0.00     0.176 A 
ATOM     13  O   LIG d   1       2.209  -1.482  -9.177  0.00  0.00    -0.451 OA
ATOM     14  C   LIG d   1       2.922  -0.239 -10.950  0.00  0.00     0.232 A 
ATOM     15  C   LIG d   1       1.712  -2.083 -10.280  0.00  0.00     0.143 A 
ATOM     16  C   LIG d   1       2.104  -1.370 -11.424  0.00  0.00     0.068 A 
ATOM     17  C   LIG d   1       0.924  -3.217 -10.433  0.00  0.00     0.023 A 
ATOM     18  C   LIG d   1       1.717  -1.801 -12.694  0.00  0.00    -0.044 A 
ATOM     19  C   LIG d   1       0.943  -2.919 -12.827  0.00  0.00    -0.019 A 
ATOM     20  H   LIG d   1       2.026  -1.249 -13.570  0.00  0.00     0.063 H 
ATOM     21  C   LIG d   1       0.543  -3.631 -11.699  0.00  0.00     0.124 A 
ATOM     22  H   LIG d   1       0.640  -3.251 -13.809  0.00  0.00     0.065 H 
ATOM     23  H   LIG d   1       0.609  -3.777  -9.564  0.00  0.00     0.069 H 
ATOM     24  O   LIG d   1       3.460   0.625 -11.619  0.00  0.00    -0.283 OA
ATOM     25  H   LIG d   1       4.032   1.347  -8.954  0.00  0.00     0.066 H 
BRANCH  21  26
ATOM     26  O   LIG d   1      -0.226  -4.741 -11.841  0.00  0.00    -0.492 OA
BRANCH  26  27
ATOM     27  C   LIG d   1      -1.099  -5.068 -10.759  0.00  0.00     0.087 C 
ATOM     28  H   LIG d   1      -0.972  -6.118 -10.494  0.00  0.00     0.069 H 
ATOM     29  H   LIG d   1      -0.858  -4.444  -9.897  0.00  0.00     0.069 H 
BRANCH  27  30
ATOM     30  C   LIG d   1      -2.549  -4.819 -11.179  0.00  0.00    -0.031 C 
ATOM     31  H   LIG d   1      -3.218  -5.118 -10.372  0.00  0.00     0.026 H 
ATOM     32  H   LIG d   1      -2.688  -3.759 -11.393  0.00  0.00     0.026 H 
ATOM     33  H   LIG d   1      -2.773  -5.402 -12.072  0.00  0.00     0.026 H 
ENDBRANCH  27  30
ENDBRANCH  26  27
ENDBRANCH  21  26
ENDBRANCH   1  11
BRANCH   4  34
ATOM     34  O   LIG d   1       3.744  -0.902  -3.174  0.00  0.00    -0.478 OA
BRANCH  34  35
ATOM     35  C   LIG d   1       4.406   0.015  -2.301  0.00  0.00     0.193 C 
ATOM     36  H   LIG d   1       4.428  -0.395  -1.291  0.00  0.00     0.085 H 
BRANCH  35  37
ATOM     37  C   LIG d   1       3.653   1.347  -2.293  0.00  0.00    -0.017 C 
ATOM     38  H   LIG d   1       3.283   1.562  -3.296  0.00  0.00     0.027 H 
ATOM     39  H   LIG d   1       2.811   1.284  -1.603  0.00  0.00     0.027 H 
ATOM     40  H   LIG d   1       4.325   2.144  -1.975  0.00  0.00     0.027 H 
ENDBRANCH  35  37
BRANCH  35  41
ATOM     41  C   LIG d   1       5.816   0.239  -2.783  0.00  0.00     0.348 C 
ATOM     42  O   LIG d   1       6.591  -0.686  -2.834  0.00  0.00    -0.247 OA
BRANCH  41  43
ATOM     43  O   LIG d   1       6.211   1.467  -3.154  0.00  0.00    -0.465 OA
BRANCH  43  44
ATOM     44  C   LIG d   1       7.434   1.559  -3.931  0.00  0.00     0.082 C 
ATOM     45  H   LIG d   1       7.984   2.454  -3.638  0.00  0.00     0.066 H 
ATOM     46  H   LIG d   1       8.050   0.678  -3.746  0.00  0.00     0.066 H 
ATOM     47  H   LIG d   1       7.189   1.614  -4.992  0.00  0.00     0.066 H 
ENDBRANCH  43  44
ENDBRANCH  41  43
ENDBRANCH  35  41
ENDBRANCH  34  35
ENDBRANCH   4  34
TORSDOF 10
ENDMDL
MODEL 5
REMARK VINA RESULT:      -5.3      6.162     12.309
REMARK  10 active torsions:
REMARK  status: ('A' for Active; 'I' for Inactive)
REMARK    1  A    between atoms: C_1  and  C_2 
REMARK    2  A    between atoms: C_2  and  O_3 
REMARK    3  A    between atoms: O_3  and  C_4 
REMARK    4  A    between atoms: C_12  and  C_13 
REMARK    5  A    between atoms: C_16  and  O_19 
REMARK    6  A    between atoms: O_19  and  C_20 
REMARK    7  A    between atoms: C_20  and  C_22 
REMARK    8  A    between atoms: C_20  and  C_23 
REMARK    9  A    between atoms: C_23  and  O_25 
REMARK   10  A    between atoms: O_25  and  C_26 
ROOT
ATOM      1  C   LIG d   1       8.701  -6.499  -4.329  0.00  0.00    -0.021 A 
ATOM      2  C   LIG d   1       7.692  -6.908  -5.210  0.00  0.00    -0.051 A 
ATOM      3  C   LIG d   1       7.030  -8.095  -4.991  0.00  0.00    -0.019 A 
ATOM      4  C   LIG d   1       7.353  -8.881  -3.891  0.00  0.00     0.122 A 
ATOM      5  C   LIG d   1       8.350  -8.478  -3.010  0.00  0.00    -0.019 A 
ATOM      6  C   LIG d   1       9.022  -7.296  -3.222  0.00  0.00    -0.051 A 
ATOM      7  H   LIG d   1       7.438  -6.295  -6.063  0.00  0.00     0.062 H 
ATOM      8  H   LIG d   1       6.255  -8.412  -5.673  0.00  0.00     0.065 H 
ATOM      9  H   LIG d   1       8.597  -9.093  -2.157  0.00  0.00     0.065 H 
ATOM     10  H   LIG d   1       9.797  -6.984  -2.537  0.00  0.00     0.062 H 
ENDROOT
BRANCH   1  11
ATOM     11  C   LIG d   1       9.416  -5.238  -4.561  0.00  0.00    -0.008 C 
ATOM     12  C   LIG d   1       8.739  -4.061  -4.536  0.00  0.00     0.176 A 
ATOM     13  O   LIG d   1       7.442  -3.890  -4.190  0.00  0.00    -0.451 OA
ATOM     14  C   LIG d   1       9.284  -2.739  -4.881  0.00  0.00     0.232 A 
ATOM     15  C   LIG d   1       7.067  -2.595  -4.267  0.00  0.00     0.143 A 
ATOM     16  C   LIG d   1       8.155  -1.812  -4.684  0.00  0.00     0.068 A 
ATOM     17  C   LIG d   1       5.851  -1.973  -4.009  0.00  0.00     0.023 A 
ATOM     18  C   LIG d   1       8.013  -0.432  -4.846  0.00  0.00    -0.044 A 
ATOM     19  C   LIG d   1       6.810   0.163  -4.589  0.00  0.00    -0.019 A 
ATOM     20  H   LIG d   1       8.853   0.163  -5.171  0.00  0.00     0.063 H 
ATOM     21  C   LIG d   1       5.726  -0.603  -4.170  0.00  0.00     0.124 A 
ATOM     22  H   LIG d   1       6.701   1.231  -4.710  0.00  0.00     0.065 H 
ATOM     23  H   LIG d   1       5.003  -2.559  -3.684  0.00  0.00     0.069 H 
ATOM     24  O   LIG d   1      10.416  -2.469  -5.242  0.00  0.00    -0.283 OA
ATOM     25  H   LIG d   1      10.479  -5.246  -4.751  0.00  0.00     0.066 H 
BRANCH  21  26
ATOM     26  O   LIG d   1       4.535  -0.002  -3.916  0.00  0.00    -0.492 OA
BRANCH  26  27
ATOM     27  C   LIG d   1       3.985  -0.178  -2.609  0.00  0.00     0.087 C 
ATOM     28  H   LIG d   1       2.899  -0.103  -2.659  0.00  0.00     0.069 H 
ATOM     29  H   LIG d   1       4.264  -1.161  -2.227  0.00  0.00     0.069 H 
BRANCH  27  30
ATOM     30  C   LIG d   1       4.529   0.906  -1.676  0.00  0.00    -0.031 C 
ATOM     31  H   LIG d   1       5.474   0.575  -1.246  0.00  0.00     0.026 H 
ATOM     32  H   LIG d   1       4.690   1.824  -2.242  0.00  0.00     0.026 H 
ATOM     33  H   LIG d   1       3.811   1.092  -0.878  0.00  0.00     0.026 H 
ENDBRANCH  27  30
ENDBRANCH  26  27
ENDBRANCH  21  26
ENDBRANCH   1  11
BRANCH   4  34
ATOM     34  O   LIG d   1       6.693 -10.047  -3.677  0.00  0.00    -0.478 OA
BRANCH  34  35
ATOM     35  C   LIG d   1       5.580 -10.007  -2.781  0.00  0.00     0.193 C 
ATOM     36  H   LIG d   1       5.489  -9.006  -2.359  0.00  0.00     0.085 H 
BRANCH  35  37
ATOM     37  C   LIG d   1       5.797 -11.018  -1.652  0.00  0.00    -0.017 C 
ATOM     38  H   LIG d   1       6.705 -11.590  -1.846  0.00  0.00     0.027 H 
ATOM     39  H   LIG d   1       5.899 -10.488  -0.705  0.00  0.00     0.027 H 
ATOM     40  H   LIG d   1       4.944 -11.694  -1.600  0.00  0.00     0.027 H 
ENDBRANCH  35  37
BRANCH  35  41
ATOM     41  C   LIG d   1       4.319 -10.355  -3.530  0.00  0.00     0.348 C 
ATOM     42  O   LIG d   1       3.363  -9.618  -3.475  0.00  0.00    -0.247 OA
BRANCH  41  43
ATOM     43  O   LIG d   1       4.258 -11.483  -4.254  0.00  0.00    -0.465 OA
BRANCH  43  44
ATOM     44  C   LIG d   1       4.107 -11.336  -5.691  0.00  0.00     0.082 C 
ATOM     45  H   LIG d   1       3.064 -11.500  -5.965  0.00  0.00     0.066 H 
ATOM     46  H   LIG d   1       4.408 -10.331  -5.987  0.00  0.00     0.066 H 
ATOM     47  H   LIG d   1       4.735 -12.067  -6.200  0.00  0.00     0.066 H 
ENDBRANCH  43  44
ENDBRANCH  41  43
ENDBRANCH  35  41
ENDBRANCH  34  35
ENDBRANCH   4  34
TORSDOF 10
ENDMDL
MODEL 6
REMARK VINA RESULT:      -5.2      7.296     11.124
REMARK  10 active torsions:
REMARK  status: ('A' for Active; 'I' for Inactive)
REMARK    1  A    between atoms: C_1  and  C_2 
REMARK    2  A    between atoms: C_2  and  O_3 
REMARK    3  A    between atoms: O_3  and  C_4 
REMARK    4  A    between atoms: C_12  and  C_13 
REMARK    5  A    between atoms: C_16  and  O_19 
REMARK    6  A    between atoms: O_19  and  C_20 
REMARK    7  A    between atoms: C_20  and  C_22 
REMARK    8  A    between atoms: C_20  and  C_23 
REMARK    9  A    between atoms: C_23  and  O_25 
REMARK   10  A    between atoms: O_25  and  C_26 
ROOT
ATOM      1  C   LIG d   1       2.835  -0.741  -9.567  0.00  0.00    -0.021 A 
ATOM      2  C   LIG d   1       3.707  -1.655  -8.962  0.00  0.00    -0.051 A 
ATOM      3  C   LIG d   1       4.191  -1.408  -7.697  0.00  0.00    -0.019 A 
ATOM      4  C   LIG d   1       3.807  -0.259  -7.016  0.00  0.00     0.122 A 
ATOM      5  C   LIG d   1       2.937   0.650  -7.609  0.00  0.00    -0.019 A 
ATOM      6  C   LIG d   1       2.451   0.415  -8.875  0.00  0.00    -0.051 A 
ATOM      7  H   LIG d   1       4.003  -2.551  -9.489  0.00  0.00     0.062 H 
ATOM      8  H   LIG d   1       4.866  -2.110  -7.233  0.00  0.00     0.065 H 
ATOM      9  H   LIG d   1       2.642   1.541  -7.075  0.00  0.00     0.065 H 
ATOM     10  H   LIG d   1       1.776   1.122  -9.335  0.00  0.00     0.062 H 
ENDROOT
BRANCH   1  11
ATOM     11  C   LIG d   1       2.321  -0.996 -10.918  0.00  0.00    -0.008 C 
ATOM     12  C   LIG d   1       1.529  -2.074 -11.149  0.00  0.00     0.176 A 
ATOM     13  O   LIG d   1       1.034  -2.920 -10.215  0.00  0.00    -0.451 OA
ATOM     14  C   LIG d   1       1.051  -2.535 -12.462  0.00  0.00     0.232 A 
ATOM     15  C   LIG d   1       0.279  -3.894 -10.768  0.00  0.00     0.143 A 
ATOM     16  C   LIG d   1       0.233  -3.724 -12.161  0.00  0.00     0.068 A 
ATOM     17  C   LIG d   1      -0.412  -4.956 -10.198  0.00  0.00     0.023 A 
ATOM     18  C   LIG d   1      -0.485  -4.615 -12.960  0.00  0.00    -0.044 A 
ATOM     19  C   LIG d   1      -1.157  -5.656 -12.383  0.00  0.00    -0.019 A 
ATOM     20  H   LIG d   1      -0.512  -4.480 -14.031  0.00  0.00     0.063 H 
ATOM     21  C   LIG d   1      -1.124  -5.831 -11.002  0.00  0.00     0.124 A 
ATOM     22  H   LIG d   1      -1.716  -6.344 -13.000  0.00  0.00     0.065 H 
ATOM     23  H   LIG d   1      -0.392  -5.101  -9.127  0.00  0.00     0.069 H 
ATOM     24  O   LIG d   1       1.276  -2.042 -13.553  0.00  0.00    -0.283 OA
ATOM     25  H   LIG d   1       2.572  -0.327 -11.727  0.00  0.00     0.066 H 
BRANCH  21  26
ATOM     26  O   LIG d   1      -1.796  -6.868 -10.439  0.00  0.00    -0.492 OA
BRANCH  26  27
ATOM     27  C   LIG d   1      -3.059  -6.573  -9.840  0.00  0.00     0.087 C 
ATOM     28  H   LIG d   1      -3.142  -7.100  -8.889  0.00  0.00     0.069 H 
ATOM     29  H   LIG d   1      -3.138  -5.499  -9.668  0.00  0.00     0.069 H 
BRANCH  27  30
ATOM     30  C   LIG d   1      -4.184  -7.025 -10.773  0.00  0.00    -0.031 C 
ATOM     31  H   LIG d   1      -4.642  -7.932 -10.379  0.00  0.00     0.026 H 
ATOM     32  H   LIG d   1      -4.937  -6.238 -10.842  0.00  0.00     0.026 H 
ATOM     33  H   LIG d   1      -3.777  -7.225 -11.764  0.00  0.00     0.026 H 
ENDBRANCH  27  30
ENDBRANCH  26  27
ENDBRANCH  21  26
ENDBRANCH   1  11
BRANCH   4  34
ATOM     34  O   LIG d   1       4.282  -0.023  -5.766  0.00  0.00    -0.478 OA
BRANCH  34  35
ATOM     35  C   LIG d   1       3.487  -0.483  -4.672  0.00  0.00     0.193 C 
ATOM     36  H   LIG d   1       2.561  -0.916  -5.052  0.00  0.00     0.085 H 
BRANCH  35  37
ATOM     37  C   LIG d   1       3.159   0.692  -3.750  0.00  0.00    -0.017 C 
ATOM     38  H   LIG d   1       4.045   1.316  -3.625  0.00  0.00     0.027 H 
ATOM     39  H   LIG d   1       2.358   1.286  -4.189  0.00  0.00     0.027 H 
ATOM     40  H   LIG d   1       2.840   0.315  -2.778  0.00  0.00     0.027 H 
ENDBRANCH  35  37
BRANCH  35  41
ATOM     41  C   LIG d   1       4.251  -1.529  -3.901  0.00  0.00     0.348 C 
ATOM     42  O   LIG d   1       4.065  -2.701  -4.126  0.00  0.00    -0.247 OA
BRANCH  41  43
ATOM     43  O   LIG d   1       5.135  -1.157  -2.962  0.00  0.00    -0.465 OA
BRANCH  43  44
ATOM     44  C   LIG d   1       6.542  -1.251  -3.308  0.00  0.00     0.082 C 
ATOM     45  H   LIG d   1       7.109  -1.576  -2.435  0.00  0.00     0.066 H 
ATOM     46  H   LIG d   1       6.671  -1.972  -4.115  0.00  0.00     0.066 H 
ATOM     47  H   LIG d   1       6.903  -0.275  -3.633  0.00  0.00     0.066 H 
ENDBRANCH  43  44
ENDBRANCH  41  43
ENDBRANCH  35  41
ENDBRANCH  34  35
ENDBRANCH   4  34
TORSDOF 10
ENDMDL
MODEL 7
REMARK VINA RESULT:      -5.1      7.441     11.262
REMARK  10 active torsions:
REMARK  status: ('A' for Active; 'I' for Inactive)
REMARK    1  A    between atoms: C_1  and  C_2 
REMARK    2  A    between atoms: C_2  and  O_3 
REMARK    3  A    between atoms: O_3  and  C_4 
REMARK    4  A    between atoms: C_12  and  C_13 
REMARK    5  A    between atoms: C_16  and  O_19 
REMARK    6  A    between atoms: O_19  and  C_20 
REMARK    7  A    between atoms: C_20  and  C_22 
REMARK    8  A    between atoms: C_20  and  C_23 
REMARK    9  A    between atoms: C_23  and  O_25 
REMARK   10  A    between atoms: O_25  and  C_26 
ROOT
ATOM      1  C   LIG d   1       2.803   0.190  -9.215  0.00  0.00    -0.021 A 
ATOM      2  C   LIG d   1       3.725   0.810 -10.068  0.00  0.00    -0.051 A 
ATOM      3  C   LIG d   1       3.821   0.410 -11.381  0.00  0.00    -0.019 A 
ATOM      4  C   LIG d   1       2.998  -0.601 -11.864  0.00  0.00     0.122 A 
ATOM      5  C   LIG d   1       2.077  -1.216 -11.024  0.00  0.00    -0.019 A 
ATOM      6  C   LIG d   1       1.975  -0.827  -9.708  0.00  0.00    -0.051 A 
ATOM      7  H   LIG d   1       4.363   1.599  -9.694  0.00  0.00     0.062 H 
ATOM      8  H   LIG d   1       4.535   0.885 -12.037  0.00  0.00     0.065 H 
ATOM      9  H   LIG d   1       1.439  -2.001 -11.405  0.00  0.00     0.065 H 
ATOM     10  H   LIG d   1       1.260  -1.306  -9.055  0.00  0.00     0.062 H 
ENDROOT
BRANCH   1  11
ATOM     11  C   LIG d   1       2.700   0.609  -7.811  0.00  0.00    -0.008 C 
ATOM     12  C   LIG d   1       3.421  -0.034  -6.857  0.00  0.00     0.176 A 
ATOM     13  O   LIG d   1       4.360  -0.985  -7.068  0.00  0.00    -0.451 OA
ATOM     14  C   LIG d   1       3.323   0.179  -5.405  0.00  0.00     0.232 A 
ATOM     15  C   LIG d   1       4.897  -1.428  -5.911  0.00  0.00     0.143 A 
ATOM     16  C   LIG d   1       4.312  -0.751  -4.829  0.00  0.00     0.068 A 
ATOM     17  C   LIG d   1       5.875  -2.382  -5.657  0.00  0.00     0.023 A 
ATOM     18  C   LIG d   1       4.699  -1.040  -3.519  0.00  0.00    -0.044 A 
ATOM     19  C   LIG d   1       5.661  -1.982  -3.287  0.00  0.00    -0.019 A 
ATOM     20  H   LIG d   1       4.241  -0.519  -2.692  0.00  0.00     0.063 H 
ATOM     21  C   LIG d   1       6.253  -2.656  -4.352  0.00  0.00     0.124 A 
ATOM     22  H   LIG d   1       5.964  -2.204  -2.274  0.00  0.00     0.065 H 
ATOM     23  H   LIG d   1       6.340  -2.910  -6.476  0.00  0.00     0.069 H 
ATOM     24  O   LIG d   1       2.594   0.953  -4.812  0.00  0.00    -0.283 OA
ATOM     25  H   LIG d   1       2.051   1.428  -7.538  0.00  0.00     0.066 H 
BRANCH  21  26
ATOM     26  O   LIG d   1       7.208  -3.590  -4.111  0.00  0.00    -0.492 OA
BRANCH  26  27
ATOM     27  C   LIG d   1       8.561  -3.132  -4.048  0.00  0.00     0.087 C 
ATOM     28  H   LIG d   1       9.025  -3.235  -5.029  0.00  0.00     0.069 H 
ATOM     29  H   LIG d   1       8.576  -2.084  -3.747  0.00  0.00     0.069 H 
BRANCH  27  30
ATOM     30  C   LIG d   1       9.335  -3.968  -3.027  0.00  0.00    -0.031 C 
ATOM     31  H   LIG d   1       9.165  -3.570  -2.027  0.00  0.00     0.026 H 
ATOM     32  H   LIG d   1       8.992  -5.003  -3.070  0.00  0.00     0.026 H 
ATOM     33  H   LIG d   1      10.399  -3.929  -3.258  0.00  0.00     0.026 H 
ENDBRANCH  27  30
ENDBRANCH  26  27
ENDBRANCH  21  26
ENDBRANCH   1  11
BRANCH   4  34
ATOM     34  O   LIG d   1       3.093  -0.987 -13.162  0.00  0.00    -0.478 OA
BRANCH  34  35
ATOM     35  C   LIG d   1       4.386  -0.923 -13.765  0.00  0.00     0.193 C 
ATOM     36  H   LIG d   1       5.040  -0.297 -13.157  0.00  0.00     0.085 H 
BRANCH  35  37
ATOM     37  C   LIG d   1       4.266  -0.323 -15.167  0.00  0.00    -0.017 C 
ATOM     38  H   LIG d   1       4.514  -1.081 -15.910  0.00  0.00     0.027 H 
ATOM     39  H   LIG d   1       3.245   0.022 -15.329  0.00  0.00     0.027 H 
ATOM     40  H   LIG d   1       4.953   0.518 -15.263  0.00  0.00     0.027 H 
ENDBRANCH  35  37
BRANCH  35  41
ATOM     41  C   LIG d   1       4.966  -2.311 -13.860  0.00  0.00     0.348 C 
ATOM     42  O   LIG d   1       5.017  -2.871 -14.929  0.00  0.00    -0.247 OA
BRANCH  41  43
ATOM     43  O   LIG d   1       5.424  -2.924 -12.758  0.00  0.00    -0.465 OA
BRANCH  43  44
ATOM     44  C   LIG d   1       4.721  -4.121 -12.330  0.00  0.00     0.082 C 
ATOM     45  H   LIG d   1       5.445  -4.895 -12.074  0.00  0.00     0.066 H 
ATOM     46  H   LIG d   1       4.110  -3.891 -11.456  0.00  0.00     0.066 H 
ATOM     47  H   LIG d   1       4.080  -4.476 -13.137  0.00  0.00     0.066 H 
ENDBRANCH  43  44
ENDBRANCH  41  43
ENDBRANCH  35  41
ENDBRANCH  34  35
ENDBRANCH   4  34
TORSDOF 10
ENDMDL
MODEL 8
REMARK VINA RESULT:      -5.0      4.184      8.911
REMARK  10 active torsions:
REMARK  status: ('A' for Active; 'I' for Inactive)
REMARK    1  A    between atoms: C_1  and  C_2 
REMARK    2  A    between atoms: C_2  and  O_3 
REMARK    3  A    between atoms: O_3  and  C_4 
REMARK    4  A    between atoms: C_12  and  C_13 
REMARK    5  A    between atoms: C_16  and  O_19 
REMARK    6  A    between atoms: O_19  and  C_20 
REMARK    7  A    between atoms: C_20  and  C_22 
REMARK    8  A    between atoms: C_20  and  C_23 
REMARK    9  A    between atoms: C_23  and  O_25 
REMARK   10  A    between atoms: O_25  and  C_26 
ROOT
ATOM      1  C   LIG d   1       9.193   1.697  -4.704  0.00  0.00    -0.021 A 
ATOM      2  C   LIG d   1       9.161   0.401  -5.236  0.00  0.00    -0.051 A 
ATOM      3  C   LIG d   1       8.111  -0.437  -4.935  0.00  0.00    -0.019 A 
ATOM      4  C   LIG d   1       7.079   0.004  -4.114  0.00  0.00     0.122 A 
ATOM      5  C   LIG d   1       7.103   1.291  -3.588  0.00  0.00    -0.019 A 
ATOM      6  C   LIG d   1       8.150   2.136  -3.878  0.00  0.00    -0.051 A 
ATOM      7  H   LIG d   1       9.960   0.059  -5.877  0.00  0.00     0.062 H 
ATOM      8  H   LIG d   1       8.088  -1.437  -5.341  0.00  0.00     0.065 H 
ATOM      9  H   LIG d   1       6.299   1.628  -2.951  0.00  0.00     0.065 H 
ATOM     10  H   LIG d   1       8.168   3.135  -3.469  0.00  0.00     0.062 H 
ENDROOT
BRANCH   1  11
ATOM     11  C   LIG d   1      10.313   2.593  -5.016  0.00  0.00    -0.008 C 
ATOM     12  C   LIG d   1      10.295   3.328  -6.158  0.00  0.00     0.176 A 
ATOM     13  O   LIG d   1       9.265   3.429  -7.029  0.00  0.00    -0.451 OA
ATOM     14  C   LIG d   1      11.394   4.161  -6.671  0.00  0.00     0.232 A 
ATOM     15  C   LIG d   1       9.562   4.240  -8.068  0.00  0.00     0.143 A 
ATOM     16  C   LIG d   1      10.865   4.741  -7.919  0.00  0.00     0.068 A 
ATOM     17  C   LIG d   1       8.817   4.624  -9.176  0.00  0.00     0.023 A 
ATOM     18  C   LIG d   1      11.406   5.603  -8.875  0.00  0.00    -0.044 A 
ATOM     19  C   LIG d   1      10.660   5.969  -9.960  0.00  0.00    -0.019 A 
ATOM     20  H   LIG d   1      12.410   5.981  -8.756  0.00  0.00     0.063 H 
ATOM     21  C   LIG d   1       9.365   5.483 -10.116  0.00  0.00     0.124 A 
ATOM     22  H   LIG d   1      11.076   6.638 -10.698  0.00  0.00     0.065 H 
ATOM     23  H   LIG d   1       7.811   4.251  -9.306  0.00  0.00     0.069 H 
ATOM     24  O   LIG d   1      12.492   4.337  -6.174  0.00  0.00    -0.283 OA
ATOM     25  H   LIG d   1      11.151   2.669  -4.338  0.00  0.00     0.066 H 
BRANCH  21  26
ATOM     26  O   LIG d   1       8.632   5.853 -11.197  0.00  0.00    -0.492 OA
BRANCH  26  27
ATOM     27  C   LIG d   1       9.304   5.881 -12.457  0.00  0.00     0.087 C 
ATOM     28  H   LIG d   1      10.363   5.668 -12.309  0.00  0.00     0.069 H 
ATOM     29  H   LIG d   1       8.871   5.129 -13.117  0.00  0.00     0.069 H 
BRANCH  27  30
ATOM     30  C   LIG d   1       9.147   7.266 -13.088  0.00  0.00    -0.031 C 
ATOM     31  H   LIG d   1       8.114   7.406 -13.407  0.00  0.00     0.026 H 
ATOM     32  H   LIG d   1       9.408   8.031 -12.355  0.00  0.00     0.026 H 
ATOM     33  H   LIG d   1       9.807   7.350 -13.951  0.00  0.00     0.026 H 
ENDBRANCH  27  30
ENDBRANCH  26  27
ENDBRANCH  21  26
ENDBRANCH   1  11
BRANCH   4  34
ATOM     34  O   LIG d   1       6.044  -0.825  -3.826  0.00  0.00    -0.478 OA
BRANCH  34  35
ATOM     35  C   LIG d   1       4.955  -0.269  -3.087  0.00  0.00     0.193 C 
ATOM     36  H   LIG d   1       5.305   0.588  -2.512  0.00  0.00     0.085 H 
BRANCH  35  37
ATOM     37  C   LIG d   1       4.393  -1.326  -2.133  0.00  0.00    -0.017 C 
ATOM     38  H   LIG d   1       4.738  -2.314  -2.440  0.00  0.00     0.027 H 
ATOM     39  H   LIG d   1       4.738  -1.121  -1.120  0.00  0.00     0.027 H 
ATOM     40  H   LIG d   1       3.303  -1.297  -2.159  0.00  0.00     0.027 H 
ENDBRANCH  35  37
BRANCH  35  41
ATOM     41  C   LIG d   1       3.874   0.172  -4.040  0.00  0.00     0.348 C 
ATOM     42  O   LIG d   1       3.362   1.259  -3.910  0.00  0.00    -0.247 OA
BRANCH  41  43
ATOM     43  O   LIG d   1       3.479  -0.642  -5.030  0.00  0.00    -0.465 OA
BRANCH  43  44
ATOM     44  C   LIG d   1       3.585  -0.132  -6.385  0.00  0.00     0.082 C 
ATOM     45  H   LIG d   1       3.409   0.944  -6.383  0.00  0.00     0.066 H 
ATOM     46  H   LIG d   1       4.583  -0.337  -6.774  0.00  0.00     0.066 H 
ATOM     47  H   LIG d   1       2.842  -0.619  -7.017  0.00  0.00     0.066 H 
ENDBRANCH  43  44
ENDBRANCH  41  43
ENDBRANCH  35  41
ENDBRANCH  34  35
ENDBRANCH   4  34
TORSDOF 10
ENDMDL
MODEL 9
REMARK VINA RESULT:      -4.9      4.377      6.595
REMARK  10 active torsions:
REMARK  status: ('A' for Active; 'I' for Inactive)
REMARK    1  A    between atoms: C_1  and  C_2 
REMARK    2  A    between atoms: C_2  and  O_3 
REMARK    3  A    between atoms: O_3  and  C_4 
REMARK    4  A    between atoms: C_12  and  C_13 
REMARK    5  A    between atoms: C_16  and  O_19 
REMARK    6  A    between atoms: O_19  and  C_20 
REMARK    7  A    between atoms: C_20  and  C_22 
REMARK    8  A    between atoms: C_20  and  C_23 
REMARK    9  A    between atoms: C_23  and  O_25 
REMARK   10  A    between atoms: O_25  and  C_26 
ROOT
ATOM      1  C   LIG d   1       9.972   7.614  -0.920  0.00  0.00    -0.021 A 
ATOM      2  C   LIG d   1      11.146   8.172  -0.400  0.00  0.00    -0.051 A 
ATOM      3  C   LIG d   1      11.153   9.480   0.030  0.00  0.00    -0.019 A 
ATOM      4  C   LIG d   1       9.993  10.244  -0.042  0.00  0.00     0.122 A 
ATOM      5  C   LIG d   1       8.822   9.693  -0.552  0.00  0.00    -0.019 A 
ATOM      6  C   LIG d   1       8.806   8.388  -0.988  0.00  0.00    -0.051 A 
ATOM      7  H   LIG d   1      12.047   7.578  -0.340  0.00  0.00     0.062 H 
ATOM      8  H   LIG d   1      12.059   9.912   0.425  0.00  0.00     0.065 H 
ATOM      9  H   LIG d   1       7.924  10.291  -0.605  0.00  0.00     0.065 H 
ATOM     10  H   LIG d   1       7.896   7.962  -1.385  0.00  0.00     0.062 H 
ENDROOT
BRANCH   1  11
ATOM     11  C   LIG d   1       9.960   6.222  -1.384  0.00  0.00    -0.008 C 
ATOM     12  C   LIG d   1       9.925   5.951  -2.714  0.00  0.00     0.176 A 
ATOM     13  O   LIG d   1      10.023   6.853  -3.718  0.00  0.00    -0.451 OA
ATOM     14  C   LIG d   1       9.774   4.621  -3.326  0.00  0.00     0.232 A 
ATOM     15  C   LIG d   1       9.953   6.266  -4.932  0.00  0.00     0.143 A 
ATOM     16  C   LIG d   1       9.804   4.878  -4.777  0.00  0.00     0.068 A 
ATOM     17  C   LIG d   1      10.008   6.797  -6.215  0.00  0.00     0.023 A 
ATOM     18  C   LIG d   1       9.703   4.048  -5.895  0.00  0.00    -0.044 A 
ATOM     19  C   LIG d   1       9.757   4.587  -7.150  0.00  0.00    -0.019 A 
ATOM     20  H   LIG d   1       9.584   2.982  -5.768  0.00  0.00     0.063 H 
ATOM     21  C   LIG d   1       9.910   5.961  -7.316  0.00  0.00     0.124 A 
ATOM     22  H   LIG d   1       9.682   3.945  -8.015  0.00  0.00     0.065 H 
ATOM     23  H   LIG d   1      10.126   7.861  -6.354  0.00  0.00     0.069 H 
ATOM     24  O   LIG d   1       9.657   3.549  -2.761  0.00  0.00    -0.283 OA
ATOM     25  H   LIG d   1       9.980   5.413  -0.669  0.00  0.00     0.066 H 
BRANCH  21  26
ATOM     26  O   LIG d   1       9.964   6.486  -8.566  0.00  0.00    -0.492 OA
BRANCH  26  27
ATOM     27  C   LIG d   1       8.790   6.363  -9.372  0.00  0.00     0.087 C 
ATOM     28  H   LIG d   1       8.151   5.579  -8.966  0.00  0.00     0.069 H 
ATOM     29  H   LIG d   1       8.249   7.309  -9.372  0.00  0.00     0.069 H 
BRANCH  27  30
ATOM     30  C   LIG d   1       9.190   6.004 -10.805  0.00  0.00    -0.031 C 
ATOM     31  H   LIG d   1      10.089   5.389 -10.788  0.00  0.00     0.026 H 
ATOM     32  H   LIG d   1       8.380   5.450 -11.280  0.00  0.00     0.026 H 
ATOM     33  H   LIG d   1       9.385   6.917 -11.367  0.00  0.00     0.026 H 
ENDBRANCH  27  30
ENDBRANCH  26  27
ENDBRANCH  21  26
ENDBRANCH   1  11
BRANCH   4  34
ATOM     34  O   LIG d   1      10.004  11.531   0.388  0.00  0.00    -0.478 OA
BRANCH  34  35
ATOM     35  C   LIG d   1      11.010  12.387  -0.154  0.00  0.00     0.193 C 
ATOM     36  H   LIG d   1      11.764  11.787  -0.663  0.00  0.00     0.085 H 
BRANCH  35  37
ATOM     37  C   LIG d   1      11.669  13.181   0.977  0.00  0.00    -0.017 C 
ATOM     38  H   LIG d   1      11.013  13.998   1.278  0.00  0.00     0.027 H 
ATOM     39  H   LIG d   1      11.842  12.523   1.828  0.00  0.00     0.027 H 
ATOM     40  H   LIG d   1      12.620  13.586   0.631  0.00  0.00     0.027 H 
ENDBRANCH  35  37
BRANCH  35  41
ATOM     41  C   LIG d   1      10.382  13.342  -1.137  0.00  0.00     0.348 C 
ATOM     42  O   LIG d   1       9.886  14.372  -0.745  0.00  0.00    -0.247 OA
BRANCH  41  43
ATOM     43  O   LIG d   1      10.371  13.047  -2.446  0.00  0.00    -0.465 OA
BRANCH  43  44
ATOM     44  C   LIG d   1       9.149  12.475  -2.982  0.00  0.00     0.082 C 
ATOM     45  H   LIG d   1       8.360  12.534  -2.231  0.00  0.00     0.066 H 
ATOM     46  H   LIG d   1       8.847  13.030  -3.871  0.00  0.00     0.066 H 
ATOM     47  H   LIG d   1       9.320  11.432  -3.247  0.00  0.00     0.066 H 
ENDBRANCH  43  44
ENDBRANCH  41  43
ENDBRANCH  35  41
ENDBRANCH  34  35
ENDBRANCH   4  34
TORSDOF 10
ENDMDL
MODEL 10
REMARK VINA RESULT:      -4.9      7.207     12.102
REMARK  10 active torsions:
REMARK  status: ('A' for Active; 'I' for Inactive)
REMARK    1  A    between atoms: C_1  and  C_2 
REMARK    2  A    between atoms: C_2  and  O_3 
REMARK    3  A    between atoms: O_3  and  C_4 
REMARK    4  A    between atoms: C_12  and  C_13 
REMARK    5  A    between atoms: C_16  and  O_19 
REMARK    6  A    between atoms: O_19  and  C_20 
REMARK    7  A    between atoms: C_20  and  C_22 
REMARK    8  A    between atoms: C_20  and  C_23 
REMARK    9  A    between atoms: C_23  and  O_25 
REMARK   10  A    between atoms: O_25  and  C_26 
ROOT
ATOM      1  C   LIG d   1       2.717  -0.107  -8.977  0.00  0.00    -0.021 A 
ATOM      2  C   LIG d   1       1.959  -1.252  -9.253  0.00  0.00    -0.051 A 
ATOM      3  C   LIG d   1       1.855  -1.710 -10.547  0.00  0.00    -0.019 A 
ATOM      4  C   LIG d   1       2.509  -1.044 -11.577  0.00  0.00     0.122 A 
ATOM      5  C   LIG d   1       3.268   0.089 -11.309  0.00  0.00    -0.019 A 
ATOM      6  C   LIG d   1       3.375   0.559 -10.019  0.00  0.00    -0.051 A 
ATOM      7  H   LIG d   1       1.453  -1.772  -8.452  0.00  0.00     0.062 H 
ATOM      8  H   LIG d   1       1.267  -2.590 -10.761  0.00  0.00     0.065 H 
ATOM      9  H   LIG d   1       3.774   0.602 -12.113  0.00  0.00     0.065 H 
ATOM     10  H   LIG d   1       3.964   1.440  -9.812  0.00  0.00     0.062 H 
ENDROOT
BRANCH   1  11
ATOM     11  C   LIG d   1       2.827   0.389  -7.600  0.00  0.00    -0.008 C 
ATOM     12  C   LIG d   1       3.652  -0.232  -6.719  0.00  0.00     0.176 A 
ATOM     13  O   LIG d   1       4.519  -1.232  -7.002  0.00  0.00    -0.451 OA
ATOM     14  C   LIG d   1       3.767   0.061  -5.282  0.00  0.00     0.232 A 
ATOM     15  C   LIG d   1       5.198  -1.635  -5.906  0.00  0.00     0.143 A 
ATOM     16  C   LIG d   1       4.794  -0.878  -4.795  0.00  0.00     0.068 A 
ATOM     17  C   LIG d   1       6.168  -2.615  -5.735  0.00  0.00     0.023 A 
ATOM     18  C   LIG d   1       5.352  -1.114  -3.537  0.00  0.00    -0.044 A 
ATOM     19  C   LIG d   1       6.304  -2.082  -3.386  0.00  0.00    -0.019 A 
ATOM     20  H   LIG d   1       5.033  -0.530  -2.686  0.00  0.00     0.063 H 
ATOM     21  C   LIG d   1       6.716  -2.836  -4.482  0.00  0.00     0.124 A 
ATOM     22  H   LIG d   1       6.739  -2.262  -2.414  0.00  0.00     0.065 H 
ATOM     23  H   LIG d   1       6.494  -3.205  -6.579  0.00  0.00     0.069 H 
ATOM     24  O   LIG d   1       3.156   0.896  -4.639  0.00  0.00    -0.283 OA
ATOM     25  H   LIG d   1       2.252   1.249  -7.288  0.00  0.00     0.066 H 
BRANCH  21  26
ATOM     26  O   LIG d   1       7.663  -3.795  -4.321  0.00  0.00    -0.492 OA
BRANCH  26  27
ATOM     27  C   LIG d   1       8.742  -3.498  -3.433  0.00  0.00     0.087 C 
ATOM     28  H   LIG d   1       9.420  -2.788  -3.908  0.00  0.00     0.069 H 
ATOM     29  H   LIG d   1       8.348  -3.064  -2.514  0.00  0.00     0.069 H 
BRANCH  27  30
ATOM     30  C   LIG d   1       9.502  -4.785  -3.104  0.00  0.00    -0.031 C 
ATOM     31  H   LIG d   1       9.823  -4.762  -2.063  0.00  0.00     0.026 H 
ATOM     32  H   LIG d   1       8.847  -5.643  -3.264  0.00  0.00     0.026 H 
ATOM     33  H   LIG d   1      10.374  -4.868  -3.752  0.00  0.00     0.026 H 
ENDBRANCH  27  30
ENDBRANCH  26  27
ENDBRANCH  21  26
ENDBRANCH   1  11
BRANCH   4  34
ATOM     34  O   LIG d   1       2.408  -1.504 -12.851  0.00  0.00    -0.478 OA
BRANCH  34  35
ATOM     35  C   LIG d   1       1.640  -2.692 -13.052  0.00  0.00     0.193 C 
ATOM     36  H   LIG d   1       1.368  -3.118 -12.086  0.00  0.00     0.085 H 
BRANCH  35  37
ATOM     37  C   LIG d   1       2.470  -3.708 -13.841  0.00  0.00    -0.017 C 
ATOM     38  H   LIG d   1       2.396  -4.686 -13.366  0.00  0.00     0.027 H 
ATOM     39  H   LIG d   1       2.091  -3.771 -14.861  0.00  0.00     0.027 H 
ATOM     40  H   LIG d   1       3.512  -3.390 -13.860  0.00  0.00     0.027 H 
ENDBRANCH  35  37
BRANCH  35  41
ATOM     41  C   LIG d   1       0.390  -2.358 -13.824  0.00  0.00     0.348 C 
ATOM     42  O   LIG d   1       0.356  -2.526 -15.020  0.00  0.00    -0.247 OA
BRANCH  41  43
ATOM     43  O   LIG d   1      -0.684  -1.871 -13.184  0.00  0.00    -0.465 OA
BRANCH  43  44
ATOM     44  C   LIG d   1      -1.940  -2.574 -13.375  0.00  0.00     0.082 C 
ATOM     45  H   LIG d   1      -2.006  -3.399 -12.665  0.00  0.00     0.066 H 
ATOM     46  H   LIG d   1      -2.770  -1.886 -13.210  0.00  0.00     0.066 H 
ATOM     47  H   LIG d   1      -1.989  -2.964 -14.391  0.00  0.00     0.066 H 
ENDBRANCH  43  44
ENDBRANCH  41  43
ENDBRANCH  35  41
ENDBRANCH  34  35
ENDBRANCH   4  34
TORSDOF 10
ENDMDL
