MODEL 1
REMARK VINA RESULT:      -7.0      0.000      0.000
REMARK  4 active torsions:
REMARK  status: ('A' for Active; 'I' for Inactive)
REMARK    1  A    between atoms: C_3  and  N_7 
REMARK       I    between atoms: N_7  and  C_8 
REMARK    2  A    between atoms: C_8  and  C_10 
REMARK    3  A    between atoms: C_10  and  C_11 
REMARK    4  A    between atoms: C_10  and  C_15 
ROOT
ATOM      1  N   LIG d   1       2.734  -0.113  -5.611  0.00  0.00    -0.283 N 
ATOM      2  C   LIG d   1       3.783  -0.199  -4.769  0.00  0.00     0.238 C 
ATOM      3  O   LIG d   1       4.897   0.079  -5.159  0.00  0.00    -0.275 OA
ATOM      4  H   LIG d   1       1.834  -0.259  -5.282  0.00  0.00     0.155 HD
ENDROOT
BRANCH   1   5
ATOM      5  C   LIG d   1       2.944   0.190  -6.962  0.00  0.00     0.052 A 
ATOM      6  C   LIG d   1       2.788   1.494  -7.426  0.00  0.00    -0.038 A 
ATOM      7  C   LIG d   1       3.006   1.745  -8.771  0.00  0.00    -0.042 A 
ATOM      8  H   LIG d   1       2.504   2.290  -6.754  0.00  0.00     0.064 H 
ATOM      9  C   LIG d   1       3.369   0.701  -9.601  0.00  0.00     0.028 A 
ATOM     10  H   LIG d   1       2.890   2.742  -9.166  0.00  0.00     0.063 H 
ATOM     11  N   LIG d   1       3.508  -0.524  -9.131  0.00  0.00    -0.261 NA
ATOM     12  H   LIG d   1       3.540   0.890 -10.651  0.00  0.00     0.083 H 
ATOM     13  C   LIG d   1       3.310  -0.805  -7.859  0.00  0.00     0.049 A 
ATOM     14  H   LIG d   1       3.433  -1.819  -7.510  0.00  0.00     0.085 H 
ENDBRANCH   1   5
BRANCH   2  15
ATOM     15  C   LIG d   1       3.570  -0.641  -3.344  0.00  0.00     0.224 C 
ATOM     16  H   LIG d   1       2.503  -0.742  -3.151  0.00  0.00     0.057 H 
BRANCH  15  17
ATOM     17  C   LIG d   1       4.259  -1.989  -3.121  0.00  0.00     0.409 C 
ATOM     18  F   LIG d   1       5.604  -1.777  -2.797  0.00  0.00    -0.170 F 
ATOM     19  F   LIG d   1       3.628  -2.667  -2.072  0.00  0.00    -0.170 F 
ATOM     20  F   LIG d   1       4.176  -2.755  -4.288  0.00  0.00    -0.170 F 
ENDBRANCH  15  17
BRANCH  15  21
ATOM     21  C   LIG d   1       4.165   0.400  -2.394  0.00  0.00     0.409 C 
ATOM     22  F   LIG d   1       4.443  -0.200  -1.161  0.00  0.00    -0.170 F 
ATOM     23  F   LIG d   1       5.346   0.911  -2.942  0.00  0.00    -0.170 F 
ATOM     24  F   LIG d   1       3.248   1.441  -2.210  0.00  0.00    -0.170 F 
ENDBRANCH  15  21
ENDBRANCH   2  15
TORSDOF 4
ENDMDL
MODEL 2
REMARK VINA RESULT:      -6.9      1.058      2.461
REMARK  4 active torsions:
REMARK  status: ('A' for Active; 'I' for Inactive)
REMARK    1  A    between atoms: C_3  and  N_7 
REMARK       I    between atoms: N_7  and  C_8 
REMARK    2  A    between atoms: C_8  and  C_10 
REMARK    3  A    between atoms: C_10  and  C_11 
REMARK    4  A    between atoms: C_10  and  C_15 
ROOT
ATOM      1  N   LIG d   1       3.568  -0.399  -5.162  0.00  0.00    -0.283 N 
ATOM      2  C   LIG d   1       4.741  -0.145  -4.550  0.00  0.00     0.238 C 
ATOM      3  O   LIG d   1       5.696   0.226  -5.199  0.00  0.00    -0.275 OA
ATOM      4  H   LIG d   1       2.784  -0.621  -4.636  0.00  0.00     0.155 HD
ENDROOT
BRANCH   1   5
ATOM      5  C   LIG d   1       3.480  -0.344  -6.558  0.00  0.00     0.052 A 
ATOM      6  C   LIG d   1       2.894   0.754  -7.186  0.00  0.00    -0.038 A 
ATOM      7  C   LIG d   1       2.830   0.763  -8.570  0.00  0.00    -0.042 A 
ATOM      8  H   LIG d   1       2.500   1.576  -6.608  0.00  0.00     0.064 H 
ATOM      9  C   LIG d   1       3.346  -0.307  -9.277  0.00  0.00     0.028 A 
ATOM     10  H   LIG d   1       2.380   1.595  -9.090  0.00  0.00     0.063 H 
ATOM     11  N   LIG d   1       3.894  -1.332  -8.652  0.00  0.00    -0.261 NA
ATOM     12  H   LIG d   1       3.299  -0.305 -10.355  0.00  0.00     0.083 H 
ATOM     13  C   LIG d   1       3.975  -1.381  -7.338  0.00  0.00     0.049 A 
ATOM     14  H   LIG d   1       4.431  -2.236  -6.861  0.00  0.00     0.085 H 
ENDBRANCH   1   5
BRANCH   2  15
ATOM     15  C   LIG d   1       4.866  -0.320  -3.058  0.00  0.00     0.224 C 
ATOM     16  H   LIG d   1       5.920  -0.324  -2.780  0.00  0.00     0.057 H 
BRANCH  15  17
ATOM     17  C   LIG d   1       4.156   0.834  -2.348  0.00  0.00     0.409 C 
ATOM     18  F   LIG d   1       4.671   0.974  -1.056  0.00  0.00    -0.170 F 
ATOM     19  F   LIG d   1       4.362   2.019  -3.063  0.00  0.00    -0.170 F 
ATOM     20  F   LIG d   1       2.785   0.564  -2.277  0.00  0.00    -0.170 F 
ENDBRANCH  15  17
BRANCH  15  21
ATOM     21  C   LIG d   1       4.225  -1.646  -2.646  0.00  0.00     0.409 C 
ATOM     22  F   LIG d   1       2.851  -1.599  -2.901  0.00  0.00    -0.170 F 
ATOM     23  F   LIG d   1       4.800  -2.691  -3.378  0.00  0.00    -0.170 F 
ATOM     24  F   LIG d   1       4.438  -1.863  -1.279  0.00  0.00    -0.170 F 
ENDBRANCH  15  21
ENDBRANCH   2  15
TORSDOF 4
ENDMDL
MODEL 3
REMARK VINA RESULT:      -6.2      1.385      2.591
REMARK  4 active torsions:
REMARK  status: ('A' for Active; 'I' for Inactive)
REMARK    1  A    between atoms: C_3  and  N_7 
REMARK       I    between atoms: N_7  and  C_8 
REMARK    2  A    between atoms: C_8  and  C_10 
REMARK    3  A    between atoms: C_10  and  C_11 
REMARK    4  A    between atoms: C_10  and  C_15 
ROOT
ATOM      1  N   LIG d   1       4.375   0.119  -5.834  0.00  0.00    -0.283 N 
ATOM      2  C   LIG d   1       4.328  -0.755  -4.810  0.00  0.00     0.238 C 
ATOM      3  O   LIG d   1       4.136  -1.933  -5.025  0.00  0.00    -0.275 OA
ATOM      4  H   LIG d   1       4.605   1.046  -5.672  0.00  0.00     0.155 HD
ENDROOT
BRANCH   1   5
ATOM      5  C   LIG d   1       4.091  -0.313  -7.136  0.00  0.00     0.052 A 
ATOM      6  C   LIG d   1       2.801  -0.202  -7.651  0.00  0.00    -0.038 A 
ATOM      7  C   LIG d   1       2.569  -0.642  -8.943  0.00  0.00    -0.042 A 
ATOM      8  H   LIG d   1       2.003   0.217  -7.057  0.00  0.00     0.064 H 
ATOM      9  C   LIG d   1       3.616  -1.173  -9.674  0.00  0.00     0.028 A 
ATOM     10  H   LIG d   1       1.582  -0.576  -9.374  0.00  0.00     0.063 H 
ATOM     11  N   LIG d   1       4.827  -1.264  -9.157  0.00  0.00    -0.261 NA
ATOM     12  H   LIG d   1       3.441  -1.517 -10.682  0.00  0.00     0.083 H 
ATOM     13  C   LIG d   1       5.091  -0.857  -7.932  0.00  0.00     0.049 A 
ATOM     14  H   LIG d   1       6.093  -0.947  -7.542  0.00  0.00     0.085 H 
ENDBRANCH   1   5
BRANCH   2  15
ATOM     15  C   LIG d   1       4.517  -0.268  -3.396  0.00  0.00     0.224 C 
ATOM     16  H   LIG d   1       5.392   0.379  -3.348  0.00  0.00     0.057 H 
BRANCH  15  17
ATOM     17  C   LIG d   1       3.278   0.517  -2.958  0.00  0.00     0.409 C 
ATOM     18  F   LIG d   1       3.589   1.289  -1.834  0.00  0.00    -0.170 F 
ATOM     19  F   LIG d   1       2.865   1.355  -4.000  0.00  0.00    -0.170 F 
ATOM     20  F   LIG d   1       2.248  -0.375  -2.641  0.00  0.00    -0.170 F 
ENDBRANCH  15  17
BRANCH  15  21
ATOM     21  C   LIG d   1       4.716  -1.466  -2.466  0.00  0.00     0.409 C 
ATOM     22  F   LIG d   1       4.607  -1.048  -1.136  0.00  0.00    -0.170 F 
ATOM     23  F   LIG d   1       3.740  -2.432  -2.734  0.00  0.00    -0.170 F 
ATOM     24  F   LIG d   1       5.986  -2.016  -2.679  0.00  0.00    -0.170 F 
ENDBRANCH  15  21
ENDBRANCH   2  15
TORSDOF 4
ENDMDL
MODEL 4
REMARK VINA RESULT:      -5.9      3.449      4.159
REMARK  4 active torsions:
REMARK  status: ('A' for Active; 'I' for Inactive)
REMARK    1  A    between atoms: C_3  and  N_7 
REMARK       I    between atoms: N_7  and  C_8 
REMARK    2  A    between atoms: C_8  and  C_10 
REMARK    3  A    between atoms: C_10  and  C_11 
REMARK    4  A    between atoms: C_10  and  C_15 
ROOT
ATOM      1  N   LIG d   1       6.213   0.112  -5.005  0.00  0.00    -0.283 N 
ATOM      2  C   LIG d   1       5.746  -0.383  -3.842  0.00  0.00     0.238 C 
ATOM      3  O   LIG d   1       6.450  -1.097  -3.161  0.00  0.00    -0.275 OA
ATOM      4  H   LIG d   1       5.681   0.745  -5.512  0.00  0.00     0.155 HD
ENDROOT
BRANCH   1   5
ATOM      5  C   LIG d   1       7.468  -0.286  -5.482  0.00  0.00     0.052 A 
ATOM      6  C   LIG d   1       7.587  -1.402  -6.307  0.00  0.00    -0.038 A 
ATOM      7  C   LIG d   1       8.849  -1.757  -6.754  0.00  0.00    -0.042 A 
ATOM      8  H   LIG d   1       6.718  -1.976  -6.591  0.00  0.00     0.064 H 
ATOM      9  C   LIG d   1       9.940  -0.998  -6.371  0.00  0.00     0.028 A 
ATOM     10  H   LIG d   1       8.981  -2.619  -7.391  0.00  0.00     0.063 H 
ATOM     11  N   LIG d   1       9.792   0.054  -5.588  0.00  0.00    -0.261 NA
ATOM     12  H   LIG d   1      10.926  -1.270  -6.717  0.00  0.00     0.083 H 
ATOM     13  C   LIG d   1       8.610   0.426  -5.141  0.00  0.00     0.049 A 
ATOM     14  H   LIG d   1       8.528   1.293  -4.502  0.00  0.00     0.085 H 
ENDBRANCH   1   5
BRANCH   2  15
ATOM     15  C   LIG d   1       4.348  -0.048  -3.387  0.00  0.00     0.224 C 
ATOM     16  H   LIG d   1       3.800   0.411  -4.209  0.00  0.00     0.057 H 
BRANCH  15  17
ATOM     17  C   LIG d   1       3.635  -1.328  -2.949  0.00  0.00     0.409 C 
ATOM     18  F   LIG d   1       3.754  -2.295  -3.953  0.00  0.00    -0.170 F 
ATOM     19  F   LIG d   1       4.217  -1.807  -1.770  0.00  0.00    -0.170 F 
ATOM     20  F   LIG d   1       2.282  -1.055  -2.723  0.00  0.00    -0.170 F 
ENDBRANCH  15  17
BRANCH  15  21
ATOM     21  C   LIG d   1       4.415   0.928  -2.211  0.00  0.00     0.409 C 
ATOM     22  F   LIG d   1       5.491   1.803  -2.392  0.00  0.00    -0.170 F 
ATOM     23  F   LIG d   1       3.224   1.659  -2.143  0.00  0.00    -0.170 F 
ATOM     24  F   LIG d   1       4.591   0.212  -1.021  0.00  0.00    -0.170 F 
ENDBRANCH  15  21
ENDBRANCH   2  15
TORSDOF 4
ENDMDL
MODEL 5
REMARK VINA RESULT:      -5.9      3.002      4.295
REMARK  4 active torsions:
REMARK  status: ('A' for Active; 'I' for Inactive)
REMARK    1  A    between atoms: C_3  and  N_7 
REMARK       I    between atoms: N_7  and  C_8 
REMARK    2  A    between atoms: C_8  and  C_10 
REMARK    3  A    between atoms: C_10  and  C_11 
REMARK    4  A    between atoms: C_10  and  C_15 
ROOT
ATOM      1  N   LIG d   1       5.371  -1.451  -5.216  0.00  0.00    -0.283 N 
ATOM      2  C   LIG d   1       4.297  -1.300  -4.418  0.00  0.00     0.238 C 
ATOM      3  O   LIG d   1       3.720  -2.276  -3.987  0.00  0.00    -0.275 OA
ATOM      4  H   LIG d   1       5.879  -0.674  -5.498  0.00  0.00     0.155 HD
ENDROOT
BRANCH   1   5
ATOM      5  C   LIG d   1       5.756  -2.729  -5.640  0.00  0.00     0.052 A 
ATOM      6  C   LIG d   1       6.683  -3.466  -4.908  0.00  0.00    -0.038 A 
ATOM      7  C   LIG d   1       7.032  -4.726  -5.367  0.00  0.00    -0.042 A 
ATOM      8  H   LIG d   1       7.120  -3.066  -4.005  0.00  0.00     0.064 H 
ATOM      9  C   LIG d   1       6.452  -5.206  -6.527  0.00  0.00     0.028 A 
ATOM     10  H   LIG d   1       7.751  -5.324  -4.828  0.00  0.00     0.063 H 
ATOM     11  N   LIG d   1       5.577  -4.482  -7.198  0.00  0.00    -0.261 NA
ATOM     12  H   LIG d   1       6.721  -6.187  -6.889  0.00  0.00     0.083 H 
ATOM     13  C   LIG d   1       5.218  -3.279  -6.796  0.00  0.00     0.049 A 
ATOM     14  H   LIG d   1       4.498  -2.716  -7.371  0.00  0.00     0.085 H 
ENDBRANCH   1   5
BRANCH   2  15
ATOM     15  C   LIG d   1       3.812   0.081  -4.059  0.00  0.00     0.224 C 
ATOM     16  H   LIG d   1       4.608   0.804  -4.242  0.00  0.00     0.057 H 
BRANCH  15  17
ATOM     17  C   LIG d   1       2.595   0.433  -4.917  0.00  0.00     0.409 C 
ATOM     18  F   LIG d   1       2.340   1.805  -4.823  0.00  0.00    -0.170 F 
ATOM     19  F   LIG d   1       2.853   0.098  -6.251  0.00  0.00    -0.170 F 
ATOM     20  F   LIG d   1       1.482  -0.281  -4.463  0.00  0.00    -0.170 F 
ENDBRANCH  15  17
BRANCH  15  21
ATOM     21  C   LIG d   1       3.422   0.116  -2.580  0.00  0.00     0.409 C 
ATOM     22  F   LIG d   1       2.238  -0.606  -2.393  0.00  0.00    -0.170 F 
ATOM     23  F   LIG d   1       4.444  -0.456  -1.814  0.00  0.00    -0.170 F 
ATOM     24  F   LIG d   1       3.226   1.443  -2.180  0.00  0.00    -0.170 F 
ENDBRANCH  15  21
ENDBRANCH   2  15
TORSDOF 4
ENDMDL
MODEL 6
REMARK VINA RESULT:      -5.8      3.926      4.985
REMARK  4 active torsions:
REMARK  status: ('A' for Active; 'I' for Inactive)
REMARK    1  A    between atoms: C_3  and  N_7 
REMARK       I    between atoms: N_7  and  C_8 
REMARK    2  A    between atoms: C_8  and  C_10 
REMARK    3  A    between atoms: C_10  and  C_11 
REMARK    4  A    between atoms: C_10  and  C_15 
ROOT
ATOM      1  N   LIG d   1       7.830   0.317  -3.841  0.00  0.00    -0.283 N 
ATOM      2  C   LIG d   1       6.517   0.299  -3.539  0.00  0.00     0.238 C 
ATOM      3  O   LIG d   1       5.811   1.235  -3.849  0.00  0.00    -0.275 OA
ATOM      4  H   LIG d   1       8.380  -0.462  -3.663  0.00  0.00     0.155 HD
ENDROOT
BRANCH   1   5
ATOM      5  C   LIG d   1       8.402   1.460  -4.412  0.00  0.00     0.052 A 
ATOM      6  C   LIG d   1       8.917   2.471  -3.603  0.00  0.00    -0.038 A 
ATOM      7  C   LIG d   1       9.473   3.583  -4.214  0.00  0.00    -0.042 A 
ATOM      8  H   LIG d   1       8.884   2.390  -2.527  0.00  0.00     0.064 H 
ATOM      9  C   LIG d   1       9.500   3.653  -5.595  0.00  0.00     0.028 A 
ATOM     10  H   LIG d   1       9.878   4.388  -3.619  0.00  0.00     0.063 H 
ATOM     11  N   LIG d   1       9.003   2.678  -6.332  0.00  0.00    -0.261 NA
ATOM     12  H   LIG d   1       9.932   4.517  -6.076  0.00  0.00     0.083 H 
ATOM     13  C   LIG d   1       8.465   1.603  -5.792  0.00  0.00     0.049 A 
ATOM     14  H   LIG d   1       8.069   0.826  -6.428  0.00  0.00     0.085 H 
ENDBRANCH   1   5
BRANCH   2  15
ATOM     15  C   LIG d   1       5.926  -0.884  -2.817  0.00  0.00     0.224 C 
ATOM     16  H   LIG d   1       6.641  -1.256  -2.084  0.00  0.00     0.057 H 
BRANCH  15  17
ATOM     17  C   LIG d   1       4.641  -0.455  -2.104  0.00  0.00     0.409 C 
ATOM     18  F   LIG d   1       4.871   0.735  -1.406  0.00  0.00    -0.170 F 
ATOM     19  F   LIG d   1       3.629  -0.255  -3.048  0.00  0.00    -0.170 F 
ATOM     20  F   LIG d   1       4.251  -1.454  -1.206  0.00  0.00    -0.170 F 
ENDBRANCH  15  17
BRANCH  15  21
ATOM     21  C   LIG d   1       5.606  -1.989  -3.825  0.00  0.00     0.409 C 
ATOM     22  F   LIG d   1       4.571  -2.788  -3.328  0.00  0.00    -0.170 F 
ATOM     23  F   LIG d   1       5.210  -1.413  -5.038  0.00  0.00    -0.170 F 
ATOM     24  F   LIG d   1       6.745  -2.776  -4.032  0.00  0.00    -0.170 F 
ENDBRANCH  15  21
ENDBRANCH   2  15
TORSDOF 4
ENDMDL
MODEL 7
REMARK VINA RESULT:      -5.8      1.324      1.979
REMARK  4 active torsions:
REMARK  status: ('A' for Active; 'I' for Inactive)
REMARK    1  A    between atoms: C_3  and  N_7 
REMARK       I    between atoms: N_7  and  C_8 
REMARK    2  A    between atoms: C_8  and  C_10 
REMARK    3  A    between atoms: C_10  and  C_11 
REMARK    4  A    between atoms: C_10  and  C_15 
ROOT
ATOM      1  N   LIG d   1       3.814  -1.384  -6.096  0.00  0.00    -0.283 N 
ATOM      2  C   LIG d   1       4.549  -0.759  -5.156  0.00  0.00     0.238 C 
ATOM      3  O   LIG d   1       5.006   0.342  -5.376  0.00  0.00    -0.275 OA
ATOM      4  H   LIG d   1       3.384  -2.229  -5.894  0.00  0.00     0.155 HD
ENDROOT
BRANCH   1   5
ATOM      5  C   LIG d   1       3.670  -0.813  -7.367  0.00  0.00     0.052 A 
ATOM      6  C   LIG d   1       2.592   0.024  -7.646  0.00  0.00    -0.038 A 
ATOM      7  C   LIG d   1       2.493   0.565  -8.918  0.00  0.00    -0.042 A 
ATOM      8  H   LIG d   1       1.853   0.246  -6.891  0.00  0.00     0.064 H 
ATOM      9  C   LIG d   1       3.458   0.260  -9.859  0.00  0.00     0.028 A 
ATOM     10  H   LIG d   1       1.669   1.215  -9.171  0.00  0.00     0.063 H 
ATOM     11  N   LIG d   1       4.466  -0.538  -9.562  0.00  0.00    -0.261 NA
ATOM     12  H   LIG d   1       3.385   0.679 -10.851  0.00  0.00     0.083 H 
ATOM     13  C   LIG d   1       4.599  -1.073  -8.366  0.00  0.00     0.049 A 
ATOM     14  H   LIG d   1       5.438  -1.721  -8.159  0.00  0.00     0.085 H 
ENDBRANCH   1   5
BRANCH   2  15
ATOM     15  C   LIG d   1       4.803  -1.429  -3.830  0.00  0.00     0.224 C 
ATOM     16  H   LIG d   1       4.615  -2.499  -3.921  0.00  0.00     0.057 H 
BRANCH  15  17
ATOM     17  C   LIG d   1       6.257  -1.200  -3.414  0.00  0.00     0.409 C 
ATOM     18  F   LIG d   1       6.665  -2.231  -2.560  0.00  0.00    -0.170 F 
ATOM     19  F   LIG d   1       7.071  -1.188  -4.552  0.00  0.00    -0.170 F 
ATOM     20  F   LIG d   1       6.365   0.026  -2.750  0.00  0.00    -0.170 F 
ENDBRANCH  15  17
BRANCH  15  21
ATOM     21  C   LIG d   1       3.870  -0.836  -2.772  0.00  0.00     0.409 C 
ATOM     22  F   LIG d   1       4.298  -1.228  -1.500  0.00  0.00    -0.170 F 
ATOM     23  F   LIG d   1       3.891   0.560  -2.862  0.00  0.00    -0.170 F 
ATOM     24  F   LIG d   1       2.566  -1.297  -2.988  0.00  0.00    -0.170 F 
ENDBRANCH  15  21
ENDBRANCH   2  15
TORSDOF 4
ENDMDL
MODEL 8
REMARK VINA RESULT:      -5.8      3.499      4.211
REMARK  4 active torsions:
REMARK  status: ('A' for Active; 'I' for Inactive)
REMARK    1  A    between atoms: C_3  and  N_7 
REMARK       I    between atoms: N_7  and  C_8 
REMARK    2  A    between atoms: C_8  and  C_10 
REMARK    3  A    between atoms: C_10  and  C_11 
REMARK    4  A    between atoms: C_10  and  C_15 
ROOT
ATOM      1  N   LIG d   1       6.205  -0.886  -5.084  0.00  0.00    -0.283 N 
ATOM      2  C   LIG d   1       5.898  -0.684  -3.788  0.00  0.00     0.238 C 
ATOM      3  O   LIG d   1       6.753  -0.808  -2.936  0.00  0.00    -0.275 OA
ATOM      4  H   LIG d   1       5.545  -0.712  -5.772  0.00  0.00     0.155 HD
ENDROOT
BRANCH   1   5
ATOM      5  C   LIG d   1       7.479  -1.347  -5.439  0.00  0.00     0.052 A 
ATOM      6  C   LIG d   1       8.509  -0.446  -5.699  0.00  0.00    -0.038 A 
ATOM      7  C   LIG d   1       9.752  -0.950  -6.046  0.00  0.00    -0.042 A 
ATOM      8  H   LIG d   1       8.343   0.619  -5.631  0.00  0.00     0.064 H 
ATOM      9  C   LIG d   1       9.928  -2.319  -6.122  0.00  0.00     0.028 A 
ATOM     10  H   LIG d   1      10.572  -0.281  -6.259  0.00  0.00     0.063 H 
ATOM     11  N   LIG d   1       8.931  -3.146  -5.870  0.00  0.00    -0.261 NA
ATOM     12  H   LIG d   1      10.894  -2.717  -6.392  0.00  0.00     0.083 H 
ATOM     13  C   LIG d   1       7.734  -2.709  -5.536  0.00  0.00     0.049 A 
ATOM     14  H   LIG d   1       6.942  -3.415  -5.337  0.00  0.00     0.085 H 
ENDBRANCH   1   5
BRANCH   2  15
ATOM     15  C   LIG d   1       4.493  -0.303  -3.397  0.00  0.00     0.224 C 
ATOM     16  H   LIG d   1       3.906  -0.110  -4.294  0.00  0.00     0.057 H 
BRANCH  15  17
ATOM     17  C   LIG d   1       3.857  -1.447  -2.605  0.00  0.00     0.409 C 
ATOM     18  F   LIG d   1       4.447  -1.523  -1.340  0.00  0.00    -0.170 F 
ATOM     19  F   LIG d   1       2.485  -1.211  -2.467  0.00  0.00    -0.170 F 
ATOM     20  F   LIG d   1       4.056  -2.652  -3.287  0.00  0.00    -0.170 F 
ENDBRANCH  15  17
BRANCH  15  21
ATOM     21  C   LIG d   1       4.530   0.958  -2.531  0.00  0.00     0.409 C 
ATOM     22  F   LIG d   1       3.310   1.633  -2.639  0.00  0.00    -0.170 F 
ATOM     23  F   LIG d   1       4.749   0.601  -1.196  0.00  0.00    -0.170 F 
ATOM     24  F   LIG d   1       5.565   1.793  -2.966  0.00  0.00    -0.170 F 
ENDBRANCH  15  21
ENDBRANCH   2  15
TORSDOF 4
ENDMDL
MODEL 9
REMARK VINA RESULT:      -5.8      4.227      6.196
REMARK  4 active torsions:
REMARK  status: ('A' for Active; 'I' for Inactive)
REMARK    1  A    between atoms: C_3  and  N_7 
REMARK       I    between atoms: N_7  and  C_8 
REMARK    2  A    between atoms: C_8  and  C_10 
REMARK    3  A    between atoms: C_10  and  C_11 
REMARK    4  A    between atoms: C_10  and  C_15 
ROOT
ATOM      1  N   LIG d   1       4.338   0.205  -6.629  0.00  0.00    -0.283 N 
ATOM      2  C   LIG d   1       3.475   0.148  -7.662  0.00  0.00     0.238 C 
ATOM      3  O   LIG d   1       2.357  -0.290  -7.495  0.00  0.00    -0.275 OA
ATOM      4  H   LIG d   1       5.204   0.626  -6.742  0.00  0.00     0.155 HD
ENDROOT
BRANCH   1   5
ATOM      5  C   LIG d   1       3.984  -0.343  -5.390  0.00  0.00     0.052 A 
ATOM      6  C   LIG d   1       4.496  -1.576  -4.992  0.00  0.00    -0.038 A 
ATOM      7  C   LIG d   1       4.117  -2.078  -3.758  0.00  0.00    -0.042 A 
ATOM      8  H   LIG d   1       5.172  -2.127  -5.629  0.00  0.00     0.064 H 
ATOM      9  C   LIG d   1       3.251  -1.345  -2.968  0.00  0.00     0.028 A 
ATOM     10  H   LIG d   1       4.491  -3.032  -3.418  0.00  0.00     0.063 H 
ATOM     11  N   LIG d   1       2.784  -0.180  -3.375  0.00  0.00    -0.261 NA
ATOM     12  H   LIG d   1       2.953  -1.731  -2.005  0.00  0.00     0.083 H 
ATOM     13  C   LIG d   1       3.118   0.333  -4.541  0.00  0.00     0.049 A 
ATOM     14  H   LIG d   1       2.716   1.289  -4.840  0.00  0.00     0.085 H 
ENDBRANCH   1   5
BRANCH   2  15
ATOM     15  C   LIG d   1       3.899   0.631  -9.025  0.00  0.00     0.224 C 
ATOM     16  H   LIG d   1       4.938   0.353  -9.202  0.00  0.00     0.057 H 
BRANCH  15  17
ATOM     17  C   LIG d   1       3.011  -0.013 -10.093  0.00  0.00     0.409 C 
ATOM     18  F   LIG d   1       3.452   0.376 -11.362  0.00  0.00    -0.170 F 
ATOM     19  F   LIG d   1       3.083  -1.406  -9.980  0.00  0.00    -0.170 F 
ATOM     20  F   LIG d   1       1.688   0.403  -9.911  0.00  0.00    -0.170 F 
ENDBRANCH  15  17
BRANCH  15  21
ATOM     21  C   LIG d   1       3.759   2.152  -9.094  0.00  0.00     0.409 C 
ATOM     22  F   LIG d   1       3.324   2.523 -10.371  0.00  0.00    -0.170 F 
ATOM     23  F   LIG d   1       2.827   2.578  -8.141  0.00  0.00    -0.170 F 
ATOM     24  F   LIG d   1       4.998   2.748  -8.833  0.00  0.00    -0.170 F 
ENDBRANCH  15  21
ENDBRANCH   2  15
TORSDOF 4
ENDMDL
