MODEL 1
REMARK VINA RESULT:      -6.9      0.000      0.000
REMARK  3 active torsions:
REMARK  status: ('A' for Active; 'I' for Inactive)
REMARK    1  A    between atoms: C_4  and  C_7 
REMARK    2  A    between atoms: C_7  and  C_9 
REMARK    3  A    between atoms: C_9  and  C_11 
ROOT
ATOM      1  C   LIG d   1       5.989  -0.458  -5.586  0.00  0.00     0.027 A 
ATOM      2  C   LIG d   1       7.171   0.260  -5.753  0.00  0.00    -0.051 A 
ATOM      3  C   LIG d   1       7.622   1.116  -4.760  0.00  0.00    -0.060 A 
ATOM      4  C   LIG d   1       6.938   1.290  -3.595  0.00  0.00    -0.054 A 
ATOM      5  C   LIG d   1       5.738   0.599  -3.358  0.00  0.00    -0.017 A 
ATOM      6  C   LIG d   1       5.235  -0.283  -4.345  0.00  0.00    -0.007 A 
ATOM      7  C   LIG d   1       4.042  -0.976  -4.110  0.00  0.00    -0.053 A 
ATOM      8  C   LIG d   1       3.373  -0.789  -2.938  0.00  0.00    -0.061 A 
ATOM      9  C   LIG d   1       3.863   0.080  -1.965  0.00  0.00    -0.061 A 
ATOM     10  C   LIG d   1       5.022   0.768  -2.159  0.00  0.00    -0.054 A 
ATOM     11  H   LIG d   1       7.742   0.148  -6.664  0.00  0.00     0.062 H 
ATOM     12  H   LIG d   1       8.541   1.661  -4.914  0.00  0.00     0.062 H 
ATOM     13  H   LIG d   1       7.323   1.965  -2.845  0.00  0.00     0.062 H 
ATOM     14  H   LIG d   1       3.652  -1.654  -4.856  0.00  0.00     0.062 H 
ATOM     15  H   LIG d   1       2.451  -1.322  -2.758  0.00  0.00     0.062 H 
ATOM     16  H   LIG d   1       3.314   0.212  -1.045  0.00  0.00     0.062 H 
ATOM     17  H   LIG d   1       5.389   1.439  -1.398  0.00  0.00     0.062 H 
ENDROOT
BRANCH   1  18
ATOM     18  C   LIG d   1       5.509  -1.365  -6.634  0.00  0.00     0.181 C 
ATOM     19  O   LIG d   1       6.216  -2.271  -7.021  0.00  0.00    -0.290 OA
BRANCH  18  20
ATOM     20  C   LIG d   1       4.139  -1.170  -7.229  0.00  0.00     0.102 C 
ATOM     21  H   LIG d   1       3.454  -1.189  -6.501  0.00  0.00     0.055 H 
ATOM     22 BR   LIG d   1       3.771  -2.611  -8.514  0.00  0.00    -0.074 Br
BRANCH  20  23
ATOM     23  C   LIG d   1       4.082   0.160  -7.936  0.00  0.00    -0.026 A 
ATOM     24  C   LIG d   1       5.126   0.555  -8.751  0.00  0.00    -0.057 A 
ATOM     25  C   LIG d   1       5.072   1.772  -9.404  0.00  0.00    -0.061 A 
ATOM     26  H   LIG d   1       5.985  -0.088  -8.879  0.00  0.00     0.062 H 
ATOM     27  C   LIG d   1       3.973   2.595  -9.241  0.00  0.00    -0.062 A 
ATOM     28  H   LIG d   1       5.888   2.080 -10.041  0.00  0.00     0.062 H 
ATOM     29  C   LIG d   1       2.929   2.200  -8.426  0.00  0.00    -0.061 A 
ATOM     30  H   LIG d   1       3.931   3.546  -9.752  0.00  0.00     0.062 H 
ATOM     31  C   LIG d   1       2.984   0.983  -7.773  0.00  0.00    -0.057 A 
ATOM     32  H   LIG d   1       2.070   2.844  -8.299  0.00  0.00     0.062 H 
ATOM     33  H   LIG d   1       2.168   0.675  -7.135  0.00  0.00     0.062 H 
ENDBRANCH  20  23
ENDBRANCH  18  20
ENDBRANCH   1  18
TORSDOF 3
ENDMDL
MODEL 2
REMARK VINA RESULT:      -6.9      1.589      2.658
REMARK  3 active torsions:
REMARK  status: ('A' for Active; 'I' for Inactive)
REMARK    1  A    between atoms: C_4  and  C_7 
REMARK    2  A    between atoms: C_7  and  C_9 
REMARK    3  A    between atoms: C_9  and  C_11 
ROOT
ATOM      1  C   LIG d   1       5.764  -1.294  -5.256  0.00  0.00     0.027 A 
ATOM      2  C   LIG d   1       5.471  -2.648  -5.395  0.00  0.00    -0.051 A 
ATOM      3  C   LIG d   1       4.805  -3.333  -4.389  0.00  0.00    -0.060 A 
ATOM      4  C   LIG d   1       4.414  -2.718  -3.239  0.00  0.00    -0.054 A 
ATOM      5  C   LIG d   1       4.676  -1.354  -3.029  0.00  0.00    -0.017 A 
ATOM      6  C   LIG d   1       5.358  -0.614  -4.026  0.00  0.00    -0.007 A 
ATOM      7  C   LIG d   1       5.616   0.746  -3.823  0.00  0.00    -0.053 A 
ATOM      8  C   LIG d   1       5.216   1.343  -2.665  0.00  0.00    -0.061 A 
ATOM      9  C   LIG d   1       4.548   0.618  -1.680  0.00  0.00    -0.061 A 
ATOM     10  C   LIG d   1       4.277  -0.706  -1.846  0.00  0.00    -0.054 A 
ATOM     11  H   LIG d   1       5.765  -3.170  -6.294  0.00  0.00     0.062 H 
ATOM     12  H   LIG d   1       4.591  -4.382  -4.522  0.00  0.00     0.062 H 
ATOM     13  H   LIG d   1       3.897  -3.285  -2.479  0.00  0.00     0.062 H 
ATOM     14  H   LIG d   1       6.134   1.320  -4.579  0.00  0.00     0.062 H 
ATOM     15  H   LIG d   1       5.419   2.392  -2.507  0.00  0.00     0.062 H 
ATOM     16  H   LIG d   1       4.242   1.113  -0.770  0.00  0.00     0.062 H 
ATOM     17  H   LIG d   1       3.760  -1.256  -1.075  0.00  0.00     0.062 H 
ENDROOT
BRANCH   1  18
ATOM     18  C   LIG d   1       6.467  -0.567  -6.317  0.00  0.00     0.181 C 
ATOM     19  O   LIG d   1       7.381   0.180  -6.038  0.00  0.00    -0.290 OA
BRANCH  18  20
ATOM     20  C   LIG d   1       6.054  -0.747  -7.755  0.00  0.00     0.102 C 
ATOM     21  H   LIG d   1       5.605  -1.633  -7.865  0.00  0.00     0.055 H 
ATOM     22 BR   LIG d   1       7.644  -0.670  -8.909  0.00  0.00    -0.074 Br
BRANCH  20  23
ATOM     23  C   LIG d   1       5.097   0.351  -8.144  0.00  0.00    -0.026 A 
ATOM     24  C   LIG d   1       3.772   0.283  -7.758  0.00  0.00    -0.057 A 
ATOM     25  C   LIG d   1       2.897   1.293  -8.109  0.00  0.00    -0.061 A 
ATOM     26  H   LIG d   1       3.421  -0.560  -7.179  0.00  0.00     0.062 H 
ATOM     27  C   LIG d   1       3.346   2.371  -8.848  0.00  0.00    -0.062 A 
ATOM     28  H   LIG d   1       1.861   1.240  -7.806  0.00  0.00     0.062 H 
ATOM     29  C   LIG d   1       4.671   2.439  -9.235  0.00  0.00    -0.061 A 
ATOM     30  H   LIG d   1       2.661   3.160  -9.123  0.00  0.00     0.062 H 
ATOM     31  C   LIG d   1       5.547   1.429  -8.884  0.00  0.00    -0.057 A 
ATOM     32  H   LIG d   1       5.023   3.282  -9.814  0.00  0.00     0.062 H 
ATOM     33  H   LIG d   1       6.582   1.482  -9.187  0.00  0.00     0.062 H 
ENDBRANCH  20  23
ENDBRANCH  18  20
ENDBRANCH   1  18
TORSDOF 3
ENDMDL
MODEL 3
REMARK VINA RESULT:      -6.7      1.899      5.065
REMARK  3 active torsions:
REMARK  status: ('A' for Active; 'I' for Inactive)
REMARK    1  A    between atoms: C_4  and  C_7 
REMARK    2  A    between atoms: C_7  and  C_9 
REMARK    3  A    between atoms: C_9  and  C_11 
ROOT
ATOM      1  C   LIG d   1       6.088  -0.119  -7.226  0.00  0.00     0.027 A 
ATOM      2  C   LIG d   1       7.200   0.661  -7.533  0.00  0.00    -0.051 A 
ATOM      3  C   LIG d   1       7.096   1.717  -8.427  0.00  0.00    -0.060 A 
ATOM      4  C   LIG d   1       5.918   2.031  -9.033  0.00  0.00    -0.054 A 
ATOM      5  C   LIG d   1       4.755   1.288  -8.771  0.00  0.00    -0.017 A 
ATOM      6  C   LIG d   1       4.813   0.198  -7.869  0.00  0.00    -0.007 A 
ATOM      7  C   LIG d   1       3.656  -0.542  -7.602  0.00  0.00    -0.053 A 
ATOM      8  C   LIG d   1       2.486  -0.211  -8.218  0.00  0.00    -0.061 A 
ATOM      9  C   LIG d   1       2.425   0.859  -9.109  0.00  0.00    -0.061 A 
ATOM     10  C   LIG d   1       3.531   1.602  -9.389  0.00  0.00    -0.054 A 
ATOM     11  H   LIG d   1       8.152   0.442  -7.072  0.00  0.00     0.062 H 
ATOM     12  H   LIG d   1       7.973   2.305  -8.649  0.00  0.00     0.062 H 
ATOM     13  H   LIG d   1       5.877   2.862  -9.723  0.00  0.00     0.062 H 
ATOM     14  H   LIG d   1       3.690  -1.374  -6.913  0.00  0.00     0.062 H 
ATOM     15  H   LIG d   1       1.594  -0.784  -8.014  0.00  0.00     0.062 H 
ATOM     16  H   LIG d   1       1.487   1.102  -9.585  0.00  0.00     0.062 H 
ATOM     17  H   LIG d   1       3.470   2.428 -10.082  0.00  0.00     0.062 H 
ENDROOT
BRANCH   1  18
ATOM     18  C   LIG d   1       6.195  -1.235  -6.281  0.00  0.00     0.181 C 
ATOM     19  O   LIG d   1       6.061  -2.375  -6.672  0.00  0.00    -0.290 OA
BRANCH  18  20
ATOM     20  C   LIG d   1       6.469  -0.966  -4.824  0.00  0.00     0.102 C 
ATOM     21  H   LIG d   1       6.904  -0.070  -4.727  0.00  0.00     0.055 H 
ATOM     22 BR   LIG d   1       7.664  -2.355  -4.114  0.00  0.00    -0.074 Br
BRANCH  20  23
ATOM     23  C   LIG d   1       5.172  -0.978  -4.057  0.00  0.00    -0.026 A 
ATOM     24  C   LIG d   1       4.856  -2.055  -3.250  0.00  0.00    -0.057 A 
ATOM     25  C   LIG d   1       3.668  -2.064  -2.543  0.00  0.00    -0.061 A 
ATOM     26  H   LIG d   1       5.538  -2.890  -3.172  0.00  0.00     0.062 H 
ATOM     27  C   LIG d   1       2.797  -0.996  -2.643  0.00  0.00    -0.062 A 
ATOM     28  H   LIG d   1       3.422  -2.905  -1.912  0.00  0.00     0.062 H 
ATOM     29  C   LIG d   1       3.113   0.081  -3.449  0.00  0.00    -0.061 A 
ATOM     30  H   LIG d   1       1.869  -1.003  -2.089  0.00  0.00     0.062 H 
ATOM     31  C   LIG d   1       4.299   0.089  -4.158  0.00  0.00    -0.057 A 
ATOM     32  H   LIG d   1       2.431   0.916  -3.528  0.00  0.00     0.062 H 
ATOM     33  H   LIG d   1       4.546   0.931  -4.788  0.00  0.00     0.062 H 
ENDBRANCH  20  23
ENDBRANCH  18  20
ENDBRANCH   1  18
TORSDOF 3
ENDMDL
MODEL 4
REMARK VINA RESULT:      -6.7      2.295      6.112
REMARK  3 active torsions:
REMARK  status: ('A' for Active; 'I' for Inactive)
REMARK    1  A    between atoms: C_4  and  C_7 
REMARK    2  A    between atoms: C_7  and  C_9 
REMARK    3  A    between atoms: C_9  and  C_11 
ROOT
ATOM      1  C   LIG d   1       3.687   0.380  -8.119  0.00  0.00     0.027 A 
ATOM      2  C   LIG d   1       4.382   1.552  -8.408  0.00  0.00    -0.051 A 
ATOM      3  C   LIG d   1       4.460   2.022  -9.711  0.00  0.00    -0.060 A 
ATOM      4  C   LIG d   1       3.868   1.368 -10.748  0.00  0.00    -0.054 A 
ATOM      5  C   LIG d   1       3.150   0.180 -10.531  0.00  0.00    -0.017 A 
ATOM      6  C   LIG d   1       3.047  -0.343  -9.219  0.00  0.00    -0.007 A 
ATOM      7  C   LIG d   1       2.329  -1.523  -8.998  0.00  0.00    -0.053 A 
ATOM      8  C   LIG d   1       1.744  -2.163 -10.049  0.00  0.00    -0.061 A 
ATOM      9  C   LIG d   1       1.846  -1.655 -11.343  0.00  0.00    -0.061 A 
ATOM     10  C   LIG d   1       2.534  -0.506 -11.593  0.00  0.00    -0.054 A 
ATOM     11  H   LIG d   1       4.865   2.099  -7.611  0.00  0.00     0.062 H 
ATOM     12  H   LIG d   1       5.005   2.932  -9.908  0.00  0.00     0.062 H 
ATOM     13  H   LIG d   1       3.951   1.767 -11.748  0.00  0.00     0.062 H 
ATOM     14  H   LIG d   1       2.243  -1.928  -8.000  0.00  0.00     0.062 H 
ATOM     15  H   LIG d   1       1.192  -3.075  -9.879  0.00  0.00     0.062 H 
ATOM     16  H   LIG d   1       1.373  -2.179 -12.160  0.00  0.00     0.062 H 
ATOM     17  H   LIG d   1       2.605  -0.124 -12.600  0.00  0.00     0.062 H 
ENDROOT
BRANCH   1  18
ATOM     18  C   LIG d   1       3.602  -0.120  -6.743  0.00  0.00     0.181 C 
ATOM     19  O   LIG d   1       2.584   0.034  -6.104  0.00  0.00    -0.290 OA
BRANCH  18  20
ATOM     20  C   LIG d   1       4.781  -0.826  -6.124  0.00  0.00     0.102 C 
ATOM     21  H   LIG d   1       5.620  -0.329  -6.344  0.00  0.00     0.055 H 
ATOM     22 BR   LIG d   1       4.898  -2.655  -6.834  0.00  0.00    -0.074 Br
BRANCH  20  23
ATOM     23  C   LIG d   1       4.606  -0.878  -4.628  0.00  0.00    -0.026 A 
ATOM     24  C   LIG d   1       4.896   0.233  -3.859  0.00  0.00    -0.057 A 
ATOM     25  C   LIG d   1       4.730   0.188  -2.488  0.00  0.00    -0.061 A 
ATOM     26  H   LIG d   1       5.252   1.139  -4.330  0.00  0.00     0.062 H 
ATOM     27  C   LIG d   1       4.274  -0.970  -1.885  0.00  0.00    -0.062 A 
ATOM     28  H   LIG d   1       4.956   1.057  -1.887  0.00  0.00     0.062 H 
ATOM     29  C   LIG d   1       3.984  -2.081  -2.654  0.00  0.00    -0.061 A 
ATOM     30  H   LIG d   1       4.144  -1.005  -0.813  0.00  0.00     0.062 H 
ATOM     31  C   LIG d   1       4.151  -2.035  -4.025  0.00  0.00    -0.057 A 
ATOM     32  H   LIG d   1       3.628  -2.986  -2.183  0.00  0.00     0.062 H 
ATOM     33  H   LIG d   1       3.925  -2.904  -4.626  0.00  0.00     0.062 H 
ENDBRANCH  20  23
ENDBRANCH  18  20
ENDBRANCH   1  18
TORSDOF 3
ENDMDL
MODEL 5
REMARK VINA RESULT:      -6.5      2.729      4.789
REMARK  3 active torsions:
REMARK  status: ('A' for Active; 'I' for Inactive)
REMARK    1  A    between atoms: C_4  and  C_7 
REMARK    2  A    between atoms: C_7  and  C_9 
REMARK    3  A    between atoms: C_9  and  C_11 
ROOT
ATOM      1  C   LIG d   1       5.562  -1.487  -3.914  0.00  0.00     0.027 A 
ATOM      2  C   LIG d   1       5.367  -1.552  -2.537  0.00  0.00    -0.051 A 
ATOM      3  C   LIG d   1       4.231  -1.005  -1.959  0.00  0.00    -0.060 A 
ATOM      4  C   LIG d   1       3.271  -0.389  -2.703  0.00  0.00    -0.054 A 
ATOM      5  C   LIG d   1       3.401  -0.287  -4.099  0.00  0.00    -0.017 A 
ATOM      6  C   LIG d   1       4.546  -0.826  -4.734  0.00  0.00    -0.007 A 
ATOM      7  C   LIG d   1       4.676  -0.730  -6.124  0.00  0.00    -0.053 A 
ATOM      8  C   LIG d   1       3.704  -0.111  -6.851  0.00  0.00    -0.061 A 
ATOM      9  C   LIG d   1       2.577   0.424  -6.230  0.00  0.00    -0.061 A 
ATOM     10  C   LIG d   1       2.416   0.345  -4.880  0.00  0.00    -0.054 A 
ATOM     11  H   LIG d   1       6.107  -2.032  -1.913  0.00  0.00     0.062 H 
ATOM     12  H   LIG d   1       4.104  -1.068  -0.889  0.00  0.00     0.062 H 
ATOM     13  H   LIG d   1       2.400   0.023  -2.216  0.00  0.00     0.062 H 
ATOM     14  H   LIG d   1       5.545  -1.141  -6.617  0.00  0.00     0.062 H 
ATOM     15  H   LIG d   1       3.807  -0.034  -7.923  0.00  0.00     0.062 H 
ATOM     16  H   LIG d   1       1.821   0.910  -6.827  0.00  0.00     0.062 H 
ATOM     17  H   LIG d   1       1.539   0.765  -4.412  0.00  0.00     0.062 H 
ENDROOT
BRANCH   1  18
ATOM     18  C   LIG d   1       6.761  -2.064  -4.529  0.00  0.00     0.181 C 
ATOM     19  O   LIG d   1       7.652  -1.339  -4.919  0.00  0.00    -0.290 OA
BRANCH  18  20
ATOM     20  C   LIG d   1       6.887  -3.559  -4.677  0.00  0.00     0.102 C 
ATOM     21  H   LIG d   1       6.640  -4.001  -3.815  0.00  0.00     0.055 H 
ATOM     22 BR   LIG d   1       8.740  -4.018  -5.143  0.00  0.00    -0.074 Br
BRANCH  20  23
ATOM     23  C   LIG d   1       5.962  -4.035  -5.768  0.00  0.00    -0.026 A 
ATOM     24  C   LIG d   1       4.781  -4.676  -5.443  0.00  0.00    -0.057 A 
ATOM     25  C   LIG d   1       3.930  -5.107  -6.443  0.00  0.00    -0.061 A 
ATOM     26  H   LIG d   1       4.523  -4.839  -4.406  0.00  0.00     0.062 H 
ATOM     27  C   LIG d   1       4.261  -4.898  -7.768  0.00  0.00    -0.062 A 
ATOM     28  H   LIG d   1       3.007  -5.607  -6.188  0.00  0.00     0.062 H 
ATOM     29  C   LIG d   1       5.441  -4.257  -8.094  0.00  0.00    -0.061 A 
ATOM     30  H   LIG d   1       3.595  -5.235  -8.550  0.00  0.00     0.062 H 
ATOM     31  C   LIG d   1       6.293  -3.827  -7.094  0.00  0.00    -0.057 A 
ATOM     32  H   LIG d   1       5.700  -4.094  -9.130  0.00  0.00     0.062 H 
ATOM     33  H   LIG d   1       7.216  -3.327  -7.348  0.00  0.00     0.062 H 
ENDBRANCH  20  23
ENDBRANCH  18  20
ENDBRANCH   1  18
TORSDOF 3
ENDMDL
MODEL 6
REMARK VINA RESULT:      -6.4      3.568      6.060
REMARK  3 active torsions:
REMARK  status: ('A' for Active; 'I' for Inactive)
REMARK    1  A    between atoms: C_4  and  C_7 
REMARK    2  A    between atoms: C_7  and  C_9 
REMARK    3  A    between atoms: C_9  and  C_11 
ROOT
ATOM      1  C   LIG d   1       5.019  -2.080  -3.975  0.00  0.00     0.027 A 
ATOM      2  C   LIG d   1       4.988  -1.978  -2.587  0.00  0.00    -0.051 A 
ATOM      3  C   LIG d   1       4.197  -1.023  -1.967  0.00  0.00    -0.060 A 
ATOM      4  C   LIG d   1       3.426  -0.155  -2.679  0.00  0.00    -0.054 A 
ATOM      5  C   LIG d   1       3.407  -0.200  -4.083  0.00  0.00    -0.017 A 
ATOM      6  C   LIG d   1       4.202  -1.155  -4.762  0.00  0.00    -0.007 A 
ATOM      7  C   LIG d   1       4.183  -1.204  -6.160  0.00  0.00    -0.053 A 
ATOM      8  C   LIG d   1       3.404  -0.328  -6.855  0.00  0.00    -0.061 A 
ATOM      9  C   LIG d   1       2.623   0.616  -6.192  0.00  0.00    -0.061 A 
ATOM     10  C   LIG d   1       2.615   0.690  -4.832  0.00  0.00    -0.054 A 
ATOM     11  H   LIG d   1       5.586  -2.650  -1.987  0.00  0.00     0.062 H 
ATOM     12  H   LIG d   1       4.192  -0.965  -0.889  0.00  0.00     0.062 H 
ATOM     13  H   LIG d   1       2.823   0.574  -2.159  0.00  0.00     0.062 H 
ATOM     14  H   LIG d   1       4.784  -1.932  -6.686  0.00  0.00     0.062 H 
ATOM     15  H   LIG d   1       3.391  -0.365  -7.934  0.00  0.00     0.062 H 
ATOM     16  H   LIG d   1       2.014   1.300  -6.764  0.00  0.00     0.062 H 
ATOM     17  H   LIG d   1       2.006   1.427  -4.331  0.00  0.00     0.062 H 
ENDROOT
BRANCH   1  18
ATOM     18  C   LIG d   1       5.854  -3.089  -4.635  0.00  0.00     0.181 C 
ATOM     19  O   LIG d   1       5.381  -4.164  -4.937  0.00  0.00    -0.290 OA
BRANCH  18  20
ATOM     20  C   LIG d   1       7.300  -2.790  -4.935  0.00  0.00     0.102 C 
ATOM     21  H   LIG d   1       7.510  -1.851  -4.665  0.00  0.00     0.055 H 
ATOM     22 BR   LIG d   1       7.629  -3.009  -6.860  0.00  0.00    -0.074 Br
BRANCH  20  23
ATOM     23  C   LIG d   1       8.180  -3.741  -4.163  0.00  0.00    -0.026 A 
ATOM     24  C   LIG d   1       8.726  -3.352  -2.955  0.00  0.00    -0.057 A 
ATOM     25  C   LIG d   1       9.527  -4.226  -2.245  0.00  0.00    -0.061 A 
ATOM     26  H   LIG d   1       8.525  -2.364  -2.565  0.00  0.00     0.062 H 
ATOM     27  C   LIG d   1       9.783  -5.489  -2.744  0.00  0.00    -0.062 A 
ATOM     28  H   LIG d   1       9.954  -3.922  -1.300  0.00  0.00     0.062 H 
ATOM     29  C   LIG d   1       9.237  -5.878  -3.953  0.00  0.00    -0.061 A 
ATOM     30  H   LIG d   1      10.410  -6.172  -2.189  0.00  0.00     0.062 H 
ATOM     31  C   LIG d   1       8.437  -5.004  -4.663  0.00  0.00    -0.057 A 
ATOM     32  H   LIG d   1       9.438  -6.866  -4.343  0.00  0.00     0.062 H 
ATOM     33  H   LIG d   1       8.010  -5.308  -5.608  0.00  0.00     0.062 H 
ENDBRANCH  20  23
ENDBRANCH  18  20
ENDBRANCH   1  18
TORSDOF 3
ENDMDL
MODEL 7
REMARK VINA RESULT:      -6.3      2.116      2.717
REMARK  3 active torsions:
REMARK  status: ('A' for Active; 'I' for Inactive)
REMARK    1  A    between atoms: C_4  and  C_7 
REMARK    2  A    between atoms: C_7  and  C_9 
REMARK    3  A    between atoms: C_9  and  C_11 
ROOT
ATOM      1  C   LIG d   1       4.078  -0.898  -6.141  0.00  0.00     0.027 A 
ATOM      2  C   LIG d   1       3.074  -0.029  -6.560  0.00  0.00    -0.051 A 
ATOM      3  C   LIG d   1       2.286   0.638  -5.633  0.00  0.00    -0.060 A 
ATOM      4  C   LIG d   1       2.460   0.474  -4.293  0.00  0.00    -0.054 A 
ATOM      5  C   LIG d   1       3.454  -0.386  -3.797  0.00  0.00    -0.017 A 
ATOM      6  C   LIG d   1       4.280  -1.093  -4.705  0.00  0.00    -0.007 A 
ATOM      7  C   LIG d   1       5.274  -1.947  -4.215  0.00  0.00    -0.053 A 
ATOM      8  C   LIG d   1       5.432  -2.096  -2.870  0.00  0.00    -0.061 A 
ATOM      9  C   LIG d   1       4.619  -1.406  -1.973  0.00  0.00    -0.061 A 
ATOM     10  C   LIG d   1       3.644  -0.564  -2.415  0.00  0.00    -0.054 A 
ATOM     11  H   LIG d   1       2.906   0.127  -7.616  0.00  0.00     0.062 H 
ATOM     12  H   LIG d   1       1.514   1.305  -5.985  0.00  0.00     0.062 H 
ATOM     13  H   LIG d   1       1.827   1.013  -3.603  0.00  0.00     0.062 H 
ATOM     14  H   LIG d   1       5.910  -2.488  -4.900  0.00  0.00     0.062 H 
ATOM     15  H   LIG d   1       6.197  -2.758  -2.492  0.00  0.00     0.062 H 
ATOM     16  H   LIG d   1       4.763  -1.541  -0.912  0.00  0.00     0.062 H 
ATOM     17  H   LIG d   1       3.021  -0.036  -1.709  0.00  0.00     0.062 H 
ENDROOT
BRANCH   1  18
ATOM     18  C   LIG d   1       4.913  -1.604  -7.118  0.00  0.00     0.181 C 
ATOM     19  O   LIG d   1       4.808  -2.805  -7.249  0.00  0.00    -0.290 OA
BRANCH  18  20
ATOM     20  C   LIG d   1       5.902  -0.838  -7.958  0.00  0.00     0.102 C 
ATOM     21  H   LIG d   1       6.461  -1.480  -8.483  0.00  0.00     0.055 H 
ATOM     22 BR   LIG d   1       7.062   0.236  -6.789  0.00  0.00    -0.074 Br
BRANCH  20  23
ATOM     23  C   LIG d   1       5.160   0.072  -8.903  0.00  0.00    -0.026 A 
ATOM     24  C   LIG d   1       4.407  -0.463  -9.930  0.00  0.00    -0.057 A 
ATOM     25  C   LIG d   1       3.722   0.371 -10.793  0.00  0.00    -0.061 A 
ATOM     26  H   LIG d   1       4.354  -1.535 -10.059  0.00  0.00     0.062 H 
ATOM     27  C   LIG d   1       3.790   1.742 -10.628  0.00  0.00    -0.062 A 
ATOM     28  H   LIG d   1       3.133  -0.048 -11.596  0.00  0.00     0.062 H 
ATOM     29  C   LIG d   1       4.543   2.277  -9.600  0.00  0.00    -0.061 A 
ATOM     30  H   LIG d   1       3.254   2.394 -11.303  0.00  0.00     0.062 H 
ATOM     31  C   LIG d   1       5.229   1.443  -8.738  0.00  0.00    -0.057 A 
ATOM     32  H   LIG d   1       4.596   3.349  -9.472  0.00  0.00     0.062 H 
ATOM     33  H   LIG d   1       5.818   1.862  -7.935  0.00  0.00     0.062 H 
ENDBRANCH  20  23
ENDBRANCH  18  20
ENDBRANCH   1  18
TORSDOF 3
ENDMDL
MODEL 8
REMARK VINA RESULT:      -6.3      2.491      3.298
REMARK  3 active torsions:
REMARK  status: ('A' for Active; 'I' for Inactive)
REMARK    1  A    between atoms: C_4  and  C_7 
REMARK    2  A    between atoms: C_7  and  C_9 
REMARK    3  A    between atoms: C_9  and  C_11 
ROOT
ATOM      1  C   LIG d   1       3.923  -0.770  -6.427  0.00  0.00     0.027 A 
ATOM      2  C   LIG d   1       3.168   0.355  -6.749  0.00  0.00    -0.051 A 
ATOM      3  C   LIG d   1       2.435   1.015  -5.775  0.00  0.00    -0.060 A 
ATOM      4  C   LIG d   1       2.422   0.597  -4.479  0.00  0.00    -0.054 A 
ATOM      5  C   LIG d   1       3.160  -0.530  -4.081  0.00  0.00    -0.017 A 
ATOM      6  C   LIG d   1       3.920  -1.240  -5.041  0.00  0.00    -0.007 A 
ATOM      7  C   LIG d   1       4.659  -2.361  -4.648  0.00  0.00    -0.053 A 
ATOM      8  C   LIG d   1       4.634  -2.763  -3.346  0.00  0.00    -0.061 A 
ATOM      9  C   LIG d   1       3.884  -2.069  -2.398  0.00  0.00    -0.061 A 
ATOM     10  C   LIG d   1       3.156  -0.972  -2.746  0.00  0.00    -0.054 A 
ATOM     11  H   LIG d   1       3.154   0.716  -7.768  0.00  0.00     0.062 H 
ATOM     12  H   LIG d   1       1.858   1.884  -6.051  0.00  0.00     0.062 H 
ATOM     13  H   LIG d   1       1.839   1.139  -3.749  0.00  0.00     0.062 H 
ATOM     14  H   LIG d   1       5.245  -2.908  -5.373  0.00  0.00     0.062 H 
ATOM     15  H   LIG d   1       5.202  -3.629  -3.043  0.00  0.00     0.062 H 
ATOM     16  H   LIG d   1       3.879  -2.407  -1.372  0.00  0.00     0.062 H 
ATOM     17  H   LIG d   1       2.579  -0.445  -2.001  0.00  0.00     0.062 H 
ENDROOT
BRANCH   1  18
ATOM     18  C   LIG d   1       4.700  -1.471  -7.455  0.00  0.00     0.181 C 
ATOM     19  O   LIG d   1       5.862  -1.180  -7.639  0.00  0.00    -0.290 OA
BRANCH  18  20
ATOM     20  C   LIG d   1       4.053  -2.552  -8.282  0.00  0.00     0.102 C 
ATOM     21  H   LIG d   1       3.353  -3.014  -7.738  0.00  0.00     0.055 H 
ATOM     22 BR   LIG d   1       5.415  -3.855  -8.839  0.00  0.00    -0.074 Br
BRANCH  20  23
ATOM     23  C   LIG d   1       3.416  -1.938  -9.502  0.00  0.00    -0.026 A 
ATOM     24  C   LIG d   1       2.060  -1.674  -9.516  0.00  0.00    -0.057 A 
ATOM     25  C   LIG d   1       1.477  -1.105 -10.632  0.00  0.00    -0.061 A 
ATOM     26  H   LIG d   1       1.454  -1.911  -8.652  0.00  0.00     0.062 H 
ATOM     27  C   LIG d   1       2.251  -0.800 -11.736  0.00  0.00    -0.062 A 
ATOM     28  H   LIG d   1       0.417  -0.898 -10.642  0.00  0.00     0.062 H 
ATOM     29  C   LIG d   1       3.608  -1.064 -11.723  0.00  0.00    -0.061 A 
ATOM     30  H   LIG d   1       1.796  -0.355 -12.609  0.00  0.00     0.062 H 
ATOM     31  C   LIG d   1       4.190  -1.634 -10.606  0.00  0.00    -0.057 A 
ATOM     32  H   LIG d   1       4.213  -0.827 -12.586  0.00  0.00     0.062 H 
ATOM     33  H   LIG d   1       5.250  -1.841 -10.596  0.00  0.00     0.062 H 
ENDBRANCH  20  23
ENDBRANCH  18  20
ENDBRANCH   1  18
TORSDOF 3
ENDMDL
MODEL 9
REMARK VINA RESULT:      -6.2      3.292      5.503
REMARK  3 active torsions:
REMARK  status: ('A' for Active; 'I' for Inactive)
REMARK    1  A    between atoms: C_4  and  C_7 
REMARK    2  A    between atoms: C_7  and  C_9 
REMARK    3  A    between atoms: C_9  and  C_11 
ROOT
ATOM      1  C   LIG d   1       4.595  -2.335  -5.521  0.00  0.00     0.027 A 
ATOM      2  C   LIG d   1       4.255  -1.777  -6.751  0.00  0.00    -0.051 A 
ATOM      3  C   LIG d   1       3.680  -0.517  -6.819  0.00  0.00    -0.060 A 
ATOM      4  C   LIG d   1       3.426   0.219  -5.702  0.00  0.00    -0.054 A 
ATOM      5  C   LIG d   1       3.743  -0.280  -4.427  0.00  0.00    -0.017 A 
ATOM      6  C   LIG d   1       4.327  -1.565  -4.306  0.00  0.00    -0.007 A 
ATOM      7  C   LIG d   1       4.647  -2.063  -3.039  0.00  0.00    -0.053 A 
ATOM      8  C   LIG d   1       4.386  -1.311  -1.933  0.00  0.00    -0.061 A 
ATOM      9  C   LIG d   1       3.808  -0.049  -2.046  0.00  0.00    -0.061 A 
ATOM     10  C   LIG d   1       3.487   0.469  -3.265  0.00  0.00    -0.054 A 
ATOM     11  H   LIG d   1       4.442  -2.330  -7.660  0.00  0.00     0.062 H 
ATOM     12  H   LIG d   1       3.426  -0.108  -7.785  0.00  0.00     0.062 H 
ATOM     13  H   LIG d   1       2.978   1.197  -5.796  0.00  0.00     0.062 H 
ATOM     14  H   LIG d   1       5.096  -3.041  -2.938  0.00  0.00     0.062 H 
ATOM     15  H   LIG d   1       4.631  -1.698  -0.955  0.00  0.00     0.062 H 
ATOM     16  H   LIG d   1       3.610   0.528  -1.155  0.00  0.00     0.062 H 
ATOM     17  H   LIG d   1       3.038   1.448  -3.338  0.00  0.00     0.062 H 
ENDROOT
BRANCH   1  18
ATOM     18  C   LIG d   1       5.204  -3.667  -5.445  0.00  0.00     0.181 C 
ATOM     19  O   LIG d   1       4.632  -4.562  -4.861  0.00  0.00    -0.290 OA
BRANCH  18  20
ATOM     20  C   LIG d   1       6.541  -3.922  -6.093  0.00  0.00     0.102 C 
ATOM     21  H   LIG d   1       6.833  -3.104  -6.587  0.00  0.00     0.055 H 
ATOM     22 BR   LIG d   1       6.384  -5.426  -7.348  0.00  0.00    -0.074 Br
BRANCH  20  23
ATOM     23  C   LIG d   1       7.557  -4.257  -5.031  0.00  0.00    -0.026 A 
ATOM     24  C   LIG d   1       8.124  -5.516  -4.989  0.00  0.00    -0.057 A 
ATOM     25  C   LIG d   1       9.060  -5.821  -4.020  0.00  0.00    -0.061 A 
ATOM     26  H   LIG d   1       7.835  -6.263  -5.716  0.00  0.00     0.062 H 
ATOM     27  C   LIG d   1       9.430  -4.866  -3.091  0.00  0.00    -0.062 A 
ATOM     28  H   LIG d   1       9.504  -6.806  -3.987  0.00  0.00     0.062 H 
ATOM     29  C   LIG d   1       8.863  -3.606  -3.133  0.00  0.00    -0.061 A 
ATOM     30  H   LIG d   1      10.162  -5.105  -2.333  0.00  0.00     0.062 H 
ATOM     31  C   LIG d   1       7.926  -3.302  -4.102  0.00  0.00    -0.057 A 
ATOM     32  H   LIG d   1       9.151  -2.860  -2.407  0.00  0.00     0.062 H 
ATOM     33  H   LIG d   1       7.482  -2.317  -4.135  0.00  0.00     0.062 H 
ENDBRANCH  20  23
ENDBRANCH  18  20
ENDBRANCH   1  18
TORSDOF 3
ENDMDL
MODEL 10
REMARK VINA RESULT:      -6.2      1.838      2.005
REMARK  3 active torsions:
REMARK  status: ('A' for Active; 'I' for Inactive)
REMARK    1  A    between atoms: C_4  and  C_7 
REMARK    2  A    between atoms: C_7  and  C_9 
REMARK    3  A    between atoms: C_9  and  C_11 
ROOT
ATOM      1  C   LIG d   1       5.481  -1.685  -5.594  0.00  0.00     0.027 A 
ATOM      2  C   LIG d   1       6.587  -2.400  -5.142  0.00  0.00    -0.051 A 
ATOM      3  C   LIG d   1       6.958  -2.354  -3.806  0.00  0.00    -0.060 A 
ATOM      4  C   LIG d   1       6.266  -1.619  -2.892  0.00  0.00    -0.054 A 
ATOM      5  C   LIG d   1       5.140  -0.872  -3.277  0.00  0.00    -0.017 A 
ATOM      6  C   LIG d   1       4.725  -0.883  -4.631  0.00  0.00    -0.007 A 
ATOM      7  C   LIG d   1       3.601  -0.144  -5.017  0.00  0.00    -0.053 A 
ATOM      8  C   LIG d   1       2.922   0.585  -4.087  0.00  0.00    -0.061 A 
ATOM      9  C   LIG d   1       3.329   0.602  -2.754  0.00  0.00    -0.061 A 
ATOM     10  C   LIG d   1       4.416  -0.109  -2.344  0.00  0.00    -0.054 A 
ATOM     11  H   LIG d   1       7.161  -2.996  -5.837  0.00  0.00     0.062 H 
ATOM     12  H   LIG d   1       7.820  -2.918  -3.482  0.00  0.00     0.062 H 
ATOM     13  H   LIG d   1       6.586  -1.610  -1.861  0.00  0.00     0.062 H 
ATOM     14  H   LIG d   1       3.276  -0.149  -6.047  0.00  0.00     0.062 H 
ATOM     15  H   LIG d   1       2.057   1.157  -4.386  0.00  0.00     0.062 H 
ATOM     16  H   LIG d   1       2.775   1.187  -2.036  0.00  0.00     0.062 H 
ATOM     17  H   LIG d   1       4.720  -0.086  -1.308  0.00  0.00     0.062 H 
ENDROOT
BRANCH   1  18
ATOM     18  C   LIG d   1       5.085  -1.731  -7.005  0.00  0.00     0.181 C 
ATOM     19  O   LIG d   1       4.225  -2.505  -7.369  0.00  0.00    -0.290 OA
BRANCH  18  20
ATOM     20  C   LIG d   1       5.748  -0.817  -8.004  0.00  0.00     0.102 C 
ATOM     21  H   LIG d   1       6.048  -1.349  -8.795  0.00  0.00     0.055 H 
ATOM     22 BR   LIG d   1       7.301   0.050  -7.169  0.00  0.00    -0.074 Br
BRANCH  20  23
ATOM     23  C   LIG d   1       4.765   0.235  -8.451  0.00  0.00    -0.026 A 
ATOM     24  C   LIG d   1       5.207   1.509  -8.755  0.00  0.00    -0.057 A 
ATOM     25  C   LIG d   1       4.307   2.472  -9.171  0.00  0.00    -0.061 A 
ATOM     26  H   LIG d   1       6.256   1.752  -8.668  0.00  0.00     0.062 H 
ATOM     27  C   LIG d   1       2.965   2.161  -9.282  0.00  0.00    -0.062 A 
ATOM     28  H   LIG d   1       4.652   3.468  -9.409  0.00  0.00     0.062 H 
ATOM     29  C   LIG d   1       2.523   0.887  -8.978  0.00  0.00    -0.061 A 
ATOM     30  H   LIG d   1       2.261   2.914  -9.607  0.00  0.00     0.062 H 
ATOM     31  C   LIG d   1       3.423  -0.075  -8.561  0.00  0.00    -0.057 A 
ATOM     32  H   LIG d   1       1.473   0.644  -9.064  0.00  0.00     0.062 H 
ATOM     33  H   LIG d   1       3.078  -1.071  -8.323  0.00  0.00     0.062 H 
ENDBRANCH  20  23
ENDBRANCH  18  20
ENDBRANCH   1  18
TORSDOF 3
ENDMDL
