MODEL 1
REMARK VINA RESULT:      -5.9      0.000      0.000
REMARK  8 active torsions:
REMARK  status: ('A' for Active; 'I' for Inactive)
REMARK    1  A    between atoms: C_1  and  C_2 
REMARK       I    between atoms: C_2  and  N_4 
REMARK    2  A    between atoms: N_7  and  C_10 
REMARK    3  A    between atoms: C_12  and  O_33 
REMARK    4  A    between atoms: C_14  and  N_23 
REMARK    5  A    between atoms: N_23  and  C_24 
REMARK    6  A    between atoms: C_24  and  C_25 
REMARK    7  A    between atoms: C_28  and  O_31 
REMARK    8  A    between atoms: O_31  and  C_32 
ROOT
ATOM      1  C   LIG d   1       5.977  -1.324  -4.609  0.00  0.00     0.093 C 
ATOM      2  H   LIG d   1       6.722  -2.122  -4.736  0.00  0.00     0.054 H 
ATOM      3  C   LIG d   1       4.578  -1.817  -4.993  0.00  0.00     0.120 C 
ATOM      4  H   LIG d   1       4.531  -2.108  -6.054  0.00  0.00     0.067 H 
ATOM      5  C   LIG d   1       3.550  -0.726  -4.659  0.00  0.00     0.035 C 
ATOM      6  H   LIG d   1       2.524  -1.081  -4.832  0.00  0.00     0.090 H 
ATOM      7  C   LIG d   1       3.751  -0.296  -3.196  0.00  0.00     0.130 C 
ATOM      8  H   LIG d   1       2.954   0.391  -2.871  0.00  0.00     0.068 H 
ATOM      9  C   LIG d   1       3.916  -1.577  -2.347  0.00  0.00     0.082 C 
ATOM     10  O   LIG d   1       5.331  -1.839  -2.343  0.00  0.00    -0.347 OA
ATOM     11  C   LIG d   1       5.948  -0.824  -3.157  0.00  0.00     0.178 C 
ATOM     12  H   LIG d   1       6.942  -0.570  -2.760  0.00  0.00     0.093 H 
ATOM     13  O   LIG d   1       5.061   0.316  -3.106  0.00  0.00    -0.339 OA
ATOM     14  H   LIG d   1       3.534  -1.397  -1.332  0.00  0.00     0.059 H 
ATOM     15  H   LIG d   1       3.352  -2.400  -2.810  0.00  0.00     0.059 H 
ENDROOT
BRANCH   5  16
ATOM     16  N   LIG d   1       3.750   0.428  -5.545  0.00  0.00     0.236 N 
ATOM     17  H   LIG d   1       3.956   1.324  -4.939  0.00  0.00     0.202 HD
ATOM     18  H   LIG d   1       4.602   0.234  -6.212  0.00  0.00     0.202 HD
BRANCH  16  19
ATOM     19  C   LIG d   1       2.557   0.677  -6.364  0.00  0.00    -0.007 C 
ATOM     20  H   LIG d   1       1.823  -0.125  -6.196  0.00  0.00     0.087 H 
ATOM     21  H   LIG d   1       2.114   1.644  -6.082  0.00  0.00     0.087 H 
BRANCH  19  22
ATOM     22  C   LIG d   1       2.944   0.707  -7.820  0.00  0.00    -0.003 A 
ATOM     23  C   LIG d   1       3.161   1.918  -8.451  0.00  0.00    -0.050 A 
ATOM     24  C   LIG d   1       3.516   1.950  -9.786  0.00  0.00    -0.019 A 
ATOM     25  H   LIG d   1       3.052   2.841  -7.900  0.00  0.00     0.062 H 
ATOM     26  C   LIG d   1       3.655   0.765 -10.493  0.00  0.00     0.120 A 
ATOM     27  H   LIG d   1       3.685   2.896 -10.279  0.00  0.00     0.065 H 
ATOM     28  C   LIG d   1       3.438  -0.450  -9.858  0.00  0.00    -0.019 A 
ATOM     29  C   LIG d   1       3.088  -0.476  -8.521  0.00  0.00    -0.050 A 
ATOM     30  H   LIG d   1       3.546  -1.374 -10.406  0.00  0.00     0.065 H 
ATOM     31  H   LIG d   1       2.923  -1.421  -8.026  0.00  0.00     0.062 H 
BRANCH  26  32
ATOM     32  O   LIG d   1       4.004   0.792 -11.806  0.00  0.00    -0.495 OA
BRANCH  32  33
ATOM     33  C   LIG d   1       4.358  -0.453 -12.410  0.00  0.00     0.079 C 
ATOM     34  H   LIG d   1       4.922  -0.265 -13.335  0.00  0.00     0.066 H 
ATOM     35  H   LIG d   1       3.446  -1.021 -12.644  0.00  0.00     0.066 H 
ATOM     36  H   LIG d   1       4.982  -1.034 -11.713  0.00  0.00     0.066 H 
ENDBRANCH  32  33
ENDBRANCH  26  32
ENDBRANCH  19  22
ENDBRANCH  16  19
ENDBRANCH   5  16
BRANCH   3  37
ATOM     37  O   LIG d   1       4.271  -3.003  -4.257  0.00  0.00    -0.384 OA
ATOM     38  H   LIG d   1       3.320  -3.079  -3.710  0.00  0.00     0.210 HD
ENDBRANCH   3  37
BRANCH   1  39
ATOM     39  N   LIG d   1       6.374  -0.225  -5.500  0.00  0.00    -0.290 N 
ATOM     40  C   LIG d   1       6.445  -0.679  -6.896  0.00  0.00     0.015 C 
ATOM     41  C   LIG d   1       6.679   0.533  -7.811  0.00  0.00     0.028 C 
ATOM     42  H   LIG d   1       5.501  -1.171  -7.172  0.00  0.00     0.044 H 
ATOM     43  H   LIG d   1       7.275  -1.391  -7.009  0.00  0.00     0.044 H 
ATOM     44  N   LIG d   1       7.869   1.251  -7.330  0.00  0.00    -0.299 N 
ATOM     45  H   LIG d   1       5.808   1.203  -7.779  0.00  0.00     0.048 H 
ATOM     46  H   LIG d   1       6.847   0.197  -8.845  0.00  0.00     0.048 H 
ATOM     47  C   LIG d   1       8.873   1.569  -8.171  0.00  0.00     0.212 C 
ATOM     48  C   LIG d   1       7.932   1.621  -5.907  0.00  0.00     0.028 C 
ATOM     49  O   LIG d   1       8.848   1.180  -9.320  0.00  0.00    -0.276 OA
ATOM     50  C   LIG d   1       7.645   0.370  -5.068  0.00  0.00     0.015 C 
ATOM     51  H   LIG d   1       8.934   2.008  -5.672  0.00  0.00     0.048 H 
ATOM     52  H   LIG d   1       7.180   2.394  -5.695  0.00  0.00     0.048 H 
ATOM     53  H   LIG d   1       7.576   0.648  -4.006  0.00  0.00     0.044 H 
ATOM     54  H   LIG d   1       8.457  -0.359  -5.204  0.00  0.00     0.044 H 
BRANCH  47  55
ATOM     55  C   LIG d   1      10.028   2.405  -7.685  0.00  0.00     0.012 C 
ATOM     56  H   LIG d   1      10.975   1.926  -7.972  0.00  0.00     0.032 H 
ATOM     57  H   LIG d   1       9.980   2.495  -6.589  0.00  0.00     0.032 H 
ATOM     58  H   LIG d   1       9.972   3.407  -8.137  0.00  0.00     0.032 H 
ENDBRANCH  47  55
ENDBRANCH   1  39
TORSDOF 8
ENDMDL
MODEL 2
REMARK VINA RESULT:      -5.8      2.057      2.341
REMARK  8 active torsions:
REMARK  status: ('A' for Active; 'I' for Inactive)
REMARK    1  A    between atoms: C_1  and  C_2 
REMARK       I    between atoms: C_2  and  N_4 
REMARK    2  A    between atoms: N_7  and  C_10 
REMARK    3  A    between atoms: C_12  and  O_33 
REMARK    4  A    between atoms: C_14  and  N_23 
REMARK    5  A    between atoms: N_23  and  C_24 
REMARK    6  A    between atoms: C_24  and  C_25 
REMARK    7  A    between atoms: C_28  and  O_31 
REMARK    8  A    between atoms: O_31  and  C_32 
ROOT
ATOM      1  C   LIG d   1       5.785  -0.844  -3.354  0.00  0.00     0.093 C 
ATOM      2  H   LIG d   1       6.355  -1.458  -2.642  0.00  0.00     0.054 H 
ATOM      3  C   LIG d   1       4.885  -1.721  -4.232  0.00  0.00     0.120 C 
ATOM      4  H   LIG d   1       5.476  -2.420  -4.842  0.00  0.00     0.067 H 
ATOM      5  C   LIG d   1       3.998  -0.818  -5.103  0.00  0.00     0.035 C 
ATOM      6  H   LIG d   1       3.271  -1.411  -5.677  0.00  0.00     0.090 H 
ATOM      7  C   LIG d   1       3.291   0.200  -4.192  0.00  0.00     0.130 C 
ATOM      8  H   LIG d   1       2.546   0.785  -4.753  0.00  0.00     0.068 H 
ATOM      9  C   LIG d   1       2.752  -0.564  -2.961  0.00  0.00     0.082 C 
ATOM     10  O   LIG d   1       3.819  -0.512  -1.997  0.00  0.00    -0.347 OA
ATOM     11  C   LIG d   1       4.913   0.186  -2.619  0.00  0.00     0.178 C 
ATOM     12  H   LIG d   1       5.465   0.773  -1.869  0.00  0.00     0.093 H 
ATOM     13  O   LIG d   1       4.318   1.045  -3.617  0.00  0.00    -0.339 OA
ATOM     14  H   LIG d   1       1.844  -0.067  -2.589  0.00  0.00     0.059 H 
ATOM     15  H   LIG d   1       2.513  -1.599  -3.247  0.00  0.00     0.059 H 
ENDROOT
BRANCH   5  16
ATOM     16  N   LIG d   1       4.830  -0.109  -6.084  0.00  0.00     0.236 N 
ATOM     17  H   LIG d   1       4.297   0.787  -6.437  0.00  0.00     0.202 HD
ATOM     18  H   LIG d   1       5.776   0.192  -5.612  0.00  0.00     0.202 HD
BRANCH  16  19
ATOM     19  C   LIG d   1       5.129  -0.965  -7.239  0.00  0.00    -0.007 C 
ATOM     20  H   LIG d   1       6.045  -0.608  -7.731  0.00  0.00     0.087 H 
ATOM     21  H   LIG d   1       5.275  -2.001  -6.899  0.00  0.00     0.087 H 
BRANCH  19  22
ATOM     22  C   LIG d   1       3.981  -0.913  -8.213  0.00  0.00    -0.003 A 
ATOM     23  C   LIG d   1       3.438   0.306  -8.575  0.00  0.00    -0.050 A 
ATOM     24  C   LIG d   1       2.385   0.357  -9.469  0.00  0.00    -0.019 A 
ATOM     25  H   LIG d   1       3.836   1.220  -8.159  0.00  0.00     0.062 H 
ATOM     26  C   LIG d   1       1.873  -0.817 -10.003  0.00  0.00     0.120 A 
ATOM     27  H   LIG d   1       1.961   1.309  -9.752  0.00  0.00     0.065 H 
ATOM     28  C   LIG d   1       2.420  -2.039  -9.639  0.00  0.00    -0.019 A 
ATOM     29  C   LIG d   1       3.476  -2.084  -8.749  0.00  0.00    -0.050 A 
ATOM     30  H   LIG d   1       2.024  -2.954 -10.053  0.00  0.00     0.065 H 
ATOM     31  H   LIG d   1       3.905  -3.034  -8.468  0.00  0.00     0.062 H 
BRANCH  26  32
ATOM     32  O   LIG d   1       0.838  -0.770 -10.882  0.00  0.00    -0.495 OA
BRANCH  32  33
ATOM     33  C   LIG d   1       0.947  -1.575 -12.057  0.00  0.00     0.079 C 
ATOM     34  H   LIG d   1       0.537  -2.575 -11.856  0.00  0.00     0.066 H 
ATOM     35  H   LIG d   1       2.005  -1.663 -12.345  0.00  0.00     0.066 H 
ATOM     36  H   LIG d   1       0.382  -1.106 -12.876  0.00  0.00     0.066 H 
ENDBRANCH  32  33
ENDBRANCH  26  32
ENDBRANCH  19  22
ENDBRANCH  16  19
ENDBRANCH   5  16
BRANCH   3  37
ATOM     37  O   LIG d   1       4.060  -2.540  -3.401  0.00  0.00    -0.384 OA
ATOM     38  H   LIG d   1       4.502  -3.378  -2.842  0.00  0.00     0.210 HD
ENDBRANCH   3  37
BRANCH   1  39
ATOM     39  N   LIG d   1       6.766  -0.147  -4.196  0.00  0.00    -0.290 N 
ATOM     40  C   LIG d   1       7.843  -1.055  -4.612  0.00  0.00     0.015 C 
ATOM     41  C   LIG d   1       8.741  -0.342  -5.635  0.00  0.00     0.028 C 
ATOM     42  H   LIG d   1       7.409  -1.957  -5.070  0.00  0.00     0.044 H 
ATOM     43  H   LIG d   1       8.441  -1.343  -3.735  0.00  0.00     0.044 H 
ATOM     44  N   LIG d   1       9.192   0.928  -5.047  0.00  0.00    -0.299 N 
ATOM     45  H   LIG d   1       8.175  -0.139  -6.556  0.00  0.00     0.048 H 
ATOM     46  H   LIG d   1       9.614  -0.968  -5.871  0.00  0.00     0.048 H 
ATOM     47  C   LIG d   1      10.499   1.256  -5.029  0.00  0.00     0.212 C 
ATOM     48  C   LIG d   1       8.179   1.833  -4.483  0.00  0.00     0.028 C 
ATOM     49  O   LIG d   1      11.330   0.462  -5.415  0.00  0.00    -0.276 OA
ATOM     50  C   LIG d   1       7.302   1.036  -3.511  0.00  0.00     0.015 C 
ATOM     51  H   LIG d   1       8.677   2.656  -3.951  0.00  0.00     0.048 H 
ATOM     52  H   LIG d   1       7.561   2.243  -5.295  0.00  0.00     0.048 H 
ATOM     53  H   LIG d   1       6.470   1.667  -3.165  0.00  0.00     0.044 H 
ATOM     54  H   LIG d   1       7.904   0.718  -2.647  0.00  0.00     0.044 H 
BRANCH  47  55
ATOM     55  C   LIG d   1      10.929   2.611  -4.528  0.00  0.00     0.012 C 
ATOM     56  H   LIG d   1      11.667   3.041  -5.221  0.00  0.00     0.032 H 
ATOM     57  H   LIG d   1      11.381   2.507  -3.530  0.00  0.00     0.032 H 
ATOM     58  H   LIG d   1      10.053   3.274  -4.466  0.00  0.00     0.032 H 
ENDBRANCH  47  55
ENDBRANCH   1  39
TORSDOF 8
ENDMDL
MODEL 3
REMARK VINA RESULT:      -5.6      8.809     11.628
REMARK  8 active torsions:
REMARK  status: ('A' for Active; 'I' for Inactive)
REMARK    1  A    between atoms: C_1  and  C_2 
REMARK       I    between atoms: C_2  and  N_4 
REMARK    2  A    between atoms: N_7  and  C_10 
REMARK    3  A    between atoms: C_12  and  O_33 
REMARK    4  A    between atoms: C_14  and  N_23 
REMARK    5  A    between atoms: N_23  and  C_24 
REMARK    6  A    between atoms: C_24  and  C_25 
REMARK    7  A    between atoms: C_28  and  O_31 
REMARK    8  A    between atoms: O_31  and  C_32 
ROOT
ATOM      1  C   LIG d   1       9.884  11.370  -2.146  0.00  0.00     0.093 C 
ATOM      2  H   LIG d   1       9.722  11.704  -1.110  0.00  0.00     0.054 H 
ATOM      3  C   LIG d   1       8.650  11.655  -3.009  0.00  0.00     0.120 C 
ATOM      4  H   LIG d   1       7.770  11.103  -2.649  0.00  0.00     0.067 H 
ATOM      5  C   LIG d   1       8.971  11.316  -4.473  0.00  0.00     0.035 C 
ATOM      6  H   LIG d   1       8.141  11.598  -5.137  0.00  0.00     0.090 H 
ATOM      7  C   LIG d   1      10.271  12.036  -4.869  0.00  0.00     0.130 C 
ATOM      8  H   LIG d   1      10.473  11.928  -5.946  0.00  0.00     0.068 H 
ATOM      9  C   LIG d   1      10.182  13.489  -4.349  0.00  0.00     0.082 C 
ATOM     10  O   LIG d   1      10.747  13.443  -3.026  0.00  0.00    -0.347 OA
ATOM     11  C   LIG d   1      11.101  12.072  -2.768  0.00  0.00     0.178 C 
ATOM     12  H   LIG d   1      12.003  12.024  -2.140  0.00  0.00     0.093 H 
ATOM     13  O   LIG d   1      11.335  11.474  -4.062  0.00  0.00    -0.339 OA
ATOM     14  H   LIG d   1      10.755  14.152  -5.012  0.00  0.00     0.059 H 
ATOM     15  H   LIG d   1       9.129  13.808  -4.330  0.00  0.00     0.059 H 
ENDROOT
BRANCH   5  16
ATOM     16  N   LIG d   1       9.148   9.865  -4.615  0.00  0.00     0.236 N 
ATOM     17  H   LIG d   1       9.992   9.535  -3.990  0.00  0.00     0.202 HD
ATOM     18  H   LIG d   1       8.231   9.350  -4.291  0.00  0.00     0.202 HD
BRANCH  16  19
ATOM     19  C   LIG d   1       9.424   9.501  -6.010  0.00  0.00    -0.007 C 
ATOM     20  H   LIG d   1       8.601   9.853  -6.650  0.00  0.00     0.087 H 
ATOM     21  H   LIG d   1      10.365   9.972  -6.332  0.00  0.00     0.087 H 
BRANCH  19  22
ATOM     22  C   LIG d   1       9.547   8.004  -6.125  0.00  0.00    -0.003 A 
ATOM     23  C   LIG d   1       9.463   7.216  -4.992  0.00  0.00    -0.050 A 
ATOM     24  C   LIG d   1       9.575   5.842  -5.093  0.00  0.00    -0.019 A 
ATOM     25  H   LIG d   1       9.309   7.674  -4.026  0.00  0.00     0.062 H 
ATOM     26  C   LIG d   1       9.773   5.254  -6.334  0.00  0.00     0.120 A 
ATOM     27  H   LIG d   1       9.509   5.227  -4.208  0.00  0.00     0.065 H 
ATOM     28  C   LIG d   1       9.857   6.047  -7.470  0.00  0.00    -0.019 A 
ATOM     29  C   LIG d   1       9.738   7.419  -7.364  0.00  0.00    -0.050 A 
ATOM     30  H   LIG d   1      10.011   5.592  -8.438  0.00  0.00     0.065 H 
ATOM     31  H   LIG d   1       9.800   8.036  -8.248  0.00  0.00     0.062 H 
BRANCH  26  32
ATOM     32  O   LIG d   1       9.884   3.904  -6.438  0.00  0.00    -0.495 OA
BRANCH  32  33
ATOM     33  C   LIG d   1       9.227   3.120  -5.441  0.00  0.00     0.079 C 
ATOM     34  H   LIG d   1       8.951   3.762  -4.593  0.00  0.00     0.066 H 
ATOM     35  H   LIG d   1       9.903   2.324  -5.095  0.00  0.00     0.066 H 
ATOM     36  H   LIG d   1       8.319   2.669  -5.870  0.00  0.00     0.066 H 
ENDBRANCH  32  33
ENDBRANCH  26  32
ENDBRANCH  19  22
ENDBRANCH  16  19
ENDBRANCH   5  16
BRANCH   3  37
ATOM     37  O   LIG d   1       8.305  13.038  -2.906  0.00  0.00    -0.384 OA
ATOM     38  H   LIG d   1       9.060  13.810  -3.117  0.00  0.00     0.210 HD
ENDBRANCH   3  37
BRANCH   1  39
ATOM     39  N   LIG d   1      10.124   9.922  -2.094  0.00  0.00    -0.290 N 
ATOM     40  C   LIG d   1       9.236   9.275  -1.118  0.00  0.00     0.015 C 
ATOM     41  C   LIG d   1       9.388   7.750  -1.228  0.00  0.00     0.028 C 
ATOM     42  H   LIG d   1       8.193   9.556  -1.327  0.00  0.00     0.044 H 
ATOM     43  H   LIG d   1       9.506   9.600  -0.103  0.00  0.00     0.044 H 
ATOM     44  N   LIG d   1      10.813   7.417  -1.086  0.00  0.00    -0.299 N 
ATOM     45  H   LIG d   1       9.026   7.405  -2.207  0.00  0.00     0.048 H 
ATOM     46  H   LIG d   1       8.815   7.256  -0.429  0.00  0.00     0.048 H 
ATOM     47  C   LIG d   1      11.221   6.483  -0.203  0.00  0.00     0.212 C 
ATOM     48  C   LIG d   1      11.782   8.126  -1.936  0.00  0.00     0.028 C 
ATOM     49  O   LIG d   1      10.422   5.973   0.553  0.00  0.00    -0.276 OA
ATOM     50  C   LIG d   1      11.535   9.633  -1.803  0.00  0.00     0.015 C 
ATOM     51  H   LIG d   1      12.804   7.883  -1.610  0.00  0.00     0.048 H 
ATOM     52  H   LIG d   1      11.648   7.815  -2.982  0.00  0.00     0.048 H 
ATOM     53  H   LIG d   1      12.174  10.175  -2.516  0.00  0.00     0.044 H 
ATOM     54  H   LIG d   1      11.772   9.956  -0.779  0.00  0.00     0.044 H 
BRANCH  47  55
ATOM     55  C   LIG d   1      12.670   6.074  -0.155  0.00  0.00     0.012 C 
ATOM     56  H   LIG d   1      13.192   6.466  -1.041  0.00  0.00     0.032 H 
ATOM     57  H   LIG d   1      12.742   4.977  -0.145  0.00  0.00     0.032 H 
ATOM     58  H   LIG d   1      13.137   6.481   0.754  0.00  0.00     0.032 H 
ENDBRANCH  47  55
ENDBRANCH   1  39
TORSDOF 8
ENDMDL
MODEL 4
REMARK VINA RESULT:      -5.3      3.156      5.836
REMARK  8 active torsions:
REMARK  status: ('A' for Active; 'I' for Inactive)
REMARK    1  A    between atoms: C_1  and  C_2 
REMARK       I    between atoms: C_2  and  N_4 
REMARK    2  A    between atoms: N_7  and  C_10 
REMARK    3  A    between atoms: C_12  and  O_33 
REMARK    4  A    between atoms: C_14  and  N_23 
REMARK    5  A    between atoms: N_23  and  C_24 
REMARK    6  A    between atoms: C_24  and  C_25 
REMARK    7  A    between atoms: C_28  and  O_31 
REMARK    8  A    between atoms: O_31  and  C_32 
ROOT
ATOM      1  C   LIG d   1       4.573   0.013  -4.690  0.00  0.00     0.093 C 
ATOM      2  H   LIG d   1       4.468   1.106  -4.757  0.00  0.00     0.054 H 
ATOM      3  C   LIG d   1       5.888  -0.366  -4.000  0.00  0.00     0.120 C 
ATOM      4  H   LIG d   1       6.759  -0.014  -4.572  0.00  0.00     0.067 H 
ATOM      5  C   LIG d   1       5.926  -1.888  -3.791  0.00  0.00     0.035 C 
ATOM      6  H   LIG d   1       6.812  -2.187  -3.213  0.00  0.00     0.090 H 
ATOM      7  C   LIG d   1       4.629  -2.318  -3.086  0.00  0.00     0.130 C 
ATOM      8  H   LIG d   1       4.665  -3.379  -2.798  0.00  0.00     0.068 H 
ATOM      9  C   LIG d   1       4.368  -1.322  -1.932  0.00  0.00     0.082 C 
ATOM     10  O   LIG d   1       3.567  -0.279  -2.517  0.00  0.00    -0.347 OA
ATOM     11  C   LIG d   1       3.404  -0.607  -3.909  0.00  0.00     0.178 C 
ATOM     12  H   LIG d   1       2.416  -0.277  -4.264  0.00  0.00     0.093 H 
ATOM     13  O   LIG d   1       3.535  -2.043  -3.995  0.00  0.00    -0.339 OA
ATOM     14  H   LIG d   1       3.835  -1.834  -1.118  0.00  0.00     0.059 H 
ATOM     15  H   LIG d   1       5.327  -0.936  -1.557  0.00  0.00     0.059 H 
ENDROOT
BRANCH   5  16
ATOM     16  N   LIG d   1       6.026  -2.562  -5.092  0.00  0.00     0.236 N 
ATOM     17  H   LIG d   1       5.042  -2.969  -5.372  0.00  0.00     0.202 HD
ATOM     18  H   LIG d   1       6.353  -1.840  -5.855  0.00  0.00     0.202 HD
BRANCH  16  19
ATOM     19  C   LIG d   1       6.995  -3.664  -5.042  0.00  0.00    -0.007 C 
ATOM     20  H   LIG d   1       7.802  -3.476  -5.764  0.00  0.00     0.087 H 
ATOM     21  H   LIG d   1       7.419  -3.734  -4.029  0.00  0.00     0.087 H 
BRANCH  19  22
ATOM     22  C   LIG d   1       6.302  -4.958  -5.385  0.00  0.00    -0.003 A 
ATOM     23  C   LIG d   1       4.964  -4.953  -5.731  0.00  0.00    -0.050 A 
ATOM     24  C   LIG d   1       4.325  -6.137  -6.047  0.00  0.00    -0.019 A 
ATOM     25  H   LIG d   1       4.415  -4.022  -5.755  0.00  0.00     0.062 H 
ATOM     26  C   LIG d   1       5.030  -7.332  -6.017  0.00  0.00     0.120 A 
ATOM     27  H   LIG d   1       3.280  -6.133  -6.317  0.00  0.00     0.065 H 
ATOM     28  C   LIG d   1       6.373  -7.335  -5.670  0.00  0.00    -0.019 A 
ATOM     29  C   LIG d   1       7.008  -6.147  -5.360  0.00  0.00    -0.050 A 
ATOM     30  H   LIG d   1       6.924  -8.263  -5.645  0.00  0.00     0.065 H 
ATOM     31  H   LIG d   1       8.054  -6.148  -5.094  0.00  0.00     0.062 H 
BRANCH  26  32
ATOM     32  O   LIG d   1       4.406  -8.499  -6.326  0.00  0.00    -0.495 OA
BRANCH  32  33
ATOM     33  C   LIG d   1       4.773  -9.652  -5.569  0.00  0.00     0.079 C 
ATOM     34  H   LIG d   1       5.820  -9.561  -5.246  0.00  0.00     0.066 H 
ATOM     35  H   LIG d   1       4.656 -10.552  -6.191  0.00  0.00     0.066 H 
ATOM     36  H   LIG d   1       4.123  -9.732  -4.684  0.00  0.00     0.066 H 
ENDBRANCH  32  33
ENDBRANCH  26  32
ENDBRANCH  19  22
ENDBRANCH  16  19
ENDBRANCH   5  16
BRANCH   3  37
ATOM     37  O   LIG d   1       5.969   0.290  -2.733  0.00  0.00    -0.384 OA
ATOM     38  H   LIG d   1       6.586  -0.139  -1.930  0.00  0.00     0.210 HD
ENDBRANCH   3  37
BRANCH   1  39
ATOM     39  N   LIG d   1       4.573  -0.500  -6.066  0.00  0.00    -0.290 N 
ATOM     40  C   LIG d   1       5.699   0.050  -6.833  0.00  0.00     0.015 C 
ATOM     41  C   LIG d   1       5.770  -0.649  -8.200  0.00  0.00     0.028 C 
ATOM     42  H   LIG d   1       6.637  -0.120  -6.284  0.00  0.00     0.044 H 
ATOM     43  H   LIG d   1       5.552   1.130  -6.980  0.00  0.00     0.044 H 
ATOM     44  N   LIG d   1       4.458  -0.526  -8.850  0.00  0.00    -0.299 N 
ATOM     45  H   LIG d   1       6.016  -1.712  -8.067  0.00  0.00     0.048 H 
ATOM     46  H   LIG d   1       6.537  -0.171  -8.828  0.00  0.00     0.048 H 
ATOM     47  C   LIG d   1       4.351  -0.060 -10.111  0.00  0.00     0.212 C 
ATOM     48  C   LIG d   1       3.264  -0.930  -8.091  0.00  0.00     0.028 C 
ATOM     49  O   LIG d   1       5.332   0.352 -10.690  0.00  0.00    -0.276 OA
ATOM     50  C   LIG d   1       3.292  -0.225  -6.730  0.00  0.00     0.015 C 
ATOM     51  H   LIG d   1       2.360  -0.638  -8.646  0.00  0.00     0.048 H 
ATOM     52  H   LIG d   1       3.271  -2.020  -7.949  0.00  0.00     0.048 H 
ATOM     53  H   LIG d   1       2.468  -0.600  -6.105  0.00  0.00     0.044 H 
ATOM     54  H   LIG d   1       3.178   0.859  -6.874  0.00  0.00     0.044 H 
BRANCH  47  55
ATOM     55  C   LIG d   1       3.010  -0.051 -10.799  0.00  0.00     0.012 C 
ATOM     56  H   LIG d   1       2.649   0.984 -10.886  0.00  0.00     0.032 H 
ATOM     57  H   LIG d   1       2.292  -0.642 -10.211  0.00  0.00     0.032 H 
ATOM     58  H   LIG d   1       3.111  -0.490 -11.803  0.00  0.00     0.032 H 
ENDBRANCH  47  55
ENDBRANCH   1  39
TORSDOF 8
ENDMDL
MODEL 5
REMARK VINA RESULT:      -5.2      3.318      5.007
REMARK  8 active torsions:
REMARK  status: ('A' for Active; 'I' for Inactive)
REMARK    1  A    between atoms: C_1  and  C_2 
REMARK       I    between atoms: C_2  and  N_4 
REMARK    2  A    between atoms: N_7  and  C_10 
REMARK    3  A    between atoms: C_12  and  O_33 
REMARK    4  A    between atoms: C_14  and  N_23 
REMARK    5  A    between atoms: N_23  and  C_24 
REMARK    6  A    between atoms: C_24  and  C_25 
REMARK    7  A    between atoms: C_28  and  O_31 
REMARK    8  A    between atoms: O_31  and  C_32 
ROOT
ATOM      1  C   LIG d   1       5.727  -0.538  -2.976  0.00  0.00     0.093 C 
ATOM      2  H   LIG d   1       6.235  -0.602  -2.003  0.00  0.00     0.054 H 
ATOM      3  C   LIG d   1       4.956  -1.829  -3.274  0.00  0.00     0.120 C 
ATOM      4  H   LIG d   1       5.631  -2.695  -3.343  0.00  0.00     0.067 H 
ATOM      5  C   LIG d   1       4.141  -1.642  -4.563  0.00  0.00     0.035 C 
ATOM      6  H   LIG d   1       3.500  -2.514  -4.757  0.00  0.00     0.090 H 
ATOM      7  C   LIG d   1       3.308  -0.356  -4.434  0.00  0.00     0.130 C 
ATOM      8  H   LIG d   1       2.610  -0.248  -5.279  0.00  0.00     0.068 H 
ATOM      9  C   LIG d   1       2.662  -0.352  -3.030  0.00  0.00     0.082 C 
ATOM     10  O   LIG d   1       3.616   0.318  -2.186  0.00  0.00    -0.347 OA
ATOM     11  C   LIG d   1       4.749   0.646  -3.011  0.00  0.00     0.178 C 
ATOM     12  H   LIG d   1       5.197   1.595  -2.681  0.00  0.00     0.093 H 
ATOM     13  O   LIG d   1       4.239   0.752  -4.359  0.00  0.00    -0.339 OA
ATOM     14  H   LIG d   1       1.704   0.186  -3.067  0.00  0.00     0.059 H 
ATOM     15  H   LIG d   1       2.488  -1.388  -2.703  0.00  0.00     0.059 H 
ENDROOT
BRANCH   5  16
ATOM     16  N   LIG d   1       5.052  -1.527  -5.710  0.00  0.00     0.236 N 
ATOM     17  H   LIG d   1       5.017  -0.500  -6.105  0.00  0.00     0.202 HD
ATOM     18  H   LIG d   1       6.078  -1.759  -5.387  0.00  0.00     0.202 HD
BRANCH  16  19
ATOM     19  C   LIG d   1       4.672  -2.457  -6.780  0.00  0.00    -0.007 C 
ATOM     20  H   LIG d   1       3.585  -2.406  -6.941  0.00  0.00     0.087 H 
ATOM     21  H   LIG d   1       5.193  -2.180  -7.709  0.00  0.00     0.087 H 
BRANCH  19  22
ATOM     22  C   LIG d   1       5.057  -3.860  -6.388  0.00  0.00    -0.003 A 
ATOM     23  C   LIG d   1       4.111  -4.868  -6.415  0.00  0.00    -0.050 A 
ATOM     24  C   LIG d   1       4.460  -6.156  -6.055  0.00  0.00    -0.019 A 
ATOM     25  H   LIG d   1       3.097  -4.649  -6.716  0.00  0.00     0.062 H 
ATOM     26  C   LIG d   1       5.762  -6.437  -5.667  0.00  0.00     0.120 A 
ATOM     27  H   LIG d   1       3.721  -6.943  -6.076  0.00  0.00     0.065 H 
ATOM     28  C   LIG d   1       6.711  -5.424  -5.642  0.00  0.00    -0.019 A 
ATOM     29  C   LIG d   1       6.357  -4.139  -6.008  0.00  0.00    -0.050 A 
ATOM     30  H   LIG d   1       7.725  -5.640  -5.341  0.00  0.00     0.065 H 
ATOM     31  H   LIG d   1       7.095  -3.351  -5.992  0.00  0.00     0.062 H 
BRANCH  26  32
ATOM     32  O   LIG d   1       6.109  -7.702  -5.313  0.00  0.00    -0.495 OA
BRANCH  32  33
ATOM     33  C   LIG d   1       5.046  -8.629  -5.090  0.00  0.00     0.079 C 
ATOM     34  H   LIG d   1       5.445  -9.653  -5.095  0.00  0.00     0.066 H 
ATOM     35  H   LIG d   1       4.294  -8.523  -5.886  0.00  0.00     0.066 H 
ATOM     36  H   LIG d   1       4.579  -8.423  -4.115  0.00  0.00     0.066 H 
ENDBRANCH  32  33
ENDBRANCH  26  32
ENDBRANCH  19  22
ENDBRANCH  16  19
ENDBRANCH   5  16
BRANCH   3  37
ATOM     37  O   LIG d   1       4.071  -2.117  -2.190  0.00  0.00    -0.384 OA
ATOM     38  H   LIG d   1       4.112  -3.098  -1.693  0.00  0.00     0.210 HD
ENDBRANCH   3  37
BRANCH   1  39
ATOM     39  N   LIG d   1       6.771  -0.344  -3.990  0.00  0.00    -0.290 N 
ATOM     40  C   LIG d   1       7.755  -1.435  -3.950  0.00  0.00     0.015 C 
ATOM     41  C   LIG d   1       8.718  -1.293  -5.138  0.00  0.00     0.028 C 
ATOM     42  H   LIG d   1       7.235  -2.402  -4.012  0.00  0.00     0.044 H 
ATOM     43  H   LIG d   1       8.322  -1.385  -3.009  0.00  0.00     0.044 H 
ATOM     44  N   LIG d   1       9.292   0.061  -5.108  0.00  0.00    -0.299 N 
ATOM     45  H   LIG d   1       8.175  -1.441  -6.083  0.00  0.00     0.048 H 
ATOM     46  H   LIG d   1       9.526  -2.036  -5.059  0.00  0.00     0.048 H 
ATOM     47  C   LIG d   1      10.625   0.249  -5.175  0.00  0.00     0.212 C 
ATOM     48  C   LIG d   1       8.372   1.205  -5.011  0.00  0.00     0.028 C 
ATOM     49  O   LIG d   1      11.373  -0.705  -5.164  0.00  0.00    -0.276 OA
ATOM     50  C   LIG d   1       7.421   0.964  -3.833  0.00  0.00     0.015 C 
ATOM     51  H   LIG d   1       8.948   2.127  -4.845  0.00  0.00     0.048 H 
ATOM     52  H   LIG d   1       7.797   1.294  -5.944  0.00  0.00     0.048 H 
ATOM     53  H   LIG d   1       6.654   1.753  -3.812  0.00  0.00     0.044 H 
ATOM     54  H   LIG d   1       7.989   0.981  -2.891  0.00  0.00     0.044 H 
BRANCH  47  55
ATOM     55  C   LIG d   1      11.185   1.645  -5.260  0.00  0.00     0.012 C 
ATOM     56  H   LIG d   1      10.570   2.246  -5.946  0.00  0.00     0.032 H 
ATOM     57  H   LIG d   1      12.218   1.604  -5.636  0.00  0.00     0.032 H 
ATOM     58  H   LIG d   1      11.176   2.106  -4.261  0.00  0.00     0.032 H 
ENDBRANCH  47  55
ENDBRANCH   1  39
TORSDOF 8
ENDMDL
MODEL 6
REMARK VINA RESULT:      -5.1      2.152      4.824
REMARK  8 active torsions:
REMARK  status: ('A' for Active; 'I' for Inactive)
REMARK    1  A    between atoms: C_1  and  C_2 
REMARK       I    between atoms: C_2  and  N_4 
REMARK    2  A    between atoms: N_7  and  C_10 
REMARK    3  A    between atoms: C_12  and  O_33 
REMARK    4  A    between atoms: C_14  and  N_23 
REMARK    5  A    between atoms: N_23  and  C_24 
REMARK    6  A    between atoms: C_24  and  C_25 
REMARK    7  A    between atoms: C_28  and  O_31 
REMARK    8  A    between atoms: O_31  and  C_32 
ROOT
ATOM      1  C   LIG d   1       4.343  -1.632  -5.385  0.00  0.00     0.093 C 
ATOM      2  H   LIG d   1       3.574  -2.107  -6.011  0.00  0.00     0.054 H 
ATOM      3  C   LIG d   1       3.759  -0.444  -4.612  0.00  0.00     0.120 C 
ATOM      4  H   LIG d   1       3.396   0.340  -5.292  0.00  0.00     0.067 H 
ATOM      5  C   LIG d   1       4.819   0.095  -3.640  0.00  0.00     0.035 C 
ATOM      6  H   LIG d   1       4.405   0.887  -3.000  0.00  0.00     0.090 H 
ATOM      7  C   LIG d   1       5.356  -1.077  -2.801  0.00  0.00     0.130 C 
ATOM      8  H   LIG d   1       6.024  -0.721  -2.002  0.00  0.00     0.068 H 
ATOM      9  C   LIG d   1       4.144  -1.915  -2.333  0.00  0.00     0.082 C 
ATOM     10  O   LIG d   1       3.951  -2.896  -3.369  0.00  0.00    -0.347 OA
ATOM     11  C   LIG d   1       4.937  -2.634  -4.384  0.00  0.00     0.178 C 
ATOM     12  H   LIG d   1       5.264  -3.577  -4.848  0.00  0.00     0.093 H 
ATOM     13  O   LIG d   1       6.034  -1.979  -3.710  0.00  0.00    -0.339 OA
ATOM     14  H   LIG d   1       4.373  -2.385  -1.367  0.00  0.00     0.059 H 
ATOM     15  H   LIG d   1       3.266  -1.261  -2.225  0.00  0.00     0.059 H 
ENDROOT
BRANCH   5  16
ATOM     16  N   LIG d   1       5.920   0.703  -4.400  0.00  0.00     0.236 N 
ATOM     17  H   LIG d   1       6.365  -0.051  -5.068  0.00  0.00     0.202 HD
ATOM     18  H   LIG d   1       5.533   1.539  -5.000  0.00  0.00     0.202 HD
BRANCH  16  19
ATOM     19  C   LIG d   1       6.964   1.210  -3.501  0.00  0.00    -0.007 C 
ATOM     20  H   LIG d   1       6.519   1.918  -2.785  0.00  0.00     0.087 H 
ATOM     21  H   LIG d   1       7.416   0.370  -2.952  0.00  0.00     0.087 H 
BRANCH  19  22
ATOM     22  C   LIG d   1       8.026   1.911  -4.308  0.00  0.00    -0.003 A 
ATOM     23  C   LIG d   1       8.935   2.741  -3.678  0.00  0.00    -0.050 A 
ATOM     24  C   LIG d   1       9.910   3.386  -4.415  0.00  0.00    -0.019 A 
ATOM     25  H   LIG d   1       8.883   2.887  -2.609  0.00  0.00     0.062 H 
ATOM     26  C   LIG d   1       9.976   3.199  -5.788  0.00  0.00     0.120 A 
ATOM     27  H   LIG d   1      10.620   4.034  -3.923  0.00  0.00     0.065 H 
ATOM     28  C   LIG d   1       9.063   2.365  -6.418  0.00  0.00    -0.019 A 
ATOM     29  C   LIG d   1       8.094   1.719  -5.675  0.00  0.00    -0.050 A 
ATOM     30  H   LIG d   1       9.112   2.218  -7.487  0.00  0.00     0.065 H 
ATOM     31  H   LIG d   1       7.385   1.067  -6.164  0.00  0.00     0.062 H 
BRANCH  26  32
ATOM     32  O   LIG d   1      10.933   3.831  -6.516  0.00  0.00    -0.495 OA
BRANCH  32  33
ATOM     33  C   LIG d   1      10.614   4.150  -7.872  0.00  0.00     0.079 C 
ATOM     34  H   LIG d   1       9.866   3.438  -8.249  0.00  0.00     0.066 H 
ATOM     35  H   LIG d   1      11.523   4.089  -8.488  0.00  0.00     0.066 H 
ATOM     36  H   LIG d   1      10.206   5.171  -7.921  0.00  0.00     0.066 H 
ENDBRANCH  32  33
ENDBRANCH  26  32
ENDBRANCH  19  22
ENDBRANCH  16  19
ENDBRANCH   5  16
BRANCH   3  37
ATOM     37  O   LIG d   1       2.612  -0.873  -3.874  0.00  0.00    -0.384 OA
ATOM     38  H   LIG d   1       1.697  -0.263  -3.878  0.00  0.00     0.210 HD
ENDBRANCH   3  37
BRANCH   1  39
ATOM     39  N   LIG d   1       5.397  -1.158  -6.292  0.00  0.00    -0.290 N 
ATOM     40  C   LIG d   1       4.829  -0.371  -7.395  0.00  0.00     0.015 C 
ATOM     41  C   LIG d   1       5.970   0.257  -8.209  0.00  0.00     0.028 C 
ATOM     42  H   LIG d   1       4.187   0.425  -6.987  0.00  0.00     0.044 H 
ATOM     43  H   LIG d   1       4.231  -1.026  -8.044  0.00  0.00     0.044 H 
ATOM     44  N   LIG d   1       6.888  -0.815  -8.621  0.00  0.00    -0.299 N 
ATOM     45  H   LIG d   1       6.513   0.990  -7.595  0.00  0.00     0.048 H 
ATOM     46  H   LIG d   1       5.565   0.756  -9.103  0.00  0.00     0.048 H 
ATOM     47  C   LIG d   1       7.260  -0.951  -9.909  0.00  0.00     0.212 C 
ATOM     48  C   LIG d   1       7.394  -1.733  -7.589  0.00  0.00     0.028 C 
ATOM     49  O   LIG d   1       6.765  -0.244 -10.761  0.00  0.00    -0.276 OA
ATOM     50  C   LIG d   1       6.201  -2.279  -6.796  0.00  0.00     0.015 C 
ATOM     51  H   LIG d   1       7.937  -2.561  -8.067  0.00  0.00     0.048 H 
ATOM     52  H   LIG d   1       8.073  -1.189  -6.916  0.00  0.00     0.048 H 
ATOM     53  H   LIG d   1       6.565  -2.879  -5.949  0.00  0.00     0.044 H 
ATOM     54  H   LIG d   1       5.581  -2.909  -7.451  0.00  0.00     0.044 H 
BRANCH  47  55
ATOM     55  C   LIG d   1       8.290  -1.982 -10.291  0.00  0.00     0.012 C 
ATOM     56  H   LIG d   1       7.827  -2.742 -10.938  0.00  0.00     0.032 H 
ATOM     57  H   LIG d   1       8.680  -2.465  -9.383  0.00  0.00     0.032 H 
ATOM     58  H   LIG d   1       9.115  -1.495 -10.831  0.00  0.00     0.032 H 
ENDBRANCH  47  55
ENDBRANCH   1  39
TORSDOF 8
ENDMDL
MODEL 7
REMARK VINA RESULT:      -5.1      8.658     10.882
REMARK  8 active torsions:
REMARK  status: ('A' for Active; 'I' for Inactive)
REMARK    1  A    between atoms: C_1  and  C_2 
REMARK       I    between atoms: C_2  and  N_4 
REMARK    2  A    between atoms: N_7  and  C_10 
REMARK    3  A    between atoms: C_12  and  O_33 
REMARK    4  A    between atoms: C_14  and  N_23 
REMARK    5  A    between atoms: N_23  and  C_24 
REMARK    6  A    between atoms: C_24  and  C_25 
REMARK    7  A    between atoms: C_28  and  O_31 
REMARK    8  A    between atoms: O_31  and  C_32 
ROOT
ATOM      1  C   LIG d   1      11.368   8.710  -1.194  0.00  0.00     0.093 C 
ATOM      2  H   LIG d   1      12.123   9.338  -0.699  0.00  0.00     0.054 H 
ATOM      3  C   LIG d   1      12.032   7.557  -1.954  0.00  0.00     0.120 C 
ATOM      4  H   LIG d   1      12.688   7.929  -2.756  0.00  0.00     0.067 H 
ATOM      5  C   LIG d   1      10.944   6.622  -2.502  0.00  0.00     0.035 C 
ATOM      6  H   LIG d   1      11.385   5.731  -2.972  0.00  0.00     0.090 H 
ATOM      7  C   LIG d   1      10.005   6.235  -1.347  0.00  0.00     0.130 C 
ATOM      8  H   LIG d   1       9.285   5.463  -1.661  0.00  0.00     0.068 H 
ATOM      9  C   LIG d   1      10.883   5.871  -0.128  0.00  0.00     0.082 C 
ATOM     10  O   LIG d   1      11.059   7.110   0.584  0.00  0.00    -0.347 OA
ATOM     11  C   LIG d   1      10.379   8.128  -0.172  0.00  0.00     0.178 C 
ATOM     12  H   LIG d   1       9.952   8.884   0.505  0.00  0.00     0.093 H 
ATOM     13  O   LIG d   1       9.341   7.446  -0.911  0.00  0.00    -0.339 OA
ATOM     14  H   LIG d   1      10.366   5.120   0.487  0.00  0.00     0.059 H 
ATOM     15  H   LIG d   1      11.843   5.463  -0.476  0.00  0.00     0.059 H 
ENDROOT
BRANCH   5  16
ATOM     16  N   LIG d   1      10.180   7.314  -3.548  0.00  0.00     0.236 N 
ATOM     17  H   LIG d   1       9.365   7.892  -3.086  0.00  0.00     0.202 HD
ATOM     18  H   LIG d   1      10.845   7.996  -4.097  0.00  0.00     0.202 HD
BRANCH  16  19
ATOM     19  C   LIG d   1       9.599   6.356  -4.497  0.00  0.00    -0.007 C 
ATOM     20  H   LIG d   1      10.198   5.434  -4.500  0.00  0.00     0.087 H 
ATOM     21  H   LIG d   1       8.567   6.121  -4.196  0.00  0.00     0.087 H 
BRANCH  19  22
ATOM     22  C   LIG d   1       9.593   6.957  -5.879  0.00  0.00    -0.003 A 
ATOM     23  C   LIG d   1       9.888   6.168  -6.975  0.00  0.00    -0.050 A 
ATOM     24  C   LIG d   1       9.885   6.716  -8.244  0.00  0.00    -0.019 A 
ATOM     25  H   LIG d   1      10.122   5.122  -6.841  0.00  0.00     0.062 H 
ATOM     26  C   LIG d   1       9.584   8.060  -8.416  0.00  0.00     0.120 A 
ATOM     27  H   LIG d   1      10.115   6.100  -9.100  0.00  0.00     0.065 H 
ATOM     28  C   LIG d   1       9.288   8.850  -7.314  0.00  0.00    -0.019 A 
ATOM     29  C   LIG d   1       9.287   8.295  -6.049  0.00  0.00    -0.050 A 
ATOM     30  H   LIG d   1       9.053   9.895  -7.446  0.00  0.00     0.065 H 
ATOM     31  H   LIG d   1       9.053   8.908  -5.192  0.00  0.00     0.062 H 
BRANCH  26  32
ATOM     32  O   LIG d   1       9.579   8.602  -9.662  0.00  0.00    -0.495 OA
BRANCH  32  33
ATOM     33  C   LIG d   1      10.402   7.974 -10.647  0.00  0.00     0.079 C 
ATOM     34  H   LIG d   1      11.334   7.627 -10.179  0.00  0.00     0.066 H 
ATOM     35  H   LIG d   1      10.637   8.696 -11.443  0.00  0.00     0.066 H 
ATOM     36  H   LIG d   1       9.866   7.114 -11.077  0.00  0.00     0.066 H 
ENDBRANCH  32  33
ENDBRANCH  26  32
ENDBRANCH  19  22
ENDBRANCH  16  19
ENDBRANCH   5  16
BRANCH   3  37
ATOM     37  O   LIG d   1      12.884   6.829  -1.068  0.00  0.00    -0.384 OA
ATOM     38  H   LIG d   1      12.774   6.946   0.020  0.00  0.00     0.210 HD
ENDBRANCH   3  37
BRANCH   1  39
ATOM     39  N   LIG d   1      10.649   9.574  -2.139  0.00  0.00    -0.290 N 
ATOM     40  C   LIG d   1      11.586  10.335  -2.976  0.00  0.00     0.015 C 
ATOM     41  C   LIG d   1      10.802  11.079  -4.068  0.00  0.00     0.028 C 
ATOM     42  H   LIG d   1      12.305   9.646  -3.445  0.00  0.00     0.044 H 
ATOM     43  H   LIG d   1      12.129  11.061  -2.354  0.00  0.00     0.044 H 
ATOM     44  N   LIG d   1       9.757  11.884  -3.418  0.00  0.00    -0.299 N 
ATOM     45  H   LIG d   1      10.336  10.358  -4.755  0.00  0.00     0.048 H 
ATOM     46  H   LIG d   1      11.477  11.741  -4.631  0.00  0.00     0.048 H 
ATOM     47  C   LIG d   1       9.619  13.195  -3.697  0.00  0.00     0.212 C 
ATOM     48  C   LIG d   1       8.861  11.218  -2.459  0.00  0.00     0.028 C 
ATOM     49  O   LIG d   1      10.419  13.749  -4.420  0.00  0.00    -0.276 OA
ATOM     50  C   LIG d   1       9.719  10.466  -1.435  0.00  0.00     0.015 C 
ATOM     51  H   LIG d   1       8.243  11.972  -1.949  0.00  0.00     0.048 H 
ATOM     52  H   LIG d   1       8.211  10.511  -2.994  0.00  0.00     0.048 H 
ATOM     53  H   LIG d   1       9.068   9.871  -0.776  0.00  0.00     0.044 H 
ATOM     54  H   LIG d   1      10.289  11.188  -0.831  0.00  0.00     0.044 H 
BRANCH  47  55
ATOM     55  C   LIG d   1       8.470  13.974  -3.110  0.00  0.00     0.012 C 
ATOM     56  H   LIG d   1       8.310  14.890  -3.697  0.00  0.00     0.032 H 
ATOM     57  H   LIG d   1       8.703  14.242  -2.069  0.00  0.00     0.032 H 
ATOM     58  H   LIG d   1       7.559  13.358  -3.135  0.00  0.00     0.032 H 
ENDBRANCH  47  55
ENDBRANCH   1  39
TORSDOF 8
ENDMDL
MODEL 8
REMARK VINA RESULT:      -5.1      8.504     10.945
REMARK  8 active torsions:
REMARK  status: ('A' for Active; 'I' for Inactive)
REMARK    1  A    between atoms: C_1  and  C_2 
REMARK       I    between atoms: C_2  and  N_4 
REMARK    2  A    between atoms: N_7  and  C_10 
REMARK    3  A    between atoms: C_12  and  O_33 
REMARK    4  A    between atoms: C_14  and  N_23 
REMARK    5  A    between atoms: N_23  and  C_24 
REMARK    6  A    between atoms: C_24  and  C_25 
REMARK    7  A    between atoms: C_28  and  O_31 
REMARK    8  A    between atoms: O_31  and  C_32 
ROOT
ATOM      1  C   LIG d   1      10.464   9.108  -0.646  0.00  0.00     0.093 C 
ATOM      2  H   LIG d   1      10.435   8.582   0.319  0.00  0.00     0.054 H 
ATOM      3  C   LIG d   1       9.163   9.884  -0.882  0.00  0.00     0.120 C 
ATOM      4  H   LIG d   1       8.295   9.211  -0.930  0.00  0.00     0.067 H 
ATOM      5  C   LIG d   1       9.302  10.722  -2.162  0.00  0.00     0.035 C 
ATOM      6  H   LIG d   1       8.424  11.367  -2.312  0.00  0.00     0.090 H 
ATOM      7  C   LIG d   1      10.593  11.552  -2.066  0.00  0.00     0.130 C 
ATOM      8  H   LIG d   1      10.670  12.265  -2.901  0.00  0.00     0.068 H 
ATOM      9  C   LIG d   1      10.650  12.173  -0.651  0.00  0.00     0.082 C 
ATOM     10  O   LIG d   1      11.351  11.204   0.150  0.00  0.00    -0.347 OA
ATOM     11  C   LIG d   1      11.646  10.086  -0.707  0.00  0.00     0.178 C 
ATOM     12  H   LIG d   1      12.607   9.632  -0.421  0.00  0.00     0.093 H 
ATOM     13  O   LIG d   1      11.702  10.620  -2.049  0.00  0.00    -0.339 OA
ATOM     14  H   LIG d   1      11.187  13.132  -0.692  0.00  0.00     0.059 H 
ATOM     15  H   LIG d   1       9.627  12.341  -0.283  0.00  0.00     0.059 H 
ENDROOT
BRANCH   5  16
ATOM     16  N   LIG d   1       9.374   9.832  -3.328  0.00  0.00     0.236 N 
ATOM     17  H   LIG d   1      10.319   9.269  -3.303  0.00  0.00     0.202 HD
ATOM     18  H   LIG d   1       8.529   9.128  -3.304  0.00  0.00     0.202 HD
BRANCH  16  19
ATOM     19  C   LIG d   1       9.314  10.597  -4.580  0.00  0.00    -0.007 C 
ATOM     20  H   LIG d   1       8.326  11.072  -4.672  0.00  0.00     0.087 H 
ATOM     21  H   LIG d   1      10.094  11.373  -4.573  0.00  0.00     0.087 H 
BRANCH  19  22
ATOM     22  C   LIG d   1       9.538   9.671  -5.747  0.00  0.00    -0.003 A 
ATOM     23  C   LIG d   1       9.915  10.186  -6.973  0.00  0.00    -0.050 A 
ATOM     24  C   LIG d   1      10.122   9.339  -8.046  0.00  0.00    -0.019 A 
ATOM     25  H   LIG d   1      10.049  11.251  -7.094  0.00  0.00     0.062 H 
ATOM     26  C   LIG d   1       9.950   7.971  -7.891  0.00  0.00     0.120 A 
ATOM     27  H   LIG d   1      10.416   9.741  -9.004  0.00  0.00     0.065 H 
ATOM     28  C   LIG d   1       9.572   7.456  -6.658  0.00  0.00    -0.019 A 
ATOM     29  C   LIG d   1       9.373   8.307  -5.588  0.00  0.00    -0.050 A 
ATOM     30  H   LIG d   1       9.438   6.392  -6.535  0.00  0.00     0.065 H 
ATOM     31  H   LIG d   1       9.082   7.907  -4.628  0.00  0.00     0.062 H 
BRANCH  26  32
ATOM     32  O   LIG d   1      10.152   7.135  -8.943  0.00  0.00    -0.495 OA
BRANCH  32  33
ATOM     33  C   LIG d   1       9.200   6.088  -9.132  0.00  0.00     0.079 C 
ATOM     34  H   LIG d   1       8.749   5.823  -8.165  0.00  0.00     0.066 H 
ATOM     35  H   LIG d   1       9.703   5.207  -9.557  0.00  0.00     0.066 H 
ATOM     36  H   LIG d   1       8.413   6.429  -9.822  0.00  0.00     0.066 H 
ENDBRANCH  32  33
ENDBRANCH  26  32
ENDBRANCH  19  22
ENDBRANCH  16  19
ENDBRANCH   5  16
BRANCH   3  37
ATOM     37  O   LIG d   1       8.916  10.749   0.229  0.00  0.00    -0.384 OA
ATOM     38  H   LIG d   1       7.991  10.643   0.813  0.00  0.00     0.210 HD
ENDBRANCH   3  37
BRANCH   1  39
ATOM     39  N   LIG d   1      10.619   8.082  -1.685  0.00  0.00    -0.290 N 
ATOM     40  C   LIG d   1       9.668   6.980  -1.485  0.00  0.00     0.015 C 
ATOM     41  C   LIG d   1       9.736   6.027  -2.688  0.00  0.00     0.028 C 
ATOM     42  H   LIG d   1       8.649   7.385  -1.394  0.00  0.00     0.044 H 
ATOM     43  H   LIG d   1       9.926   6.433  -0.567  0.00  0.00     0.044 H 
ATOM     44  N   LIG d   1      11.135   5.613  -2.870  0.00  0.00    -0.299 N 
ATOM     45  H   LIG d   1       9.383   6.539  -3.595  0.00  0.00     0.048 H 
ATOM     46  H   LIG d   1       9.112   5.140  -2.501  0.00  0.00     0.048 H 
ATOM     47  C   LIG d   1      11.463   4.310  -2.974  0.00  0.00     0.212 C 
ATOM     48  C   LIG d   1      12.167   6.659  -2.943  0.00  0.00     0.028 C 
ATOM     49  O   LIG d   1      10.614   3.457  -2.823  0.00  0.00    -0.276 OA
ATOM     50  C   LIG d   1      12.002   7.589  -1.735  0.00  0.00     0.015 C 
ATOM     51  H   LIG d   1      13.163   6.194  -2.925  0.00  0.00     0.048 H 
ATOM     52  H   LIG d   1      12.045   7.230  -3.874  0.00  0.00     0.048 H 
ATOM     53  H   LIG d   1      12.691   8.441  -1.830  0.00  0.00     0.044 H 
ATOM     54  H   LIG d   1      12.228   7.036  -0.811  0.00  0.00     0.044 H 
BRANCH  47  55
ATOM     55  C   LIG d   1      12.885   3.913  -3.277  0.00  0.00     0.012 C 
ATOM     56  H   LIG d   1      13.303   3.364  -2.420  0.00  0.00     0.032 H 
ATOM     57  H   LIG d   1      13.486   4.815  -3.462  0.00  0.00     0.032 H 
ATOM     58  H   LIG d   1      12.904   3.269  -4.169  0.00  0.00     0.032 H 
ENDBRANCH  47  55
ENDBRANCH   1  39
TORSDOF 8
ENDMDL
MODEL 9
REMARK VINA RESULT:      -5.1      1.990      5.347
REMARK  8 active torsions:
REMARK  status: ('A' for Active; 'I' for Inactive)
REMARK    1  A    between atoms: C_1  and  C_2 
REMARK       I    between atoms: C_2  and  N_4 
REMARK    2  A    between atoms: N_7  and  C_10 
REMARK    3  A    between atoms: C_12  and  O_33 
REMARK    4  A    between atoms: C_14  and  N_23 
REMARK    5  A    between atoms: N_23  and  C_24 
REMARK    6  A    between atoms: C_24  and  C_25 
REMARK    7  A    between atoms: C_28  and  O_31 
REMARK    8  A    between atoms: O_31  and  C_32 
ROOT
ATOM      1  C   LIG d   1       9.177  -0.111  -5.284  0.00  0.00     0.093 C 
ATOM      2  H   LIG d   1       9.732  -0.232  -4.343  0.00  0.00     0.054 H 
ATOM      3  C   LIG d   1       9.566   1.198  -5.981  0.00  0.00     0.120 C 
ATOM      4  H   LIG d   1       9.311   2.073  -5.365  0.00  0.00     0.067 H 
ATOM      5  C   LIG d   1       8.887   1.257  -7.357  0.00  0.00     0.035 C 
ATOM      6  H   LIG d   1       9.218   2.137  -7.927  0.00  0.00     0.090 H 
ATOM      7  C   LIG d   1       9.198  -0.045  -8.114  0.00  0.00     0.130 C 
ATOM      8  H   LIG d   1       8.842   0.004  -9.154  0.00  0.00     0.068 H 
ATOM      9  C   LIG d   1      10.705  -0.343  -7.938  0.00  0.00     0.082 C 
ATOM     10  O   LIG d   1      10.787  -1.149  -6.749  0.00  0.00    -0.347 OA
ATOM     11  C   LIG d   1       9.447  -1.283  -6.240  0.00  0.00     0.178 C 
ATOM     12  H   LIG d   1       9.315  -2.270  -5.771  0.00  0.00     0.093 H 
ATOM     13  O   LIG d   1       8.573  -1.127  -7.380  0.00  0.00    -0.339 OA
ATOM     14  H   LIG d   1      11.079  -0.881  -8.821  0.00  0.00     0.059 H 
ATOM     15  H   LIG d   1      11.255   0.603  -7.825  0.00  0.00     0.059 H 
ENDROOT
BRANCH   5  16
ATOM     16  N   LIG d   1       7.434   1.392  -7.185  0.00  0.00     0.236 N 
ATOM     17  H   LIG d   1       6.999   0.407  -6.954  0.00  0.00     0.202 HD
ATOM     18  H   LIG d   1       7.226   2.086  -6.358  0.00  0.00     0.202 HD
BRANCH  16  19
ATOM     19  C   LIG d   1       6.804   1.910  -8.406  0.00  0.00    -0.007 C 
ATOM     20  H   LIG d   1       6.685   3.000  -8.322  0.00  0.00     0.087 H 
ATOM     21  H   LIG d   1       7.439   1.676  -9.274  0.00  0.00     0.087 H 
BRANCH  19  22
ATOM     22  C   LIG d   1       5.452   1.268  -8.585  0.00  0.00    -0.003 A 
ATOM     23  C   LIG d   1       5.229  -0.013  -8.116  0.00  0.00    -0.050 A 
ATOM     24  C   LIG d   1       3.991  -0.605  -8.278  0.00  0.00    -0.019 A 
ATOM     25  H   LIG d   1       6.024  -0.553  -7.621  0.00  0.00     0.062 H 
ATOM     26  C   LIG d   1       2.971   0.089  -8.914  0.00  0.00     0.120 A 
ATOM     27  H   LIG d   1       3.817  -1.605  -7.912  0.00  0.00     0.065 H 
ATOM     28  C   LIG d   1       3.197   1.375  -9.384  0.00  0.00    -0.019 A 
ATOM     29  C   LIG d   1       4.435   1.964  -9.213  0.00  0.00    -0.050 A 
ATOM     30  H   LIG d   1       2.405   1.917  -9.878  0.00  0.00     0.065 H 
ATOM     31  H   LIG d   1       4.611   2.966  -9.575  0.00  0.00     0.062 H 
BRANCH  26  32
ATOM     32  O   LIG d   1       1.752  -0.489  -9.076  0.00  0.00    -0.495 OA
BRANCH  32  33
ATOM     33  C   LIG d   1       1.688  -1.645  -9.913  0.00  0.00     0.079 C 
ATOM     34  H   LIG d   1       0.637  -1.875 -10.139  0.00  0.00     0.066 H 
ATOM     35  H   LIG d   1       2.149  -2.499  -9.396  0.00  0.00     0.066 H 
ATOM     36  H   LIG d   1       2.229  -1.448 -10.851  0.00  0.00     0.066 H 
ENDBRANCH  32  33
ENDBRANCH  26  32
ENDBRANCH  19  22
ENDBRANCH  16  19
ENDBRANCH   5  16
BRANCH   3  37
ATOM     37  O   LIG d   1      10.984   1.246  -6.148  0.00  0.00    -0.384 OA
ATOM     38  H   LIG d   1      11.415   1.604  -7.095  0.00  0.00     0.210 HD
ENDBRANCH   3  37
BRANCH   1  39
ATOM     39  N   LIG d   1       7.750  -0.078  -4.937  0.00  0.00    -0.290 N 
ATOM     40  C   LIG d   1       7.514   0.772  -3.762  0.00  0.00     0.015 C 
ATOM     41  C   LIG d   1       6.000   0.928  -3.545  0.00  0.00     0.028 C 
ATOM     42  H   LIG d   1       7.965   1.762  -3.926  0.00  0.00     0.044 H 
ATOM     43  H   LIG d   1       7.966   0.307  -2.874  0.00  0.00     0.044 H 
ATOM     44  N   LIG d   1       5.405  -0.414  -3.471  0.00  0.00    -0.299 N 
ATOM     45  H   LIG d   1       5.555   1.481  -4.384  0.00  0.00     0.048 H 
ATOM     46  H   LIG d   1       5.808   1.467  -2.606  0.00  0.00     0.048 H 
ATOM     47  C   LIG d   1       4.597  -0.757  -2.447  0.00  0.00     0.212 C 
ATOM     48  C   LIG d   1       5.707  -1.372  -4.546  0.00  0.00     0.028 C 
ATOM     49  O   LIG d   1       4.429   0.010  -1.524  0.00  0.00    -0.276 OA
ATOM     50  C   LIG d   1       7.228  -1.434  -4.727  0.00  0.00     0.015 C 
ATOM     51  H   LIG d   1       5.321  -2.365  -4.274  0.00  0.00     0.048 H 
ATOM     52  H   LIG d   1       5.233  -1.036  -5.480  0.00  0.00     0.048 H 
ATOM     53  H   LIG d   1       7.469  -2.059  -5.600  0.00  0.00     0.044 H 
ATOM     54  H   LIG d   1       7.688  -1.869  -3.827  0.00  0.00     0.044 H 
BRANCH  47  55
ATOM     55  C   LIG d   1       3.905  -2.095  -2.449  0.00  0.00     0.012 C 
ATOM     56  H   LIG d   1       3.069  -2.075  -3.164  0.00  0.00     0.032 H 
ATOM     57  H   LIG d   1       3.519  -2.311  -1.442  0.00  0.00     0.032 H 
ATOM     58  H   LIG d   1       4.620  -2.878  -2.744  0.00  0.00     0.032 H 
ENDBRANCH  47  55
ENDBRANCH   1  39
TORSDOF 8
ENDMDL
