MODEL 1
REMARK VINA RESULT:      -5.5      0.000      0.000
REMARK  6 active torsions:
REMARK  status: ('A' for Active; 'I' for Inactive)
REMARK    1  A    between atoms: C_1  and  C_2 
REMARK    2  A    between atoms: C_2  and  C_4 
REMARK    3  A    between atoms: C_2  and  N_32 
REMARK    4  A    between atoms: C_4  and  C_5 
REMARK       I    between atoms: C_5  and  N_7 
REMARK       I    between atoms: N_7  and  CA_8 
REMARK    5  A    between atoms: CA_8  and  CB_10 
REMARK       I    between atoms: CA_8  and  C_17 
REMARK    6  A    between atoms: CB_10  and  CG_11 
ROOT
ATOM      1  C   UNK d   0       3.223   0.061  -5.501  0.00  0.00     0.219 C 
ATOM      2  O   UNK d   0       4.423   0.228  -5.567  0.00  0.00    -0.276 OA
ATOM      3  N   HIS d   1       2.504  -0.109  -6.627  0.00  0.00    -0.307 N 
ATOM      4  CA  HIS d   1       3.171  -0.100  -7.931  0.00  0.00     0.068 C 
ATOM      5  HA  HIS d   1       4.158  -0.554  -7.838  0.00  0.00     0.056 H 
ATOM      6  C   HIS d   1       3.317   1.321  -8.411  0.00  0.00     0.062 C 
ATOM      7  O   HIS d   1       2.906   2.233  -7.733  0.00  0.00    -0.548 OA
ATOM      8  H   HIS d   1       1.544  -0.237  -6.575  0.00  0.00     0.149 HD
ATOM      9  OXT HIS d   1       3.904   1.575  -9.591  0.00  0.00    -0.548 OA
ENDROOT
BRANCH   1  10
ATOM     10  C   UNK d   0       2.537   0.052  -4.159  0.00  0.00     0.067 C 
ATOM     11  H   UNK d   0       2.774   0.971  -3.623  0.00  0.00     0.041 H 
ATOM     12  H   UNK d   0       1.459  -0.017  -4.304  0.00  0.00     0.041 H 
BRANCH  10  13
ATOM     13  C   UNK d   0       3.020  -1.151  -3.347  0.00  0.00    -0.019 C 
ATOM     14  H   UNK d   0       2.167  -1.635  -2.871  0.00  0.00     0.085 H 
BRANCH  13  15
ATOM     15  C   UNK d   0       4.004  -0.681  -2.275  0.00  0.00    -0.021 C 
ATOM     16  H   UNK d   0       5.024  -0.808  -2.637  0.00  0.00     0.028 H 
ATOM     17  H   UNK d   0       3.826   0.372  -2.055  0.00  0.00     0.028 H 
ATOM     18  H   UNK d   0       3.864  -1.271  -1.369  0.00  0.00     0.028 H 
ENDBRANCH  13  15
BRANCH  13  19
ATOM     19  N   UNK d   0       3.695  -2.126  -4.223  0.00  0.00     0.221 N 
ATOM     20  H   UNK d   0       3.849  -2.999  -3.722  0.00  0.00     0.200 HD
ATOM     21  H   UNK d   0       3.126  -2.305  -5.050  0.00  0.00     0.200 HD
ATOM     22  H   UNK d   0       4.602  -1.744  -4.517  0.00  0.00     0.200 HD
ENDBRANCH  13  19
ENDBRANCH  10  13
ENDBRANCH   1  10
BRANCH   4  23
ATOM     23  CB  HIS d   1       2.337  -0.895  -8.938  0.00  0.00     0.013 C 
ATOM     24  HB1 HIS d   1       1.290  -0.878  -8.636  0.00  0.00     0.035 H 
ATOM     25  HB2 HIS d   1       2.437  -0.447  -9.927  0.00  0.00     0.035 H 
BRANCH  23  26
ATOM     26  CG  HIS d   1       2.825  -2.320  -8.980  0.00  0.00     0.037 A 
ATOM     27  ND1 HIS d   1       3.634  -2.902  -8.083  0.00  0.00    -0.348 N 
ATOM     28  HD1 HIS d   1       4.014  -2.459  -7.271  0.00  0.00     0.167 HD
ATOM     29  CE1 HIS d   1       3.848  -4.141  -8.437  0.00  0.00     0.093 A 
ATOM     30  NE2 HIS d   1       3.175  -4.386  -9.581  0.00  0.00    -0.244 NA
ATOM     31  HE1 HIS d   1       4.461  -4.851  -7.902  0.00  0.00     0.103 H 
ATOM     32  CD2 HIS d   1       2.522  -3.232  -9.922  0.00  0.00     0.049 A 
ATOM     33  HD2 HIS d   1       1.887  -3.083 -10.783  0.00  0.00     0.085 H 
ENDBRANCH  23  26
ENDBRANCH   4  23
TORSDOF 8
ENDMDL
MODEL 2
REMARK VINA RESULT:      -5.5      1.923      2.566
REMARK  6 active torsions:
REMARK  status: ('A' for Active; 'I' for Inactive)
REMARK    1  A    between atoms: C_1  and  C_2 
REMARK    2  A    between atoms: C_2  and  C_4 
REMARK    3  A    between atoms: C_2  and  N_32 
REMARK    4  A    between atoms: C_4  and  C_5 
REMARK       I    between atoms: C_5  and  N_7 
REMARK       I    between atoms: N_7  and  CA_8 
REMARK    5  A    between atoms: CA_8  and  CB_10 
REMARK       I    between atoms: CA_8  and  C_17 
REMARK    6  A    between atoms: CB_10  and  CG_11 
ROOT
ATOM      1  C   UNK d   0       3.665  -1.440  -4.145  0.00  0.00     0.219 C 
ATOM      2  O   UNK d   0       4.214  -2.483  -4.429  0.00  0.00    -0.276 OA
ATOM      3  N   HIS d   1       3.423  -0.523  -5.101  0.00  0.00    -0.307 N 
ATOM      4  CA  HIS d   1       3.817  -0.789  -6.487  0.00  0.00     0.068 C 
ATOM      5  HA  HIS d   1       3.694  -1.850  -6.703  0.00  0.00     0.056 H 
ATOM      6  C   HIS d   1       5.259  -0.400  -6.682  0.00  0.00     0.062 C 
ATOM      7  O   HIS d   1       5.894   0.052  -5.759  0.00  0.00    -0.548 OA
ATOM      8  H   HIS d   1       2.988   0.314  -4.873  0.00  0.00     0.149 HD
ATOM      9  OXT HIS d   1       5.840  -0.557  -7.883  0.00  0.00    -0.548 OA
ENDROOT
BRANCH   1  10
ATOM     10  C   UNK d   0       3.259  -1.166  -2.719  0.00  0.00     0.067 C 
ATOM     11  H   UNK d   0       2.399  -0.497  -2.708  0.00  0.00     0.041 H 
ATOM     12  H   UNK d   0       2.997  -2.104  -2.230  0.00  0.00     0.041 H 
BRANCH  10  13
ATOM     13  C   UNK d   0       4.423  -0.511  -1.973  0.00  0.00    -0.019 C 
ATOM     14  H   UNK d   0       4.493  -0.929  -0.969  0.00  0.00     0.085 H 
BRANCH  13  15
ATOM     15  C   UNK d   0       4.188   0.997  -1.884  0.00  0.00    -0.021 C 
ATOM     16  H   UNK d   0       4.200   1.305  -0.838  0.00  0.00     0.028 H 
ATOM     17  H   UNK d   0       4.976   1.521  -2.425  0.00  0.00     0.028 H 
ATOM     18  H   UNK d   0       3.221   1.241  -2.323  0.00  0.00     0.028 H 
ENDBRANCH  13  15
BRANCH  13  19
ATOM     19  N   UNK d   0       5.692  -0.757  -2.682  0.00  0.00     0.221 N 
ATOM     20  H   UNK d   0       6.469  -0.748  -2.023  0.00  0.00     0.200 HD
ATOM     21  H   UNK d   0       5.659  -1.660  -3.155  0.00  0.00     0.200 HD
ATOM     22  H   UNK d   0       5.836  -0.019  -3.381  0.00  0.00     0.200 HD
ENDBRANCH  13  19
ENDBRANCH  10  13
ENDBRANCH   1  10
BRANCH   4  23
ATOM     23  CB  HIS d   1       2.936   0.029  -7.434  0.00  0.00     0.013 C 
ATOM     24  HB1 HIS d   1       2.040   0.355  -6.907  0.00  0.00     0.035 H 
ATOM     25  HB2 HIS d   1       3.489   0.900  -7.784  0.00  0.00     0.035 H 
BRANCH  23  26
ATOM     26  CG  HIS d   1       2.543  -0.823  -8.614  0.00  0.00     0.037 A 
ATOM     27  ND1 HIS d   1       3.031  -2.036  -8.908  0.00  0.00    -0.348 N 
ATOM     28  HD1 HIS d   1       3.721  -2.528  -8.375  0.00  0.00     0.167 HD
ATOM     29  CE1 HIS d   1       2.465  -2.476  -9.999  0.00  0.00     0.093 A 
ATOM     30  NE2 HIS d   1       1.590  -1.546 -10.437  0.00  0.00    -0.244 NA
ATOM     31  HE1 HIS d   1       2.664  -3.427 -10.471  0.00  0.00     0.103 H 
ATOM     32  CD2 HIS d   1       1.636  -0.500  -9.556  0.00  0.00     0.049 A 
ATOM     33  HD2 HIS d   1       1.057   0.411  -9.607  0.00  0.00     0.085 H 
ENDBRANCH  23  26
ENDBRANCH   4  23
TORSDOF 8
ENDMDL
MODEL 3
REMARK VINA RESULT:      -5.2      2.489      4.804
REMARK  6 active torsions:
REMARK  status: ('A' for Active; 'I' for Inactive)
REMARK    1  A    between atoms: C_1  and  C_2 
REMARK    2  A    between atoms: C_2  and  C_4 
REMARK    3  A    between atoms: C_2  and  N_32 
REMARK    4  A    between atoms: C_4  and  C_5 
REMARK       I    between atoms: C_5  and  N_7 
REMARK       I    between atoms: N_7  and  CA_8 
REMARK    5  A    between atoms: CA_8  and  CB_10 
REMARK       I    between atoms: CA_8  and  C_17 
REMARK    6  A    between atoms: CB_10  and  CG_11 
ROOT
ATOM      1  C   UNK d   0       3.025   0.144  -6.114  0.00  0.00     0.219 C 
ATOM      2  O   UNK d   0       2.779   1.174  -5.521  0.00  0.00    -0.276 OA
ATOM      3  N   HIS d   1       3.673  -0.856  -5.487  0.00  0.00    -0.307 N 
ATOM      4  CA  HIS d   1       4.077  -0.704  -4.087  0.00  0.00     0.068 C 
ATOM      5  HA  HIS d   1       3.327  -0.119  -3.554  0.00  0.00     0.056 H 
ATOM      6  C   HIS d   1       5.405   0.005  -4.022  0.00  0.00     0.062 C 
ATOM      7  O   HIS d   1       5.958   0.348  -5.041  0.00  0.00    -0.548 OA
ATOM      8  H   HIS d   1       3.874  -1.678  -5.962  0.00  0.00     0.149 HD
ATOM      9  OXT HIS d   1       5.974   0.257  -2.832  0.00  0.00    -0.548 OA
ENDROOT
BRANCH   1  10
ATOM     10  C   UNK d   0       2.609  -0.013  -7.554  0.00  0.00     0.067 C 
ATOM     11  H   UNK d   0       2.919  -0.993  -7.917  0.00  0.00     0.041 H 
ATOM     12  H   UNK d   0       1.525   0.076  -7.631  0.00  0.00     0.041 H 
BRANCH  10  13
ATOM     13  C   UNK d   0       3.271   1.076  -8.399  0.00  0.00    -0.019 C 
ATOM     14  H   UNK d   0       2.768   2.027  -8.225  0.00  0.00     0.085 H 
BRANCH  13  15
ATOM     15  C   UNK d   0       3.168   0.707  -9.880  0.00  0.00    -0.021 C 
ATOM     16  H   UNK d   0       4.049   0.137 -10.174  0.00  0.00     0.028 H 
ATOM     17  H   UNK d   0       2.274   0.105 -10.043  0.00  0.00     0.028 H 
ATOM     18  H   UNK d   0       3.108   1.616 -10.478  0.00  0.00     0.028 H 
ENDBRANCH  13  15
BRANCH  13  19
ATOM     19  N   UNK d   0       4.693   1.214  -8.037  0.00  0.00     0.221 N 
ATOM     20  H   UNK d   0       4.876   2.154  -7.689  0.00  0.00     0.200 HD
ATOM     21  H   UNK d   0       4.939   0.533  -7.320  0.00  0.00     0.200 HD
ATOM     22  H   UNK d   0       5.271   1.047  -8.869  0.00  0.00     0.200 HD
ENDBRANCH  13  19
ENDBRANCH  10  13
ENDBRANCH   1  10
BRANCH   4  23
ATOM     23  CB  HIS d   1       4.204  -2.084  -3.438  0.00  0.00     0.013 C 
ATOM     24  HB1 HIS d   1       4.849  -2.016  -2.563  0.00  0.00     0.035 H 
ATOM     25  HB2 HIS d   1       3.217  -2.435  -3.136  0.00  0.00     0.035 H 
BRANCH  23  26
ATOM     26  CG  HIS d   1       4.800  -3.050  -4.428  0.00  0.00     0.037 A 
ATOM     27  ND1 HIS d   1       4.117  -3.884  -5.226  0.00  0.00    -0.348 N 
ATOM     28  HD1 HIS d   1       3.121  -3.965  -5.262  0.00  0.00     0.167 HD
ATOM     29  CE1 HIS d   1       4.957  -4.573  -5.950  0.00  0.00     0.093 A 
ATOM     30  NE2 HIS d   1       6.214  -4.195  -5.631  0.00  0.00    -0.244 NA
ATOM     31  HE1 HIS d   1       4.691  -5.320  -6.682  0.00  0.00     0.103 H 
ATOM     32  CD2 HIS d   1       6.113  -3.226  -4.669  0.00  0.00     0.049 A 
ATOM     33  HD2 HIS d   1       6.931  -2.703  -4.195  0.00  0.00     0.085 H 
ENDBRANCH  23  26
ENDBRANCH   4  23
TORSDOF 8
ENDMDL
MODEL 4
REMARK VINA RESULT:      -5.1      5.086      7.220
REMARK  6 active torsions:
REMARK  status: ('A' for Active; 'I' for Inactive)
REMARK    1  A    between atoms: C_1  and  C_2 
REMARK    2  A    between atoms: C_2  and  C_4 
REMARK    3  A    between atoms: C_2  and  N_32 
REMARK    4  A    between atoms: C_4  and  C_5 
REMARK       I    between atoms: C_5  and  N_7 
REMARK       I    between atoms: N_7  and  CA_8 
REMARK    5  A    between atoms: CA_8  and  CB_10 
REMARK       I    between atoms: CA_8  and  C_17 
REMARK    6  A    between atoms: CB_10  and  CG_11 
ROOT
ATOM      1  C   UNK d   0       5.290   0.993  -2.791  0.00  0.00     0.219 C 
ATOM      2  O   UNK d   0       4.780   1.978  -3.283  0.00  0.00    -0.276 OA
ATOM      3  N   HIS d   1       6.554   0.657  -3.110  0.00  0.00    -0.307 N 
ATOM      4  CA  HIS d   1       7.318   1.484  -4.048  0.00  0.00     0.068 C 
ATOM      5  HA  HIS d   1       7.047   2.531  -3.913  0.00  0.00     0.056 H 
ATOM      6  C   HIS d   1       7.002   1.064  -5.460  0.00  0.00     0.062 C 
ATOM      7  O   HIS d   1       6.219   0.165  -5.663  0.00  0.00    -0.548 OA
ATOM      8  H   HIS d   1       6.960  -0.133  -2.720  0.00  0.00     0.149 HD
ATOM      9  OXT HIS d   1       7.589   1.688  -6.494  0.00  0.00    -0.548 OA
ENDROOT
BRANCH   1  10
ATOM     10  C   UNK d   0       4.505   0.143  -1.826  0.00  0.00     0.067 C 
ATOM     11  H   UNK d   0       5.188  -0.492  -1.262  0.00  0.00     0.041 H 
ATOM     12  H   UNK d   0       3.955   0.786  -1.138  0.00  0.00     0.041 H 
BRANCH  10  13
ATOM     13  C   UNK d   0       3.519  -0.733  -2.601  0.00  0.00    -0.019 C 
ATOM     14  H   UNK d   0       2.505  -0.533  -2.256  0.00  0.00     0.085 H 
BRANCH  13  15
ATOM     15  C   UNK d   0       3.855  -2.208  -2.370  0.00  0.00    -0.021 C 
ATOM     16  H   UNK d   0       3.385  -2.546  -1.446  0.00  0.00     0.028 H 
ATOM     17  H   UNK d   0       3.482  -2.801  -3.205  0.00  0.00     0.028 H 
ATOM     18  H   UNK d   0       4.935  -2.327  -2.292  0.00  0.00     0.028 H 
ENDBRANCH  13  15
BRANCH  13  19
ATOM     19  N   UNK d   0       3.600  -0.445  -4.045  0.00  0.00     0.221 N 
ATOM     20  H   UNK d   0       4.461  -0.829  -4.430  0.00  0.00     0.200 HD
ATOM     21  H   UNK d   0       2.801  -0.853  -4.528  0.00  0.00     0.200 HD
ATOM     22  H   UNK d   0       3.593   0.571  -4.186  0.00  0.00     0.200 HD
ENDBRANCH  13  19
ENDBRANCH  10  13
ENDBRANCH   1  10
BRANCH   4  23
ATOM     23  CB  HIS d   1       8.814   1.306  -3.786  0.00  0.00     0.013 C 
ATOM     24  HB1 HIS d   1       8.957   0.765  -2.851  0.00  0.00     0.035 H 
ATOM     25  HB2 HIS d   1       9.262   0.742  -4.604  0.00  0.00     0.035 H 
BRANCH  23  26
ATOM     26  CG  HIS d   1       9.472   2.659  -3.690  0.00  0.00     0.037 A 
ATOM     27  ND1 HIS d   1       9.175   3.734  -4.433  0.00  0.00    -0.348 N 
ATOM     28  HD1 HIS d   1       8.475   3.769  -5.147  0.00  0.00     0.167 HD
ATOM     29  CE1 HIS d   1       9.942   4.728  -4.079  0.00  0.00     0.093 A 
ATOM     30  NE2 HIS d   1      10.760   4.312  -3.088  0.00  0.00    -0.244 NA
ATOM     31  HE1 HIS d   1       9.925   5.720  -4.506  0.00  0.00     0.103 H 
ATOM     32  CD2 HIS d   1      10.457   3.000  -2.838  0.00  0.00     0.049 A 
ATOM     33  HD2 HIS d   1      10.921   2.362  -2.100  0.00  0.00     0.085 H 
ENDBRANCH  23  26
ENDBRANCH   4  23
TORSDOF 8
ENDMDL
MODEL 5
REMARK VINA RESULT:      -5.0     10.851     12.826
REMARK  6 active torsions:
REMARK  status: ('A' for Active; 'I' for Inactive)
REMARK    1  A    between atoms: C_1  and  C_2 
REMARK    2  A    between atoms: C_2  and  C_4 
REMARK    3  A    between atoms: C_2  and  N_32 
REMARK    4  A    between atoms: C_4  and  C_5 
REMARK       I    between atoms: C_5  and  N_7 
REMARK       I    between atoms: N_7  and  CA_8 
REMARK    5  A    between atoms: CA_8  and  CB_10 
REMARK       I    between atoms: CA_8  and  C_17 
REMARK    6  A    between atoms: CB_10  and  CG_11 
ROOT
ATOM      1  C   UNK d   0      10.221   8.658  -0.883  0.00  0.00     0.219 C 
ATOM      2  O   UNK d   0       9.108   8.449  -0.448  0.00  0.00    -0.276 OA
ATOM      3  N   HIS d   1      11.152   7.686  -0.847  0.00  0.00    -0.307 N 
ATOM      4  CA  HIS d   1      10.820   6.373  -0.288  0.00  0.00     0.068 C 
ATOM      5  HA  HIS d   1       9.784   6.130  -0.523  0.00  0.00     0.056 H 
ATOM      6  C   HIS d   1      11.002   6.404   1.207  0.00  0.00     0.062 C 
ATOM      7  O   HIS d   1      11.371   7.418   1.751  0.00  0.00    -0.548 OA
ATOM      8  H   HIS d   1      12.044   7.855  -1.191  0.00  0.00     0.149 HD
ATOM      9  OXT HIS d   1      10.753   5.304   1.937  0.00  0.00    -0.548 OA
ENDROOT
BRANCH   1  10
ATOM     10  C   UNK d   0      10.563  10.009  -1.458  0.00  0.00     0.067 C 
ATOM     11  H   UNK d   0      10.453  10.771  -0.686  0.00  0.00     0.041 H 
ATOM     12  H   UNK d   0      11.592  10.001  -1.817  0.00  0.00     0.041 H 
BRANCH  10  13
ATOM     13  C   UNK d   0       9.619  10.322  -2.621  0.00  0.00    -0.019 C 
ATOM     14  H   UNK d   0       9.441   9.415  -3.199  0.00  0.00     0.085 H 
BRANCH  13  15
ATOM     15  C   UNK d   0      10.254  11.384  -3.521  0.00  0.00    -0.021 C 
ATOM     16  H   UNK d   0       9.687  12.312  -3.443  0.00  0.00     0.028 H 
ATOM     17  H   UNK d   0      11.283  11.559  -3.206  0.00  0.00     0.028 H 
ATOM     18  H   UNK d   0      10.243  11.038  -4.555  0.00  0.00     0.028 H 
ENDBRANCH  13  15
BRANCH  13  19
ATOM     19  N   UNK d   0       8.331  10.829  -2.116  0.00  0.00     0.221 N 
ATOM     20  H   UNK d   0       8.435  11.791  -1.797  0.00  0.00     0.200 HD
ATOM     21  H   UNK d   0       7.628  10.791  -2.854  0.00  0.00     0.200 HD
ATOM     22  H   UNK d   0       8.024  10.246  -1.330  0.00  0.00     0.200 HD
ENDBRANCH  13  19
ENDBRANCH  10  13
ENDBRANCH   1  10
BRANCH   4  23
ATOM     23  CB  HIS d   1      11.743   5.312  -0.892  0.00  0.00     0.013 C 
ATOM     24  HB1 HIS d   1      12.568   5.800  -1.410  0.00  0.00     0.035 H 
ATOM     25  HB2 HIS d   1      12.136   4.678  -0.098  0.00  0.00     0.035 H 
BRANCH  23  26
ATOM     26  CG  HIS d   1      10.965   4.469  -1.870  0.00  0.00     0.037 A 
ATOM     27  ND1 HIS d   1      11.107   3.150  -2.061  0.00  0.00    -0.348 N 
ATOM     28  HD1 HIS d   1      11.752   2.560  -1.573  0.00  0.00     0.167 HD
ATOM     29  CE1 HIS d   1      10.272   2.756  -2.984  0.00  0.00     0.093 A 
ATOM     30  NE2 HIS d   1       9.566   3.824  -3.412  0.00  0.00    -0.244 NA
ATOM     31  HE1 HIS d   1      10.164   1.744  -3.343  0.00  0.00     0.103 H 
ATOM     32  CD2 HIS d   1      10.002   4.910  -2.702  0.00  0.00     0.049 A 
ATOM     33  HD2 HIS d   1       9.643   5.924  -2.793  0.00  0.00     0.085 H 
ENDBRANCH  23  26
ENDBRANCH   4  23
TORSDOF 8
ENDMDL
MODEL 6
REMARK VINA RESULT:      -5.0      2.461      6.082
REMARK  6 active torsions:
REMARK  status: ('A' for Active; 'I' for Inactive)
REMARK    1  A    between atoms: C_1  and  C_2 
REMARK    2  A    between atoms: C_2  and  C_4 
REMARK    3  A    between atoms: C_2  and  N_32 
REMARK    4  A    between atoms: C_4  and  C_5 
REMARK       I    between atoms: C_5  and  N_7 
REMARK       I    between atoms: N_7  and  CA_8 
REMARK    5  A    between atoms: CA_8  and  CB_10 
REMARK       I    between atoms: CA_8  and  C_17 
REMARK    6  A    between atoms: CB_10  and  CG_11 
ROOT
ATOM      1  C   UNK d   0       4.075  -0.796  -6.902  0.00  0.00     0.219 C 
ATOM      2  O   UNK d   0       5.238  -0.757  -7.245  0.00  0.00    -0.276 OA
ATOM      3  N   HIS d   1       3.728  -1.436  -5.769  0.00  0.00    -0.307 N 
ATOM      4  CA  HIS d   1       4.755  -2.082  -4.948  0.00  0.00     0.068 C 
ATOM      5  HA  HIS d   1       5.672  -1.495  -4.984  0.00  0.00     0.056 H 
ATOM      6  C   HIS d   1       5.024  -3.467  -5.478  0.00  0.00     0.062 C 
ATOM      7  O   HIS d   1       4.421  -3.873  -6.443  0.00  0.00    -0.548 OA
ATOM      8  H   HIS d   1       2.797  -1.472  -5.497  0.00  0.00     0.149 HD
ATOM      9  OXT HIS d   1       5.936  -4.249  -4.878  0.00  0.00    -0.548 OA
ENDROOT
BRANCH   1  10
ATOM     10  C   UNK d   0       3.019  -0.131  -7.747  0.00  0.00     0.067 C 
ATOM     11  H   UNK d   0       2.055  -0.195  -7.240  0.00  0.00     0.041 H 
ATOM     12  H   UNK d   0       3.281   0.915  -7.899  0.00  0.00     0.041 H 
BRANCH  10  13
ATOM     13  C   UNK d   0       2.930  -0.837  -9.101  0.00  0.00    -0.019 C 
ATOM     14  H   UNK d   0       3.678  -0.422  -9.777  0.00  0.00     0.085 H 
BRANCH  13  15
ATOM     15  C   UNK d   0       1.535  -0.629  -9.694  0.00  0.00    -0.021 C 
ATOM     16  H   UNK d   0       1.566  -0.810 -10.768  0.00  0.00     0.028 H 
ATOM     17  H   UNK d   0       0.835  -1.324  -9.229  0.00  0.00     0.028 H 
ATOM     18  H   UNK d   0       1.209   0.394  -9.508  0.00  0.00     0.028 H 
ENDBRANCH  13  15
BRANCH  13  19
ATOM     19  N   UNK d   0       3.174  -2.282  -8.946  0.00  0.00     0.221 N 
ATOM     20  H   UNK d   0       3.060  -2.754  -9.841  0.00  0.00     0.200 HD
ATOM     21  H   UNK d   0       4.118  -2.441  -8.596  0.00  0.00     0.200 HD
ATOM     22  H   UNK d   0       2.499  -2.667  -8.275  0.00  0.00     0.200 HD
ENDBRANCH  13  19
ENDBRANCH  10  13
ENDBRANCH   1  10
BRANCH   4  23
ATOM     23  CB  HIS d   1       4.267  -2.176  -3.501  0.00  0.00     0.013 C 
ATOM     24  HB1 HIS d   1       3.275  -2.628  -3.480  0.00  0.00     0.035 H 
ATOM     25  HB2 HIS d   1       4.958  -2.791  -2.924  0.00  0.00     0.035 H 
BRANCH  23  26
ATOM     26  CG  HIS d   1       4.202  -0.795  -2.902  0.00  0.00     0.037 A 
ATOM     27  ND1 HIS d   1       5.249  -0.063  -2.493  0.00  0.00    -0.348 N 
ATOM     28  HD1 HIS d   1       6.207  -0.348  -2.536  0.00  0.00     0.167 HD
ATOM     29  CE1 HIS d   1       4.821   1.079  -2.029  0.00  0.00     0.093 A 
ATOM     30  NE2 HIS d   1       3.475   1.110  -2.130  0.00  0.00    -0.244 NA
ATOM     31  HE1 HIS d   1       5.441   1.869  -1.632  0.00  0.00     0.103 H 
ATOM     32  CD2 HIS d   1       3.084  -0.077  -2.689  0.00  0.00     0.049 A 
ATOM     33  HD2 HIS d   1       2.071  -0.379  -2.914  0.00  0.00     0.085 H 
ENDBRANCH  23  26
ENDBRANCH   4  23
TORSDOF 8
ENDMDL
MODEL 7
REMARK VINA RESULT:      -5.0      4.483      5.769
REMARK  6 active torsions:
REMARK  status: ('A' for Active; 'I' for Inactive)
REMARK    1  A    between atoms: C_1  and  C_2 
REMARK    2  A    between atoms: C_2  and  C_4 
REMARK    3  A    between atoms: C_2  and  N_32 
REMARK    4  A    between atoms: C_4  and  C_5 
REMARK       I    between atoms: C_5  and  N_7 
REMARK       I    between atoms: N_7  and  CA_8 
REMARK    5  A    between atoms: CA_8  and  CB_10 
REMARK       I    between atoms: CA_8  and  C_17 
REMARK    6  A    between atoms: CB_10  and  CG_11 
ROOT
ATOM      1  C   UNK d   0       5.756   0.432  -2.840  0.00  0.00     0.219 C 
ATOM      2  O   UNK d   0       6.396   1.445  -3.031  0.00  0.00    -0.276 OA
ATOM      3  N   HIS d   1       6.041  -0.685  -3.536  0.00  0.00    -0.307 N 
ATOM      4  CA  HIS d   1       7.127  -0.681  -4.519  0.00  0.00     0.068 C 
ATOM      5  HA  HIS d   1       7.932  -0.035  -4.168  0.00  0.00     0.056 H 
ATOM      6  C   HIS d   1       6.609  -0.166  -5.837  0.00  0.00     0.062 C 
ATOM      7  O   HIS d   1       5.451   0.164  -5.944  0.00  0.00    -0.548 OA
ATOM      8  H   HIS d   1       5.527  -1.494  -3.387  0.00  0.00     0.149 HD
ATOM      9  OXT HIS d   1       7.434  -0.072  -6.892  0.00  0.00    -0.548 OA
ENDROOT
BRANCH   1  10
ATOM     10  C   UNK d   0       4.639   0.427  -1.829  0.00  0.00     0.067 C 
ATOM     11  H   UNK d   0       4.605  -0.542  -1.331  0.00  0.00     0.041 H 
ATOM     12  H   UNK d   0       4.814   1.209  -1.090  0.00  0.00     0.041 H 
BRANCH  10  13
ATOM     13  C   UNK d   0       3.308   0.683  -2.537  0.00  0.00    -0.019 C 
ATOM     14  H   UNK d   0       2.629   1.200  -1.859  0.00  0.00     0.085 H 
BRANCH  13  15
ATOM     15  C   UNK d   0       2.689  -0.651  -2.959  0.00  0.00    -0.021 C 
ATOM     16  H   UNK d   0       3.140  -1.459  -2.383  0.00  0.00     0.028 H 
ATOM     17  H   UNK d   0       1.615  -0.628  -2.773  0.00  0.00     0.028 H 
ATOM     18  H   UNK d   0       2.871  -0.816  -4.021  0.00  0.00     0.028 H 
ENDBRANCH  13  15
BRANCH  13  19
ATOM     19  N   UNK d   0       3.514   1.516  -3.735  0.00  0.00     0.221 N 
ATOM     20  H   UNK d   0       3.283   2.487  -3.531  0.00  0.00     0.200 HD
ATOM     21  H   UNK d   0       4.485   1.455  -4.040  0.00  0.00     0.200 HD
ATOM     22  H   UNK d   0       2.905   1.178  -4.489  0.00  0.00     0.200 HD
ENDBRANCH  13  19
ENDBRANCH  10  13
ENDBRANCH   1  10
BRANCH   4  23
ATOM     23  CB  HIS d   1       7.658  -2.104  -4.701  0.00  0.00     0.013 C 
ATOM     24  HB1 HIS d   1       7.369  -2.712  -3.845  0.00  0.00     0.035 H 
ATOM     25  HB2 HIS d   1       7.239  -2.534  -5.611  0.00  0.00     0.035 H 
BRANCH  23  26
ATOM     26  CG  HIS d   1       9.161  -2.069  -4.807  0.00  0.00     0.037 A 
ATOM     27  ND1 HIS d   1       9.912  -0.975  -5.000  0.00  0.00    -0.348 N 
ATOM     28  HD1 HIS d   1       9.564  -0.043  -5.097  0.00  0.00     0.167 HD
ATOM     29  CE1 HIS d   1      11.171  -1.319  -5.041  0.00  0.00     0.093 A 
ATOM     30  NE2 HIS d   1      11.260  -2.656  -4.874  0.00  0.00    -0.244 NA
ATOM     31  HE1 HIS d   1      12.003  -0.645  -5.184  0.00  0.00     0.103 H 
ATOM     32  CD2 HIS d   1       9.985  -3.130  -4.721  0.00  0.00     0.049 A 
ATOM     33  HD2 HIS d   1       9.696  -4.159  -4.562  0.00  0.00     0.085 H 
ENDBRANCH  23  26
ENDBRANCH   4  23
TORSDOF 8
ENDMDL
MODEL 8
REMARK VINA RESULT:      -5.0     10.951     13.194
REMARK  6 active torsions:
REMARK  status: ('A' for Active; 'I' for Inactive)
REMARK    1  A    between atoms: C_1  and  C_2 
REMARK    2  A    between atoms: C_2  and  C_4 
REMARK    3  A    between atoms: C_2  and  N_32 
REMARK    4  A    between atoms: C_4  and  C_5 
REMARK       I    between atoms: C_5  and  N_7 
REMARK       I    between atoms: N_7  and  CA_8 
REMARK    5  A    between atoms: CA_8  and  CB_10 
REMARK       I    between atoms: CA_8  and  C_17 
REMARK    6  A    between atoms: CB_10  and  CG_11 
ROOT
ATOM      1  C   UNK d   0      10.502   6.134  -2.559  0.00  0.00     0.219 C 
ATOM      2  O   UNK d   0      11.710   6.245  -2.566  0.00  0.00    -0.276 OA
ATOM      3  N   HIS d   1       9.761   6.893  -1.729  0.00  0.00    -0.307 N 
ATOM      4  CA  HIS d   1      10.413   7.857  -0.838  0.00  0.00     0.068 C 
ATOM      5  HA  HIS d   1      11.283   8.282  -1.338  0.00  0.00     0.056 H 
ATOM      6  C   HIS d   1      10.850   7.159   0.423  0.00  0.00     0.062 C 
ATOM      7  O   HIS d   1      10.640   5.977   0.565  0.00  0.00    -0.548 OA
ATOM      8  H   HIS d   1       8.795   6.802  -1.719  0.00  0.00     0.149 HD
ATOM      9  OXT HIS d   1      11.476   7.849   1.390  0.00  0.00    -0.548 OA
ENDROOT
BRANCH   1  10
ATOM     10  C   UNK d   0       9.831   5.143  -3.474  0.00  0.00     0.067 C 
ATOM     11  H   UNK d   0       8.758   5.137  -3.280  0.00  0.00     0.041 H 
ATOM     12  H   UNK d   0      10.010   5.427  -4.511  0.00  0.00     0.041 H 
BRANCH  10  13
ATOM     13  C   UNK d   0      10.402   3.747  -3.223  0.00  0.00    -0.019 C 
ATOM     14  H   UNK d   0      11.236   3.568  -3.901  0.00  0.00     0.085 H 
BRANCH  13  15
ATOM     15  C   UNK d   0       9.314   2.699  -3.463  0.00  0.00    -0.021 C 
ATOM     16  H   UNK d   0       8.784   2.931  -4.387  0.00  0.00     0.028 H 
ATOM     17  H   UNK d   0       9.771   1.713  -3.545  0.00  0.00     0.028 H 
ATOM     18  H   UNK d   0       8.611   2.706  -2.630  0.00  0.00     0.028 H 
ENDBRANCH  13  15
BRANCH  13  19
ATOM     19  N   UNK d   0      10.881   3.629  -1.834  0.00  0.00     0.221 N 
ATOM     20  H   UNK d   0      11.851   3.317  -1.823  0.00  0.00     0.200 HD
ATOM     21  H   UNK d   0      10.811   4.531  -1.363  0.00  0.00     0.200 HD
ATOM     22  H   UNK d   0      10.303   2.945  -1.334  0.00  0.00     0.200 HD
ENDBRANCH  13  19
ENDBRANCH  10  13
ENDBRANCH   1  10
BRANCH   4  23
ATOM     23  CB  HIS d   1       9.430   8.975  -0.487  0.00  0.00     0.013 C 
ATOM     24  HB1 HIS d   1       8.430   8.557  -0.374  0.00  0.00     0.035 H 
ATOM     25  HB2 HIS d   1       9.735   9.447   0.446  0.00  0.00     0.035 H 
BRANCH  23  26
ATOM     26  CG  HIS d   1       9.423  10.002  -1.591  0.00  0.00     0.037 A 
ATOM     27  ND1 HIS d   1       8.357  10.694  -2.017  0.00  0.00    -0.348 N 
ATOM     28  HD1 HIS d   1       7.429  10.613  -1.651  0.00  0.00     0.167 HD
ATOM     29  CE1 HIS d   1       8.719  11.491  -2.985  0.00  0.00     0.093 A 
ATOM     30  NE2 HIS d   1      10.041  11.328  -3.207  0.00  0.00    -0.244 NA
ATOM     31  HE1 HIS d   1       8.070  12.168  -3.519  0.00  0.00     0.103 H 
ATOM     32  CD2 HIS d   1      10.488  10.387  -2.319  0.00  0.00     0.049 A 
ATOM     33  HD2 HIS d   1      11.500  10.024  -2.222  0.00  0.00     0.085 H 
ENDBRANCH  23  26
ENDBRANCH   4  23
TORSDOF 8
ENDMDL
MODEL 9
REMARK VINA RESULT:      -4.6     10.375     12.609
REMARK  6 active torsions:
REMARK  status: ('A' for Active; 'I' for Inactive)
REMARK    1  A    between atoms: C_1  and  C_2 
REMARK    2  A    between atoms: C_2  and  C_4 
REMARK    3  A    between atoms: C_2  and  N_32 
REMARK    4  A    between atoms: C_4  and  C_5 
REMARK       I    between atoms: C_5  and  N_7 
REMARK       I    between atoms: N_7  and  CA_8 
REMARK    5  A    between atoms: CA_8  and  CB_10 
REMARK       I    between atoms: CA_8  and  C_17 
REMARK    6  A    between atoms: CB_10  and  CG_11 
ROOT
ATOM      1  C   UNK d   0      10.115   8.229  -5.299  0.00  0.00     0.219 C 
ATOM      2  O   UNK d   0      11.225   7.775  -5.489  0.00  0.00    -0.276 OA
ATOM      3  N   HIS d   1       9.400   7.831  -4.230  0.00  0.00    -0.307 N 
ATOM      4  CA  HIS d   1       9.962   6.855  -3.293  0.00  0.00     0.068 C 
ATOM      5  HA  HIS d   1      11.036   7.015  -3.203  0.00  0.00     0.056 H 
ATOM      6  C   HIS d   1       9.703   5.462  -3.804  0.00  0.00     0.062 C 
ATOM      7  O   HIS d   1       9.109   5.300  -4.844  0.00  0.00    -0.548 OA
ATOM      8  H   HIS d   1       8.511   8.190  -4.079  0.00  0.00     0.149 HD
ATOM      9  OXT HIS d   1      10.132   4.399  -3.104  0.00  0.00    -0.548 OA
ENDROOT
BRANCH   1  10
ATOM     10  C   UNK d   0       9.537   9.233  -6.262  0.00  0.00     0.067 C 
ATOM     11  H   UNK d   0       8.474   9.361  -6.059  0.00  0.00     0.041 H 
ATOM     12  H   UNK d   0      10.047  10.188  -6.141  0.00  0.00     0.041 H 
BRANCH  10  13
ATOM     13  C   UNK d   0       9.725   8.733  -7.696  0.00  0.00    -0.019 C 
ATOM     14  H   UNK d   0       9.977   7.673  -7.680  0.00  0.00     0.085 H 
BRANCH  13  15
ATOM     15  C   UNK d   0      10.855   9.517  -8.366  0.00  0.00    -0.021 C 
ATOM     16  H   UNK d   0      11.062  10.419  -7.791  0.00  0.00     0.028 H 
ATOM     17  H   UNK d   0      11.752   8.898  -8.406  0.00  0.00     0.028 H 
ATOM     18  H   UNK d   0      10.557   9.791  -9.377  0.00  0.00     0.028 H 
ENDBRANCH  13  15
BRANCH  13  19
ATOM     19  N   UNK d   0       8.487   8.919  -8.473  0.00  0.00     0.221 N 
ATOM     20  H   UNK d   0       8.530   8.379  -9.335  0.00  0.00     0.200 HD
ATOM     21  H   UNK d   0       7.682   8.618  -7.924  0.00  0.00     0.200 HD
ATOM     22  H   UNK d   0       8.381   9.913  -8.705  0.00  0.00     0.200 HD
ENDBRANCH  13  19
ENDBRANCH  10  13
ENDBRANCH   1  10
BRANCH   4  23
ATOM     23  CB  HIS d   1       9.304   7.026  -1.921  0.00  0.00     0.013 C 
ATOM     24  HB1 HIS d   1       8.936   8.046  -1.819  0.00  0.00     0.035 H 
ATOM     25  HB2 HIS d   1       8.473   6.328  -1.828  0.00  0.00     0.035 H 
BRANCH  23  26
ATOM     26  CG  HIS d   1      10.318   6.747  -0.841  0.00  0.00     0.037 A 
ATOM     27  ND1 HIS d   1      10.653   5.539  -0.367  0.00  0.00    -0.348 N 
ATOM     28  HD1 HIS d   1      10.267   4.669  -0.675  0.00  0.00     0.167 HD
ATOM     29  CE1 HIS d   1      11.561   5.677   0.561  0.00  0.00     0.093 A 
ATOM     30  NE2 HIS d   1      11.834   6.991   0.706  0.00  0.00    -0.244 NA
ATOM     31  HE1 HIS d   1      12.018   4.872   1.118  0.00  0.00     0.103 H 
ATOM     32  CD2 HIS d   1      11.050   7.669  -0.187  0.00  0.00     0.049 A 
ATOM     33  HD2 HIS d   1      11.022   8.738  -0.337  0.00  0.00     0.085 H 
ENDBRANCH  23  26
ENDBRANCH   4  23
TORSDOF 8
ENDMDL
MODEL 10
REMARK VINA RESULT:      -4.5     11.985     14.485
REMARK  6 active torsions:
REMARK  status: ('A' for Active; 'I' for Inactive)
REMARK    1  A    between atoms: C_1  and  C_2 
REMARK    2  A    between atoms: C_2  and  C_4 
REMARK    3  A    between atoms: C_2  and  N_32 
REMARK    4  A    between atoms: C_4  and  C_5 
REMARK       I    between atoms: C_5  and  N_7 
REMARK       I    between atoms: N_7  and  CA_8 
REMARK    5  A    between atoms: CA_8  and  CB_10 
REMARK       I    between atoms: CA_8  and  C_17 
REMARK    6  A    between atoms: CB_10  and  CG_11 
ROOT
ATOM      1  C   UNK d   0      10.355   9.085  -4.027  0.00  0.00     0.219 C 
ATOM      2  O   UNK d   0      11.446   8.586  -3.849  0.00  0.00    -0.276 OA
ATOM      3  N   HIS d   1       9.540   9.317  -2.980  0.00  0.00    -0.307 N 
ATOM      4  CA  HIS d   1       9.974   8.971  -1.624  0.00  0.00     0.068 C 
ATOM      5  HA  HIS d   1      11.046   9.141  -1.531  0.00  0.00     0.056 H 
ATOM      6  C   HIS d   1       9.671   7.520  -1.354  0.00  0.00     0.062 C 
ATOM      7  O   HIS d   1       9.147   6.843  -2.207  0.00  0.00    -0.548 OA
ATOM      8  H   HIS d   1       8.666   9.712  -3.123  0.00  0.00     0.149 HD
ATOM      9  OXT HIS d   1       9.984   6.978  -0.166  0.00  0.00    -0.548 OA
ENDROOT
BRANCH   1  10
ATOM     10  C   UNK d   0       9.909   9.441  -5.422  0.00  0.00     0.067 C 
ATOM     11  H   UNK d   0       8.905   9.866  -5.386  0.00  0.00     0.041 H 
ATOM     12  H   UNK d   0      10.597  10.170  -5.849  0.00  0.00     0.041 H 
BRANCH  10  13
ATOM     13  C   UNK d   0       9.898   8.182  -6.292  0.00  0.00    -0.019 C 
ATOM     14  H   UNK d   0      10.915   7.948  -6.605  0.00  0.00     0.085 H 
BRANCH  13  15
ATOM     15  C   UNK d   0       9.025   8.421  -7.525  0.00  0.00    -0.021 C 
ATOM     16  H   UNK d   0       9.311   7.724  -8.313  0.00  0.00     0.028 H 
ATOM     17  H   UNK d   0       7.978   8.266  -7.265  0.00  0.00     0.028 H 
ATOM     18  H   UNK d   0       9.166   9.443  -7.877  0.00  0.00     0.028 H 
ENDBRANCH  13  15
BRANCH  13  19
ATOM     19  N   UNK d   0       9.355   7.039  -5.536  0.00  0.00     0.221 N 
ATOM     20  H   UNK d   0       9.995   6.779  -4.787  0.00  0.00     0.200 HD
ATOM     21  H   UNK d   0       8.449   7.283  -5.137  0.00  0.00     0.200 HD
ATOM     22  H   UNK d   0       9.238   6.241  -6.169  0.00  0.00     0.200 HD
ENDBRANCH  13  19
ENDBRANCH  10  13
ENDBRANCH   1  10
BRANCH   4  23
ATOM     23  CB  HIS d   1       9.229   9.844  -0.611  0.00  0.00     0.013 C 
ATOM     24  HB1 HIS d   1       8.706  10.644  -1.136  0.00  0.00     0.035 H 
ATOM     25  HB2 HIS d   1       8.508   9.234  -0.067  0.00  0.00     0.035 H 
BRANCH  23  26
ATOM     26  CG  HIS d   1      10.217  10.441   0.358  0.00  0.00     0.037 A 
ATOM     27  ND1 HIS d   1      11.172   9.774   1.021  0.00  0.00    -0.348 N 
ATOM     28  HD1 HIS d   1      11.347   8.792   0.952  0.00  0.00     0.167 HD
ATOM     29  CE1 HIS d   1      11.838  10.609   1.771  0.00  0.00     0.093 A 
ATOM     30  NE2 HIS d   1      11.322  11.845   1.607  0.00  0.00    -0.244 NA
ATOM     31  HE1 HIS d   1      12.666  10.353   2.416  0.00  0.00     0.103 H 
ATOM     32  CD2 HIS d   1      10.296  11.739   0.706  0.00  0.00     0.049 A 
ATOM     33  HD2 HIS d   1       9.671  12.543   0.346  0.00  0.00     0.085 H 
ENDBRANCH  23  26
ENDBRANCH   4  23
TORSDOF 8
ENDMDL
