MODEL 1
REMARK VINA RESULT:      -7.6      0.000      0.000
REMARK  5 active torsions:
REMARK  status: ('A' for Active; 'I' for Inactive)
REMARK    1  A    between atoms: C_4  and  C_7 
REMARK    2  A    between atoms: C_7  and  C_8 
REMARK    3  A    between atoms: C_8  and  C_9 
REMARK    4  A    between atoms: C_13  and  C_15 
REMARK       I    between atoms: C_15  and  N_17 
REMARK    5  A    between atoms: N_17  and  N_18 
ROOT
ATOM      1  C   LIG d   1       3.203   0.019  -6.787  0.00  0.00     0.207 A 
ATOM      2  C   LIG d   1       4.547  -0.347  -6.728  0.00  0.00     0.115 A 
ATOM      3  C   LIG d   1       5.055  -1.210  -7.716  0.00  0.00     0.020 A 
ATOM      4  C   LIG d   1       4.201  -1.656  -8.721  0.00  0.00     0.025 A 
ATOM      5  C   LIG d   1       2.876  -1.236  -8.706  0.00  0.00     0.270 A 
ATOM      6  N   LIG d   1       2.429  -0.423  -7.751  0.00  0.00    -0.203 N 
ATOM      7  C   LIG d   1       6.475  -1.422  -7.397  0.00  0.00     0.008 A 
ATOM      8  C   LIG d   1       7.499  -2.148  -8.003  0.00  0.00    -0.052 A 
ATOM      9  C   LIG d   1       8.762  -2.142  -7.452  0.00  0.00    -0.061 A 
ATOM     10  C   LIG d   1       9.020  -1.406  -6.306  0.00  0.00    -0.060 A 
ATOM     11  C   LIG d   1       8.021  -0.674  -5.702  0.00  0.00    -0.038 A 
ATOM     12  C   LIG d   1       6.738  -0.668  -6.242  0.00  0.00     0.048 A 
ATOM     13  N   LIG d   1       5.568  -0.038  -5.857  0.00  0.00    -0.349 N 
ATOM     14  H   LIG d   1       5.380   0.626  -5.001  0.00  0.00     0.166 HD
ATOM     15  H   LIG d   1       4.562  -2.316  -9.497  0.00  0.00     0.069 H 
ATOM     16  H   LIG d   1       7.301  -2.722  -8.896  0.00  0.00     0.062 H 
ATOM     17  H   LIG d   1       9.553  -2.712  -7.915  0.00  0.00     0.062 H 
ATOM     18  H   LIG d   1      10.013  -1.407  -5.882  0.00  0.00     0.062 H 
ATOM     19  H   LIG d   1       8.233  -0.105  -4.809  0.00  0.00     0.064 H 
ATOM     20  H   LIG d   1       1.371  -0.124  -7.790  0.00  0.00     0.453 HD
ENDROOT
BRANCH   1  21
ATOM     21  C   LIG d   1       2.633   0.938  -5.738  0.00  0.00     0.038 C 
ATOM     22  H   LIG d   1       1.902   1.617  -6.202  0.00  0.00     0.038 H 
ATOM     23  H   LIG d   1       3.445   1.527  -5.286  0.00  0.00     0.038 H 
BRANCH  21  24
ATOM     24  C   LIG d   1       1.941   0.108  -4.654  0.00  0.00    -0.018 C 
ATOM     25  H   LIG d   1       1.603  -0.846  -5.084  0.00  0.00     0.032 H 
ATOM     26  H   LIG d   1       1.074   0.663  -4.266  0.00  0.00     0.032 H 
BRANCH  24  27
ATOM     27  C   LIG d   1       2.910  -0.161  -3.532  0.00  0.00    -0.047 A 
ATOM     28  C   LIG d   1       3.494   0.893  -2.855  0.00  0.00    -0.059 A 
ATOM     29  C   LIG d   1       4.384   0.646  -1.826  0.00  0.00    -0.061 A 
ATOM     30  H   LIG d   1       3.255   1.909  -3.130  0.00  0.00     0.062 H 
ATOM     31  C   LIG d   1       4.689  -0.656  -1.475  0.00  0.00    -0.062 A 
ATOM     32  H   LIG d   1       4.840   1.468  -1.297  0.00  0.00     0.062 H 
ATOM     33  C   LIG d   1       4.105  -1.710  -2.152  0.00  0.00    -0.061 A 
ATOM     34  H   LIG d   1       5.379  -0.850  -0.668  0.00  0.00     0.062 H 
ATOM     35  C   LIG d   1       3.215  -1.463  -3.181  0.00  0.00    -0.059 A 
ATOM     36  H   LIG d   1       4.343  -2.727  -1.877  0.00  0.00     0.062 H 
ATOM     37  H   LIG d   1       2.759  -2.287  -3.710  0.00  0.00     0.062 H 
ENDBRANCH  24  27
ENDBRANCH  21  24
ENDBRANCH   1  21
BRANCH   5  38
ATOM     38  C   LIG d   1       1.950  -1.699  -9.763  0.00  0.00     0.322 C 
ATOM     39  O   LIG d   1       1.857  -2.885 -10.013  0.00  0.00    -0.262 OA
ATOM     40  N   LIG d   1       1.209  -0.805 -10.448  0.00  0.00    -0.245 N 
ATOM     41  H   LIG d   1       1.292   0.267 -10.222  0.00  0.00     0.169 HD
BRANCH  40  42
ATOM     42  N   LIG d   1       0.354  -1.234 -11.424  0.00  0.00    -0.254 NA
ATOM     43  H   LIG d   1      -0.114  -0.363 -11.908  0.00  0.00     0.141 HD
ATOM     44  H   LIG d   1       0.914  -1.813 -12.174  0.00  0.00     0.141 HD
ENDBRANCH  40  42
ENDBRANCH   5  38
TORSDOF 5
ENDMDL
MODEL 2
REMARK VINA RESULT:      -7.6      2.903      4.218
REMARK  5 active torsions:
REMARK  status: ('A' for Active; 'I' for Inactive)
REMARK    1  A    between atoms: C_4  and  C_7 
REMARK    2  A    between atoms: C_7  and  C_8 
REMARK    3  A    between atoms: C_8  and  C_9 
REMARK    4  A    between atoms: C_13  and  C_15 
REMARK       I    between atoms: C_15  and  N_17 
REMARK    5  A    between atoms: N_17  and  N_18 
ROOT
ATOM      1  C   LIG d   1       5.870  -2.040  -6.102  0.00  0.00     0.207 A 
ATOM      2  C   LIG d   1       5.411  -1.112  -7.036  0.00  0.00     0.115 A 
ATOM      3  C   LIG d   1       4.457  -1.525  -7.984  0.00  0.00     0.020 A 
ATOM      4  C   LIG d   1       3.999  -2.840  -7.947  0.00  0.00     0.025 A 
ATOM      5  C   LIG d   1       4.507  -3.696  -6.976  0.00  0.00     0.270 A 
ATOM      6  N   LIG d   1       5.414  -3.271  -6.099  0.00  0.00    -0.203 N 
ATOM      7  C   LIG d   1       4.172  -0.355  -8.829  0.00  0.00     0.008 A 
ATOM      8  C   LIG d   1       3.317  -0.133  -9.906  0.00  0.00    -0.052 A 
ATOM      9  C   LIG d   1       3.269   1.111 -10.497  0.00  0.00    -0.061 A 
ATOM     10  C   LIG d   1       4.059   2.144 -10.016  0.00  0.00    -0.060 A 
ATOM     11  C   LIG d   1       4.901   1.942  -8.944  0.00  0.00    -0.038 A 
ATOM     12  C   LIG d   1       4.965   0.693  -8.334  0.00  0.00     0.048 A 
ATOM     13  N   LIG d   1       5.702   0.214  -7.266  0.00  0.00    -0.349 N 
ATOM     14  H   LIG d   1       6.436   0.735  -6.632  0.00  0.00     0.166 HD
ATOM     15  H   LIG d   1       3.263  -3.186  -8.658  0.00  0.00     0.069 H 
ATOM     16  H   LIG d   1       2.700  -0.935 -10.283  0.00  0.00     0.062 H 
ATOM     17  H   LIG d   1       2.613   1.282 -11.338  0.00  0.00     0.062 H 
ATOM     18  H   LIG d   1       4.015   3.115 -10.486  0.00  0.00     0.062 H 
ATOM     19  H   LIG d   1       5.512   2.753  -8.578  0.00  0.00     0.064 H 
ATOM     20  H   LIG d   1       5.780  -3.992  -5.354  0.00  0.00     0.453 HD
ENDROOT
BRANCH   1  21
ATOM     21  C   LIG d   1       6.896  -1.624  -5.079  0.00  0.00     0.038 C 
ATOM     22  H   LIG d   1       7.058  -0.537  -5.142  0.00  0.00     0.038 H 
ATOM     23  H   LIG d   1       7.843  -2.148  -5.275  0.00  0.00     0.038 H 
BRANCH  21  24
ATOM     24  C   LIG d   1       6.395  -1.984  -3.678  0.00  0.00    -0.018 C 
ATOM     25  H   LIG d   1       7.247  -2.026  -2.984  0.00  0.00     0.032 H 
ATOM     26  H   LIG d   1       5.897  -2.964  -3.708  0.00  0.00     0.032 H 
BRANCH  24  27
ATOM     27  C   LIG d   1       5.417  -0.937  -3.210  0.00  0.00    -0.047 A 
ATOM     28  C   LIG d   1       5.837   0.366  -3.019  0.00  0.00    -0.059 A 
ATOM     29  C   LIG d   1       4.940   1.325  -2.589  0.00  0.00    -0.061 A 
ATOM     30  H   LIG d   1       6.866   0.633  -3.205  0.00  0.00     0.062 H 
ATOM     31  C   LIG d   1       3.622   0.982  -2.351  0.00  0.00    -0.062 A 
ATOM     32  H   LIG d   1       5.268   2.343  -2.440  0.00  0.00     0.062 H 
ATOM     33  C   LIG d   1       3.201  -0.321  -2.543  0.00  0.00    -0.061 A 
ATOM     34  H   LIG d   1       2.920   1.733  -2.021  0.00  0.00     0.062 H 
ATOM     35  C   LIG d   1       4.098  -1.280  -2.972  0.00  0.00    -0.059 A 
ATOM     36  H   LIG d   1       2.172  -0.589  -2.357  0.00  0.00     0.062 H 
ATOM     37  H   LIG d   1       3.770  -2.299  -3.122  0.00  0.00     0.062 H 
ENDBRANCH  24  27
ENDBRANCH  21  24
ENDBRANCH   1  21
BRANCH   5  38
ATOM     38  C   LIG d   1       4.036  -5.097  -6.918  0.00  0.00     0.322 C 
ATOM     39  O   LIG d   1       3.472  -5.507  -5.922  0.00  0.00    -0.262 OA
ATOM     40  N   LIG d   1       4.231  -5.917  -7.969  0.00  0.00    -0.245 N 
ATOM     41  H   LIG d   1       4.740  -5.546  -8.870  0.00  0.00     0.169 HD
BRANCH  40  42
ATOM     42  N   LIG d   1       3.796  -7.211  -7.914  0.00  0.00    -0.254 NA
ATOM     43  H   LIG d   1       3.557  -7.473  -6.872  0.00  0.00     0.141 HD
ATOM     44  H   LIG d   1       2.894  -7.323  -8.535  0.00  0.00     0.141 HD
ENDBRANCH  40  42
ENDBRANCH   5  38
TORSDOF 5
ENDMDL
MODEL 3
REMARK VINA RESULT:      -7.4      3.436      6.092
REMARK  5 active torsions:
REMARK  status: ('A' for Active; 'I' for Inactive)
REMARK    1  A    between atoms: C_4  and  C_7 
REMARK    2  A    between atoms: C_7  and  C_8 
REMARK    3  A    between atoms: C_8  and  C_9 
REMARK    4  A    between atoms: C_13  and  C_15 
REMARK       I    between atoms: C_15  and  N_17 
REMARK    5  A    between atoms: N_17  and  N_18 
ROOT
ATOM      1  C   LIG d   1       4.662  -2.849  -7.152  0.00  0.00     0.207 A 
ATOM      2  C   LIG d   1       4.608  -2.110  -5.970  0.00  0.00     0.115 A 
ATOM      3  C   LIG d   1       4.611  -2.799  -4.744  0.00  0.00     0.020 A 
ATOM      4  C   LIG d   1       4.678  -4.190  -4.754  0.00  0.00     0.025 A 
ATOM      5  C   LIG d   1       4.735  -4.846  -5.979  0.00  0.00     0.270 A 
ATOM      6  N   LIG d   1       4.725  -4.161  -7.120  0.00  0.00    -0.203 N 
ATOM      7  C   LIG d   1       4.541  -1.776  -3.689  0.00  0.00     0.008 A 
ATOM      8  C   LIG d   1       4.529  -1.829  -2.297  0.00  0.00    -0.052 A 
ATOM      9  C   LIG d   1       4.464  -0.663  -1.566  0.00  0.00    -0.061 A 
ATOM     10  C   LIG d   1       4.422   0.564  -2.212  0.00  0.00    -0.060 A 
ATOM     11  C   LIG d   1       4.443   0.633  -3.588  0.00  0.00    -0.038 A 
ATOM     12  C   LIG d   1       4.508  -0.534  -4.344  0.00  0.00     0.048 A 
ATOM     13  N   LIG d   1       4.544  -0.760  -5.708  0.00  0.00    -0.349 N 
ATOM     14  H   LIG d   1       4.527  -0.038  -6.538  0.00  0.00     0.166 HD
ATOM     15  H   LIG d   1       4.686  -4.747  -3.829  0.00  0.00     0.069 H 
ATOM     16  H   LIG d   1       4.562  -2.783  -1.791  0.00  0.00     0.062 H 
ATOM     17  H   LIG d   1       4.445  -0.703  -0.488  0.00  0.00     0.062 H 
ATOM     18  H   LIG d   1       4.370   1.473  -1.631  0.00  0.00     0.062 H 
ATOM     19  H   LIG d   1       4.410   1.593  -4.081  0.00  0.00     0.064 H 
ATOM     20  H   LIG d   1       4.771  -4.732  -8.059  0.00  0.00     0.453 HD
ENDROOT
BRANCH   1  21
ATOM     21  C   LIG d   1       4.656  -2.136  -8.479  0.00  0.00     0.038 C 
ATOM     22  H   LIG d   1       4.958  -2.835  -9.273  0.00  0.00     0.038 H 
ATOM     23  H   LIG d   1       5.360  -1.292  -8.445  0.00  0.00     0.038 H 
BRANCH  21  24
ATOM     24  C   LIG d   1       3.247  -1.613  -8.770  0.00  0.00    -0.018 C 
ATOM     25  H   LIG d   1       2.618  -1.739  -7.877  0.00  0.00     0.032 H 
ATOM     26  H   LIG d   1       2.812  -2.178  -9.608  0.00  0.00     0.032 H 
BRANCH  24  27
ATOM     27  C   LIG d   1       3.319  -0.151  -9.132  0.00  0.00    -0.047 A 
ATOM     28  C   LIG d   1       2.879   0.805  -8.236  0.00  0.00    -0.059 A 
ATOM     29  C   LIG d   1       2.945   2.145  -8.568  0.00  0.00    -0.061 A 
ATOM     30  H   LIG d   1       2.485   0.505  -7.277  0.00  0.00     0.062 H 
ATOM     31  C   LIG d   1       3.451   2.529  -9.797  0.00  0.00    -0.062 A 
ATOM     32  H   LIG d   1       2.602   2.892  -7.869  0.00  0.00     0.062 H 
ATOM     33  C   LIG d   1       3.891   1.572 -10.692  0.00  0.00    -0.061 A 
ATOM     34  H   LIG d   1       3.507   3.576 -10.054  0.00  0.00     0.062 H 
ATOM     35  C   LIG d   1       3.825   0.232 -10.360  0.00  0.00    -0.059 A 
ATOM     36  H   LIG d   1       4.286   1.872 -11.652  0.00  0.00     0.062 H 
ATOM     37  H   LIG d   1       4.168  -0.516 -11.060  0.00  0.00     0.062 H 
ENDBRANCH  24  27
ENDBRANCH  21  24
ENDBRANCH   1  21
BRANCH   5  38
ATOM     38  C   LIG d   1       4.805  -6.323  -6.015  0.00  0.00     0.322 C 
ATOM     39  O   LIG d   1       3.994  -6.954  -6.664  0.00  0.00    -0.262 OA
ATOM     40  N   LIG d   1       5.769  -6.968  -5.328  0.00  0.00    -0.245 N 
ATOM     41  H   LIG d   1       6.503  -6.397  -4.741  0.00  0.00     0.169 HD
BRANCH  40  42
ATOM     42  N   LIG d   1       5.833  -8.332  -5.362  0.00  0.00    -0.254 NA
ATOM     43  H   LIG d   1       4.814  -8.745  -5.408  0.00  0.00     0.141 HD
ATOM     44  H   LIG d   1       6.398  -8.652  -6.250  0.00  0.00     0.141 HD
ENDBRANCH  40  42
ENDBRANCH   5  38
TORSDOF 5
ENDMDL
MODEL 4
REMARK VINA RESULT:      -7.3      2.303      2.991
REMARK  5 active torsions:
REMARK  status: ('A' for Active; 'I' for Inactive)
REMARK    1  A    between atoms: C_4  and  C_7 
REMARK    2  A    between atoms: C_7  and  C_8 
REMARK    3  A    between atoms: C_8  and  C_9 
REMARK    4  A    between atoms: C_13  and  C_15 
REMARK       I    between atoms: C_15  and  N_17 
REMARK    5  A    between atoms: N_17  and  N_18 
ROOT
ATOM      1  C   LIG d   1       5.273  -2.456  -5.325  0.00  0.00     0.207 A 
ATOM      2  C   LIG d   1       6.033  -1.359  -5.731  0.00  0.00     0.115 A 
ATOM      3  C   LIG d   1       5.977  -0.963  -7.080  0.00  0.00     0.020 A 
ATOM      4  C   LIG d   1       5.159  -1.673  -7.956  0.00  0.00     0.025 A 
ATOM      5  C   LIG d   1       4.432  -2.750  -7.463  0.00  0.00     0.270 A 
ATOM      6  N   LIG d   1       4.513  -3.100  -6.181  0.00  0.00    -0.203 N 
ATOM      7  C   LIG d   1       6.872   0.197  -7.213  0.00  0.00     0.008 A 
ATOM      8  C   LIG d   1       7.219   1.026  -8.277  0.00  0.00    -0.052 A 
ATOM      9  C   LIG d   1       8.103   2.065  -8.077  0.00  0.00    -0.061 A 
ATOM     10  C   LIG d   1       8.638   2.293  -6.819  0.00  0.00    -0.060 A 
ATOM     11  C   LIG d   1       8.296   1.488  -5.754  0.00  0.00    -0.038 A 
ATOM     12  C   LIG d   1       7.405   0.434  -5.936  0.00  0.00     0.048 A 
ATOM     13  N   LIG d   1       6.893  -0.513  -5.067  0.00  0.00    -0.349 N 
ATOM     14  H   LIG d   1       7.083  -0.653  -3.993  0.00  0.00     0.166 HD
ATOM     15  H   LIG d   1       5.092  -1.391  -8.996  0.00  0.00     0.069 H 
ATOM     16  H   LIG d   1       6.804   0.851  -9.259  0.00  0.00     0.062 H 
ATOM     17  H   LIG d   1       8.380   2.702  -8.903  0.00  0.00     0.062 H 
ATOM     18  H   LIG d   1       9.330   3.109  -6.672  0.00  0.00     0.062 H 
ATOM     19  H   LIG d   1       8.718   1.675  -4.779  0.00  0.00     0.064 H 
ATOM     20  H   LIG d   1       3.916  -3.960  -5.847  0.00  0.00     0.453 HD
ENDROOT
BRANCH   1  21
ATOM     21  C   LIG d   1       5.319  -2.903  -3.887  0.00  0.00     0.038 C 
ATOM     22  H   LIG d   1       6.129  -2.375  -3.363  0.00  0.00     0.038 H 
ATOM     23  H   LIG d   1       5.501  -3.987  -3.846  0.00  0.00     0.038 H 
BRANCH  21  24
ATOM     24  C   LIG d   1       3.983  -2.585  -3.211  0.00  0.00    -0.018 C 
ATOM     25  H   LIG d   1       3.911  -3.138  -2.263  0.00  0.00     0.032 H 
ATOM     26  H   LIG d   1       3.157  -2.884  -3.874  0.00  0.00     0.032 H 
BRANCH  24  27
ATOM     27  C   LIG d   1       3.898  -1.105  -2.938  0.00  0.00    -0.047 A 
ATOM     28  C   LIG d   1       4.600  -0.555  -1.883  0.00  0.00    -0.059 A 
ATOM     29  C   LIG d   1       4.522   0.801  -1.632  0.00  0.00    -0.061 A 
ATOM     30  H   LIG d   1       5.211  -1.187  -1.254  0.00  0.00     0.062 H 
ATOM     31  C   LIG d   1       3.740   1.609  -2.438  0.00  0.00    -0.062 A 
ATOM     32  H   LIG d   1       5.070   1.231  -0.808  0.00  0.00     0.062 H 
ATOM     33  C   LIG d   1       3.038   1.059  -3.494  0.00  0.00    -0.061 A 
ATOM     34  H   LIG d   1       3.683   2.670  -2.246  0.00  0.00     0.062 H 
ATOM     35  C   LIG d   1       3.116  -0.298  -3.744  0.00  0.00    -0.059 A 
ATOM     36  H   LIG d   1       2.428   1.690  -4.124  0.00  0.00     0.062 H 
ATOM     37  H   LIG d   1       2.567  -0.728  -4.569  0.00  0.00     0.062 H 
ENDBRANCH  24  27
ENDBRANCH  21  24
ENDBRANCH   1  21
BRANCH   5  38
ATOM     38  C   LIG d   1       3.557  -3.520  -8.375  0.00  0.00     0.322 C 
ATOM     39  O   LIG d   1       3.125  -2.999  -9.385  0.00  0.00    -0.262 OA
ATOM     40  N   LIG d   1       3.239  -4.797  -8.085  0.00  0.00    -0.245 N 
ATOM     41  H   LIG d   1       3.630  -5.268  -7.171  0.00  0.00     0.169 HD
BRANCH  40  42
ATOM     42  N   LIG d   1       2.430  -5.506  -8.927  0.00  0.00    -0.254 NA
ATOM     43  H   LIG d   1       2.896  -6.479  -9.149  0.00  0.00     0.141 HD
ATOM     44  H   LIG d   1       1.453  -5.669  -8.448  0.00  0.00     0.141 HD
ENDBRANCH  40  42
ENDBRANCH   5  38
TORSDOF 5
ENDMDL
MODEL 5
REMARK VINA RESULT:      -7.2      3.417      4.479
REMARK  5 active torsions:
REMARK  status: ('A' for Active; 'I' for Inactive)
REMARK    1  A    between atoms: C_4  and  C_7 
REMARK    2  A    between atoms: C_7  and  C_8 
REMARK    3  A    between atoms: C_8  and  C_9 
REMARK    4  A    between atoms: C_13  and  C_15 
REMARK       I    between atoms: C_15  and  N_17 
REMARK    5  A    between atoms: N_17  and  N_18 
ROOT
ATOM      1  C   LIG d   1       4.771  -2.958  -5.437  0.00  0.00     0.207 A 
ATOM      2  C   LIG d   1       4.633  -4.213  -6.031  0.00  0.00     0.115 A 
ATOM      3  C   LIG d   1       4.194  -4.282  -7.366  0.00  0.00     0.020 A 
ATOM      4  C   LIG d   1       3.925  -3.097  -8.047  0.00  0.00     0.025 A 
ATOM      5  C   LIG d   1       4.095  -1.890  -7.378  0.00  0.00     0.270 A 
ATOM      6  N   LIG d   1       4.507  -1.864  -6.112  0.00  0.00    -0.203 N 
ATOM      7  C   LIG d   1       4.139  -5.709  -7.715  0.00  0.00     0.008 A 
ATOM      8  C   LIG d   1       3.802  -6.403  -8.875  0.00  0.00    -0.052 A 
ATOM      9  C   LIG d   1       3.859  -7.780  -8.892  0.00  0.00    -0.061 A 
ATOM     10  C   LIG d   1       4.260  -8.476  -7.761  0.00  0.00    -0.060 A 
ATOM     11  C   LIG d   1       4.605  -7.803  -6.609  0.00  0.00    -0.038 A 
ATOM     12  C   LIG d   1       4.554  -6.412  -6.573  0.00  0.00     0.048 A 
ATOM     13  N   LIG d   1       4.840  -5.496  -5.577  0.00  0.00    -0.349 N 
ATOM     14  H   LIG d   1       5.184  -5.667  -4.545  0.00  0.00     0.166 HD
ATOM     15  H   LIG d   1       3.590  -3.117  -9.074  0.00  0.00     0.069 H 
ATOM     16  H   LIG d   1       3.490  -5.864  -9.758  0.00  0.00     0.062 H 
ATOM     17  H   LIG d   1       3.589  -8.319  -9.787  0.00  0.00     0.062 H 
ATOM     18  H   LIG d   1       4.300  -9.555  -7.783  0.00  0.00     0.062 H 
ATOM     19  H   LIG d   1       4.916  -8.355  -5.735  0.00  0.00     0.064 H 
ATOM     20  H   LIG d   1       4.623  -0.880  -5.634  0.00  0.00     0.453 HD
ENDROOT
BRANCH   1  21
ATOM     21  C   LIG d   1       5.235  -2.857  -4.007  0.00  0.00     0.038 C 
ATOM     22  H   LIG d   1       5.960  -2.035  -3.913  0.00  0.00     0.038 H 
ATOM     23  H   LIG d   1       5.711  -3.803  -3.708  0.00  0.00     0.038 H 
BRANCH  21  24
ATOM     24  C   LIG d   1       4.033  -2.582  -3.099  0.00  0.00    -0.018 C 
ATOM     25  H   LIG d   1       4.165  -3.115  -2.146  0.00  0.00     0.032 H 
ATOM     26  H   LIG d   1       3.114  -2.933  -3.592  0.00  0.00     0.032 H 
BRANCH  24  27
ATOM     27  C   LIG d   1       3.930  -1.101  -2.837  0.00  0.00    -0.047 A 
ATOM     28  C   LIG d   1       4.661  -0.527  -1.815  0.00  0.00    -0.059 A 
ATOM     29  C   LIG d   1       4.566   0.830  -1.574  0.00  0.00    -0.061 A 
ATOM     30  H   LIG d   1       5.307  -1.140  -1.204  0.00  0.00     0.062 H 
ATOM     31  C   LIG d   1       3.740   1.615  -2.358  0.00  0.00    -0.062 A 
ATOM     32  H   LIG d   1       5.137   1.279  -0.776  0.00  0.00     0.062 H 
ATOM     33  C   LIG d   1       3.008   1.041  -3.381  0.00  0.00    -0.061 A 
ATOM     34  H   LIG d   1       3.670   2.676  -2.174  0.00  0.00     0.062 H 
ATOM     35  C   LIG d   1       3.103  -0.317  -3.621  0.00  0.00    -0.059 A 
ATOM     36  H   LIG d   1       2.363   1.653  -3.993  0.00  0.00     0.062 H 
ATOM     37  H   LIG d   1       2.532  -0.766  -4.420  0.00  0.00     0.062 H 
ENDBRANCH  24  27
ENDBRANCH  21  24
ENDBRANCH   1  21
BRANCH   5  38
ATOM     38  C   LIG d   1       3.813  -0.619  -8.080  0.00  0.00     0.322 C 
ATOM     39  O   LIG d   1       3.780  -0.591  -9.295  0.00  0.00    -0.262 OA
ATOM     40  N   LIG d   1       3.593   0.507  -7.373  0.00  0.00    -0.245 N 
ATOM     41  H   LIG d   1       3.623   0.482  -6.274  0.00  0.00     0.169 HD
BRANCH  40  42
ATOM     42  N   LIG d   1       3.334   1.680  -8.023  0.00  0.00    -0.254 NA
ATOM     43  H   LIG d   1       3.016   1.465  -9.055  0.00  0.00     0.141 HD
ATOM     44  H   LIG d   1       2.532   2.221  -7.499  0.00  0.00     0.141 HD
ENDBRANCH  40  42
ENDBRANCH   5  38
TORSDOF 5
ENDMDL
MODEL 6
REMARK VINA RESULT:      -7.2      5.101      7.794
REMARK  5 active torsions:
REMARK  status: ('A' for Active; 'I' for Inactive)
REMARK    1  A    between atoms: C_4  and  C_7 
REMARK    2  A    between atoms: C_7  and  C_8 
REMARK    3  A    between atoms: C_8  and  C_9 
REMARK    4  A    between atoms: C_13  and  C_15 
REMARK       I    between atoms: C_15  and  N_17 
REMARK    5  A    between atoms: N_17  and  N_18 
ROOT
ATOM      1  C   LIG d   1       5.997  -4.202  -5.018  0.00  0.00     0.207 A 
ATOM      2  C   LIG d   1       5.361  -3.112  -4.422  0.00  0.00     0.115 A 
ATOM      3  C   LIG d   1       6.146  -2.163  -3.742  0.00  0.00     0.020 A 
ATOM      4  C   LIG d   1       7.526  -2.340  -3.699  0.00  0.00     0.025 A 
ATOM      5  C   LIG d   1       8.076  -3.452  -4.325  0.00  0.00     0.270 A 
ATOM      6  N   LIG d   1       7.302  -4.333  -4.955  0.00  0.00    -0.203 N 
ATOM      7  C   LIG d   1       5.217  -1.150  -3.220  0.00  0.00     0.008 A 
ATOM      8  C   LIG d   1       5.387   0.026  -2.492  0.00  0.00    -0.052 A 
ATOM      9  C   LIG d   1       4.289   0.786  -2.151  0.00  0.00    -0.061 A 
ATOM     10  C   LIG d   1       3.018   0.391  -2.540  0.00  0.00    -0.060 A 
ATOM     11  C   LIG d   1       2.835  -0.764  -3.270  0.00  0.00    -0.038 A 
ATOM     12  C   LIG d   1       3.931  -1.545  -3.623  0.00  0.00     0.048 A 
ATOM     13  N   LIG d   1       4.042  -2.725  -4.336  0.00  0.00    -0.349 N 
ATOM     14  H   LIG d   1       3.257  -3.339  -4.803  0.00  0.00     0.166 HD
ATOM     15  H   LIG d   1       8.156  -1.626  -3.188  0.00  0.00     0.069 H 
ATOM     16  H   LIG d   1       6.376   0.337  -2.187  0.00  0.00     0.062 H 
ATOM     17  H   LIG d   1       4.419   1.693  -1.579  0.00  0.00     0.062 H 
ATOM     18  H   LIG d   1       2.164   0.993  -2.268  0.00  0.00     0.062 H 
ATOM     19  H   LIG d   1       1.841  -1.062  -3.567  0.00  0.00     0.064 H 
ATOM     20  H   LIG d   1       7.792  -5.194  -5.432  0.00  0.00     0.453 HD
ENDROOT
BRANCH   1  21
ATOM     21  C   LIG d   1       5.179  -5.235  -5.748  0.00  0.00     0.038 C 
ATOM     22  H   LIG d   1       4.633  -4.756  -6.574  0.00  0.00     0.038 H 
ATOM     23  H   LIG d   1       4.462  -5.694  -5.051  0.00  0.00     0.038 H 
BRANCH  21  24
ATOM     24  C   LIG d   1       6.106  -6.316  -6.310  0.00  0.00    -0.018 C 
ATOM     25  H   LIG d   1       7.139  -5.937  -6.330  0.00  0.00     0.032 H 
ATOM     26  H   LIG d   1       5.790  -6.575  -7.331  0.00  0.00     0.032 H 
BRANCH  24  27
ATOM     27  C   LIG d   1       6.037  -7.541  -5.435  0.00  0.00    -0.047 A 
ATOM     28  C   LIG d   1       7.170  -7.989  -4.781  0.00  0.00    -0.059 A 
ATOM     29  C   LIG d   1       7.107  -9.113  -3.979  0.00  0.00    -0.061 A 
ATOM     30  H   LIG d   1       8.104  -7.459  -4.896  0.00  0.00     0.062 H 
ATOM     31  C   LIG d   1       5.910  -9.790  -3.832  0.00  0.00    -0.062 A 
ATOM     32  H   LIG d   1       7.991  -9.462  -3.468  0.00  0.00     0.062 H 
ATOM     33  C   LIG d   1       4.777  -9.343  -4.486  0.00  0.00    -0.061 A 
ATOM     34  H   LIG d   1       5.859 -10.665  -3.202  0.00  0.00     0.062 H 
ATOM     35  C   LIG d   1       4.841  -8.219  -5.288  0.00  0.00    -0.059 A 
ATOM     36  H   LIG d   1       3.843  -9.872  -4.371  0.00  0.00     0.062 H 
ATOM     37  H   LIG d   1       3.956  -7.869  -5.799  0.00  0.00     0.062 H 
ENDBRANCH  24  27
ENDBRANCH  21  24
ENDBRANCH   1  21
BRANCH   5  38
ATOM     38  C   LIG d   1       9.541  -3.661  -4.291  0.00  0.00     0.322 C 
ATOM     39  O   LIG d   1      10.012  -4.717  -4.666  0.00  0.00    -0.262 OA
ATOM     40  N   LIG d   1      10.351  -2.681  -3.845  0.00  0.00    -0.245 N 
ATOM     41  H   LIG d   1       9.924  -1.726  -3.506  0.00  0.00     0.169 HD
BRANCH  40  42
ATOM     42  N   LIG d   1      11.703  -2.876  -3.813  0.00  0.00    -0.254 NA
ATOM     43  H   LIG d   1      11.922  -3.946  -3.946  0.00  0.00     0.141 HD
ATOM     44  H   LIG d   1      12.175  -2.302  -4.625  0.00  0.00     0.141 HD
ENDBRANCH  40  42
ENDBRANCH   5  38
TORSDOF 5
ENDMDL
MODEL 7
REMARK VINA RESULT:      -7.2      3.065      5.777
REMARK  5 active torsions:
REMARK  status: ('A' for Active; 'I' for Inactive)
REMARK    1  A    between atoms: C_4  and  C_7 
REMARK    2  A    between atoms: C_7  and  C_8 
REMARK    3  A    between atoms: C_8  and  C_9 
REMARK    4  A    between atoms: C_13  and  C_15 
REMARK       I    between atoms: C_15  and  N_17 
REMARK    5  A    between atoms: N_17  and  N_18 
ROOT
ATOM      1  C   LIG d   1       6.349  -1.519  -5.720  0.00  0.00     0.207 A 
ATOM      2  C   LIG d   1       5.567  -0.781  -6.608  0.00  0.00     0.115 A 
ATOM      3  C   LIG d   1       6.164   0.287  -7.304  0.00  0.00     0.020 A 
ATOM      4  C   LIG d   1       7.512   0.559  -7.090  0.00  0.00     0.025 A 
ATOM      5  C   LIG d   1       8.218  -0.233  -6.190  0.00  0.00     0.270 A 
ATOM      6  N   LIG d   1       7.618  -1.231  -5.545  0.00  0.00    -0.203 N 
ATOM      7  C   LIG d   1       5.113   0.875  -8.148  0.00  0.00     0.008 A 
ATOM      8  C   LIG d   1       5.090   1.927  -9.062  0.00  0.00    -0.052 A 
ATOM      9  C   LIG d   1       3.919   2.239  -9.719  0.00  0.00    -0.061 A 
ATOM     10  C   LIG d   1       2.768   1.503  -9.482  0.00  0.00    -0.060 A 
ATOM     11  C   LIG d   1       2.778   0.453  -8.589  0.00  0.00    -0.038 A 
ATOM     12  C   LIG d   1       3.950   0.123  -7.915  0.00  0.00     0.048 A 
ATOM     13  N   LIG d   1       4.246  -0.858  -6.986  0.00  0.00    -0.349 N 
ATOM     14  H   LIG d   1       3.593  -1.630  -6.551  0.00  0.00     0.166 HD
ATOM     15  H   LIG d   1       8.001   1.369  -7.612  0.00  0.00     0.069 H 
ATOM     16  H   LIG d   1       5.985   2.502  -9.249  0.00  0.00     0.062 H 
ATOM     17  H   LIG d   1       3.898   3.059 -10.420  0.00  0.00     0.062 H 
ATOM     18  H   LIG d   1       1.856   1.755 -10.001  0.00  0.00     0.062 H 
ATOM     19  H   LIG d   1       1.876  -0.113  -8.412  0.00  0.00     0.064 H 
ATOM     20  H   LIG d   1       8.225  -1.824  -4.845  0.00  0.00     0.453 HD
ENDROOT
BRANCH   1  21
ATOM     21  C   LIG d   1       5.733  -2.664  -4.958  0.00  0.00     0.038 C 
ATOM     22  H   LIG d   1       6.241  -3.601  -5.231  0.00  0.00     0.038 H 
ATOM     23  H   LIG d   1       4.665  -2.738  -5.209  0.00  0.00     0.038 H 
BRANCH  21  24
ATOM     24  C   LIG d   1       5.889  -2.419  -3.455  0.00  0.00    -0.018 C 
ATOM     25  H   LIG d   1       6.947  -2.226  -3.223  0.00  0.00     0.032 H 
ATOM     26  H   LIG d   1       5.547  -3.306  -2.902  0.00  0.00     0.032 H 
BRANCH  24  27
ATOM     27  C   LIG d   1       5.061  -1.226  -3.053  0.00  0.00    -0.047 A 
ATOM     28  C   LIG d   1       3.681  -1.308  -3.056  0.00  0.00    -0.059 A 
ATOM     29  C   LIG d   1       2.922  -0.214  -2.687  0.00  0.00    -0.061 A 
ATOM     30  H   LIG d   1       3.197  -2.229  -3.346  0.00  0.00     0.062 H 
ATOM     31  C   LIG d   1       3.543   0.964  -2.315  0.00  0.00    -0.062 A 
ATOM     32  H   LIG d   1       1.845  -0.279  -2.689  0.00  0.00     0.062 H 
ATOM     33  C   LIG d   1       4.923   1.047  -2.312  0.00  0.00    -0.061 A 
ATOM     34  H   LIG d   1       2.950   1.817  -2.022  0.00  0.00     0.062 H 
ATOM     35  C   LIG d   1       5.682  -0.047  -2.681  0.00  0.00    -0.059 A 
ATOM     36  H   LIG d   1       5.408   1.967  -2.021  0.00  0.00     0.062 H 
ATOM     37  H   LIG d   1       6.760   0.017  -2.679  0.00  0.00     0.062 H 
ENDBRANCH  24  27
ENDBRANCH  21  24
ENDBRANCH   1  21
BRANCH   5  38
ATOM     38  C   LIG d   1       9.651   0.038  -5.945  0.00  0.00     0.322 C 
ATOM     39  O   LIG d   1      10.314   0.611  -6.788  0.00  0.00    -0.262 OA
ATOM     40  N   LIG d   1      10.222  -0.349  -4.787  0.00  0.00    -0.245 N 
ATOM     41  H   LIG d   1       9.622  -0.866  -4.024  0.00  0.00     0.169 HD
BRANCH  40  42
ATOM     42  N   LIG d   1      11.546  -0.099  -4.562  0.00  0.00    -0.254 NA
ATOM     43  H   LIG d   1      12.148  -0.587  -5.343  0.00  0.00     0.141 HD
ATOM     44  H   LIG d   1      11.724   0.987  -4.587  0.00  0.00     0.141 HD
ENDBRANCH  40  42
ENDBRANCH   5  38
TORSDOF 5
ENDMDL
MODEL 8
REMARK VINA RESULT:      -7.2      1.890      4.901
REMARK  5 active torsions:
REMARK  status: ('A' for Active; 'I' for Inactive)
REMARK    1  A    between atoms: C_4  and  C_7 
REMARK    2  A    between atoms: C_7  and  C_8 
REMARK    3  A    between atoms: C_8  and  C_9 
REMARK    4  A    between atoms: C_13  and  C_15 
REMARK       I    between atoms: C_15  and  N_17 
REMARK    5  A    between atoms: N_17  and  N_18 
ROOT
ATOM      1  C   LIG d   1       3.592   0.095  -6.613  0.00  0.00     0.207 A 
ATOM      2  C   LIG d   1       3.198  -0.340  -7.879  0.00  0.00     0.115 A 
ATOM      3  C   LIG d   1       4.109  -1.086  -8.649  0.00  0.00     0.020 A 
ATOM      4  C   LIG d   1       5.363  -1.372  -8.116  0.00  0.00     0.025 A 
ATOM      5  C   LIG d   1       5.670  -0.903  -6.844  0.00  0.00     0.270 A 
ATOM      6  N   LIG d   1       4.785  -0.195  -6.146  0.00  0.00    -0.203 N 
ATOM      7  C   LIG d   1       3.430  -1.395  -9.917  0.00  0.00     0.008 A 
ATOM      8  C   LIG d   1       3.799  -2.107 -11.056  0.00  0.00    -0.052 A 
ATOM      9  C   LIG d   1       2.913  -2.230 -12.105  0.00  0.00    -0.061 A 
ATOM     10  C   LIG d   1       1.652  -1.657 -12.024  0.00  0.00    -0.060 A 
ATOM     11  C   LIG d   1       1.270  -0.959 -10.899  0.00  0.00    -0.038 A 
ATOM     12  C   LIG d   1       2.150  -0.823  -9.830  0.00  0.00     0.048 A 
ATOM     13  N   LIG d   1       2.037  -0.193  -8.604  0.00  0.00    -0.349 N 
ATOM     14  H   LIG d   1       1.190   0.368  -8.180  0.00  0.00     0.166 HD
ATOM     15  H   LIG d   1       6.083  -1.947  -8.681  0.00  0.00     0.069 H 
ATOM     16  H   LIG d   1       4.780  -2.555 -11.122  0.00  0.00     0.062 H 
ATOM     17  H   LIG d   1       3.201  -2.773 -12.992  0.00  0.00     0.062 H 
ATOM     18  H   LIG d   1       0.965  -1.758 -12.851  0.00  0.00     0.062 H 
ATOM     19  H   LIG d   1       0.286  -0.517 -10.847  0.00  0.00     0.064 H 
ATOM     20  H   LIG d   1       5.082   0.150  -5.145  0.00  0.00     0.453 HD
ENDROOT
BRANCH   1  21
ATOM     21  C   LIG d   1       2.638   0.899  -5.770  0.00  0.00     0.038 C 
ATOM     22  H   LIG d   1       1.857   1.333  -6.412  0.00  0.00     0.038 H 
ATOM     23  H   LIG d   1       3.187   1.707  -5.264  0.00  0.00     0.038 H 
BRANCH  21  24
ATOM     24  C   LIG d   1       1.990  -0.011  -4.724  0.00  0.00    -0.018 C 
ATOM     25  H   LIG d   1       1.766  -0.988  -5.177  0.00  0.00     0.032 H 
ATOM     26  H   LIG d   1       1.057   0.450  -4.365  0.00  0.00     0.032 H 
BRANCH  24  27
ATOM     27  C   LIG d   1       2.936  -0.198  -3.566  0.00  0.00    -0.047 A 
ATOM     28  C   LIG d   1       3.460   0.903  -2.916  0.00  0.00    -0.059 A 
ATOM     29  C   LIG d   1       4.328   0.731  -1.854  0.00  0.00    -0.061 A 
ATOM     30  H   LIG d   1       3.190   1.898  -3.237  0.00  0.00     0.062 H 
ATOM     31  C   LIG d   1       4.672  -0.543  -1.443  0.00  0.00    -0.062 A 
ATOM     32  H   LIG d   1       4.737   1.591  -1.346  0.00  0.00     0.062 H 
ATOM     33  C   LIG d   1       4.148  -1.645  -2.093  0.00  0.00    -0.061 A 
ATOM     34  H   LIG d   1       5.346  -0.678  -0.610  0.00  0.00     0.062 H 
ATOM     35  C   LIG d   1       3.280  -1.473  -3.154  0.00  0.00    -0.059 A 
ATOM     36  H   LIG d   1       4.417  -2.640  -1.771  0.00  0.00     0.062 H 
ATOM     37  H   LIG d   1       2.871  -2.333  -3.663  0.00  0.00     0.062 H 
ENDBRANCH  24  27
ENDBRANCH  21  24
ENDBRANCH   1  21
BRANCH   5  38
ATOM     38  C   LIG d   1       6.997  -1.194  -6.258  0.00  0.00     0.322 C 
ATOM     39  O   LIG d   1       7.794  -1.879  -6.869  0.00  0.00    -0.262 OA
ATOM     40  N   LIG d   1       7.322  -0.697  -5.048  0.00  0.00    -0.245 N 
ATOM     41  H   LIG d   1       6.602  -0.077  -4.495  0.00  0.00     0.169 HD
BRANCH  40  42
ATOM     42  N   LIG d   1       8.548  -0.966  -4.507  0.00  0.00    -0.254 NA
ATOM     43  H   LIG d   1       8.449  -1.090  -3.418  0.00  0.00     0.141 HD
ATOM     44  H   LIG d   1       8.947  -1.893  -4.946  0.00  0.00     0.141 HD
ENDBRANCH  40  42
ENDBRANCH   5  38
TORSDOF 5
ENDMDL
MODEL 9
REMARK VINA RESULT:      -7.1      2.589      3.484
REMARK  5 active torsions:
REMARK  status: ('A' for Active; 'I' for Inactive)
REMARK    1  A    between atoms: C_4  and  C_7 
REMARK    2  A    between atoms: C_7  and  C_8 
REMARK    3  A    between atoms: C_8  and  C_9 
REMARK    4  A    between atoms: C_13  and  C_15 
REMARK       I    between atoms: C_15  and  N_17 
REMARK    5  A    between atoms: N_17  and  N_18 
ROOT
ATOM      1  C   LIG d   1       4.404  -1.216  -6.095  0.00  0.00     0.207 A 
ATOM      2  C   LIG d   1       5.746  -0.871  -5.936  0.00  0.00     0.115 A 
ATOM      3  C   LIG d   1       6.690  -1.899  -5.765  0.00  0.00     0.020 A 
ATOM      4  C   LIG d   1       6.254  -3.221  -5.773  0.00  0.00     0.025 A 
ATOM      5  C   LIG d   1       4.897  -3.475  -5.944  0.00  0.00     0.270 A 
ATOM      6  N   LIG d   1       4.031  -2.475  -6.097  0.00  0.00    -0.203 N 
ATOM      7  C   LIG d   1       7.999  -1.244  -5.617  0.00  0.00     0.008 A 
ATOM      8  C   LIG d   1       9.297  -1.719  -5.441  0.00  0.00    -0.052 A 
ATOM      9  C   LIG d   1      10.345  -0.829  -5.341  0.00  0.00    -0.061 A 
ATOM     10  C   LIG d   1      10.113   0.536  -5.428  0.00  0.00    -0.060 A 
ATOM     11  C   LIG d   1       8.835   1.019  -5.613  0.00  0.00    -0.038 A 
ATOM     12  C   LIG d   1       7.764   0.137  -5.715  0.00  0.00     0.048 A 
ATOM     13  N   LIG d   1       6.408   0.336  -5.900  0.00  0.00    -0.349 N 
ATOM     14  H   LIG d   1       5.846   1.276  -6.011  0.00  0.00     0.166 HD
ATOM     15  H   LIG d   1       6.956  -4.034  -5.649  0.00  0.00     0.069 H 
ATOM     16  H   LIG d   1       9.482  -2.781  -5.373  0.00  0.00     0.062 H 
ATOM     17  H   LIG d   1      11.350  -1.195  -5.195  0.00  0.00     0.062 H 
ATOM     18  H   LIG d   1      10.940   1.225  -5.348  0.00  0.00     0.062 H 
ATOM     19  H   LIG d   1       8.666   2.083  -5.679  0.00  0.00     0.064 H 
ATOM     20  H   LIG d   1       2.970  -2.735  -6.228  0.00  0.00     0.453 HD
ENDROOT
BRANCH   1  21
ATOM     21  C   LIG d   1       3.371  -0.134  -6.275  0.00  0.00     0.038 C 
ATOM     22  H   LIG d   1       2.808  -0.314  -7.203  0.00  0.00     0.038 H 
ATOM     23  H   LIG d   1       3.871   0.844  -6.333  0.00  0.00     0.038 H 
BRANCH  21  24
ATOM     24  C   LIG d   1       2.409  -0.145  -5.084  0.00  0.00    -0.018 C 
ATOM     25  H   LIG d   1       1.878  -1.108  -5.051  0.00  0.00     0.032 H 
ATOM     26  H   LIG d   1       1.680   0.672  -5.195  0.00  0.00     0.032 H 
BRANCH  24  27
ATOM     27  C   LIG d   1       3.187   0.044  -3.808  0.00  0.00    -0.047 A 
ATOM     28  C   LIG d   1       3.600   1.308  -3.431  0.00  0.00    -0.059 A 
ATOM     29  C   LIG d   1       4.314   1.482  -2.260  0.00  0.00    -0.061 A 
ATOM     30  H   LIG d   1       3.364   2.160  -4.051  0.00  0.00     0.062 H 
ATOM     31  C   LIG d   1       4.615   0.390  -1.466  0.00  0.00    -0.062 A 
ATOM     32  H   LIG d   1       4.637   2.469  -1.966  0.00  0.00     0.062 H 
ATOM     33  C   LIG d   1       4.202  -0.874  -1.843  0.00  0.00    -0.061 A 
ATOM     34  H   LIG d   1       5.168   0.526  -0.549  0.00  0.00     0.062 H 
ATOM     35  C   LIG d   1       3.488  -1.047  -3.014  0.00  0.00    -0.059 A 
ATOM     36  H   LIG d   1       4.437  -1.726  -1.223  0.00  0.00     0.062 H 
ATOM     37  H   LIG d   1       3.165  -2.035  -3.308  0.00  0.00     0.062 H 
ENDBRANCH  24  27
ENDBRANCH  21  24
ENDBRANCH   1  21
BRANCH   5  38
ATOM     38  C   LIG d   1       4.410  -4.871  -5.955  0.00  0.00     0.322 C 
ATOM     39  O   LIG d   1       3.318  -5.130  -6.421  0.00  0.00    -0.262 OA
ATOM     40  N   LIG d   1       5.178  -5.857  -5.448  0.00  0.00    -0.245 N 
ATOM     41  H   LIG d   1       6.166  -5.623  -5.027  0.00  0.00     0.169 HD
BRANCH  40  42
ATOM     42  N   LIG d   1       4.726  -7.146  -5.458  0.00  0.00    -0.254 NA
ATOM     43  H   LIG d   1       3.845  -7.220  -6.114  0.00  0.00     0.141 HD
ATOM     44  H   LIG d   1       5.519  -7.810  -5.834  0.00  0.00     0.141 HD
ENDBRANCH  40  42
ENDBRANCH   5  38
TORSDOF 5
ENDMDL
MODEL 10
REMARK VINA RESULT:      -7.1      5.341      7.716
REMARK  5 active torsions:
REMARK  status: ('A' for Active; 'I' for Inactive)
REMARK    1  A    between atoms: C_4  and  C_7 
REMARK    2  A    between atoms: C_7  and  C_8 
REMARK    3  A    between atoms: C_8  and  C_9 
REMARK    4  A    between atoms: C_13  and  C_15 
REMARK       I    between atoms: C_15  and  N_17 
REMARK    5  A    between atoms: N_17  and  N_18 
ROOT
ATOM      1  C   LIG d   1       8.345   2.032  -4.364  0.00  0.00     0.207 A 
ATOM      2  C   LIG d   1       8.652   2.317  -5.694  0.00  0.00     0.115 A 
ATOM      3  C   LIG d   1       9.516   3.393  -5.970  0.00  0.00     0.020 A 
ATOM      4  C   LIG d   1      10.039   4.125  -4.908  0.00  0.00     0.025 A 
ATOM      5  C   LIG d   1       9.683   3.767  -3.612  0.00  0.00     0.270 A 
ATOM      6  N   LIG d   1       8.858   2.746  -3.389  0.00  0.00    -0.203 N 
ATOM      7  C   LIG d   1       9.649   3.457  -7.434  0.00  0.00     0.008 A 
ATOM      8  C   LIG d   1      10.369   4.278  -8.299  0.00  0.00    -0.052 A 
ATOM      9  C   LIG d   1      10.292   4.076  -9.660  0.00  0.00    -0.061 A 
ATOM     10  C   LIG d   1       9.509   3.051 -10.170  0.00  0.00    -0.060 A 
ATOM     11  C   LIG d   1       8.800   2.224  -9.326  0.00  0.00    -0.038 A 
ATOM     12  C   LIG d   1       8.865   2.412  -7.949  0.00  0.00     0.048 A 
ATOM     13  N   LIG d   1       8.274   1.748  -6.889  0.00  0.00    -0.349 N 
ATOM     14  H   LIG d   1       7.590   0.886  -6.897  0.00  0.00     0.166 HD
ATOM     15  H   LIG d   1      10.709   4.954  -5.087  0.00  0.00     0.069 H 
ATOM     16  H   LIG d   1      10.980   5.078  -7.904  0.00  0.00     0.062 H 
ATOM     17  H   LIG d   1      10.842   4.718 -10.331  0.00  0.00     0.062 H 
ATOM     18  H   LIG d   1       9.455   2.901 -11.238  0.00  0.00     0.062 H 
ATOM     19  H   LIG d   1       8.194   1.429  -9.734  0.00  0.00     0.064 H 
ATOM     20  H   LIG d   1       8.611   2.509  -2.344  0.00  0.00     0.453 HD
ENDROOT
BRANCH   1  21
ATOM     21  C   LIG d   1       7.418   0.889  -4.041  0.00  0.00     0.038 C 
ATOM     22  H   LIG d   1       7.966   0.122  -3.473  0.00  0.00     0.038 H 
ATOM     23  H   LIG d   1       7.037   0.451  -4.975  0.00  0.00     0.038 H 
BRANCH  21  24
ATOM     24  C   LIG d   1       6.245   1.404  -3.203  0.00  0.00    -0.018 C 
ATOM     25  H   LIG d   1       5.768   2.248  -3.721  0.00  0.00     0.032 H 
ATOM     26  H   LIG d   1       6.615   1.737  -2.222  0.00  0.00     0.032 H 
BRANCH  24  27
ATOM     27  C   LIG d   1       5.240   0.297  -3.013  0.00  0.00    -0.047 A 
ATOM     28  C   LIG d   1       5.655  -1.022  -3.011  0.00  0.00    -0.059 A 
ATOM     29  C   LIG d   1       4.733  -2.036  -2.837  0.00  0.00    -0.061 A 
ATOM     30  H   LIG d   1       6.700  -1.258  -3.145  0.00  0.00     0.062 H 
ATOM     31  C   LIG d   1       3.395  -1.732  -2.665  0.00  0.00    -0.062 A 
ATOM     32  H   LIG d   1       5.057  -3.066  -2.836  0.00  0.00     0.062 H 
ATOM     33  C   LIG d   1       2.980  -0.414  -2.666  0.00  0.00    -0.061 A 
ATOM     34  H   LIG d   1       2.676  -2.525  -2.523  0.00  0.00     0.062 H 
ATOM     35  C   LIG d   1       3.902   0.601  -2.840  0.00  0.00    -0.059 A 
ATOM     36  H   LIG d   1       1.935  -0.176  -2.531  0.00  0.00     0.062 H 
ATOM     37  H   LIG d   1       3.578   1.631  -2.842  0.00  0.00     0.062 H 
ENDBRANCH  24  27
ENDBRANCH  21  24
ENDBRANCH   1  21
BRANCH   5  38
ATOM     38  C   LIG d   1      10.226   4.531  -2.467  0.00  0.00     0.322 C 
ATOM     39  O   LIG d   1       9.912   5.695  -2.310  0.00  0.00    -0.262 OA
ATOM     40  N   LIG d   1      11.067   3.936  -1.598  0.00  0.00    -0.245 N 
ATOM     41  H   LIG d   1      11.350   2.883  -1.740  0.00  0.00     0.169 HD
BRANCH  40  42
ATOM     42  N   LIG d   1      11.567   4.643  -0.542  0.00  0.00    -0.254 NA
ATOM     43  H   LIG d   1      11.677   3.975   0.326  0.00  0.00     0.141 HD
ATOM     44  H   LIG d   1      12.550   5.058  -0.810  0.00  0.00     0.141 HD
ENDBRANCH  40  42
ENDBRANCH   5  38
TORSDOF 5
ENDMDL
