MODEL 1
REMARK VINA RESULT:      -5.5      0.000      0.000
REMARK  17 active torsions:
REMARK  status: ('A' for Active; 'I' for Inactive)
REMARK    1  A    between atoms: C_1  and  C_2 
REMARK    2  A    between atoms: C_2  and  C_3 
REMARK    3  A    between atoms: C_3  and  C_4 
REMARK    4  A    between atoms: C_4  and  C_5 
REMARK    5  A    between atoms: C_5  and  C_6 
REMARK    6  A    between atoms: C_6  and  C_7 
REMARK    7  A    between atoms: C_7  and  C_9 
REMARK    8  A    between atoms: C_7  and  O_22 
REMARK    9  A    between atoms: C_9  and  C_10 
REMARK   10  A    between atoms: C_11  and  C_12 
REMARK   11  A    between atoms: C_12  and  C_13 
REMARK   12  A    between atoms: C_13  and  C_14 
REMARK   13  A    between atoms: C_14  and  C_15 
REMARK   14  A    between atoms: C_15  and  C_16 
REMARK   15  A    between atoms: C_16  and  C_17 
REMARK   16  A    between atoms: C_17  and  C_18 
REMARK   17  A    between atoms: C_18  and  C_19 
ROOT
ATOM      1  C   LIG d   1       5.256  -2.182  -5.675  0.00  0.00    -0.086 C 
ATOM      2  C   LIG d   1       4.323  -2.190  -4.755  0.00  0.00    -0.088 C 
ATOM      3  H   LIG d   1       6.215  -2.637  -5.473  0.00  0.00     0.057 H 
ATOM      4  H   LIG d   1       3.363  -1.734  -4.956  0.00  0.00     0.057 H 
ENDROOT
BRANCH   1   5
ATOM      5  C   LIG d   1       4.993  -1.539  -7.012  0.00  0.00    -0.009 C 
ATOM      6  H   LIG d   1       4.213  -2.094  -7.534  0.00  0.00     0.033 H 
ATOM      7  H   LIG d   1       5.906  -1.550  -7.606  0.00  0.00     0.033 H 
BRANCH   5   8
ATOM      8  C   LIG d   1       4.537  -0.094  -6.802  0.00  0.00     0.059 C 
ATOM      9  H   LIG d   1       4.522   0.130  -5.735  0.00  0.00     0.060 H 
BRANCH   8  10
ATOM     10  C   LIG d   1       3.133   0.086  -7.382  0.00  0.00    -0.027 C 
ATOM     11  H   LIG d   1       2.401   0.072  -6.575  0.00  0.00     0.029 H 
ATOM     12  H   LIG d   1       2.921  -0.724  -8.079  0.00  0.00     0.029 H 
BRANCH  10  13
ATOM     13  C   LIG d   1       3.054   1.426  -8.118  0.00  0.00    -0.051 C 
ATOM     14  H   LIG d   1       4.021   1.927  -8.066  0.00  0.00     0.027 H 
ATOM     15  H   LIG d   1       2.294   2.053  -7.651  0.00  0.00     0.027 H 
BRANCH  13  16
ATOM     16  C   LIG d   1       2.684   1.183  -9.582  0.00  0.00    -0.053 C 
ATOM     17  H   LIG d   1       1.807   1.776  -9.839  0.00  0.00     0.026 H 
ATOM     18  H   LIG d   1       2.462   0.125  -9.730  0.00  0.00     0.026 H 
BRANCH  16  19
ATOM     19  C   LIG d   1       3.855   1.588 -10.479  0.00  0.00    -0.053 C 
ATOM     20  H   LIG d   1       4.746   1.737  -9.868  0.00  0.00     0.026 H 
ATOM     21  H   LIG d   1       3.611   2.515 -10.997  0.00  0.00     0.026 H 
BRANCH  19  22
ATOM     22  C   LIG d   1       4.118   0.485 -11.505  0.00  0.00    -0.056 C 
ATOM     23  H   LIG d   1       5.041  -0.037 -11.248  0.00  0.00     0.026 H 
ATOM     24  H   LIG d   1       4.215   0.927 -12.496  0.00  0.00     0.026 H 
BRANCH  22  25
ATOM     25  C   LIG d   1       2.953  -0.506 -11.500  0.00  0.00    -0.065 C 
ATOM     26  H   LIG d   1       2.865  -0.968 -12.484  0.00  0.00     0.023 H 
ATOM     27  H   LIG d   1       3.134  -1.277 -10.751  0.00  0.00     0.023 H 
ATOM     28  H   LIG d   1       2.029   0.022 -11.263  0.00  0.00     0.023 H 
ENDBRANCH  22  25
ENDBRANCH  19  22
ENDBRANCH  16  19
ENDBRANCH  13  16
ENDBRANCH  10  13
ENDBRANCH   8  10
BRANCH   8  29
ATOM     29  O   LIG d   1       5.443   0.791  -7.462  0.00  0.00    -0.392 OA
ATOM     30  H   LIG d   1       5.133   1.101  -8.325  0.00  0.00     0.210 HD
ENDBRANCH   8  29
ENDBRANCH   5   8
ENDBRANCH   1   5
BRANCH   2  31
ATOM     31  C   LIG d   1       4.586  -2.832  -3.418  0.00  0.00    -0.035 C 
ATOM     32  H   LIG d   1       4.176  -3.842  -3.413  0.00  0.00     0.031 H 
ATOM     33  H   LIG d   1       5.661  -2.875  -3.242  0.00  0.00     0.031 H 
BRANCH  31  34
ATOM     34  C   LIG d   1       3.921  -2.006  -2.316  0.00  0.00    -0.050 C 
ATOM     35  H   LIG d   1       3.431  -2.674  -1.606  0.00  0.00     0.027 H 
ATOM     36  H   LIG d   1       4.676  -1.416  -1.797  0.00  0.00     0.027 H 
BRANCH  34  37
ATOM     37  C   LIG d   1       2.881  -1.072  -2.937  0.00  0.00    -0.053 C 
ATOM     38  H   LIG d   1       2.926  -1.148  -4.023  0.00  0.00     0.026 H 
ATOM     39  H   LIG d   1       1.885  -1.356  -2.595  0.00  0.00     0.026 H 
BRANCH  37  40
ATOM     40  C   LIG d   1       3.173   0.370  -2.515  0.00  0.00    -0.053 C 
ATOM     41  H   LIG d   1       3.152   1.016  -3.393  0.00  0.00     0.026 H 
ATOM     42  H   LIG d   1       2.416   0.700  -1.803  0.00  0.00     0.026 H 
BRANCH  40  43
ATOM     43  C   LIG d   1       4.555   0.441  -1.862  0.00  0.00    -0.053 C 
ATOM     44  H   LIG d   1       4.457   0.827  -0.847  0.00  0.00     0.026 H 
ATOM     45  H   LIG d   1       4.993  -0.556  -1.830  0.00  0.00     0.026 H 
BRANCH  43  46
ATOM     46  C   LIG d   1       5.457   1.371  -2.675  0.00  0.00    -0.048 C 
ATOM     47  H   LIG d   1       4.854   1.919  -3.400  0.00  0.00     0.027 H 
ATOM     48  H   LIG d   1       5.951   2.075  -2.007  0.00  0.00     0.027 H 
BRANCH  46  49
ATOM     49  C   LIG d   1       6.509   0.541  -3.413  0.00  0.00    -0.013 C 
ATOM     50  H   LIG d   1       7.058  -0.069  -2.696  0.00  0.00     0.033 H 
ATOM     51  H   LIG d   1       6.019  -0.105  -4.141  0.00  0.00     0.033 H 
BRANCH  49  52
ATOM     52  C   LIG d   1       7.467   1.463  -4.124  0.00  0.00     0.042 C 
ATOM     53  O   LIG d   1       8.243   2.149  -3.481  0.00  0.00    -0.550 OA
ATOM     54  O   LIG d   1       7.466   1.522  -5.342  0.00  0.00    -0.550 OA
ENDBRANCH  49  52
ENDBRANCH  46  49
ENDBRANCH  43  46
ENDBRANCH  40  43
ENDBRANCH  37  40
ENDBRANCH  34  37
ENDBRANCH  31  34
ENDBRANCH   2  31
TORSDOF 17
ENDMDL
MODEL 2
REMARK VINA RESULT:      -5.3      2.149      6.413
REMARK  17 active torsions:
REMARK  status: ('A' for Active; 'I' for Inactive)
REMARK    1  A    between atoms: C_1  and  C_2 
REMARK    2  A    between atoms: C_2  and  C_3 
REMARK    3  A    between atoms: C_3  and  C_4 
REMARK    4  A    between atoms: C_4  and  C_5 
REMARK    5  A    between atoms: C_5  and  C_6 
REMARK    6  A    between atoms: C_6  and  C_7 
REMARK    7  A    between atoms: C_7  and  C_9 
REMARK    8  A    between atoms: C_7  and  O_22 
REMARK    9  A    between atoms: C_9  and  C_10 
REMARK   10  A    between atoms: C_11  and  C_12 
REMARK   11  A    between atoms: C_12  and  C_13 
REMARK   12  A    between atoms: C_13  and  C_14 
REMARK   13  A    between atoms: C_14  and  C_15 
REMARK   14  A    between atoms: C_15  and  C_16 
REMARK   15  A    between atoms: C_16  and  C_17 
REMARK   16  A    between atoms: C_17  and  C_18 
REMARK   17  A    between atoms: C_18  and  C_19 
ROOT
ATOM      1  C   LIG d   1       3.045   0.070  -6.105  0.00  0.00    -0.086 C 
ATOM      2  C   LIG d   1       4.289  -0.343  -6.088  0.00  0.00    -0.088 C 
ATOM      3  H   LIG d   1       2.492   0.078  -7.033  0.00  0.00     0.057 H 
ATOM      4  H   LIG d   1       4.842  -0.351  -5.160  0.00  0.00     0.057 H 
ENDROOT
BRANCH   1   5
ATOM      5  C   LIG d   1       2.387   0.535  -4.831  0.00  0.00    -0.009 C 
ATOM      6  H   LIG d   1       1.734  -0.252  -4.452  0.00  0.00     0.033 H 
ATOM      7  H   LIG d   1       1.799   1.430  -5.032  0.00  0.00     0.033 H 
BRANCH   5   8
ATOM      8  C   LIG d   1       3.461   0.853  -3.789  0.00  0.00     0.059 C 
ATOM      9  H   LIG d   1       4.428   0.493  -4.143  0.00  0.00     0.060 H 
BRANCH   8  10
ATOM     10  C   LIG d   1       3.111   0.161  -2.470  0.00  0.00    -0.027 C 
ATOM     11  H   LIG d   1       2.179  -0.393  -2.586  0.00  0.00     0.029 H 
ATOM     12  H   LIG d   1       2.994   0.910  -1.687  0.00  0.00     0.029 H 
BRANCH  10  13
ATOM     13  C   LIG d   1       4.234  -0.805  -2.088  0.00  0.00    -0.051 C 
ATOM     14  H   LIG d   1       4.391  -0.772  -1.010  0.00  0.00     0.027 H 
ATOM     15  H   LIG d   1       5.152  -0.516  -2.598  0.00  0.00     0.027 H 
BRANCH  13  16
ATOM     16  C   LIG d   1       3.847  -2.226  -2.502  0.00  0.00    -0.053 C 
ATOM     17  H   LIG d   1       2.839  -2.223  -2.917  0.00  0.00     0.026 H 
ATOM     18  H   LIG d   1       3.877  -2.880  -1.629  0.00  0.00     0.026 H 
BRANCH  16  19
ATOM     19  C   LIG d   1       4.831  -2.737  -3.555  0.00  0.00    -0.053 C 
ATOM     20  H   LIG d   1       4.389  -2.631  -4.547  0.00  0.00     0.026 H 
ATOM     21  H   LIG d   1       5.051  -3.788  -3.367  0.00  0.00     0.026 H 
BRANCH  19  22
ATOM     22  C   LIG d   1       6.125  -1.925  -3.483  0.00  0.00    -0.056 C 
ATOM     23  H   LIG d   1       6.369  -1.724  -2.440  0.00  0.00     0.026 H 
ATOM     24  H   LIG d   1       5.992  -0.982  -4.013  0.00  0.00     0.026 H 
BRANCH  22  25
ATOM     25  C   LIG d   1       7.262  -2.718  -4.129  0.00  0.00    -0.065 C 
ATOM     26  H   LIG d   1       7.144  -3.777  -3.897  0.00  0.00     0.023 H 
ATOM     27  H   LIG d   1       7.236  -2.577  -5.210  0.00  0.00     0.023 H 
ATOM     28  H   LIG d   1       8.217  -2.366  -3.740  0.00  0.00     0.023 H 
ENDBRANCH  22  25
ENDBRANCH  19  22
ENDBRANCH  16  19
ENDBRANCH  13  16
ENDBRANCH  10  13
ENDBRANCH   8  10
BRANCH   8  29
ATOM     29  O   LIG d   1       3.523   2.266  -3.585  0.00  0.00    -0.392 OA
ATOM     30  H   LIG d   1       4.372   2.577  -3.244  0.00  0.00     0.210 HD
ENDBRANCH   8  29
ENDBRANCH   5   8
ENDBRANCH   1   5
BRANCH   2  31
ATOM     31  C   LIG d   1       4.946  -0.808  -7.362  0.00  0.00    -0.035 C 
ATOM     32  H   LIG d   1       4.839  -0.040  -8.127  0.00  0.00     0.031 H 
ATOM     33  H   LIG d   1       6.005  -0.991  -7.177  0.00  0.00     0.031 H 
BRANCH  31  34
ATOM     34  C   LIG d   1       4.280  -2.100  -7.837  0.00  0.00    -0.050 C 
ATOM     35  H   LIG d   1       4.983  -2.928  -7.743  0.00  0.00     0.027 H 
ATOM     36  H   LIG d   1       3.399  -2.300  -7.228  0.00  0.00     0.027 H 
BRANCH  34  37
ATOM     37  C   LIG d   1       3.865  -1.950  -9.302  0.00  0.00    -0.053 C 
ATOM     38  H   LIG d   1       4.188  -0.977  -9.674  0.00  0.00     0.026 H 
ATOM     39  H   LIG d   1       4.329  -2.738  -9.895  0.00  0.00     0.026 H 
BRANCH  37  40
ATOM     40  C   LIG d   1       2.343  -2.057  -9.415  0.00  0.00    -0.053 C 
ATOM     41  H   LIG d   1       2.086  -2.667 -10.281  0.00  0.00     0.026 H 
ATOM     42  H   LIG d   1       1.944  -2.521  -8.513  0.00  0.00     0.026 H 
BRANCH  40  43
ATOM     43  C   LIG d   1       1.742  -0.659  -9.579  0.00  0.00    -0.053 C 
ATOM     44  H   LIG d   1       0.865  -0.715 -10.224  0.00  0.00     0.026 H 
ATOM     45  H   LIG d   1       1.451  -0.273  -8.603  0.00  0.00     0.026 H 
BRANCH  43  46
ATOM     46  C   LIG d   1       2.780   0.271 -10.208  0.00  0.00    -0.048 C 
ATOM     47  H   LIG d   1       3.756  -0.215 -10.201  0.00  0.00     0.027 H 
ATOM     48  H   LIG d   1       2.493   0.495 -11.235  0.00  0.00     0.027 H 
BRANCH  46  49
ATOM     49  C   LIG d   1       2.853   1.571  -9.404  0.00  0.00    -0.013 C 
ATOM     50  H   LIG d   1       2.122   2.280  -9.793  0.00  0.00     0.033 H 
ATOM     51  H   LIG d   1       2.636   1.363  -8.357  0.00  0.00     0.033 H 
BRANCH  49  52
ATOM     52  C   LIG d   1       4.236   2.159  -9.524  0.00  0.00     0.042 C 
ATOM     53  O   LIG d   1       5.103   1.556 -10.133  0.00  0.00    -0.550 OA
ATOM     54  O   LIG d   1       4.487   3.236  -9.013  0.00  0.00    -0.550 OA
ENDBRANCH  49  52
ENDBRANCH  46  49
ENDBRANCH  43  46
ENDBRANCH  40  43
ENDBRANCH  37  40
ENDBRANCH  34  37
ENDBRANCH  31  34
ENDBRANCH   2  31
TORSDOF 17
ENDMDL
MODEL 3
REMARK VINA RESULT:      -5.3      1.720      6.036
REMARK  17 active torsions:
REMARK  status: ('A' for Active; 'I' for Inactive)
REMARK    1  A    between atoms: C_1  and  C_2 
REMARK    2  A    between atoms: C_2  and  C_3 
REMARK    3  A    between atoms: C_3  and  C_4 
REMARK    4  A    between atoms: C_4  and  C_5 
REMARK    5  A    between atoms: C_5  and  C_6 
REMARK    6  A    between atoms: C_6  and  C_7 
REMARK    7  A    between atoms: C_7  and  C_9 
REMARK    8  A    between atoms: C_7  and  O_22 
REMARK    9  A    between atoms: C_9  and  C_10 
REMARK   10  A    between atoms: C_11  and  C_12 
REMARK   11  A    between atoms: C_12  and  C_13 
REMARK   12  A    between atoms: C_13  and  C_14 
REMARK   13  A    between atoms: C_14  and  C_15 
REMARK   14  A    between atoms: C_15  and  C_16 
REMARK   15  A    between atoms: C_16  and  C_17 
REMARK   16  A    between atoms: C_17  and  C_18 
REMARK   17  A    between atoms: C_18  and  C_19 
ROOT
ATOM      1  C   LIG d   1       4.851  -0.426  -6.127  0.00  0.00    -0.086 C 
ATOM      2  C   LIG d   1       3.771  -0.824  -6.753  0.00  0.00    -0.088 C 
ATOM      3  H   LIG d   1       5.015   0.627  -5.951  0.00  0.00     0.057 H 
ATOM      4  H   LIG d   1       3.607  -1.878  -6.930  0.00  0.00     0.057 H 
ENDROOT
BRANCH   1   5
ATOM      5  C   LIG d   1       5.865  -1.436  -5.655  0.00  0.00    -0.009 C 
ATOM      6  H   LIG d   1       6.461  -1.776  -6.502  0.00  0.00     0.033 H 
ATOM      7  H   LIG d   1       5.349  -2.287  -5.210  0.00  0.00     0.033 H 
BRANCH   5   8
ATOM      8  C   LIG d   1       6.780  -0.791  -4.612  0.00  0.00     0.059 C 
ATOM      9  H   LIG d   1       7.814  -0.846  -4.954  0.00  0.00     0.060 H 
BRANCH   8  10
ATOM     10  C   LIG d   1       6.641  -1.535  -3.282  0.00  0.00    -0.027 C 
ATOM     11  H   LIG d   1       6.732  -0.828  -2.458  0.00  0.00     0.029 H 
ATOM     12  H   LIG d   1       7.425  -2.288  -3.203  0.00  0.00     0.029 H 
BRANCH  10  13
ATOM     13  C   LIG d   1       5.272  -2.215  -3.220  0.00  0.00    -0.051 C 
ATOM     14  H   LIG d   1       5.402  -3.275  -3.001  0.00  0.00     0.027 H 
ATOM     15  H   LIG d   1       4.765  -2.102  -4.179  0.00  0.00     0.027 H 
BRANCH  13  16
ATOM     16  C   LIG d   1       4.430  -1.567  -2.120  0.00  0.00    -0.053 C 
ATOM     17  H   LIG d   1       5.029  -0.827  -1.591  0.00  0.00     0.026 H 
ATOM     18  H   LIG d   1       4.099  -2.333  -1.417  0.00  0.00     0.026 H 
BRANCH  16  19
ATOM     19  C   LIG d   1       3.211  -0.886  -2.743  0.00  0.00    -0.053 C 
ATOM     20  H   LIG d   1       2.312  -1.177  -2.197  0.00  0.00     0.026 H 
ATOM     21  H   LIG d   1       3.117  -1.193  -3.785  0.00  0.00     0.026 H 
BRANCH  19  22
ATOM     22  C   LIG d   1       3.382   0.632  -2.672  0.00  0.00    -0.056 C 
ATOM     23  H   LIG d   1       2.435   1.091  -2.386  0.00  0.00     0.026 H 
ATOM     24  H   LIG d   1       3.688   1.009  -3.648  0.00  0.00     0.026 H 
BRANCH  22  25
ATOM     25  C   LIG d   1       4.451   0.977  -1.634  0.00  0.00    -0.065 C 
ATOM     26  H   LIG d   1       4.159   1.881  -1.099  0.00  0.00     0.023 H 
ATOM     27  H   LIG d   1       4.552   0.153  -0.928  0.00  0.00     0.023 H 
ATOM     28  H   LIG d   1       5.404   1.145  -2.136  0.00  0.00     0.023 H 
ENDBRANCH  22  25
ENDBRANCH  19  22
ENDBRANCH  16  19
ENDBRANCH  13  16
ENDBRANCH  10  13
ENDBRANCH   8  10
BRANCH   8  29
ATOM     29  O   LIG d   1       6.408   0.577  -4.435  0.00  0.00    -0.392 OA
ATOM     30  H   LIG d   1       5.560   0.699  -3.987  0.00  0.00     0.210 HD
ENDBRANCH   8  29
ENDBRANCH   5   8
ENDBRANCH   1   5
BRANCH   2  31
ATOM     31  C   LIG d   1       2.758   0.186  -7.226  0.00  0.00    -0.035 C 
ATOM     32  H   LIG d   1       1.880   0.149  -6.581  0.00  0.00     0.031 H 
ATOM     33  H   LIG d   1       3.195   1.184  -7.188  0.00  0.00     0.031 H 
BRANCH  31  34
ATOM     34  C   LIG d   1       2.349  -0.137  -8.664  0.00  0.00    -0.050 C 
ATOM     35  H   LIG d   1       2.364  -1.217  -8.813  0.00  0.00     0.027 H 
ATOM     36  H   LIG d   1       1.344   0.242  -8.850  0.00  0.00     0.027 H 
BRANCH  34  37
ATOM     37  C   LIG d   1       3.331   0.524  -9.633  0.00  0.00    -0.053 C 
ATOM     38  H   LIG d   1       4.347   0.215  -9.388  0.00  0.00     0.026 H 
ATOM     39  H   LIG d   1       3.096   0.220 -10.654  0.00  0.00     0.026 H 
BRANCH  37  40
ATOM     40  C   LIG d   1       3.219   2.045  -9.516  0.00  0.00    -0.053 C 
ATOM     41  H   LIG d   1       2.856   2.456 -10.458  0.00  0.00     0.026 H 
ATOM     42  H   LIG d   1       2.521   2.297  -8.717  0.00  0.00     0.026 H 
BRANCH  40  43
ATOM     43  C   LIG d   1       4.594   2.636  -9.197  0.00  0.00    -0.053 C 
ATOM     44  H   LIG d   1       4.842   3.397  -9.937  0.00  0.00     0.026 H 
ATOM     45  H   LIG d   1       4.574   3.087  -8.205  0.00  0.00     0.026 H 
BRANCH  43  46
ATOM     46  C   LIG d   1       5.647   1.528  -9.234  0.00  0.00    -0.048 C 
ATOM     47  H   LIG d   1       5.393   0.761  -8.502  0.00  0.00     0.027 H 
ATOM     48  H   LIG d   1       5.675   1.085 -10.229  0.00  0.00     0.027 H 
BRANCH  46  49
ATOM     49  C   LIG d   1       7.019   2.116  -8.898  0.00  0.00    -0.013 C 
ATOM     50  H   LIG d   1       7.671   2.034  -9.768  0.00  0.00     0.033 H 
ATOM     51  H   LIG d   1       6.907   3.166  -8.626  0.00  0.00     0.033 H 
BRANCH  49  52
ATOM     52  C   LIG d   1       7.622   1.358  -7.744  0.00  0.00     0.042 C 
ATOM     53  O   LIG d   1       8.056   0.232  -7.915  0.00  0.00    -0.550 OA
ATOM     54  O   LIG d   1       7.676   1.871  -6.640  0.00  0.00    -0.550 OA
ENDBRANCH  49  52
ENDBRANCH  46  49
ENDBRANCH  43  46
ENDBRANCH  40  43
ENDBRANCH  37  40
ENDBRANCH  34  37
ENDBRANCH  31  34
ENDBRANCH   2  31
TORSDOF 17
ENDMDL
MODEL 4
REMARK VINA RESULT:      -5.3      1.453      5.785
REMARK  17 active torsions:
REMARK  status: ('A' for Active; 'I' for Inactive)
REMARK    1  A    between atoms: C_1  and  C_2 
REMARK    2  A    between atoms: C_2  and  C_3 
REMARK    3  A    between atoms: C_3  and  C_4 
REMARK    4  A    between atoms: C_4  and  C_5 
REMARK    5  A    between atoms: C_5  and  C_6 
REMARK    6  A    between atoms: C_6  and  C_7 
REMARK    7  A    between atoms: C_7  and  C_9 
REMARK    8  A    between atoms: C_7  and  O_22 
REMARK    9  A    between atoms: C_9  and  C_10 
REMARK   10  A    between atoms: C_11  and  C_12 
REMARK   11  A    between atoms: C_12  and  C_13 
REMARK   12  A    between atoms: C_13  and  C_14 
REMARK   13  A    between atoms: C_14  and  C_15 
REMARK   14  A    between atoms: C_15  and  C_16 
REMARK   15  A    between atoms: C_16  and  C_17 
REMARK   16  A    between atoms: C_17  and  C_18 
REMARK   17  A    between atoms: C_18  and  C_19 
ROOT
ATOM      1  C   LIG d   1       5.771  -1.103  -5.484  0.00  0.00    -0.086 C 
ATOM      2  C   LIG d   1       5.054  -1.990  -6.129  0.00  0.00    -0.088 C 
ATOM      3  H   LIG d   1       5.707  -0.059  -5.753  0.00  0.00     0.057 H 
ATOM      4  H   LIG d   1       5.119  -3.035  -5.860  0.00  0.00     0.057 H 
ENDROOT
BRANCH   1   5
ATOM      5  C   LIG d   1       6.685  -1.539  -4.368  0.00  0.00    -0.009 C 
ATOM      6  H   LIG d   1       7.614  -1.925  -4.789  0.00  0.00     0.033 H 
ATOM      7  H   LIG d   1       6.198  -2.320  -3.784  0.00  0.00     0.033 H 
BRANCH   5   8
ATOM      8  C   LIG d   1       6.992  -0.343  -3.464  0.00  0.00     0.059 C 
ATOM      9  H   LIG d   1       6.945  -0.655  -2.421  0.00  0.00     0.060 H 
BRANCH   8  10
ATOM     10  C   LIG d   1       5.964   0.762  -3.715  0.00  0.00    -0.027 C 
ATOM     11  H   LIG d   1       5.134   0.362  -4.296  0.00  0.00     0.029 H 
ATOM     12  H   LIG d   1       6.433   1.578  -4.265  0.00  0.00     0.029 H 
BRANCH  10  13
ATOM     13  C   LIG d   1       5.441   1.285  -2.375  0.00  0.00    -0.051 C 
ATOM     14  H   LIG d   1       5.056   2.297  -2.504  0.00  0.00     0.027 H 
ATOM     15  H   LIG d   1       6.253   1.295  -1.647  0.00  0.00     0.027 H 
BRANCH  13  16
ATOM     16  C   LIG d   1       4.319   0.373  -1.874  0.00  0.00    -0.053 C 
ATOM     17  H   LIG d   1       3.902   0.782  -0.954  0.00  0.00     0.026 H 
ATOM     18  H   LIG d   1       4.720  -0.622  -1.679  0.00  0.00     0.026 H 
BRANCH  16  19
ATOM     19  C   LIG d   1       3.223   0.283  -2.936  0.00  0.00    -0.053 C 
ATOM     20  H   LIG d   1       3.603   0.661  -3.886  0.00  0.00     0.026 H 
ATOM     21  H   LIG d   1       2.366   0.880  -2.625  0.00  0.00     0.026 H 
BRANCH  19  22
ATOM     22  C   LIG d   1       2.793  -1.176  -3.104  0.00  0.00    -0.056 C 
ATOM     23  H   LIG d   1       2.781  -1.431  -4.164  0.00  0.00     0.026 H 
ATOM     24  H   LIG d   1       1.795  -1.310  -2.686  0.00  0.00     0.026 H 
BRANCH  22  25
ATOM     25  C   LIG d   1       3.780  -2.086  -2.371  0.00  0.00    -0.065 C 
ATOM     26  H   LIG d   1       3.325  -3.065  -2.216  0.00  0.00     0.023 H 
ATOM     27  H   LIG d   1       4.685  -2.196  -2.968  0.00  0.00     0.023 H 
ATOM     28  H   LIG d   1       4.032  -1.646  -1.406  0.00  0.00     0.023 H 
ENDBRANCH  22  25
ENDBRANCH  19  22
ENDBRANCH  16  19
ENDBRANCH  13  16
ENDBRANCH  10  13
ENDBRANCH   8  10
BRANCH   8  29
ATOM     29  O   LIG d   1       8.301   0.150  -3.756  0.00  0.00    -0.392 OA
ATOM     30  H   LIG d   1       8.623   0.810  -3.127  0.00  0.00     0.210 HD
ENDBRANCH   8  29
ENDBRANCH   5   8
ENDBRANCH   1   5
BRANCH   2  31
ATOM     31  C   LIG d   1       4.141  -1.555  -7.245  0.00  0.00    -0.035 C 
ATOM     32  H   LIG d   1       4.720  -1.422  -8.158  0.00  0.00     0.031 H 
ATOM     33  H   LIG d   1       3.377  -2.316  -7.407  0.00  0.00     0.031 H 
BRANCH  31  34
ATOM     34  C   LIG d   1       3.471  -0.232  -6.869  0.00  0.00    -0.050 C 
ATOM     35  H   LIG d   1       2.813  -0.388  -6.013  0.00  0.00     0.027 H 
ATOM     36  H   LIG d   1       4.234   0.502  -6.611  0.00  0.00     0.027 H 
BRANCH  34  37
ATOM     37  C   LIG d   1       2.651   0.279  -8.055  0.00  0.00    -0.053 C 
ATOM     38  H   LIG d   1       3.003  -0.194  -8.971  0.00  0.00     0.026 H 
ATOM     39  H   LIG d   1       1.599   0.036  -7.902  0.00  0.00     0.026 H 
BRANCH  37  40
ATOM     40  C   LIG d   1       2.811   1.796  -8.170  0.00  0.00    -0.053 C 
ATOM     41  H   LIG d   1       1.829   2.268  -8.140  0.00  0.00     0.026 H 
ATOM     42  H   LIG d   1       3.415   2.162  -7.339  0.00  0.00     0.026 H 
BRANCH  40  43
ATOM     43  C   LIG d   1       3.502   2.138  -9.492  0.00  0.00    -0.053 C 
ATOM     44  H   LIG d   1       3.397   1.301 -10.183  0.00  0.00     0.026 H 
ATOM     45  H   LIG d   1       3.039   3.025  -9.924  0.00  0.00     0.026 H 
BRANCH  43  46
ATOM     46  C   LIG d   1       4.986   2.407  -9.238  0.00  0.00    -0.048 C 
ATOM     47  H   LIG d   1       5.311   3.251  -9.848  0.00  0.00     0.027 H 
ATOM     48  H   LIG d   1       5.138   2.641  -8.185  0.00  0.00     0.027 H 
BRANCH  46  49
ATOM     49  C   LIG d   1       5.800   1.167  -9.610  0.00  0.00    -0.013 C 
ATOM     50  H   LIG d   1       5.124   0.330  -9.791  0.00  0.00     0.033 H 
ATOM     51  H   LIG d   1       6.379   1.368 -10.511  0.00  0.00     0.033 H 
BRANCH  49  52
ATOM     52  C   LIG d   1       6.734   0.821  -8.479  0.00  0.00     0.042 C 
ATOM     53  O   LIG d   1       7.400  -0.199  -8.529  0.00  0.00    -0.550 OA
ATOM     54  O   LIG d   1       6.824   1.561  -7.514  0.00  0.00    -0.550 OA
ENDBRANCH  49  52
ENDBRANCH  46  49
ENDBRANCH  43  46
ENDBRANCH  40  43
ENDBRANCH  37  40
ENDBRANCH  34  37
ENDBRANCH  31  34
ENDBRANCH   2  31
TORSDOF 17
ENDMDL
MODEL 5
REMARK VINA RESULT:      -5.2      2.549      3.827
REMARK  17 active torsions:
REMARK  status: ('A' for Active; 'I' for Inactive)
REMARK    1  A    between atoms: C_1  and  C_2 
REMARK    2  A    between atoms: C_2  and  C_3 
REMARK    3  A    between atoms: C_3  and  C_4 
REMARK    4  A    between atoms: C_4  and  C_5 
REMARK    5  A    between atoms: C_5  and  C_6 
REMARK    6  A    between atoms: C_6  and  C_7 
REMARK    7  A    between atoms: C_7  and  C_9 
REMARK    8  A    between atoms: C_7  and  O_22 
REMARK    9  A    between atoms: C_9  and  C_10 
REMARK   10  A    between atoms: C_11  and  C_12 
REMARK   11  A    between atoms: C_12  and  C_13 
REMARK   12  A    between atoms: C_13  and  C_14 
REMARK   13  A    between atoms: C_14  and  C_15 
REMARK   14  A    between atoms: C_15  and  C_16 
REMARK   15  A    between atoms: C_16  and  C_17 
REMARK   16  A    between atoms: C_17  and  C_18 
REMARK   17  A    between atoms: C_18  and  C_19 
ROOT
ATOM      1  C   LIG d   1       3.134   0.513  -6.238  0.00  0.00    -0.086 C 
ATOM      2  C   LIG d   1       2.642   0.305  -5.042  0.00  0.00    -0.088 C 
ATOM      3  H   LIG d   1       3.858   1.299  -6.393  0.00  0.00     0.057 H 
ATOM      4  H   LIG d   1       1.917  -0.482  -4.886  0.00  0.00     0.057 H 
ENDROOT
BRANCH   1   5
ATOM      5  C   LIG d   1       2.689  -0.341  -7.396  0.00  0.00    -0.009 C 
ATOM      6  H   LIG d   1       1.636  -0.598  -7.276  0.00  0.00     0.033 H 
ATOM      7  H   LIG d   1       3.284  -1.254  -7.423  0.00  0.00     0.033 H 
BRANCH   5   8
ATOM      8  C   LIG d   1       2.880   0.431  -8.703  0.00  0.00     0.059 C 
ATOM      9  H   LIG d   1       3.837   0.159  -9.149  0.00  0.00     0.060 H 
BRANCH   8  10
ATOM     10  C   LIG d   1       2.860   1.934  -8.414  0.00  0.00    -0.027 C 
ATOM     11  H   LIG d   1       3.084   2.104  -7.361  0.00  0.00     0.029 H 
ATOM     12  H   LIG d   1       1.874   2.336  -8.646  0.00  0.00     0.029 H 
BRANCH  10  13
ATOM     13  C   LIG d   1       3.913   2.632  -9.277  0.00  0.00    -0.051 C 
ATOM     14  H   LIG d   1       4.356   3.455  -8.716  0.00  0.00     0.027 H 
ATOM     15  H   LIG d   1       3.443   3.021 -10.180  0.00  0.00     0.027 H 
BRANCH  13  16
ATOM     16  C   LIG d   1       5.004   1.631  -9.661  0.00  0.00    -0.053 C 
ATOM     17  H   LIG d   1       5.221   1.720 -10.725  0.00  0.00     0.026 H 
ATOM     18  H   LIG d   1       4.661   0.619  -9.446  0.00  0.00     0.026 H 
BRANCH  16  19
ATOM     19  C   LIG d   1       6.271   1.922  -8.855  0.00  0.00    -0.053 C 
ATOM     20  H   LIG d   1       6.161   2.875  -8.336  0.00  0.00     0.026 H 
ATOM     21  H   LIG d   1       7.126   1.973  -9.530  0.00  0.00     0.026 H 
BRANCH  19  22
ATOM     22  C   LIG d   1       6.494   0.806  -7.833  0.00  0.00    -0.056 C 
ATOM     23  H   LIG d   1       6.448  -0.161  -8.336  0.00  0.00     0.026 H 
ATOM     24  H   LIG d   1       5.720   0.855  -7.068  0.00  0.00     0.026 H 
BRANCH  22  25
ATOM     25  C   LIG d   1       7.868   0.978  -7.182  0.00  0.00    -0.065 C 
ATOM     26  H   LIG d   1       8.545   0.209  -7.556  0.00  0.00     0.023 H 
ATOM     27  H   LIG d   1       8.265   1.963  -7.426  0.00  0.00     0.023 H 
ATOM     28  H   LIG d   1       7.771   0.882  -6.101  0.00  0.00     0.023 H 
ENDBRANCH  22  25
ENDBRANCH  19  22
ENDBRANCH  16  19
ENDBRANCH  13  16
ENDBRANCH  10  13
ENDBRANCH   8  10
BRANCH   8  29
ATOM     29  O   LIG d   1       1.822   0.106  -9.607  0.00  0.00    -0.392 OA
ATOM     30  H   LIG d   1       2.058   0.201 -10.540  0.00  0.00     0.210 HD
ENDBRANCH   8  29
ENDBRANCH   5   8
ENDBRANCH   1   5
BRANCH   2  31
ATOM     31  C   LIG d   1       3.087   1.159  -3.883  0.00  0.00    -0.035 C 
ATOM     32  H   LIG d   1       4.075   1.566  -4.091  0.00  0.00     0.031 H 
ATOM     33  H   LIG d   1       2.379   1.977  -3.743  0.00  0.00     0.031 H 
BRANCH  31  34
ATOM     34  C   LIG d   1       3.141   0.308  -2.613  0.00  0.00    -0.050 C 
ATOM     35  H   LIG d   1       2.354   0.626  -1.929  0.00  0.00     0.027 H 
ATOM     36  H   LIG d   1       2.996  -0.740  -2.872  0.00  0.00     0.027 H 
BRANCH  34  37
ATOM     37  C   LIG d   1       4.503   0.484  -1.940  0.00  0.00    -0.053 C 
ATOM     38  H   LIG d   1       4.403   1.155  -1.087  0.00  0.00     0.026 H 
ATOM     39  H   LIG d   1       4.869  -0.484  -1.599  0.00  0.00     0.026 H 
BRANCH  37  40
ATOM     40  C   LIG d   1       5.495   1.080  -2.942  0.00  0.00    -0.053 C 
ATOM     41  H   LIG d   1       4.974   1.317  -3.870  0.00  0.00     0.026 H 
ATOM     42  H   LIG d   1       5.929   1.989  -2.526  0.00  0.00     0.026 H 
BRANCH  40  43
ATOM     43  C   LIG d   1       6.606   0.067  -3.225  0.00  0.00    -0.053 C 
ATOM     44  H   LIG d   1       7.522   0.597  -3.484  0.00  0.00     0.026 H 
ATOM     45  H   LIG d   1       6.776  -0.543  -2.338  0.00  0.00     0.026 H 
BRANCH  43  46
ATOM     46  C   LIG d   1       6.191  -0.833  -4.391  0.00  0.00    -0.048 C 
ATOM     47  H   LIG d   1       5.209  -0.528  -4.753  0.00  0.00     0.027 H 
ATOM     48  H   LIG d   1       6.919  -0.743  -5.196  0.00  0.00     0.027 H 
BRANCH  46  49
ATOM     49  C   LIG d   1       6.131  -2.286  -3.916  0.00  0.00    -0.013 C 
ATOM     50  H   LIG d   1       6.809  -2.892  -4.517  0.00  0.00     0.033 H 
ATOM     51  H   LIG d   1       6.427  -2.339  -2.869  0.00  0.00     0.033 H 
BRANCH  49  52
ATOM     52  C   LIG d   1       4.724  -2.806  -4.068  0.00  0.00     0.042 C 
ATOM     53  O   LIG d   1       4.298  -3.097  -5.173  0.00  0.00    -0.550 OA
ATOM     54  O   LIG d   1       4.012  -2.936  -3.088  0.00  0.00    -0.550 OA
ENDBRANCH  49  52
ENDBRANCH  46  49
ENDBRANCH  43  46
ENDBRANCH  40  43
ENDBRANCH  37  40
ENDBRANCH  34  37
ENDBRANCH  31  34
ENDBRANCH   2  31
TORSDOF 17
ENDMDL
MODEL 6
REMARK VINA RESULT:      -5.2      1.385      2.174
REMARK  17 active torsions:
REMARK  status: ('A' for Active; 'I' for Inactive)
REMARK    1  A    between atoms: C_1  and  C_2 
REMARK    2  A    between atoms: C_2  and  C_3 
REMARK    3  A    between atoms: C_3  and  C_4 
REMARK    4  A    between atoms: C_4  and  C_5 
REMARK    5  A    between atoms: C_5  and  C_6 
REMARK    6  A    between atoms: C_6  and  C_7 
REMARK    7  A    between atoms: C_7  and  C_9 
REMARK    8  A    between atoms: C_7  and  O_22 
REMARK    9  A    between atoms: C_9  and  C_10 
REMARK   10  A    between atoms: C_11  and  C_12 
REMARK   11  A    between atoms: C_12  and  C_13 
REMARK   12  A    between atoms: C_13  and  C_14 
REMARK   13  A    between atoms: C_14  and  C_15 
REMARK   14  A    between atoms: C_15  and  C_16 
REMARK   15  A    between atoms: C_16  and  C_17 
REMARK   16  A    between atoms: C_17  and  C_18 
REMARK   17  A    between atoms: C_18  and  C_19 
ROOT
ATOM      1  C   LIG d   1       4.514  -2.291  -4.621  0.00  0.00    -0.086 C 
ATOM      2  C   LIG d   1       4.398  -2.782  -3.412  0.00  0.00    -0.088 C 
ATOM      3  H   LIG d   1       4.191  -1.281  -4.826  0.00  0.00     0.057 H 
ATOM      4  H   LIG d   1       4.721  -3.792  -3.206  0.00  0.00     0.057 H 
ENDROOT
BRANCH   1   5
ATOM      5  C   LIG d   1       5.097  -3.135  -5.725  0.00  0.00    -0.009 C 
ATOM      6  H   LIG d   1       4.305  -3.724  -6.189  0.00  0.00     0.033 H 
ATOM      7  H   LIG d   1       5.851  -3.804  -5.311  0.00  0.00     0.033 H 
BRANCH   5   8
ATOM      8  C   LIG d   1       5.741  -2.227  -6.775  0.00  0.00     0.059 C 
ATOM      9  H   LIG d   1       6.745  -1.953  -6.451  0.00  0.00     0.060 H 
BRANCH   8  10
ATOM     10  C   LIG d   1       4.895  -0.963  -6.943  0.00  0.00    -0.027 C 
ATOM     11  H   LIG d   1       5.536  -0.134  -7.241  0.00  0.00     0.029 H 
ATOM     12  H   LIG d   1       4.407  -0.725  -5.998  0.00  0.00     0.029 H 
BRANCH  10  13
ATOM     13  C   LIG d   1       3.835  -1.199  -8.020  0.00  0.00    -0.051 C 
ATOM     14  H   LIG d   1       3.449  -2.216  -7.934  0.00  0.00     0.027 H 
ATOM     15  H   LIG d   1       4.280  -1.062  -9.005  0.00  0.00     0.027 H 
BRANCH  13  16
ATOM     16  C   LIG d   1       2.689  -0.203  -7.834  0.00  0.00    -0.053 C 
ATOM     17  H   LIG d   1       2.904   0.446  -6.986  0.00  0.00     0.026 H 
ATOM     18  H   LIG d   1       1.761  -0.746  -7.647  0.00  0.00     0.026 H 
BRANCH  16  19
ATOM     19  C   LIG d   1       2.538   0.643  -9.099  0.00  0.00    -0.053 C 
ATOM     20  H   LIG d   1       1.534   0.514  -9.506  0.00  0.00     0.026 H 
ATOM     21  H   LIG d   1       3.272   0.324  -9.838  0.00  0.00     0.026 H 
BRANCH  19  22
ATOM     22  C   LIG d   1       2.764   2.117  -8.758  0.00  0.00    -0.056 C 
ATOM     23  H   LIG d   1       2.685   2.256  -7.680  0.00  0.00     0.026 H 
ATOM     24  H   LIG d   1       2.012   2.725  -9.260  0.00  0.00     0.026 H 
BRANCH  22  25
ATOM     25  C   LIG d   1       4.158   2.541  -9.226  0.00  0.00    -0.065 C 
ATOM     26  H   LIG d   1       4.172   3.617  -9.397  0.00  0.00     0.023 H 
ATOM     27  H   LIG d   1       4.892   2.284  -8.461  0.00  0.00     0.023 H 
ATOM     28  H   LIG d   1       4.403   2.022 -10.153  0.00  0.00     0.023 H 
ENDBRANCH  22  25
ENDBRANCH  19  22
ENDBRANCH  16  19
ENDBRANCH  13  16
ENDBRANCH  10  13
ENDBRANCH   8  10
BRANCH   8  29
ATOM     29  O   LIG d   1       5.815  -2.921  -8.022  0.00  0.00    -0.392 OA
ATOM     30  H   LIG d   1       6.136  -3.830  -7.949  0.00  0.00     0.210 HD
ENDBRANCH   8  29
ENDBRANCH   5   8
ENDBRANCH   1   5
BRANCH   2  31
ATOM     31  C   LIG d   1       3.815  -1.938  -2.308  0.00  0.00    -0.035 C 
ATOM     32  H   LIG d   1       3.314  -2.581  -1.586  0.00  0.00     0.031 H 
ATOM     33  H   LIG d   1       4.614  -1.387  -1.812  0.00  0.00     0.031 H 
BRANCH  31  34
ATOM     34  C   LIG d   1       2.807  -0.951  -2.900  0.00  0.00    -0.050 C 
ATOM     35  H   LIG d   1       2.773  -1.071  -3.983  0.00  0.00     0.027 H 
ATOM     36  H   LIG d   1       1.819  -1.147  -2.482  0.00  0.00     0.027 H 
BRANCH  34  37
ATOM     37  C   LIG d   1       3.232   0.478  -2.558  0.00  0.00    -0.053 C 
ATOM     38  H   LIG d   1       3.268   1.075  -3.469  0.00  0.00     0.026 H 
ATOM     39  H   LIG d   1       2.513   0.916  -1.865  0.00  0.00     0.026 H 
BRANCH  37  40
ATOM     40  C   LIG d   1       4.617   0.457  -1.909  0.00  0.00    -0.053 C 
ATOM     41  H   LIG d   1       4.578   0.983  -0.954  0.00  0.00     0.026 H 
ATOM     42  H   LIG d   1       4.924  -0.576  -1.742  0.00  0.00     0.026 H 
BRANCH  40  43
ATOM     43  C   LIG d   1       5.624   1.147  -2.831  0.00  0.00    -0.053 C 
ATOM     44  H   LIG d   1       5.118   1.479  -3.737  0.00  0.00     0.026 H 
ATOM     45  H   LIG d   1       6.054   2.008  -2.319  0.00  0.00     0.026 H 
BRANCH  43  46
ATOM     46  C   LIG d   1       6.736   0.164  -3.199  0.00  0.00    -0.048 C 
ATOM     47  H   LIG d   1       7.519   0.200  -2.441  0.00  0.00     0.027 H 
ATOM     48  H   LIG d   1       6.328  -0.845  -3.251  0.00  0.00     0.027 H 
BRANCH  46  49
ATOM     49  C   LIG d   1       7.326   0.547  -4.558  0.00  0.00    -0.013 C 
ATOM     50  H   LIG d   1       7.935  -0.276  -4.934  0.00  0.00     0.033 H 
ATOM     51  H   LIG d   1       6.519   0.752  -5.260  0.00  0.00     0.033 H 
BRANCH  49  52
ATOM     52  C   LIG d   1       8.184   1.777  -4.405  0.00  0.00     0.042 C 
ATOM     53  O   LIG d   1       9.037   1.820  -3.534  0.00  0.00    -0.550 OA
ATOM     54  O   LIG d   1       8.025   2.728  -5.150  0.00  0.00    -0.550 OA
ENDBRANCH  49  52
ENDBRANCH  46  49
ENDBRANCH  43  46
ENDBRANCH  40  43
ENDBRANCH  37  40
ENDBRANCH  34  37
ENDBRANCH  31  34
ENDBRANCH   2  31
TORSDOF 17
ENDMDL
MODEL 7
REMARK VINA RESULT:      -5.1      2.198      3.676
REMARK  17 active torsions:
REMARK  status: ('A' for Active; 'I' for Inactive)
REMARK    1  A    between atoms: C_1  and  C_2 
REMARK    2  A    between atoms: C_2  and  C_3 
REMARK    3  A    between atoms: C_3  and  C_4 
REMARK    4  A    between atoms: C_4  and  C_5 
REMARK    5  A    between atoms: C_5  and  C_6 
REMARK    6  A    between atoms: C_6  and  C_7 
REMARK    7  A    between atoms: C_7  and  C_9 
REMARK    8  A    between atoms: C_7  and  O_22 
REMARK    9  A    between atoms: C_9  and  C_10 
REMARK   10  A    between atoms: C_11  and  C_12 
REMARK   11  A    between atoms: C_12  and  C_13 
REMARK   12  A    between atoms: C_13  and  C_14 
REMARK   13  A    between atoms: C_14  and  C_15 
REMARK   14  A    between atoms: C_15  and  C_16 
REMARK   15  A    between atoms: C_16  and  C_17 
REMARK   16  A    between atoms: C_17  and  C_18 
REMARK   17  A    between atoms: C_18  and  C_19 
ROOT
ATOM      1  C   LIG d   1       2.984   1.385  -7.710  0.00  0.00    -0.086 C 
ATOM      2  C   LIG d   1       2.927   0.154  -7.265  0.00  0.00    -0.088 C 
ATOM      3  H   LIG d   1       3.360   2.172  -7.073  0.00  0.00     0.057 H 
ATOM      4  H   LIG d   1       2.551  -0.634  -7.902  0.00  0.00     0.057 H 
ENDROOT
BRANCH   1   5
ATOM      5  C   LIG d   1       2.525   1.703  -9.110  0.00  0.00    -0.009 C 
ATOM      6  H   LIG d   1       1.731   2.450  -9.071  0.00  0.00     0.033 H 
ATOM      7  H   LIG d   1       2.147   0.797  -9.582  0.00  0.00     0.033 H 
BRANCH   5   8
ATOM      8  C   LIG d   1       3.701   2.250  -9.921  0.00  0.00     0.059 C 
ATOM      9  H   LIG d   1       3.327   2.915 -10.699  0.00  0.00     0.060 H 
BRANCH   8  10
ATOM     10  C   LIG d   1       4.460   1.087 -10.564  0.00  0.00    -0.027 C 
ATOM     11  H   LIG d   1       5.001   0.535  -9.795  0.00  0.00     0.029 H 
ATOM     12  H   LIG d   1       5.166   1.475 -11.298  0.00  0.00     0.029 H 
BRANCH  10  13
ATOM     13  C   LIG d   1       3.466   0.152 -11.257  0.00  0.00    -0.051 C 
ATOM     14  H   LIG d   1       3.621   0.191 -12.335  0.00  0.00     0.027 H 
ATOM     15  H   LIG d   1       2.449   0.466 -11.024  0.00  0.00     0.027 H 
BRANCH  13  16
ATOM     16  C   LIG d   1       3.683  -1.280 -10.763  0.00  0.00    -0.053 C 
ATOM     17  H   LIG d   1       4.083  -1.258  -9.749  0.00  0.00     0.026 H 
ATOM     18  H   LIG d   1       4.389  -1.788 -11.419  0.00  0.00     0.026 H 
BRANCH  16  19
ATOM     19  C   LIG d   1       2.350  -2.030 -10.770  0.00  0.00    -0.053 C 
ATOM     20  H   LIG d   1       2.111  -2.357  -9.757  0.00  0.00     0.026 H 
ATOM     21  H   LIG d   1       2.426  -2.899 -11.423  0.00  0.00     0.026 H 
BRANCH  19  22
ATOM     22  C   LIG d   1       1.245  -1.104 -11.281  0.00  0.00    -0.056 C 
ATOM     23  H   LIG d   1       1.687  -0.173 -11.637  0.00  0.00     0.026 H 
ATOM     24  H   LIG d   1       0.548  -0.888 -10.471  0.00  0.00     0.026 H 
BRANCH  22  25
ATOM     25  C   LIG d   1       0.498  -1.786 -12.429  0.00  0.00    -0.065 C 
ATOM     26  H   LIG d   1       0.608  -1.193 -13.337  0.00  0.00     0.023 H 
ATOM     27  H   LIG d   1       0.912  -2.781 -12.591  0.00  0.00     0.023 H 
ATOM     28  H   LIG d   1      -0.559  -1.869 -12.175  0.00  0.00     0.023 H 
ENDBRANCH  22  25
ENDBRANCH  19  22
ENDBRANCH  16  19
ENDBRANCH  13  16
ENDBRANCH  10  13
ENDBRANCH   8  10
BRANCH   8  29
ATOM     29  O   LIG d   1       4.580   2.972  -9.056  0.00  0.00    -0.392 OA
ATOM     30  H   LIG d   1       4.746   3.883  -9.335  0.00  0.00     0.210 HD
ENDBRANCH   8  29
ENDBRANCH   5   8
ENDBRANCH   1   5
BRANCH   2  31
ATOM     31  C   LIG d   1       3.386  -0.164  -5.865  0.00  0.00    -0.035 C 
ATOM     32  H   LIG d   1       3.400  -1.244  -5.724  0.00  0.00     0.031 H 
ATOM     33  H   LIG d   1       4.389   0.237  -5.713  0.00  0.00     0.031 H 
BRANCH  31  34
ATOM     34  C   LIG d   1       2.426   0.470  -4.857  0.00  0.00    -0.050 C 
ATOM     35  H   LIG d   1       2.607   1.544  -4.808  0.00  0.00     0.027 H 
ATOM     36  H   LIG d   1       1.398   0.290  -5.172  0.00  0.00     0.027 H 
BRANCH  34  37
ATOM     37  C   LIG d   1       2.654  -0.149  -3.477  0.00  0.00    -0.053 C 
ATOM     38  H   LIG d   1       1.692  -0.386  -3.021  0.00  0.00     0.026 H 
ATOM     39  H   LIG d   1       3.241  -1.062  -3.580  0.00  0.00     0.026 H 
BRANCH  37  40
ATOM     40  C   LIG d   1       3.407   0.844  -2.590  0.00  0.00    -0.053 C 
ATOM     41  H   LIG d   1       3.846   1.625  -3.211  0.00  0.00     0.026 H 
ATOM     42  H   LIG d   1       2.713   1.294  -1.879  0.00  0.00     0.026 H 
BRANCH  40  43
ATOM     43  C   LIG d   1       4.515   0.113  -1.830  0.00  0.00    -0.053 C 
ATOM     44  H   LIG d   1       5.486   0.480  -2.162  0.00  0.00     0.026 H 
ATOM     45  H   LIG d   1       4.403   0.296  -0.761  0.00  0.00     0.026 H 
BRANCH  43  46
ATOM     46  C   LIG d   1       4.417  -1.389  -2.104  0.00  0.00    -0.048 C 
ATOM     47  H   LIG d   1       4.337  -1.926  -1.159  0.00  0.00     0.027 H 
ATOM     48  H   LIG d   1       3.535  -1.591  -2.712  0.00  0.00     0.027 H 
BRANCH  46  49
ATOM     49  C   LIG d   1       5.669  -1.853  -2.850  0.00  0.00    -0.013 C 
ATOM     50  H   LIG d   1       6.242  -0.984  -3.174  0.00  0.00     0.033 H 
ATOM     51  H   LIG d   1       6.281  -2.465  -2.187  0.00  0.00     0.033 H 
BRANCH  49  52
ATOM     52  C   LIG d   1       5.265  -2.665  -4.054  0.00  0.00     0.042 C 
ATOM     53  O   LIG d   1       5.872  -2.542  -5.104  0.00  0.00    -0.550 OA
ATOM     54  O   LIG d   1       4.331  -3.445  -3.978  0.00  0.00    -0.550 OA
ENDBRANCH  49  52
ENDBRANCH  46  49
ENDBRANCH  43  46
ENDBRANCH  40  43
ENDBRANCH  37  40
ENDBRANCH  34  37
ENDBRANCH  31  34
ENDBRANCH   2  31
TORSDOF 17
ENDMDL
MODEL 8
REMARK VINA RESULT:      -5.1      2.007      5.225
REMARK  17 active torsions:
REMARK  status: ('A' for Active; 'I' for Inactive)
REMARK    1  A    between atoms: C_1  and  C_2 
REMARK    2  A    between atoms: C_2  and  C_3 
REMARK    3  A    between atoms: C_3  and  C_4 
REMARK    4  A    between atoms: C_4  and  C_5 
REMARK    5  A    between atoms: C_5  and  C_6 
REMARK    6  A    between atoms: C_6  and  C_7 
REMARK    7  A    between atoms: C_7  and  C_9 
REMARK    8  A    between atoms: C_7  and  O_22 
REMARK    9  A    between atoms: C_9  and  C_10 
REMARK   10  A    between atoms: C_11  and  C_12 
REMARK   11  A    between atoms: C_12  and  C_13 
REMARK   12  A    between atoms: C_13  and  C_14 
REMARK   13  A    between atoms: C_14  and  C_15 
REMARK   14  A    between atoms: C_15  and  C_16 
REMARK   15  A    between atoms: C_16  and  C_17 
REMARK   16  A    between atoms: C_17  and  C_18 
REMARK   17  A    between atoms: C_18  and  C_19 
ROOT
ATOM      1  C   LIG d   1       6.325   0.602  -3.121  0.00  0.00    -0.086 C 
ATOM      2  C   LIG d   1       5.384   1.228  -2.458  0.00  0.00    -0.088 C 
ATOM      3  H   LIG d   1       6.339  -0.478  -3.148  0.00  0.00     0.057 H 
ATOM      4  H   LIG d   1       5.370   2.308  -2.430  0.00  0.00     0.057 H 
ENDROOT
BRANCH   1   5
ATOM      5  C   LIG d   1       7.388   1.388  -3.844  0.00  0.00    -0.009 C 
ATOM      6  H   LIG d   1       8.179   1.659  -3.144  0.00  0.00     0.033 H 
ATOM      7  H   LIG d   1       6.949   2.293  -4.263  0.00  0.00     0.033 H 
BRANCH   5   8
ATOM      8  C   LIG d   1       7.975   0.535  -4.971  0.00  0.00     0.059 C 
ATOM      9  H   LIG d   1       8.143   1.160  -5.849  0.00  0.00     0.060 H 
BRANCH   8  10
ATOM     10  C   LIG d   1       6.995  -0.586  -5.324  0.00  0.00    -0.027 C 
ATOM     11  H   LIG d   1       6.577  -0.406  -6.315  0.00  0.00     0.029 H 
ATOM     12  H   LIG d   1       6.190  -0.610  -4.589  0.00  0.00     0.029 H 
BRANCH  10  13
ATOM     13  C   LIG d   1       7.732  -1.927  -5.318  0.00  0.00    -0.051 C 
ATOM     14  H   LIG d   1       8.778  -1.766  -5.056  0.00  0.00     0.027 H 
ATOM     15  H   LIG d   1       7.671  -2.380  -6.307  0.00  0.00     0.027 H 
BRANCH  13  16
ATOM     16  C   LIG d   1       7.087  -2.859  -4.291  0.00  0.00    -0.053 C 
ATOM     17  H   LIG d   1       6.304  -2.324  -3.755  0.00  0.00     0.026 H 
ATOM     18  H   LIG d   1       7.844  -3.198  -3.582  0.00  0.00     0.026 H 
BRANCH  16  19
ATOM     19  C   LIG d   1       6.482  -4.068  -5.006  0.00  0.00    -0.053 C 
ATOM     20  H   LIG d   1       6.684  -4.971  -4.429  0.00  0.00     0.026 H 
ATOM     21  H   LIG d   1       6.927  -4.163  -5.996  0.00  0.00     0.026 H 
BRANCH  19  22
ATOM     22  C   LIG d   1       4.970  -3.876  -5.143  0.00  0.00    -0.056 C 
ATOM     23  H   LIG d   1       4.692  -2.896  -4.756  0.00  0.00     0.026 H 
ATOM     24  H   LIG d   1       4.454  -4.651  -4.576  0.00  0.00     0.026 H 
BRANCH  22  25
ATOM     25  C   LIG d   1       4.575  -3.973  -6.618  0.00  0.00    -0.065 C 
ATOM     26  H   LIG d   1       5.187  -3.287  -7.204  0.00  0.00     0.023 H 
ATOM     27  H   LIG d   1       4.733  -4.993  -6.970  0.00  0.00     0.023 H 
ATOM     28  H   LIG d   1       3.524  -3.709  -6.730  0.00  0.00     0.023 H 
ENDBRANCH  22  25
ENDBRANCH  19  22
ENDBRANCH  16  19
ENDBRANCH  13  16
ENDBRANCH  10  13
ENDBRANCH   8  10
BRANCH   8  29
ATOM     29  O   LIG d   1       9.214  -0.032  -4.543  0.00  0.00    -0.392 OA
ATOM     30  H   LIG d   1       9.120  -0.720  -3.870  0.00  0.00     0.210 HD
ENDBRANCH   8  29
ENDBRANCH   5   8
ENDBRANCH   1   5
BRANCH   2  31
ATOM     31  C   LIG d   1       4.321   0.442  -1.735  0.00  0.00    -0.035 C 
ATOM     32  H   LIG d   1       4.388   0.638  -0.666  0.00  0.00     0.031 H 
ATOM     33  H   LIG d   1       3.338   0.742  -2.099  0.00  0.00     0.031 H 
BRANCH  31  34
ATOM     34  C   LIG d   1       4.526  -1.052  -1.994  0.00  0.00    -0.050 C 
ATOM     35  H   LIG d   1       5.508  -1.212  -2.441  0.00  0.00     0.027 H 
ATOM     36  H   LIG d   1       4.463  -1.596  -1.052  0.00  0.00     0.027 H 
BRANCH  34  37
ATOM     37  C   LIG d   1       3.444  -1.557  -2.949  0.00  0.00    -0.053 C 
ATOM     38  H   LIG d   1       3.887  -1.767  -3.923  0.00  0.00     0.026 H 
ATOM     39  H   LIG d   1       3.000  -2.469  -2.548  0.00  0.00     0.026 H 
BRANCH  37  40
ATOM     40  C   LIG d   1       2.360  -0.488  -3.103  0.00  0.00    -0.053 C 
ATOM     41  H   LIG d   1       1.446  -0.825  -2.613  0.00  0.00     0.026 H 
ATOM     42  H   LIG d   1       2.697   0.440  -2.643  0.00  0.00     0.026 H 
BRANCH  40  43
ATOM     43  C   LIG d   1       2.083  -0.251  -4.589  0.00  0.00    -0.053 C 
ATOM     44  H   LIG d   1       1.773  -1.187  -5.054  0.00  0.00     0.026 H 
ATOM     45  H   LIG d   1       1.290   0.488  -4.697  0.00  0.00     0.026 H 
BRANCH  43  46
ATOM     46  C   LIG d   1       3.354   0.260  -5.270  0.00  0.00    -0.048 C 
ATOM     47  H   LIG d   1       3.280   1.338  -5.416  0.00  0.00     0.027 H 
ATOM     48  H   LIG d   1       4.217   0.037  -4.643  0.00  0.00     0.027 H 
BRANCH  46  49
ATOM     49  C   LIG d   1       3.517  -0.428  -6.627  0.00  0.00    -0.013 C 
ATOM     50  H   LIG d   1       4.578  -0.552  -6.845  0.00  0.00     0.033 H 
ATOM     51  H   LIG d   1       3.034  -1.404  -6.600  0.00  0.00     0.033 H 
BRANCH  49  52
ATOM     52  C   LIG d   1       2.880   0.419  -7.699  0.00  0.00     0.042 C 
ATOM     53  O   LIG d   1       3.037   1.628  -7.693  0.00  0.00    -0.550 OA
ATOM     54  O   LIG d   1       2.208  -0.104  -8.571  0.00  0.00    -0.550 OA
ENDBRANCH  49  52
ENDBRANCH  46  49
ENDBRANCH  43  46
ENDBRANCH  40  43
ENDBRANCH  37  40
ENDBRANCH  34  37
ENDBRANCH  31  34
ENDBRANCH   2  31
TORSDOF 17
ENDMDL
MODEL 9
REMARK VINA RESULT:      -5.0      2.470      6.661
REMARK  17 active torsions:
REMARK  status: ('A' for Active; 'I' for Inactive)
REMARK    1  A    between atoms: C_1  and  C_2 
REMARK    2  A    between atoms: C_2  and  C_3 
REMARK    3  A    between atoms: C_3  and  C_4 
REMARK    4  A    between atoms: C_4  and  C_5 
REMARK    5  A    between atoms: C_5  and  C_6 
REMARK    6  A    between atoms: C_6  and  C_7 
REMARK    7  A    between atoms: C_7  and  C_9 
REMARK    8  A    between atoms: C_7  and  O_22 
REMARK    9  A    between atoms: C_9  and  C_10 
REMARK   10  A    between atoms: C_11  and  C_12 
REMARK   11  A    between atoms: C_12  and  C_13 
REMARK   12  A    between atoms: C_13  and  C_14 
REMARK   13  A    between atoms: C_14  and  C_15 
REMARK   14  A    between atoms: C_15  and  C_16 
REMARK   15  A    between atoms: C_16  and  C_17 
REMARK   16  A    between atoms: C_17  and  C_18 
REMARK   17  A    between atoms: C_18  and  C_19 
ROOT
ATOM      1  C   LIG d   1       5.769  -0.754  -6.611  0.00  0.00    -0.086 C 
ATOM      2  C   LIG d   1       6.271  -1.023  -7.791  0.00  0.00    -0.088 C 
ATOM      3  H   LIG d   1       5.254   0.180  -6.444  0.00  0.00     0.057 H 
ATOM      4  H   LIG d   1       6.787  -1.958  -7.959  0.00  0.00     0.057 H 
ENDROOT
BRANCH   1   5
ATOM      5  C   LIG d   1       5.911  -1.748  -5.487  0.00  0.00    -0.009 C 
ATOM      6  H   LIG d   1       6.526  -1.317  -4.697  0.00  0.00     0.033 H 
ATOM      7  H   LIG d   1       6.386  -2.655  -5.862  0.00  0.00     0.033 H 
BRANCH   5   8
ATOM      8  C   LIG d   1       4.528  -2.088  -4.929  0.00  0.00     0.059 C 
ATOM      9  H   LIG d   1       3.897  -1.200  -4.958  0.00  0.00     0.060 H 
BRANCH   8  10
ATOM     10  C   LIG d   1       4.666  -2.570  -3.483  0.00  0.00    -0.027 C 
ATOM     11  H   LIG d   1       5.673  -2.358  -3.124  0.00  0.00     0.029 H 
ATOM     12  H   LIG d   1       4.482  -3.643  -3.439  0.00  0.00     0.029 H 
BRANCH  10  13
ATOM     13  C   LIG d   1       3.648  -1.841  -2.604  0.00  0.00    -0.051 C 
ATOM     14  H   LIG d   1       4.127  -1.530  -1.675  0.00  0.00     0.027 H 
ATOM     15  H   LIG d   1       2.817  -2.509  -2.379  0.00  0.00     0.027 H 
BRANCH  13  16
ATOM     16  C   LIG d   1       3.125  -0.608  -3.344  0.00  0.00    -0.053 C 
ATOM     17  H   LIG d   1       2.070  -0.745  -3.578  0.00  0.00     0.026 H 
ATOM     18  H   LIG d   1       3.687  -0.475  -4.270  0.00  0.00     0.026 H 
BRANCH  16  19
ATOM     19  C   LIG d   1       3.297   0.629  -2.461  0.00  0.00    -0.053 C 
ATOM     20  H   LIG d   1       2.572   0.598  -1.647  0.00  0.00     0.026 H 
ATOM     21  H   LIG d   1       3.134   1.526  -3.058  0.00  0.00     0.026 H 
BRANCH  19  22
ATOM     22  C   LIG d   1       4.713   0.652  -1.883  0.00  0.00    -0.056 C 
ATOM     23  H   LIG d   1       4.995  -0.355  -1.574  0.00  0.00     0.026 H 
ATOM     24  H   LIG d   1       4.742   1.318  -1.021  0.00  0.00     0.026 H 
BRANCH  22  25
ATOM     25  C   LIG d   1       5.691   1.151  -2.948  0.00  0.00    -0.065 C 
ATOM     26  H   LIG d   1       5.805   2.232  -2.858  0.00  0.00     0.023 H 
ATOM     27  H   LIG d   1       6.659   0.670  -2.808  0.00  0.00     0.023 H 
ATOM     28  H   LIG d   1       5.304   0.909  -3.938  0.00  0.00     0.023 H 
ENDBRANCH  22  25
ENDBRANCH  19  22
ENDBRANCH  16  19
ENDBRANCH  13  16
ENDBRANCH  10  13
ENDBRANCH   8  10
BRANCH   8  29
ATOM     29  O   LIG d   1       3.936  -3.120  -5.721  0.00  0.00    -0.392 OA
ATOM     30  H   LIG d   1       4.410  -3.963  -5.687  0.00  0.00     0.210 HD
ENDBRANCH   8  29
ENDBRANCH   5   8
ENDBRANCH   1   5
BRANCH   2  31
ATOM     31  C   LIG d   1       6.129  -0.029  -8.915  0.00  0.00    -0.035 C 
ATOM     32  H   LIG d   1       7.013  -0.071  -9.551  0.00  0.00     0.031 H 
ATOM     33  H   LIG d   1       5.245  -0.272  -9.504  0.00  0.00     0.031 H 
BRANCH  31  34
ATOM     34  C   LIG d   1       5.985   1.379  -8.335  0.00  0.00    -0.050 C 
ATOM     35  H   LIG d   1       5.542   1.319  -7.341  0.00  0.00     0.027 H 
ATOM     36  H   LIG d   1       6.967   1.847  -8.267  0.00  0.00     0.027 H 
BRANCH  34  37
ATOM     37  C   LIG d   1       5.083   2.215  -9.245  0.00  0.00    -0.053 C 
ATOM     38  H   LIG d   1       4.845   3.159  -8.754  0.00  0.00     0.026 H 
ATOM     39  H   LIG d   1       5.598   2.415 -10.185  0.00  0.00     0.026 H 
BRANCH  37  40
ATOM     40  C   LIG d   1       3.789   1.448  -9.525  0.00  0.00    -0.053 C 
ATOM     41  H   LIG d   1       3.242   1.941 -10.329  0.00  0.00     0.026 H 
ATOM     42  H   LIG d   1       4.030   0.427  -9.824  0.00  0.00     0.026 H 
BRANCH  40  43
ATOM     43  C   LIG d   1       2.926   1.421  -8.262  0.00  0.00    -0.053 C 
ATOM     44  H   LIG d   1       3.489   1.843  -7.430  0.00  0.00     0.026 H 
ATOM     45  H   LIG d   1       2.024   2.009  -8.427  0.00  0.00     0.026 H 
BRANCH  43  46
ATOM     46  C   LIG d   1       2.542  -0.024  -7.938  0.00  0.00    -0.048 C 
ATOM     47  H   LIG d   1       3.395  -0.535  -7.492  0.00  0.00     0.027 H 
ATOM     48  H   LIG d   1       1.708  -0.029  -7.236  0.00  0.00     0.027 H 
BRANCH  46  49
ATOM     49  C   LIG d   1       2.131  -0.743  -9.224  0.00  0.00    -0.013 C 
ATOM     50  H   LIG d   1       1.086  -1.045  -9.153  0.00  0.00     0.033 H 
ATOM     51  H   LIG d   1       2.259  -0.072 -10.073  0.00  0.00     0.033 H 
BRANCH  49  52
ATOM     52  C   LIG d   1       2.994  -1.965  -9.414  0.00  0.00     0.042 C 
ATOM     53  O   LIG d   1       3.423  -2.241 -10.521  0.00  0.00    -0.550 OA
ATOM     54  O   LIG d   1       3.262  -2.676  -8.461  0.00  0.00    -0.550 OA
ENDBRANCH  49  52
ENDBRANCH  46  49
ENDBRANCH  43  46
ENDBRANCH  40  43
ENDBRANCH  37  40
ENDBRANCH  34  37
ENDBRANCH  31  34
ENDBRANCH   2  31
TORSDOF 17
ENDMDL
