MODEL 1
REMARK VINA RESULT:      -5.0      0.000      0.000
REMARK  4 active torsions:
REMARK  status: ('A' for Active; 'I' for Inactive)
REMARK    1  A    between atoms: C_1  and  C_2 
REMARK    2  A    between atoms: C_5  and  S_8 
REMARK    3  A    between atoms: S_8  and  N_11 
REMARK    4  A    between atoms: C_13  and  C_15 
ROOT
ATOM      1  C   LIG d   1       4.681  -0.211  -2.482  0.00  0.00    -0.050 A 
ATOM      2  C   LIG d   1       5.414  -0.097  -3.647  0.00  0.00    -0.057 A 
ATOM      3  C   LIG d   1       5.525  -1.178  -4.503  0.00  0.00    -0.035 A 
ATOM      4  C   LIG d   1       4.902  -2.372  -4.192  0.00  0.00     0.105 A 
ATOM      5  C   LIG d   1       4.164  -2.484  -3.030  0.00  0.00    -0.035 A 
ATOM      6  C   LIG d   1       4.057  -1.405  -2.172  0.00  0.00    -0.057 A 
ATOM      7  H   LIG d   1       5.902   0.835  -3.890  0.00  0.00     0.062 H 
ATOM      8  H   LIG d   1       6.099  -1.088  -5.413  0.00  0.00     0.064 H 
ATOM      9  H   LIG d   1       3.673  -3.416  -2.788  0.00  0.00     0.064 H 
ATOM     10  H   LIG d   1       3.483  -1.494  -1.260  0.00  0.00     0.062 H 
ENDROOT
BRANCH   4  11
ATOM     11  S   LIG d   1       5.043  -3.748  -5.283  0.00  0.00     0.061 S 
ATOM     12  O   LIG d   1       4.258  -4.792  -4.723  0.00  0.00    -0.153 OA
ATOM     13  O   LIG d   1       4.824  -3.251  -6.596  0.00  0.00    -0.153 OA
BRANCH  11  14
ATOM     14  N   LIG d   1       6.617  -4.258  -5.226  0.00  0.00    -0.171 N 
ATOM     15  C   LIG d   1       8.037  -3.920  -5.099  0.00  0.00     0.043 A 
ATOM     16  C   LIG d   1       7.573  -5.369  -5.259  0.00  0.00     0.038 A 
ATOM     17  H   LIG d   1       8.520  -3.440  -5.951  0.00  0.00     0.049 H 
ATOM     18  H   LIG d   1       7.630  -6.014  -4.382  0.00  0.00     0.046 H 
ATOM     19  H   LIG d   1       7.748  -5.856  -6.218  0.00  0.00     0.046 H 
BRANCH  15  20
ATOM     20  C   LIG d   1       8.544  -3.489  -3.721  0.00  0.00    -0.047 C 
ATOM     21  H   LIG d   1       8.130  -2.512  -3.471  0.00  0.00     0.025 H 
ATOM     22  H   LIG d   1       8.229  -4.218  -2.975  0.00  0.00     0.025 H 
ATOM     23  H   LIG d   1       9.631  -3.430  -3.735  0.00  0.00     0.025 H 
ENDBRANCH  15  20
ENDBRANCH  11  14
ENDBRANCH   4  11
BRANCH   1  24
ATOM     24  C   LIG d   1       4.561   0.967  -1.548  0.00  0.00    -0.040 C 
ATOM     25  H   LIG d   1       3.657   0.864  -0.948  0.00  0.00     0.028 H 
ATOM     26  H   LIG d   1       5.431   1.000  -0.893  0.00  0.00     0.028 H 
ATOM     27  H   LIG d   1       4.509   1.887  -2.130  0.00  0.00     0.028 H 
ENDBRANCH   1  24
TORSDOF 4
ENDMDL
MODEL 2
REMARK VINA RESULT:      -5.0      1.917      2.919
REMARK  4 active torsions:
REMARK  status: ('A' for Active; 'I' for Inactive)
REMARK    1  A    between atoms: C_1  and  C_2 
REMARK    2  A    between atoms: C_5  and  S_8 
REMARK    3  A    between atoms: S_8  and  N_11 
REMARK    4  A    between atoms: C_13  and  C_15 
ROOT
ATOM      1  C   LIG d   1       4.767  -0.264  -2.427  0.00  0.00    -0.050 A 
ATOM      2  C   LIG d   1       3.966  -1.380  -2.271  0.00  0.00    -0.057 A 
ATOM      3  C   LIG d   1       4.142  -2.477  -3.093  0.00  0.00    -0.035 A 
ATOM      4  C   LIG d   1       5.120  -2.459  -4.070  0.00  0.00     0.105 A 
ATOM      5  C   LIG d   1       5.924  -1.346  -4.222  0.00  0.00    -0.035 A 
ATOM      6  C   LIG d   1       5.745  -0.247  -3.403  0.00  0.00    -0.057 A 
ATOM      7  H   LIG d   1       3.202  -1.394  -1.508  0.00  0.00     0.062 H 
ATOM      8  H   LIG d   1       3.516  -3.349  -2.971  0.00  0.00     0.064 H 
ATOM      9  H   LIG d   1       6.690  -1.332  -4.983  0.00  0.00     0.064 H 
ATOM     10  H   LIG d   1       6.371   0.626  -3.525  0.00  0.00     0.062 H 
ENDROOT
BRANCH   4  11
ATOM     11  S   LIG d   1       5.344  -3.858  -5.118  0.00  0.00     0.061 S 
ATOM     12  O   LIG d   1       6.704  -4.249  -4.986  0.00  0.00    -0.153 OA
ATOM     13  O   LIG d   1       4.267  -4.745  -4.848  0.00  0.00    -0.153 OA
BRANCH  11  14
ATOM     14  N   LIG d   1       5.150  -3.338  -6.678  0.00  0.00    -0.171 N 
ATOM     15  C   LIG d   1       4.279  -2.758  -7.703  0.00  0.00     0.043 A 
ATOM     16  C   LIG d   1       5.733  -3.126  -8.006  0.00  0.00     0.038 A 
ATOM     17  H   LIG d   1       3.494  -3.392  -8.116  0.00  0.00     0.049 H 
ATOM     18  H   LIG d   1       6.445  -2.309  -8.122  0.00  0.00     0.046 H 
ATOM     19  H   LIG d   1       5.917  -4.006  -8.623  0.00  0.00     0.046 H 
BRANCH  15  20
ATOM     20  C   LIG d   1       3.937  -1.271  -7.586  0.00  0.00    -0.047 C 
ATOM     21  H   LIG d   1       4.855  -0.684  -7.617  0.00  0.00     0.025 H 
ATOM     22  H   LIG d   1       3.292  -0.981  -8.415  0.00  0.00     0.025 H 
ATOM     23  H   LIG d   1       3.421  -1.090  -6.643  0.00  0.00     0.025 H 
ENDBRANCH  15  20
ENDBRANCH  11  14
ENDBRANCH   4  11
BRANCH   1  24
ATOM     24  C   LIG d   1       4.574   0.933  -1.531  0.00  0.00    -0.040 C 
ATOM     25  H   LIG d   1       4.836   0.666  -0.507  0.00  0.00     0.028 H 
ATOM     26  H   LIG d   1       5.214   1.747  -1.871  0.00  0.00     0.028 H 
ATOM     27  H   LIG d   1       3.532   1.250  -1.569  0.00  0.00     0.028 H 
ENDBRANCH   1  24
TORSDOF 4
ENDMDL
MODEL 3
REMARK VINA RESULT:      -4.9      3.900      4.760
REMARK  4 active torsions:
REMARK  status: ('A' for Active; 'I' for Inactive)
REMARK    1  A    between atoms: C_1  and  C_2 
REMARK    2  A    between atoms: C_5  and  S_8 
REMARK    3  A    between atoms: S_8  and  N_11 
REMARK    4  A    between atoms: C_13  and  C_15 
ROOT
ATOM      1  C   LIG d   1       3.677  -1.277  -3.643  0.00  0.00    -0.050 A 
ATOM      2  C   LIG d   1       4.447  -1.704  -4.708  0.00  0.00    -0.057 A 
ATOM      3  C   LIG d   1       4.282  -1.128  -5.954  0.00  0.00    -0.035 A 
ATOM      4  C   LIG d   1       3.347  -0.126  -6.134  0.00  0.00     0.105 A 
ATOM      5  C   LIG d   1       2.582   0.305  -5.068  0.00  0.00    -0.035 A 
ATOM      6  C   LIG d   1       2.743  -0.274  -3.823  0.00  0.00    -0.057 A 
ATOM      7  H   LIG d   1       5.177  -2.487  -4.568  0.00  0.00     0.062 H 
ATOM      8  H   LIG d   1       4.884  -1.462  -6.787  0.00  0.00     0.064 H 
ATOM      9  H   LIG d   1       1.854   1.090  -5.207  0.00  0.00     0.064 H 
ATOM     10  H   LIG d   1       2.141   0.059  -2.989  0.00  0.00     0.062 H 
ENDROOT
BRANCH   4  11
ATOM     11  S   LIG d   1       3.138   0.608  -7.723  0.00  0.00     0.061 S 
ATOM     12  O   LIG d   1       2.242  -0.230  -8.441  0.00  0.00    -0.153 OA
ATOM     13  O   LIG d   1       2.881   1.988  -7.503  0.00  0.00    -0.153 OA
BRANCH  11  14
ATOM     14  N   LIG d   1       4.597   0.516  -8.500  0.00  0.00    -0.171 N 
ATOM     15  C   LIG d   1       5.938   1.067  -8.711  0.00  0.00     0.043 A 
ATOM     16  C   LIG d   1       5.461  -0.179  -9.458  0.00  0.00     0.038 A 
ATOM     17  H   LIG d   1       6.019   2.001  -9.269  0.00  0.00     0.049 H 
ATOM     18  H   LIG d   1       5.882  -1.138  -9.157  0.00  0.00     0.046 H 
ATOM     19  H   LIG d   1       5.225  -0.078 -10.518  0.00  0.00     0.046 H 
BRANCH  15  20
ATOM     20  C   LIG d   1       6.969   0.871  -7.597  0.00  0.00    -0.047 C 
ATOM     21  H   LIG d   1       7.653   0.069  -7.873  0.00  0.00     0.025 H 
ATOM     22  H   LIG d   1       7.531   1.795  -7.456  0.00  0.00     0.025 H 
ATOM     23  H   LIG d   1       6.459   0.611  -6.670  0.00  0.00     0.025 H 
ENDBRANCH  15  20
ENDBRANCH  11  14
ENDBRANCH   4  11
BRANCH   1  24
ATOM     24  C   LIG d   1       3.856  -1.906  -2.284  0.00  0.00    -0.040 C 
ATOM     25  H   LIG d   1       3.950  -1.123  -1.532  0.00  0.00     0.028 H 
ATOM     26  H   LIG d   1       2.991  -2.528  -2.056  0.00  0.00     0.028 H 
ATOM     27  H   LIG d   1       4.756  -2.520  -2.284  0.00  0.00     0.028 H 
ENDBRANCH   1  24
TORSDOF 4
ENDMDL
MODEL 4
REMARK VINA RESULT:      -4.8      4.168      5.714
REMARK  4 active torsions:
REMARK  status: ('A' for Active; 'I' for Inactive)
REMARK    1  A    between atoms: C_1  and  C_2 
REMARK    2  A    between atoms: C_5  and  S_8 
REMARK    3  A    between atoms: S_8  and  N_11 
REMARK    4  A    between atoms: C_13  and  C_15 
ROOT
ATOM      1  C   LIG d   1       2.276  -0.841  -9.465  0.00  0.00    -0.050 A 
ATOM      2  C   LIG d   1       2.399   0.300  -8.695  0.00  0.00    -0.057 A 
ATOM      3  C   LIG d   1       3.213   0.295  -7.577  0.00  0.00    -0.035 A 
ATOM      4  C   LIG d   1       3.904  -0.851  -7.230  0.00  0.00     0.105 A 
ATOM      5  C   LIG d   1       3.786  -1.990  -8.003  0.00  0.00    -0.035 A 
ATOM      6  C   LIG d   1       2.969  -1.986  -9.118  0.00  0.00    -0.057 A 
ATOM      7  H   LIG d   1       1.858   1.195  -8.965  0.00  0.00     0.062 H 
ATOM      8  H   LIG d   1       3.308   1.187  -6.975  0.00  0.00     0.064 H 
ATOM      9  H   LIG d   1       4.328  -2.884  -7.735  0.00  0.00     0.064 H 
ATOM     10  H   LIG d   1       2.872  -2.878  -9.721  0.00  0.00     0.062 H 
ENDROOT
BRANCH   4  11
ATOM     11  S   LIG d   1       4.941  -0.856  -5.806  0.00  0.00     0.061 S 
ATOM     12  O   LIG d   1       5.478  -2.167  -5.700  0.00  0.00    -0.153 OA
ATOM     13  O   LIG d   1       5.764   0.299  -5.897  0.00  0.00    -0.153 OA
BRANCH  11  14
ATOM     14  N   LIG d   1       3.963  -0.638  -4.488  0.00  0.00    -0.171 N 
ATOM     15  C   LIG d   1       3.130  -1.229  -3.438  0.00  0.00     0.043 A 
ATOM     16  C   LIG d   1       3.326   0.284  -3.543  0.00  0.00     0.038 A 
ATOM     17  H   LIG d   1       2.164  -1.642  -3.732  0.00  0.00     0.049 H 
ATOM     18  H   LIG d   1       3.960   0.762  -2.796  0.00  0.00     0.046 H 
ATOM     19  H   LIG d   1       2.490   0.882  -3.906  0.00  0.00     0.046 H 
BRANCH  15  20
ATOM     20  C   LIG d   1       3.840  -1.955  -2.293  0.00  0.00    -0.047 C 
ATOM     21  H   LIG d   1       4.796  -2.342  -2.646  0.00  0.00     0.025 H 
ATOM     22  H   LIG d   1       4.010  -1.258  -1.472  0.00  0.00     0.025 H 
ATOM     23  H   LIG d   1       3.219  -2.780  -1.945  0.00  0.00     0.025 H 
ENDBRANCH  15  20
ENDBRANCH  11  14
ENDBRANCH   4  11
BRANCH   1  24
ATOM     24  C   LIG d   1       1.388  -0.836 -10.683  0.00  0.00    -0.040 C 
ATOM     25  H   LIG d   1       1.080   0.186 -10.903  0.00  0.00     0.028 H 
ATOM     26  H   LIG d   1       1.937  -1.242 -11.533  0.00  0.00     0.028 H 
ATOM     27  H   LIG d   1       0.508  -1.450 -10.492  0.00  0.00     0.028 H 
ENDBRANCH   1  24
TORSDOF 4
ENDMDL
MODEL 5
REMARK VINA RESULT:      -4.6      4.057      5.181
REMARK  4 active torsions:
REMARK  status: ('A' for Active; 'I' for Inactive)
REMARK    1  A    between atoms: C_1  and  C_2 
REMARK    2  A    between atoms: C_5  and  S_8 
REMARK    3  A    between atoms: S_8  and  N_11 
REMARK    4  A    between atoms: C_13  and  C_15 
ROOT
ATOM      1  C   LIG d   1       3.611   0.299  -3.945  0.00  0.00    -0.050 A 
ATOM      2  C   LIG d   1       4.664  -0.470  -4.401  0.00  0.00    -0.057 A 
ATOM      3  C   LIG d   1       4.711  -0.862  -5.727  0.00  0.00    -0.035 A 
ATOM      4  C   LIG d   1       3.704  -0.483  -6.595  0.00  0.00     0.105 A 
ATOM      5  C   LIG d   1       2.654   0.290  -6.140  0.00  0.00    -0.035 A 
ATOM      6  C   LIG d   1       2.605   0.678  -4.813  0.00  0.00    -0.057 A 
ATOM      7  H   LIG d   1       5.451  -0.767  -3.723  0.00  0.00     0.062 H 
ATOM      8  H   LIG d   1       5.534  -1.463  -6.083  0.00  0.00     0.064 H 
ATOM      9  H   LIG d   1       1.868   0.589  -6.818  0.00  0.00     0.064 H 
ATOM     10  H   LIG d   1       1.781   1.279  -4.456  0.00  0.00     0.062 H 
ENDROOT
BRANCH   4  11
ATOM     11  S   LIG d   1       3.764  -0.982  -8.284  0.00  0.00     0.061 S 
ATOM     12  O   LIG d   1       4.768  -1.984  -8.375  0.00  0.00    -0.153 OA
ATOM     13  O   LIG d   1       2.421  -1.211  -8.688  0.00  0.00    -0.153 OA
BRANCH  11  14
ATOM     14  N   LIG d   1       4.308   0.314  -9.158  0.00  0.00    -0.171 N 
ATOM     15  C   LIG d   1       4.001   1.549  -9.885  0.00  0.00     0.043 A 
ATOM     16  C   LIG d   1       5.437   1.040  -9.745  0.00  0.00     0.038 A 
ATOM     17  H   LIG d   1       3.517   1.456 -10.858  0.00  0.00     0.049 H 
ATOM     18  H   LIG d   1       6.099   1.581  -9.068  0.00  0.00     0.046 H 
ATOM     19  H   LIG d   1       5.913   0.609 -10.626  0.00  0.00     0.046 H 
BRANCH  15  20
ATOM     20  C   LIG d   1       3.604   2.777  -9.063  0.00  0.00    -0.047 C 
ATOM     21  H   LIG d   1       3.649   2.533  -8.001  0.00  0.00     0.025 H 
ATOM     22  H   LIG d   1       4.292   3.595  -9.277  0.00  0.00     0.025 H 
ATOM     23  H   LIG d   1       2.590   3.077  -9.324  0.00  0.00     0.025 H 
ENDBRANCH  15  20
ENDBRANCH  11  14
ENDBRANCH   4  11
BRANCH   1  24
ATOM     24  C   LIG d   1       3.560   0.725  -2.499  0.00  0.00    -0.040 C 
ATOM     25  H   LIG d   1       3.902  -0.094  -1.867  0.00  0.00     0.028 H 
ATOM     26  H   LIG d   1       4.205   1.591  -2.354  0.00  0.00     0.028 H 
ATOM     27  H   LIG d   1       2.535   0.986  -2.234  0.00  0.00     0.028 H 
ENDBRANCH   1  24
TORSDOF 4
ENDMDL
MODEL 6
REMARK VINA RESULT:      -4.6      3.341      4.965
REMARK  4 active torsions:
REMARK  status: ('A' for Active; 'I' for Inactive)
REMARK    1  A    between atoms: C_1  and  C_2 
REMARK    2  A    between atoms: C_5  and  S_8 
REMARK    3  A    between atoms: S_8  and  N_11 
REMARK    4  A    between atoms: C_13  and  C_15 
ROOT
ATOM      1  C   LIG d   1       3.001  -0.278  -8.363  0.00  0.00    -0.050 A 
ATOM      2  C   LIG d   1       2.755   0.401  -7.185  0.00  0.00    -0.057 A 
ATOM      3  C   LIG d   1       3.313  -0.045  -6.001  0.00  0.00    -0.035 A 
ATOM      4  C   LIG d   1       4.116  -1.170  -5.996  0.00  0.00     0.105 A 
ATOM      5  C   LIG d   1       4.366  -1.846  -7.174  0.00  0.00    -0.035 A 
ATOM      6  C   LIG d   1       3.805  -1.403  -8.358  0.00  0.00    -0.057 A 
ATOM      7  H   LIG d   1       2.128   1.279  -7.188  0.00  0.00     0.062 H 
ATOM      8  H   LIG d   1       3.121   0.486  -5.080  0.00  0.00     0.064 H 
ATOM      9  H   LIG d   1       4.996  -2.723  -7.171  0.00  0.00     0.064 H 
ATOM     10  H   LIG d   1       3.997  -1.934  -9.279  0.00  0.00     0.062 H 
ENDROOT
BRANCH   4  11
ATOM     11  S   LIG d   1       4.826  -1.738  -4.486  0.00  0.00     0.061 S 
ATOM     12  O   LIG d   1       3.751  -2.209  -3.685  0.00  0.00    -0.153 OA
ATOM     13  O   LIG d   1       5.930  -2.560  -4.840  0.00  0.00    -0.153 OA
BRANCH  11  14
ATOM     14  N   LIG d   1       5.449  -0.415  -3.710  0.00  0.00    -0.171 N 
ATOM     15  C   LIG d   1       5.218   0.877  -3.061  0.00  0.00     0.043 A 
ATOM     16  C   LIG d   1       6.623   0.286  -3.182  0.00  0.00     0.038 A 
ATOM     17  H   LIG d   1       4.962   1.725  -3.698  0.00  0.00     0.049 H 
ATOM     18  H   LIG d   1       7.083  -0.108  -2.276  0.00  0.00     0.046 H 
ATOM     19  H   LIG d   1       7.306   0.740  -3.900  0.00  0.00     0.046 H 
BRANCH  15  20
ATOM     20  C   LIG d   1       4.566   0.870  -1.677  0.00  0.00    -0.047 C 
ATOM     21  H   LIG d   1       3.844   0.054  -1.620  0.00  0.00     0.025 H 
ATOM     22  H   LIG d   1       5.333   0.729  -0.915  0.00  0.00     0.025 H 
ATOM     23  H   LIG d   1       4.057   1.818  -1.509  0.00  0.00     0.025 H 
ENDBRANCH  15  20
ENDBRANCH  11  14
ENDBRANCH   4  11
BRANCH   1  24
ATOM     24  C   LIG d   1       2.393   0.207  -9.654  0.00  0.00    -0.040 C 
ATOM     25  H   LIG d   1       1.365   0.523  -9.475  0.00  0.00     0.028 H 
ATOM     26  H   LIG d   1       2.971   1.050 -10.033  0.00  0.00     0.028 H 
ATOM     27  H   LIG d   1       2.404  -0.600 -10.386  0.00  0.00     0.028 H 
ENDBRANCH   1  24
TORSDOF 4
ENDMDL
MODEL 7
REMARK VINA RESULT:      -4.5      9.645     11.156
REMARK  4 active torsions:
REMARK  status: ('A' for Active; 'I' for Inactive)
REMARK    1  A    between atoms: C_1  and  C_2 
REMARK    2  A    between atoms: C_5  and  S_8 
REMARK    3  A    between atoms: S_8  and  N_11 
REMARK    4  A    between atoms: C_13  and  C_15 
ROOT
ATOM      1  C   LIG d   1       9.632   4.267  -4.356  0.00  0.00    -0.050 A 
ATOM      2  C   LIG d   1       9.997   4.101  -3.034  0.00  0.00    -0.057 A 
ATOM      3  C   LIG d   1      10.019   5.189  -2.181  0.00  0.00    -0.035 A 
ATOM      4  C   LIG d   1       9.677   6.443  -2.652  0.00  0.00     0.105 A 
ATOM      5  C   LIG d   1       9.308   6.609  -3.972  0.00  0.00    -0.035 A 
ATOM      6  C   LIG d   1       9.289   5.522  -4.826  0.00  0.00    -0.057 A 
ATOM      7  H   LIG d   1      10.265   3.122  -2.666  0.00  0.00     0.062 H 
ATOM      8  H   LIG d   1      10.304   5.059  -1.147  0.00  0.00     0.064 H 
ATOM      9  H   LIG d   1       9.037   7.588  -4.339  0.00  0.00     0.064 H 
ATOM     10  H   LIG d   1       9.005   5.651  -5.861  0.00  0.00     0.062 H 
ENDROOT
BRANCH   4  11
ATOM     11  S   LIG d   1       9.706   7.829  -1.564  0.00  0.00     0.061 S 
ATOM     12  O   LIG d   1      10.133   8.943  -2.337  0.00  0.00    -0.153 OA
ATOM     13  O   LIG d   1       8.473   7.819  -0.859  0.00  0.00    -0.153 OA
BRANCH  11  14
ATOM     14  N   LIG d   1      10.894   7.549  -0.445  0.00  0.00    -0.171 N 
ATOM     15  C   LIG d   1      11.258   7.213   0.934  0.00  0.00     0.043 A 
ATOM     16  C   LIG d   1      12.323   7.454  -0.137  0.00  0.00     0.038 A 
ATOM     17  H   LIG d   1      11.115   7.980   1.696  0.00  0.00     0.049 H 
ATOM     18  H   LIG d   1      12.866   6.585  -0.512  0.00  0.00     0.046 H 
ATOM     19  H   LIG d   1      12.893   8.382  -0.089  0.00  0.00     0.046 H 
BRANCH  15  20
ATOM     20  C   LIG d   1      11.035   5.771   1.396  0.00  0.00    -0.047 C 
ATOM     21  H   LIG d   1      11.562   5.090   0.727  0.00  0.00     0.025 H 
ATOM     22  H   LIG d   1      11.417   5.652   2.409  0.00  0.00     0.025 H 
ATOM     23  H   LIG d   1       9.970   5.545   1.380  0.00  0.00     0.025 H 
ENDBRANCH  15  20
ENDBRANCH  11  14
ENDBRANCH   4  11
BRANCH   1  24
ATOM     24  C   LIG d   1       9.608   3.081  -5.287  0.00  0.00    -0.040 C 
ATOM     25  H   LIG d   1       9.030   3.329  -6.176  0.00  0.00     0.028 H 
ATOM     26  H   LIG d   1      10.628   2.826  -5.575  0.00  0.00     0.028 H 
ATOM     27  H   LIG d   1       9.151   2.232  -4.780  0.00  0.00     0.028 H 
ENDBRANCH   1  24
TORSDOF 4
ENDMDL
MODEL 8
REMARK VINA RESULT:      -4.4      2.114      2.674
REMARK  4 active torsions:
REMARK  status: ('A' for Active; 'I' for Inactive)
REMARK    1  A    between atoms: C_1  and  C_2 
REMARK    2  A    between atoms: C_5  and  S_8 
REMARK    3  A    between atoms: S_8  and  N_11 
REMARK    4  A    between atoms: C_13  and  C_15 
ROOT
ATOM      1  C   LIG d   1       5.043  -0.108  -2.503  0.00  0.00    -0.050 A 
ATOM      2  C   LIG d   1       6.183   0.118  -3.250  0.00  0.00    -0.057 A 
ATOM      3  C   LIG d   1       6.678  -0.876  -4.074  0.00  0.00    -0.035 A 
ATOM      4  C   LIG d   1       6.032  -2.095  -4.151  0.00  0.00     0.105 A 
ATOM      5  C   LIG d   1       4.888  -2.319  -3.408  0.00  0.00    -0.035 A 
ATOM      6  C   LIG d   1       4.396  -1.327  -2.581  0.00  0.00    -0.057 A 
ATOM      7  H   LIG d   1       6.689   1.070  -3.190  0.00  0.00     0.062 H 
ATOM      8  H   LIG d   1       7.570  -0.699  -4.658  0.00  0.00     0.064 H 
ATOM      9  H   LIG d   1       4.381  -3.271  -3.471  0.00  0.00     0.064 H 
ATOM     10  H   LIG d   1       3.505  -1.503  -1.996  0.00  0.00     0.062 H 
ENDROOT
BRANCH   4  11
ATOM     11  S   LIG d   1       6.663  -3.362  -5.201  0.00  0.00     0.061 S 
ATOM     12  O   LIG d   1       7.085  -2.722  -6.398  0.00  0.00    -0.153 OA
ATOM     13  O   LIG d   1       7.540  -4.149  -4.408  0.00  0.00    -0.153 OA
BRANCH  11  14
ATOM     14  N   LIG d   1       5.390  -4.338  -5.611  0.00  0.00    -0.171 N 
ATOM     15  C   LIG d   1       4.123  -4.506  -6.328  0.00  0.00     0.043 A 
ATOM     16  C   LIG d   1       4.738  -5.647  -5.516  0.00  0.00     0.038 A 
ATOM     17  H   LIG d   1       3.243  -4.005  -5.923  0.00  0.00     0.049 H 
ATOM     18  H   LIG d   1       5.182  -6.475  -6.069  0.00  0.00     0.046 H 
ATOM     19  H   LIG d   1       4.266  -5.910  -4.569  0.00  0.00     0.046 H 
BRANCH  15  20
ATOM     20  C   LIG d   1       4.180  -4.613  -7.853  0.00  0.00    -0.047 C 
ATOM     21  H   LIG d   1       3.305  -5.155  -8.212  0.00  0.00     0.025 H 
ATOM     22  H   LIG d   1       4.192  -3.613  -8.287  0.00  0.00     0.025 H 
ATOM     23  H   LIG d   1       5.083  -5.147  -8.147  0.00  0.00     0.025 H 
ENDBRANCH  15  20
ENDBRANCH  11  14
ENDBRANCH   4  11
BRANCH   1  24
ATOM     24  C   LIG d   1       4.504   0.975  -1.604  0.00  0.00    -0.040 C 
ATOM     25  H   LIG d   1       3.422   0.875  -1.522  0.00  0.00     0.028 H 
ATOM     26  H   LIG d   1       4.954   0.883  -0.615  0.00  0.00     0.028 H 
ATOM     27  H   LIG d   1       4.749   1.951  -2.024  0.00  0.00     0.028 H 
ENDBRANCH   1  24
TORSDOF 4
ENDMDL
MODEL 9
REMARK VINA RESULT:      -4.3      2.178      5.023
REMARK  4 active torsions:
REMARK  status: ('A' for Active; 'I' for Inactive)
REMARK    1  A    between atoms: C_1  and  C_2 
REMARK    2  A    between atoms: C_5  and  S_8 
REMARK    3  A    between atoms: S_8  and  N_11 
REMARK    4  A    between atoms: C_13  and  C_15 
ROOT
ATOM      1  C   LIG d   1       8.213  -4.252  -4.430  0.00  0.00    -0.050 A 
ATOM      2  C   LIG d   1       8.330  -3.114  -3.655  0.00  0.00    -0.057 A 
ATOM      3  C   LIG d   1       7.435  -2.072  -3.816  0.00  0.00    -0.035 A 
ATOM      4  C   LIG d   1       6.423  -2.170  -4.753  0.00  0.00     0.105 A 
ATOM      5  C   LIG d   1       6.303  -3.310  -5.524  0.00  0.00    -0.035 A 
ATOM      6  C   LIG d   1       7.200  -4.350  -5.366  0.00  0.00    -0.057 A 
ATOM      7  H   LIG d   1       9.121  -3.037  -2.923  0.00  0.00     0.062 H 
ATOM      8  H   LIG d   1       7.527  -1.183  -3.211  0.00  0.00     0.064 H 
ATOM      9  H   LIG d   1       5.510  -3.388  -6.254  0.00  0.00     0.064 H 
ATOM     10  H   LIG d   1       7.109  -5.240  -5.972  0.00  0.00     0.062 H 
ENDROOT
BRANCH   4  11
ATOM     11  S   LIG d   1       5.283  -0.842  -4.959  0.00  0.00     0.061 S 
ATOM     12  O   LIG d   1       6.054   0.351  -5.004  0.00  0.00    -0.153 OA
ATOM     13  O   LIG d   1       4.403  -1.221  -6.008  0.00  0.00    -0.153 OA
BRANCH  11  14
ATOM     14  N   LIG d   1       4.370  -0.764  -3.580  0.00  0.00    -0.171 N 
ATOM     15  C   LIG d   1       4.276  -0.409  -2.162  0.00  0.00     0.043 A 
ATOM     16  C   LIG d   1       3.082  -0.993  -2.920  0.00  0.00     0.038 A 
ATOM     17  H   LIG d   1       4.791  -1.050  -1.446  0.00  0.00     0.049 H 
ATOM     18  H   LIG d   1       2.261  -0.318  -3.162  0.00  0.00     0.046 H 
ATOM     19  H   LIG d   1       2.799  -2.025  -2.707  0.00  0.00     0.046 H 
BRANCH  15  20
ATOM     20  C   LIG d   1       4.225   1.078  -1.804  0.00  0.00    -0.047 C 
ATOM     21  H   LIG d   1       4.856   1.639  -2.494  0.00  0.00     0.025 H 
ATOM     22  H   LIG d   1       3.198   1.434  -1.879  0.00  0.00     0.025 H 
ATOM     23  H   LIG d   1       4.585   1.219  -0.785  0.00  0.00     0.025 H 
ENDBRANCH  15  20
ENDBRANCH  11  14
ENDBRANCH   4  11
BRANCH   1  24
ATOM     24  C   LIG d   1       9.189  -5.387  -4.254  0.00  0.00    -0.040 C 
ATOM     25  H   LIG d   1       9.889  -5.397  -5.090  0.00  0.00     0.028 H 
ATOM     26  H   LIG d   1       9.739  -5.252  -3.322  0.00  0.00     0.028 H 
ATOM     27  H   LIG d   1       8.646  -6.332  -4.222  0.00  0.00     0.028 H 
ENDBRANCH   1  24
TORSDOF 4
ENDMDL
