MODEL 1
REMARK VINA RESULT:      -7.3      0.000      0.000
REMARK  6 active torsions:
REMARK  status: ('A' for Active; 'I' for Inactive)
REMARK    1  A    between atoms: C_1  and  O_2 
REMARK    2  A    between atoms: O_2  and  C_3 
REMARK    3  A    between atoms: C_6  and  C_11 
REMARK    4  A    between atoms: C_7  and  O_9 
REMARK    5  A    between atoms: O_9  and  C_10 
REMARK    6  A    between atoms: N_23  and  C_26 
ROOT
ATOM      1  C   LIG d   1       7.163   0.387  -4.993  0.00  0.00     0.071 C 
ATOM      2  C   LIG d   1       7.753   0.768  -6.173  0.00  0.00    -0.036 C 
ATOM      3  C   LIG d   1       8.491   1.979  -6.194  0.00  0.00     0.019 A 
ATOM      4  C   LIG d   1       8.944   2.516  -7.408  0.00  0.00    -0.048 A 
ATOM      5  C   LIG d   1       9.618   3.701  -7.415  0.00  0.00    -0.019 A 
ATOM      6  C   LIG d   1       9.866   4.387  -6.225  0.00  0.00     0.130 A 
ATOM      7  C   LIG d   1       9.441   3.864  -5.016  0.00  0.00     0.051 A 
ATOM      8  C   LIG d   1       8.764   2.655  -4.990  0.00  0.00     0.147 A 
ATOM      9  O   LIG d   1       8.381   2.110  -3.808  0.00  0.00    -0.421 OA
ATOM     10  C   LIG d   1       7.303   1.289  -3.838  0.00  0.00     0.345 C 
ATOM     11  O   LIG d   1       6.481   1.294  -2.941  0.00  0.00    -0.244 OA
ATOM     12  C   LIG d   1       9.702   4.595  -3.724  0.00  0.00     0.034 C 
ATOM     13  N   LIG d   1      10.756   5.599  -3.929  0.00  0.00    -0.261 N 
ATOM     14  C   LIG d   1      10.460   6.410  -5.120  0.00  0.00     0.144 C 
ATOM     15  O   LIG d   1      10.535   5.569  -6.274  0.00  0.00    -0.476 OA
ATOM     16  H   LIG d   1       7.659   0.160  -7.061  0.00  0.00     0.063 H 
ATOM     17  H   LIG d   1       8.761   1.991  -8.333  0.00  0.00     0.063 H 
ATOM     18  H   LIG d   1       9.962   4.114  -8.352  0.00  0.00     0.065 H 
ATOM     19  H   LIG d   1       8.788   5.091  -3.397  0.00  0.00     0.048 H 
ATOM     20  H   LIG d   1      10.021   3.883  -2.963  0.00  0.00     0.048 H 
ATOM     21  H   LIG d   1       9.456   6.828  -5.038  0.00  0.00     0.087 H 
ATOM     22  H   LIG d   1      11.189   7.216  -5.206  0.00  0.00     0.087 H 
ENDROOT
BRANCH   1  23
ATOM     23  C   LIG d   1       6.406  -0.882  -4.888  0.00  0.00     0.031 A 
ATOM     24  C   LIG d   1       7.079  -2.081  -4.659  0.00  0.00    -0.047 A 
ATOM     25  C   LIG d   1       6.372  -3.261  -4.562  0.00  0.00    -0.019 A 
ATOM     26  H   LIG d   1       8.154  -2.086  -4.559  0.00  0.00     0.063 H 
ATOM     27  C   LIG d   1       4.989  -3.258  -4.689  0.00  0.00     0.124 A 
ATOM     28  H   LIG d   1       6.895  -4.189  -4.385  0.00  0.00     0.065 H 
ATOM     29  C   LIG d   1       4.311  -2.071  -4.922  0.00  0.00     0.022 A 
ATOM     30  C   LIG d   1       5.012  -0.881  -5.017  0.00  0.00     0.132 A 
ATOM     31  H   LIG d   1       3.236  -2.074  -5.025  0.00  0.00     0.069 H 
BRANCH  27  32
ATOM     32  O   LIG d   1       4.298  -4.425  -4.591  0.00  0.00    -0.495 OA
BRANCH  32  33
ATOM     33  C   LIG d   1       4.685  -5.484  -5.468  0.00  0.00     0.079 C 
ATOM     34  H   LIG d   1       4.532  -5.174  -6.501  0.00  0.00     0.066 H 
ATOM     35  H   LIG d   1       5.738  -5.719  -5.312  0.00  0.00     0.066 H 
ATOM     36  H   LIG d   1       4.080  -6.367  -5.260  0.00  0.00     0.066 H 
ENDBRANCH  32  33
ENDBRANCH  27  32
BRANCH  30  37
ATOM     37  O   LIG d   1       4.350   0.284  -5.239  0.00  0.00    -0.494 OA
BRANCH  37  38
ATOM     38  C   LIG d   1       2.942   0.286  -4.993  0.00  0.00     0.079 C 
ATOM     39  H   LIG d   1       2.501  -0.627  -5.392  0.00  0.00     0.066 H 
ATOM     40  H   LIG d   1       2.760   0.339  -3.919  0.00  0.00     0.066 H 
ATOM     41  H   LIG d   1       2.489   1.151  -5.480  0.00  0.00     0.066 H 
ENDBRANCH  37  38
ENDBRANCH  30  37
ENDBRANCH   1  23
BRANCH  13  42
ATOM     42  C   LIG d   1      10.913   6.448  -2.739  0.00  0.00     0.035 C 
ATOM     43  H   LIG d   1      11.933   6.831  -2.694  0.00  0.00     0.048 H 
ATOM     44  C   LIG d   1       9.908   7.631  -2.803  0.00  0.00     0.081 C 
ATOM     45  S   LIG d   1       9.867   8.134  -1.030  0.00  0.00    -0.029 S 
ATOM     46  H   LIG d   1      10.286   8.438  -3.432  0.00  0.00     0.051 H 
ATOM     47  H   LIG d   1       8.926   7.298  -3.140  0.00  0.00     0.051 H 
ATOM     48  C   LIG d   1      10.458   6.574  -0.258  0.00  0.00     0.067 C 
ATOM     49  O   LIG d   1       8.518   8.359  -0.645  0.00  0.00    -0.174 OA
ATOM     50  O   LIG d   1      10.834   9.152  -0.814  0.00  0.00    -0.174 OA
ATOM     51  C   LIG d   1      10.610   5.629  -1.474  0.00  0.00    -0.016 C 
ATOM     52  H   LIG d   1       9.719   6.186   0.443  0.00  0.00     0.050 H 
ATOM     53  H   LIG d   1      11.418   6.725   0.236  0.00  0.00     0.050 H 
ATOM     54  H   LIG d   1       9.684   5.071  -1.617  0.00  0.00     0.030 H 
ATOM     55  H   LIG d   1      11.426   4.930  -1.290  0.00  0.00     0.030 H 
ENDBRANCH  13  42
TORSDOF 6
ENDMDL
MODEL 2
REMARK VINA RESULT:      -6.6      1.208      1.979
REMARK  6 active torsions:
REMARK  status: ('A' for Active; 'I' for Inactive)
REMARK    1  A    between atoms: C_1  and  O_2 
REMARK    2  A    between atoms: O_2  and  C_3 
REMARK    3  A    between atoms: C_6  and  C_11 
REMARK    4  A    between atoms: C_7  and  O_9 
REMARK    5  A    between atoms: O_9  and  C_10 
REMARK    6  A    between atoms: N_23  and  C_26 
ROOT
ATOM      1  C   LIG d   1       7.248   0.531  -5.039  0.00  0.00     0.071 C 
ATOM      2  C   LIG d   1       7.829   0.906  -6.225  0.00  0.00    -0.036 C 
ATOM      3  C   LIG d   1       8.564   2.119  -6.259  0.00  0.00     0.019 A 
ATOM      4  C   LIG d   1       9.007   2.651  -7.479  0.00  0.00    -0.048 A 
ATOM      5  C   LIG d   1       9.678   3.837  -7.498  0.00  0.00    -0.019 A 
ATOM      6  C   LIG d   1       9.935   4.530  -6.314  0.00  0.00     0.130 A 
ATOM      7  C   LIG d   1       9.520   4.012  -5.099  0.00  0.00     0.051 A 
ATOM      8  C   LIG d   1       8.845   2.802  -5.061  0.00  0.00     0.147 A 
ATOM      9  O   LIG d   1       8.473   2.263  -3.873  0.00  0.00    -0.421 OA
ATOM     10  C   LIG d   1       7.396   1.440  -3.890  0.00  0.00     0.345 C 
ATOM     11  O   LIG d   1       6.581   1.448  -2.986  0.00  0.00    -0.244 OA
ATOM     12  C   LIG d   1       9.790   4.751  -3.813  0.00  0.00     0.034 C 
ATOM     13  N   LIG d   1      10.840   5.755  -4.031  0.00  0.00    -0.261 N 
ATOM     14  C   LIG d   1      10.533   6.560  -5.225  0.00  0.00     0.144 C 
ATOM     15  O   LIG d   1      10.601   5.712  -6.374  0.00  0.00    -0.476 OA
ATOM     16  H   LIG d   1       7.729   0.294  -7.110  0.00  0.00     0.063 H 
ATOM     17  H   LIG d   1       8.818   2.120  -8.400  0.00  0.00     0.063 H 
ATOM     18  H   LIG d   1      10.014   4.245  -8.440  0.00  0.00     0.065 H 
ATOM     19  H   LIG d   1       8.877   5.246  -3.481  0.00  0.00     0.048 H 
ATOM     20  H   LIG d   1      10.116   4.044  -3.050  0.00  0.00     0.048 H 
ATOM     21  H   LIG d   1       9.529   6.976  -5.136  0.00  0.00     0.087 H 
ATOM     22  H   LIG d   1      11.260   7.366  -5.320  0.00  0.00     0.087 H 
ENDROOT
BRANCH   1  23
ATOM     23  C   LIG d   1       6.494  -0.738  -4.921  0.00  0.00     0.031 A 
ATOM     24  C   LIG d   1       5.116  -0.755  -5.130  0.00  0.00    -0.047 A 
ATOM     25  C   LIG d   1       4.416  -1.937  -5.019  0.00  0.00    -0.019 A 
ATOM     26  H   LIG d   1       4.596   0.159  -5.378  0.00  0.00     0.063 H 
ATOM     27  C   LIG d   1       5.081  -3.115  -4.702  0.00  0.00     0.124 A 
ATOM     28  H   LIG d   1       3.349  -1.949  -5.181  0.00  0.00     0.065 H 
ATOM     29  C   LIG d   1       6.451  -3.107  -4.487  0.00  0.00     0.022 A 
ATOM     30  C   LIG d   1       7.162  -1.925  -4.600  0.00  0.00     0.132 A 
ATOM     31  H   LIG d   1       6.963  -4.024  -4.236  0.00  0.00     0.069 H 
BRANCH  27  32
ATOM     32  O   LIG d   1       4.385  -4.278  -4.595  0.00  0.00    -0.495 OA
BRANCH  32  33
ATOM     33  C   LIG d   1       4.507  -5.207  -5.674  0.00  0.00     0.079 C 
ATOM     34  H   LIG d   1       4.244  -4.715  -6.609  0.00  0.00     0.066 H 
ATOM     35  H   LIG d   1       5.535  -5.566  -5.730  0.00  0.00     0.066 H 
ATOM     36  H   LIG d   1       3.837  -6.050  -5.505  0.00  0.00     0.066 H 
ENDBRANCH  32  33
ENDBRANCH  27  32
BRANCH  30  37
ATOM     37  O   LIG d   1       8.505  -1.916  -4.396  0.00  0.00    -0.494 OA
BRANCH  37  38
ATOM     38  C   LIG d   1       9.198  -3.153  -4.582  0.00  0.00     0.079 C 
ATOM     39  H   LIG d   1       8.494  -3.920  -4.900  0.00  0.00     0.066 H 
ATOM     40  H   LIG d   1       9.967  -3.027  -5.344  0.00  0.00     0.066 H 
ATOM     41  H   LIG d   1       9.664  -3.453  -3.642  0.00  0.00     0.066 H 
ENDBRANCH  37  38
ENDBRANCH  30  37
ENDBRANCH   1  23
BRANCH  13  42
ATOM     42  C   LIG d   1      11.005   6.611  -2.847  0.00  0.00     0.035 C 
ATOM     43  H   LIG d   1      10.920   7.659  -3.137  0.00  0.00     0.048 H 
ATOM     44  C   LIG d   1       9.915   6.265  -1.794  0.00  0.00     0.081 C 
ATOM     45  S   LIG d   1      10.681   6.969  -0.273  0.00  0.00    -0.029 S 
ATOM     46  H   LIG d   1       8.972   6.761  -2.025  0.00  0.00     0.051 H 
ATOM     47  H   LIG d   1       9.779   5.188  -1.705  0.00  0.00     0.051 H 
ATOM     48  C   LIG d   1      12.440   7.002  -0.806  0.00  0.00     0.067 C 
ATOM     49  O   LIG d   1      10.537   6.037   0.790  0.00  0.00    -0.174 OA
ATOM     50  O   LIG d   1      10.226   8.304  -0.099  0.00  0.00    -0.174 OA
ATOM     51  C   LIG d   1      12.382   6.358  -2.212  0.00  0.00    -0.016 C 
ATOM     52  H   LIG d   1      13.059   6.407  -0.134  0.00  0.00     0.050 H 
ATOM     53  H   LIG d   1      12.808   8.026  -0.866  0.00  0.00     0.050 H 
ATOM     54  H   LIG d   1      12.549   5.284  -2.125  0.00  0.00     0.030 H 
ATOM     55  H   LIG d   1      13.157   6.793  -2.842  0.00  0.00     0.030 H 
ENDBRANCH  13  42
TORSDOF 6
ENDMDL
MODEL 3
REMARK VINA RESULT:      -6.1      6.030      9.224
REMARK  6 active torsions:
REMARK  status: ('A' for Active; 'I' for Inactive)
REMARK    1  A    between atoms: C_1  and  O_2 
REMARK    2  A    between atoms: O_2  and  C_3 
REMARK    3  A    between atoms: C_6  and  C_11 
REMARK    4  A    between atoms: C_7  and  O_9 
REMARK    5  A    between atoms: O_9  and  C_10 
REMARK    6  A    between atoms: N_23  and  C_26 
ROOT
ATOM      1  C   LIG d   1       5.825  -8.134  -5.937  0.00  0.00     0.071 C 
ATOM      2  C   LIG d   1       7.140  -7.924  -5.602  0.00  0.00    -0.036 C 
ATOM      3  C   LIG d   1       7.562  -6.595  -5.342  0.00  0.00     0.019 A 
ATOM      4  C   LIG d   1       8.924  -6.296  -5.193  0.00  0.00    -0.048 A 
ATOM      5  C   LIG d   1       9.317  -5.008  -4.982  0.00  0.00    -0.019 A 
ATOM      6  C   LIG d   1       8.376  -3.979  -4.908  0.00  0.00     0.130 A 
ATOM      7  C   LIG d   1       7.026  -4.258  -5.035  0.00  0.00     0.051 A 
ATOM      8  C   LIG d   1       6.609  -5.564  -5.240  0.00  0.00     0.147 A 
ATOM      9  O   LIG d   1       5.287  -5.856  -5.322  0.00  0.00    -0.421 OA
ATOM     10  C   LIG d   1       4.951  -6.954  -6.042  0.00  0.00     0.345 C 
ATOM     11  O   LIG d   1       3.960  -6.967  -6.748  0.00  0.00    -0.244 OA
ATOM     12  C   LIG d   1       6.000  -3.156  -4.959  0.00  0.00     0.034 C 
ATOM     13  N   LIG d   1       6.600  -1.965  -4.343  0.00  0.00    -0.261 N 
ATOM     14  C   LIG d   1       7.885  -1.652  -4.988  0.00  0.00     0.144 C 
ATOM     15  O   LIG d   1       8.806  -2.707  -4.702  0.00  0.00    -0.476 OA
ATOM     16  H   LIG d   1       7.834  -8.749  -5.538  0.00  0.00     0.063 H 
ATOM     17  H   LIG d   1       9.659  -7.086  -5.244  0.00  0.00     0.063 H 
ATOM     18  H   LIG d   1      10.366  -4.781  -4.872  0.00  0.00     0.065 H 
ATOM     19  H   LIG d   1       5.655  -2.911  -5.963  0.00  0.00     0.048 H 
ATOM     20  H   LIG d   1       5.154  -3.490  -4.357  0.00  0.00     0.048 H 
ATOM     21  H   LIG d   1       7.743  -1.573  -6.066  0.00  0.00     0.087 H 
ATOM     22  H   LIG d   1       8.272  -0.711  -4.597  0.00  0.00     0.087 H 
ENDROOT
BRANCH   1  23
ATOM     23  C   LIG d   1       5.305  -9.498  -6.189  0.00  0.00     0.031 A 
ATOM     24  C   LIG d   1       5.714 -10.204  -7.321  0.00  0.00    -0.047 A 
ATOM     25  C   LIG d   1       5.230 -11.473  -7.554  0.00  0.00    -0.019 A 
ATOM     26  H   LIG d   1       6.411  -9.756  -8.014  0.00  0.00     0.063 H 
ATOM     27  C   LIG d   1       4.335 -12.053  -6.664  0.00  0.00     0.124 A 
ATOM     28  H   LIG d   1       5.547 -12.019  -8.430  0.00  0.00     0.065 H 
ATOM     29  C   LIG d   1       3.918 -11.357  -5.540  0.00  0.00     0.022 A 
ATOM     30  C   LIG d   1       4.403 -10.084  -5.294  0.00  0.00     0.132 A 
ATOM     31  H   LIG d   1       3.219 -11.810  -4.852  0.00  0.00     0.069 H 
BRANCH  27  32
ATOM     32  O   LIG d   1       3.862 -13.306  -6.899  0.00  0.00    -0.495 OA
BRANCH  32  33
ATOM     33  C   LIG d   1       2.444 -13.456  -6.993  0.00  0.00     0.079 C 
ATOM     34  H   LIG d   1       2.200 -14.501  -7.180  0.00  0.00     0.066 H 
ATOM     35  H   LIG d   1       1.982 -13.137  -6.059  0.00  0.00     0.066 H 
ATOM     36  H   LIG d   1       2.067 -12.843  -7.812  0.00  0.00     0.066 H 
ENDBRANCH  32  33
ENDBRANCH  27  32
BRANCH  30  37
ATOM     37  O   LIG d   1       4.001  -9.402  -4.190  0.00  0.00    -0.494 OA
BRANCH  37  38
ATOM     38  C   LIG d   1       3.359 -10.157  -3.160  0.00  0.00     0.079 C 
ATOM     39  H   LIG d   1       2.898 -11.045  -3.592  0.00  0.00     0.066 H 
ATOM     40  H   LIG d   1       4.097 -10.457  -2.416  0.00  0.00     0.066 H 
ATOM     41  H   LIG d   1       2.592  -9.544  -2.685  0.00  0.00     0.066 H 
ENDBRANCH  37  38
ENDBRANCH  30  37
ENDBRANCH   1  23
BRANCH  13  42
ATOM     42  C   LIG d   1       5.683  -0.818  -4.411  0.00  0.00     0.035 C 
ATOM     43  H   LIG d   1       6.056  -0.092  -5.135  0.00  0.00     0.048 H 
ATOM     44  C   LIG d   1       4.267  -1.302  -4.832  0.00  0.00     0.081 C 
ATOM     45  S   LIG d   1       3.242   0.117  -4.259  0.00  0.00    -0.029 S 
ATOM     46  H   LIG d   1       4.198  -1.426  -5.913  0.00  0.00     0.051 H 
ATOM     47  H   LIG d   1       3.994  -2.221  -4.314  0.00  0.00     0.051 H 
ATOM     48  C   LIG d   1       4.384   0.832  -3.008  0.00  0.00     0.067 C 
ATOM     49  O   LIG d   1       2.087  -0.385  -3.598  0.00  0.00    -0.174 OA
ATOM     50  O   LIG d   1       3.088   1.041  -5.327  0.00  0.00    -0.174 OA
ATOM     51  C   LIG d   1       5.572  -0.159  -3.026  0.00  0.00    -0.016 C 
ATOM     52  H   LIG d   1       3.914   0.854  -2.024  0.00  0.00     0.050 H 
ATOM     53  H   LIG d   1       4.708   1.829  -3.305  0.00  0.00     0.050 H 
ATOM     54  H   LIG d   1       5.413  -0.929  -2.271  0.00  0.00     0.030 H 
ATOM     55  H   LIG d   1       6.494   0.377  -2.805  0.00  0.00     0.030 H 
ENDBRANCH  13  42
TORSDOF 6
ENDMDL
MODEL 4
REMARK VINA RESULT:      -6.1      5.766      7.855
REMARK  6 active torsions:
REMARK  status: ('A' for Active; 'I' for Inactive)
REMARK    1  A    between atoms: C_1  and  O_2 
REMARK    2  A    between atoms: O_2  and  C_3 
REMARK    3  A    between atoms: C_6  and  C_11 
REMARK    4  A    between atoms: C_7  and  O_9 
REMARK    5  A    between atoms: O_9  and  C_10 
REMARK    6  A    between atoms: N_23  and  C_26 
ROOT
ATOM      1  C   LIG d   1      10.035   6.284  -7.111  0.00  0.00     0.071 C 
ATOM      2  C   LIG d   1       9.892   5.236  -6.236  0.00  0.00    -0.036 C 
ATOM      3  C   LIG d   1       9.886   5.518  -4.846  0.00  0.00     0.019 A 
ATOM      4  C   LIG d   1       9.945   4.477  -3.907  0.00  0.00    -0.048 A 
ATOM      5  C   LIG d   1       9.977   4.767  -2.575  0.00  0.00    -0.019 A 
ATOM      6  C   LIG d   1       9.949   6.091  -2.133  0.00  0.00     0.130 A 
ATOM      7  C   LIG d   1       9.874   7.129  -3.044  0.00  0.00     0.051 A 
ATOM      8  C   LIG d   1       9.830   6.852  -4.402  0.00  0.00     0.147 A 
ATOM      9  O   LIG d   1       9.712   7.860  -5.302  0.00  0.00    -0.421 OA
ATOM     10  C   LIG d   1      10.213   7.629  -6.541  0.00  0.00     0.345 C 
ATOM     11  O   LIG d   1      10.788   8.504  -7.161  0.00  0.00    -0.244 OA
ATOM     12  C   LIG d   1       9.844   8.563  -2.579  0.00  0.00     0.034 C 
ATOM     13  N   LIG d   1       9.489   8.613  -1.154  0.00  0.00    -0.261 N 
ATOM     14  C   LIG d   1      10.321   7.669  -0.391  0.00  0.00     0.144 C 
ATOM     15  O   LIG d   1       9.990   6.339  -0.797  0.00  0.00    -0.476 OA
ATOM     16  H   LIG d   1       9.787   4.222  -6.597  0.00  0.00     0.063 H 
ATOM     17  H   LIG d   1       9.962   3.450  -4.239  0.00  0.00     0.063 H 
ATOM     18  H   LIG d   1      10.027   3.963  -1.856  0.00  0.00     0.065 H 
ATOM     19  H   LIG d   1      10.827   9.012  -2.725  0.00  0.00     0.048 H 
ATOM     20  H   LIG d   1       9.104   9.116  -3.158  0.00  0.00     0.048 H 
ATOM     21  H   LIG d   1      11.374   7.862  -0.595  0.00  0.00     0.087 H 
ATOM     22  H   LIG d   1      10.124   7.786   0.675  0.00  0.00     0.087 H 
ENDROOT
BRANCH   1  23
ATOM     23  C   LIG d   1      10.017   6.068  -8.576  0.00  0.00     0.031 A 
ATOM     24  C   LIG d   1       8.836   6.252  -9.296  0.00  0.00    -0.047 A 
ATOM     25  C   LIG d   1       8.822   6.051 -10.660  0.00  0.00    -0.019 A 
ATOM     26  H   LIG d   1       7.933   6.552  -8.785  0.00  0.00     0.063 H 
ATOM     27  C   LIG d   1       9.981   5.666 -11.321  0.00  0.00     0.124 A 
ATOM     28  H   LIG d   1       7.907   6.193 -11.216  0.00  0.00     0.065 H 
ATOM     29  C   LIG d   1      11.158   5.476 -10.613  0.00  0.00     0.022 A 
ATOM     30  C   LIG d   1      11.183   5.680  -9.244  0.00  0.00     0.132 A 
ATOM     31  H   LIG d   1      12.057   5.173 -11.130  0.00  0.00     0.069 H 
BRANCH  27  32
ATOM     32  O   LIG d   1       9.961   5.471 -12.666  0.00  0.00    -0.495 OA
BRANCH  32  33
ATOM     33  C   LIG d   1       8.910   6.105 -13.398  0.00  0.00     0.079 C 
ATOM     34  H   LIG d   1       8.840   5.662 -14.391  0.00  0.00     0.066 H 
ATOM     35  H   LIG d   1       7.966   5.966 -12.871  0.00  0.00     0.066 H 
ATOM     36  H   LIG d   1       9.123   7.170 -13.489  0.00  0.00     0.066 H 
ENDBRANCH  32  33
ENDBRANCH  27  32
BRANCH  30  37
ATOM     37  O   LIG d   1      12.337   5.500  -8.549  0.00  0.00    -0.494 OA
BRANCH  37  38
ATOM     38  C   LIG d   1      13.395   6.428  -8.798  0.00  0.00     0.079 C 
ATOM     39  H   LIG d   1      14.267   5.894  -9.175  0.00  0.00     0.066 H 
ATOM     40  H   LIG d   1      13.070   7.160  -9.538  0.00  0.00     0.066 H 
ATOM     41  H   LIG d   1      13.655   6.940  -7.870  0.00  0.00     0.066 H 
ENDBRANCH  37  38
ENDBRANCH  30  37
ENDBRANCH   1  23
BRANCH  13  42
ATOM     42  C   LIG d   1       9.622   9.978  -0.626  0.00  0.00     0.035 C 
ATOM     43  H   LIG d   1       8.693  10.274  -0.137  0.00  0.00     0.048 H 
ATOM     44  C   LIG d   1      10.795  10.035   0.392  0.00  0.00     0.081 C 
ATOM     45  S   LIG d   1      11.134  11.847   0.413  0.00  0.00    -0.029 S 
ATOM     46  H   LIG d   1      10.482   9.682   1.375  0.00  0.00     0.051 H 
ATOM     47  H   LIG d   1      11.658   9.477   0.031  0.00  0.00     0.051 H 
ATOM     48  C   LIG d   1      10.390  12.314  -1.201  0.00  0.00     0.067 C 
ATOM     49  O   LIG d   1      12.539  12.054   0.353  0.00  0.00    -0.174 OA
ATOM     50  O   LIG d   1      10.384  12.447   1.460  0.00  0.00    -0.174 OA
ATOM     51  C   LIG d   1       9.936  10.951  -1.775  0.00  0.00    -0.016 C 
ATOM     52  H   LIG d   1      11.134  12.778  -1.850  0.00  0.00     0.050 H 
ATOM     53  H   LIG d   1       9.536  12.976  -1.057  0.00  0.00     0.050 H 
ATOM     54  H   LIG d   1      10.732  10.535  -2.393  0.00  0.00     0.030 H 
ATOM     55  H   LIG d   1       9.044  11.093  -2.384  0.00  0.00     0.030 H 
ENDBRANCH  13  42
TORSDOF 6
ENDMDL
MODEL 5
REMARK VINA RESULT:      -5.9      7.715     10.337
REMARK  6 active torsions:
REMARK  status: ('A' for Active; 'I' for Inactive)
REMARK    1  A    between atoms: C_1  and  O_2 
REMARK    2  A    between atoms: O_2  and  C_3 
REMARK    3  A    between atoms: C_6  and  C_11 
REMARK    4  A    between atoms: C_7  and  O_9 
REMARK    5  A    between atoms: O_9  and  C_10 
REMARK    6  A    between atoms: N_23  and  C_26 
ROOT
ATOM      1  C   LIG d   1       4.726  -7.333  -6.337  0.00  0.00     0.071 C 
ATOM      2  C   LIG d   1       4.384  -7.796  -7.583  0.00  0.00    -0.036 C 
ATOM      3  C   LIG d   1       3.882  -6.866  -8.531  0.00  0.00     0.019 A 
ATOM      4  C   LIG d   1       3.332  -7.310  -9.743  0.00  0.00    -0.048 A 
ATOM      5  C   LIG d   1       2.819  -6.407 -10.625  0.00  0.00    -0.019 A 
ATOM      6  C   LIG d   1       2.837  -5.041 -10.338  0.00  0.00     0.130 A 
ATOM      7  C   LIG d   1       3.390  -4.584  -9.155  0.00  0.00     0.051 A 
ATOM      8  C   LIG d   1       3.926  -5.488  -8.251  0.00  0.00     0.147 A 
ATOM      9  O   LIG d   1       4.511  -5.049  -7.109  0.00  0.00    -0.421 OA
ATOM     10  C   LIG d   1       4.508  -5.904  -6.057  0.00  0.00     0.345 C 
ATOM     11  O   LIG d   1       4.335  -5.505  -4.920  0.00  0.00    -0.244 OA
ATOM     12  C   LIG d   1       3.415  -3.111  -8.833  0.00  0.00     0.034 C 
ATOM     13  N   LIG d   1       3.189  -2.334 -10.059  0.00  0.00    -0.261 N 
ATOM     14  C   LIG d   1       2.015  -2.852 -10.780  0.00  0.00     0.144 C 
ATOM     15  O   LIG d   1       2.310  -4.172 -11.241  0.00  0.00    -0.476 OA
ATOM     16  H   LIG d   1       4.494  -8.841  -7.836  0.00  0.00     0.063 H 
ATOM     17  H   LIG d   1       3.318  -8.365  -9.976  0.00  0.00     0.063 H 
ATOM     18  H   LIG d   1       2.393  -6.753 -11.555  0.00  0.00     0.065 H 
ATOM     19  H   LIG d   1       2.631  -2.885  -8.110  0.00  0.00     0.048 H 
ATOM     20  H   LIG d   1       4.385  -2.849  -8.410  0.00  0.00     0.048 H 
ATOM     21  H   LIG d   1       1.158  -2.882 -10.107  0.00  0.00     0.087 H 
ATOM     22  H   LIG d   1       1.793  -2.208 -11.631  0.00  0.00     0.087 H 
ENDROOT
BRANCH   1  23
ATOM     23  C   LIG d   1       5.287  -8.239  -5.309  0.00  0.00     0.031 A 
ATOM     24  C   LIG d   1       4.453  -9.122  -4.624  0.00  0.00    -0.047 A 
ATOM     25  C   LIG d   1       4.978  -9.964  -3.667  0.00  0.00    -0.019 A 
ATOM     26  H   LIG d   1       3.396  -9.146  -4.844  0.00  0.00     0.063 H 
ATOM     27  C   LIG d   1       6.337  -9.938  -3.383  0.00  0.00     0.124 A 
ATOM     28  H   LIG d   1       4.331 -10.648  -3.138  0.00  0.00     0.065 H 
ATOM     29  C   LIG d   1       7.174  -9.059  -4.055  0.00  0.00     0.022 A 
ATOM     30  C   LIG d   1       6.656  -8.213  -5.021  0.00  0.00     0.132 A 
ATOM     31  H   LIG d   1       8.229  -9.037  -3.828  0.00  0.00     0.069 H 
BRANCH  27  32
ATOM     32  O   LIG d   1       6.849 -10.772  -2.440  0.00  0.00    -0.495 OA
BRANCH  32  33
ATOM     33  C   LIG d   1       7.882 -10.248  -1.603  0.00  0.00     0.079 C 
ATOM     34  H   LIG d   1       8.397 -11.068  -1.105  0.00  0.00     0.066 H 
ATOM     35  H   LIG d   1       8.593  -9.689  -2.211  0.00  0.00     0.066 H 
ATOM     36  H   LIG d   1       7.443  -9.587  -0.856  0.00  0.00     0.066 H 
ENDBRANCH  32  33
ENDBRANCH  27  32
BRANCH  30  37
ATOM     37  O   LIG d   1       7.475  -7.355  -5.684  0.00  0.00    -0.494 OA
BRANCH  37  38
ATOM     38  C   LIG d   1       8.095  -6.323  -4.913  0.00  0.00     0.079 C 
ATOM     39  H   LIG d   1       8.463  -6.740  -3.977  0.00  0.00     0.066 H 
ATOM     40  H   LIG d   1       8.929  -5.901  -5.476  0.00  0.00     0.066 H 
ATOM     41  H   LIG d   1       7.366  -5.540  -4.702  0.00  0.00     0.066 H 
ENDBRANCH  37  38
ENDBRANCH  30  37
ENDBRANCH   1  23
BRANCH  13  42
ATOM     42  C   LIG d   1       3.032  -0.905  -9.755  0.00  0.00     0.035 C 
ATOM     43  H   LIG d   1       1.979  -0.679  -9.581  0.00  0.00     0.048 H 
ATOM     44  C   LIG d   1       3.865  -0.542  -8.494  0.00  0.00     0.081 C 
ATOM     45  S   LIG d   1       4.001   1.285  -8.694  0.00  0.00    -0.029 S 
ATOM     46  H   LIG d   1       3.328  -0.798  -7.580  0.00  0.00     0.051 H 
ATOM     47  H   LIG d   1       4.846  -1.015  -8.518  0.00  0.00     0.051 H 
ATOM     48  C   LIG d   1       3.693   1.416 -10.502  0.00  0.00     0.067 C 
ATOM     49  O   LIG d   1       5.340   1.680  -8.424  0.00  0.00    -0.174 OA
ATOM     50  O   LIG d   1       2.934   1.910  -7.996  0.00  0.00    -0.174 OA
ATOM     51  C   LIG d   1       3.555  -0.064 -10.932  0.00  0.00    -0.016 C 
ATOM     52  H   LIG d   1       4.537   1.888 -11.005  0.00  0.00     0.050 H 
ATOM     53  H   LIG d   1       2.770   1.964 -10.699  0.00  0.00     0.050 H 
ATOM     54  H   LIG d   1       4.528  -0.442 -11.243  0.00  0.00     0.030 H 
ATOM     55  H   LIG d   1       2.857  -0.135 -11.766  0.00  0.00     0.030 H 
ENDBRANCH  13  42
TORSDOF 6
ENDMDL
MODEL 6
REMARK VINA RESULT:      -5.9      2.984      9.544
REMARK  6 active torsions:
REMARK  status: ('A' for Active; 'I' for Inactive)
REMARK    1  A    between atoms: C_1  and  O_2 
REMARK    2  A    between atoms: O_2  and  C_3 
REMARK    3  A    between atoms: C_6  and  C_11 
REMARK    4  A    between atoms: C_7  and  O_9 
REMARK    5  A    between atoms: O_9  and  C_10 
REMARK    6  A    between atoms: N_23  and  C_26 
ROOT
ATOM      1  C   LIG d   1      11.049   6.570  -2.254  0.00  0.00     0.071 C 
ATOM      2  C   LIG d   1      10.928   6.952  -3.567  0.00  0.00    -0.036 C 
ATOM      3  C   LIG d   1      10.436   6.003  -4.500  0.00  0.00     0.019 A 
ATOM      4  C   LIG d   1      10.479   6.270  -5.877  0.00  0.00    -0.048 A 
ATOM      5  C   LIG d   1      10.038   5.332  -6.763  0.00  0.00    -0.019 A 
ATOM      6  C   LIG d   1       9.540   4.107  -6.315  0.00  0.00     0.130 A 
ATOM      7  C   LIG d   1       9.474   3.834  -4.960  0.00  0.00     0.051 A 
ATOM      8  C   LIG d   1       9.908   4.781  -4.045  0.00  0.00     0.147 A 
ATOM      9  O   LIG d   1       9.808   4.543  -2.713  0.00  0.00    -0.421 OA
ATOM     10  C   LIG d   1      10.696   5.182  -1.913  0.00  0.00     0.345 C 
ATOM     11  O   LIG d   1      11.184   4.629  -0.945  0.00  0.00    -0.244 OA
ATOM     12  C   LIG d   1       8.938   2.515  -4.463  0.00  0.00     0.034 C 
ATOM     13  N   LIG d   1       8.176   1.858  -5.533  0.00  0.00    -0.261 N 
ATOM     14  C   LIG d   1       8.957   1.847  -6.780  0.00  0.00     0.144 C 
ATOM     15  O   LIG d   1       9.116   3.195  -7.229  0.00  0.00    -0.476 OA
ATOM     16  H   LIG d   1      11.199   7.950  -3.881  0.00  0.00     0.063 H 
ATOM     17  H   LIG d   1      10.859   7.216  -6.233  0.00  0.00     0.063 H 
ATOM     18  H   LIG d   1      10.077   5.538  -7.822  0.00  0.00     0.065 H 
ATOM     19  H   LIG d   1       9.769   1.876  -4.164  0.00  0.00     0.048 H 
ATOM     20  H   LIG d   1       8.287   2.688  -3.606  0.00  0.00     0.048 H 
ATOM     21  H   LIG d   1       9.936   1.405  -6.595  0.00  0.00     0.087 H 
ATOM     22  H   LIG d   1       8.429   1.269  -7.538  0.00  0.00     0.087 H 
ENDROOT
BRANCH   1  23
ATOM     23  C   LIG d   1      11.523   7.517  -1.219  0.00  0.00     0.031 A 
ATOM     24  C   LIG d   1      12.890   7.685  -0.999  0.00  0.00    -0.047 A 
ATOM     25  C   LIG d   1      13.330   8.567  -0.035  0.00  0.00    -0.019 A 
ATOM     26  H   LIG d   1      13.604   7.125  -1.584  0.00  0.00     0.063 H 
ATOM     27  C   LIG d   1      12.414   9.291   0.718  0.00  0.00     0.124 A 
ATOM     28  H   LIG d   1      14.388   8.697   0.134  0.00  0.00     0.065 H 
ATOM     29  C   LIG d   1      11.053   9.126   0.511  0.00  0.00     0.022 A 
ATOM     30  C   LIG d   1      10.603   8.246  -0.458  0.00  0.00     0.132 A 
ATOM     31  H   LIG d   1      10.344   9.687   1.101  0.00  0.00     0.069 H 
BRANCH  27  32
ATOM     32  O   LIG d   1      12.854  10.160   1.666  0.00  0.00    -0.495 OA
BRANCH  32  33
ATOM     33  C   LIG d   1      12.489   9.882   3.020  0.00  0.00     0.079 C 
ATOM     34  H   LIG d   1      11.414  10.007   3.140  0.00  0.00     0.066 H 
ATOM     35  H   LIG d   1      12.766   8.857   3.267  0.00  0.00     0.066 H 
ATOM     36  H   LIG d   1      13.011  10.570   3.685  0.00  0.00     0.066 H 
ENDBRANCH  32  33
ENDBRANCH  27  32
BRANCH  30  37
ATOM     37  O   LIG d   1       9.270   8.087  -0.668  0.00  0.00    -0.494 OA
BRANCH  37  38
ATOM     38  C   LIG d   1       8.483   9.276  -0.773  0.00  0.00     0.079 C 
ATOM     39  H   LIG d   1       9.101  10.088  -1.155  0.00  0.00     0.066 H 
ATOM     40  H   LIG d   1       7.651   9.101  -1.455  0.00  0.00     0.066 H 
ATOM     41  H   LIG d   1       8.097   9.545   0.210  0.00  0.00     0.066 H 
ENDBRANCH  37  38
ENDBRANCH  30  37
ENDBRANCH   1  23
BRANCH  13  42
ATOM     42  C   LIG d   1       7.788   0.495  -5.142  0.00  0.00     0.035 C 
ATOM     43  H   LIG d   1       8.643  -0.175  -5.248  0.00  0.00     0.048 H 
ATOM     44  C   LIG d   1       7.296   0.491  -3.668  0.00  0.00     0.081 C 
ATOM     45  S   LIG d   1       6.338  -1.083  -3.637  0.00  0.00    -0.029 S 
ATOM     46  H   LIG d   1       8.134   0.456  -2.972  0.00  0.00     0.051 H 
ATOM     47  H   LIG d   1       6.653   1.347  -3.464  0.00  0.00     0.051 H 
ATOM     48  C   LIG d   1       6.010  -1.275  -5.435  0.00  0.00     0.067 C 
ATOM     49  O   LIG d   1       5.106  -0.861  -2.963  0.00  0.00    -0.174 OA
ATOM     50  O   LIG d   1       7.190  -2.136  -3.206  0.00  0.00    -0.174 OA
ATOM     51  C   LIG d   1       6.634   0.008  -6.034  0.00  0.00    -0.016 C 
ATOM     52  H   LIG d   1       4.939  -1.312  -5.631  0.00  0.00     0.050 H 
ATOM     53  H   LIG d   1       6.506  -2.164  -5.827  0.00  0.00     0.050 H 
ATOM     54  H   LIG d   1       5.872   0.786  -6.096  0.00  0.00     0.030 H 
ATOM     55  H   LIG d   1       7.013  -0.206  -7.033  0.00  0.00     0.030 H 
ENDBRANCH  13  42
TORSDOF 6
ENDMDL
MODEL 7
REMARK VINA RESULT:      -5.9      4.227      9.339
REMARK  6 active torsions:
REMARK  status: ('A' for Active; 'I' for Inactive)
REMARK    1  A    between atoms: C_1  and  O_2 
REMARK    2  A    between atoms: O_2  and  C_3 
REMARK    3  A    between atoms: C_6  and  C_11 
REMARK    4  A    between atoms: C_7  and  O_9 
REMARK    5  A    between atoms: O_9  and  C_10 
REMARK    6  A    between atoms: N_23  and  C_26 
ROOT
ATOM      1  C   LIG d   1      10.781   5.980  -2.651  0.00  0.00     0.071 C 
ATOM      2  C   LIG d   1      10.328   4.694  -2.486  0.00  0.00    -0.036 C 
ATOM      3  C   LIG d   1       9.874   3.991  -3.632  0.00  0.00     0.019 A 
ATOM      4  C   LIG d   1       9.219   2.757  -3.497  0.00  0.00    -0.048 A 
ATOM      5  C   LIG d   1       8.754   2.113  -4.604  0.00  0.00    -0.019 A 
ATOM      6  C   LIG d   1       8.925   2.664  -5.875  0.00  0.00     0.130 A 
ATOM      7  C   LIG d   1       9.584   3.872  -6.028  0.00  0.00     0.051 A 
ATOM      8  C   LIG d   1      10.073   4.536  -4.914  0.00  0.00     0.147 A 
ATOM      9  O   LIG d   1      10.759   5.697  -5.055  0.00  0.00    -0.421 OA
ATOM     10  C   LIG d   1      10.724   6.554  -4.005  0.00  0.00     0.345 C 
ATOM     11  O   LIG d   1      10.653   7.758  -4.175  0.00  0.00    -0.244 OA
ATOM     12  C   LIG d   1       9.775   4.479  -7.395  0.00  0.00     0.034 C 
ATOM     13  N   LIG d   1       9.564   3.452  -8.425  0.00  0.00    -0.261 N 
ATOM     14  C   LIG d   1       8.307   2.730  -8.172  0.00  0.00     0.144 C 
ATOM     15  O   LIG d   1       8.442   1.994  -6.954  0.00  0.00    -0.476 OA
ATOM     16  H   LIG d   1      10.319   4.230  -1.510  0.00  0.00     0.063 H 
ATOM     17  H   LIG d   1       9.085   2.320  -2.519  0.00  0.00     0.063 H 
ATOM     18  H   LIG d   1       8.246   1.166  -4.496  0.00  0.00     0.065 H 
ATOM     19  H   LIG d   1       9.057   5.287  -7.536  0.00  0.00     0.048 H 
ATOM     20  H   LIG d   1      10.787   4.874  -7.477  0.00  0.00     0.048 H 
ATOM     21  H   LIG d   1       7.488   3.444  -8.080  0.00  0.00     0.087 H 
ATOM     22  H   LIG d   1       8.107   2.043  -8.995  0.00  0.00     0.087 H 
ENDROOT
BRANCH   1  23
ATOM     23  C   LIG d   1      11.301   6.763  -1.507  0.00  0.00     0.031 A 
ATOM     24  C   LIG d   1      12.661   6.734  -1.200  0.00  0.00    -0.047 A 
ATOM     25  C   LIG d   1      13.144   7.464  -0.135  0.00  0.00    -0.019 A 
ATOM     26  H   LIG d   1      13.337   6.140  -1.798  0.00  0.00     0.063 H 
ATOM     27  C   LIG d   1      12.278   8.230   0.635  0.00  0.00     0.124 A 
ATOM     28  H   LIG d   1      14.197   7.441   0.102  0.00  0.00     0.065 H 
ATOM     29  C   LIG d   1      10.923   8.260   0.342  0.00  0.00     0.022 A 
ATOM     30  C   LIG d   1      10.431   7.535  -0.729  0.00  0.00     0.132 A 
ATOM     31  H   LIG d   1      10.252   8.854   0.945  0.00  0.00     0.069 H 
BRANCH  27  32
ATOM     32  O   LIG d   1      12.759   8.948   1.684  0.00  0.00    -0.495 OA
BRANCH  32  33
ATOM     33  C   LIG d   1      12.150  10.216   1.937  0.00  0.00     0.079 C 
ATOM     34  H   LIG d   1      11.572  10.521   1.065  0.00  0.00     0.066 H 
ATOM     35  H   LIG d   1      11.489  10.136   2.800  0.00  0.00     0.066 H 
ATOM     36  H   LIG d   1      12.923  10.957   2.138  0.00  0.00     0.066 H 
ENDBRANCH  32  33
ENDBRANCH  27  32
BRANCH  30  37
ATOM     37  O   LIG d   1       9.105   7.567  -1.023  0.00  0.00    -0.494 OA
BRANCH  37  38
ATOM     38  C   LIG d   1       8.451   8.835  -0.930  0.00  0.00     0.079 C 
ATOM     39  H   LIG d   1       7.375   8.699  -1.039  0.00  0.00     0.066 H 
ATOM     40  H   LIG d   1       8.663   9.283   0.042  0.00  0.00     0.066 H 
ATOM     41  H   LIG d   1       8.817   9.492  -1.720  0.00  0.00     0.066 H 
ENDBRANCH  37  38
ENDBRANCH  30  37
ENDBRANCH   1  23
BRANCH  13  42
ATOM     42  C   LIG d   1       9.569   4.046  -9.769  0.00  0.00     0.035 C 
ATOM     43  H   LIG d   1       9.065   3.378 -10.468  0.00  0.00     0.048 H 
ATOM     44  C   LIG d   1       8.845   5.421  -9.739  0.00  0.00     0.081 C 
ATOM     45  S   LIG d   1       9.507   6.185 -11.279  0.00  0.00    -0.029 S 
ATOM     46  H   LIG d   1       7.763   5.299  -9.794  0.00  0.00     0.051 H 
ATOM     47  H   LIG d   1       9.130   5.998  -8.859  0.00  0.00     0.051 H 
ATOM     48  C   LIG d   1      11.035   5.184 -11.483  0.00  0.00     0.067 C 
ATOM     49  O   LIG d   1       9.869   7.533 -11.008  0.00  0.00    -0.174 OA
ATOM     50  O   LIG d   1       8.622   5.902 -12.355  0.00  0.00    -0.174 OA
ATOM     51  C   LIG d   1      11.018   4.278 -10.228  0.00  0.00    -0.016 C 
ATOM     52  H   LIG d   1      11.918   5.823 -11.486  0.00  0.00     0.050 H 
ATOM     53  H   LIG d   1      10.988   4.585 -12.392  0.00  0.00     0.050 H 
ATOM     54  H   LIG d   1      11.579   4.760  -9.427  0.00  0.00     0.030 H 
ATOM     55  H   LIG d   1      11.481   3.321 -10.467  0.00  0.00     0.030 H 
ENDBRANCH  13  42
TORSDOF 6
ENDMDL
MODEL 8
REMARK VINA RESULT:      -5.8      5.306     11.409
REMARK  6 active torsions:
REMARK  status: ('A' for Active; 'I' for Inactive)
REMARK    1  A    between atoms: C_1  and  O_2 
REMARK    2  A    between atoms: O_2  and  C_3 
REMARK    3  A    between atoms: C_6  and  C_11 
REMARK    4  A    between atoms: C_7  and  O_9 
REMARK    5  A    between atoms: O_9  and  C_10 
REMARK    6  A    between atoms: N_23  and  C_26 
ROOT
ATOM      1  C   LIG d   1       6.519  -2.064  -5.227  0.00  0.00     0.071 C 
ATOM      2  C   LIG d   1       5.553  -2.152  -6.199  0.00  0.00    -0.036 C 
ATOM      3  C   LIG d   1       5.089  -3.441  -6.570  0.00  0.00     0.019 A 
ATOM      4  C   LIG d   1       4.256  -3.604  -7.687  0.00  0.00    -0.048 A 
ATOM      5  C   LIG d   1       3.850  -4.853  -8.052  0.00  0.00    -0.019 A 
ATOM      6  C   LIG d   1       4.251  -5.975  -7.324  0.00  0.00     0.130 A 
ATOM      7  C   LIG d   1       5.058  -5.831  -6.209  0.00  0.00     0.051 A 
ATOM      8  C   LIG d   1       5.472  -4.566  -5.817  0.00  0.00     0.147 A 
ATOM      9  O   LIG d   1       6.226  -4.408  -4.701  0.00  0.00    -0.421 OA
ATOM     10  C   LIG d   1       7.036  -3.322  -4.664  0.00  0.00     0.345 C 
ATOM     11  O   LIG d   1       8.151  -3.383  -4.180  0.00  0.00    -0.244 OA
ATOM     12  C   LIG d   1       5.498  -7.033  -5.414  0.00  0.00     0.034 C 
ATOM     13  N   LIG d   1       4.640  -8.181  -5.739  0.00  0.00    -0.261 N 
ATOM     14  C   LIG d   1       4.529  -8.335  -7.198  0.00  0.00     0.144 C 
ATOM     15  O   LIG d   1       3.830  -7.204  -7.723  0.00  0.00    -0.476 OA
ATOM     16  H   LIG d   1       5.157  -1.263  -6.670  0.00  0.00     0.063 H 
ATOM     17  H   LIG d   1       3.937  -2.743  -8.254  0.00  0.00     0.063 H 
ATOM     18  H   LIG d   1       3.213  -4.976  -8.915  0.00  0.00     0.065 H 
ATOM     19  H   LIG d   1       6.532  -7.272  -5.661  0.00  0.00     0.048 H 
ATOM     20  H   LIG d   1       5.422  -6.812  -4.349  0.00  0.00     0.048 H 
ATOM     21  H   LIG d   1       5.525  -8.385  -7.637  0.00  0.00     0.087 H 
ATOM     22  H   LIG d   1       3.977  -9.246  -7.430  0.00  0.00     0.087 H 
ENDROOT
BRANCH   1  23
ATOM     23  C   LIG d   1       7.027  -0.752  -4.767  0.00  0.00     0.031 A 
ATOM     24  C   LIG d   1       8.169  -0.201  -5.348  0.00  0.00    -0.047 A 
ATOM     25  C   LIG d   1       8.641   1.021  -4.918  0.00  0.00    -0.019 A 
ATOM     26  H   LIG d   1       8.684  -0.732  -6.135  0.00  0.00     0.063 H 
ATOM     27  C   LIG d   1       7.980   1.708  -3.907  0.00  0.00     0.124 A 
ATOM     28  H   LIG d   1       9.524   1.447  -5.368  0.00  0.00     0.065 H 
ATOM     29  C   LIG d   1       6.847   1.165  -3.319  0.00  0.00     0.022 A 
ATOM     30  C   LIG d   1       6.364  -0.059  -3.748  0.00  0.00     0.132 A 
ATOM     31  H   LIG d   1       6.339   1.700  -2.530  0.00  0.00     0.069 H 
BRANCH  27  32
ATOM     32  O   LIG d   1       8.449   2.913  -3.487  0.00  0.00    -0.495 OA
BRANCH  32  33
ATOM     33  C   LIG d   1       9.735   3.311  -3.967  0.00  0.00     0.079 C 
ATOM     34  H   LIG d   1       9.698   3.430  -5.049  0.00  0.00     0.066 H 
ATOM     35  H   LIG d   1      10.017   4.258  -3.507  0.00  0.00     0.066 H 
ATOM     36  H   LIG d   1      10.470   2.548  -3.710  0.00  0.00     0.066 H 
ENDBRANCH  32  33
ENDBRANCH  27  32
BRANCH  30  37
ATOM     37  O   LIG d   1       5.250  -0.590  -3.178  0.00  0.00    -0.494 OA
BRANCH  37  38
ATOM     38  C   LIG d   1       4.705   0.103  -2.053  0.00  0.00     0.079 C 
ATOM     39  H   LIG d   1       4.190  -0.605  -1.404  0.00  0.00     0.066 H 
ATOM     40  H   LIG d   1       5.510   0.585  -1.498  0.00  0.00     0.066 H 
ATOM     41  H   LIG d   1       3.999   0.859  -2.399  0.00  0.00     0.066 H 
ENDBRANCH  37  38
ENDBRANCH  30  37
ENDBRANCH   1  23
BRANCH  13  42
ATOM     42  C   LIG d   1       5.148  -9.412  -5.117  0.00  0.00     0.035 C 
ATOM     43  H   LIG d   1       5.299 -10.175  -5.881  0.00  0.00     0.048 H 
ATOM     44  C   LIG d   1       6.492  -9.118  -4.393  0.00  0.00     0.081 C 
ATOM     45  S   LIG d   1       6.578 -10.556  -3.244  0.00  0.00    -0.029 S 
ATOM     46  H   LIG d   1       7.327  -9.123  -5.094  0.00  0.00     0.051 H 
ATOM     47  H   LIG d   1       6.448  -8.177  -3.844  0.00  0.00     0.051 H 
ATOM     48  C   LIG d   1       4.798 -11.011  -3.193  0.00  0.00     0.067 C 
ATOM     49  O   LIG d   1       6.975 -10.097  -1.959  0.00  0.00    -0.174 OA
ATOM     50  O   LIG d   1       7.306 -11.605  -3.868  0.00  0.00    -0.174 OA
ATOM     51  C   LIG d   1       4.141  -9.918  -4.070  0.00  0.00    -0.016 C 
ATOM     52  H   LIG d   1       4.416 -10.968  -2.173  0.00  0.00     0.050 H 
ATOM     53  H   LIG d   1       4.638 -12.000  -3.625  0.00  0.00     0.050 H 
ATOM     54  H   LIG d   1       3.828  -9.087  -3.438  0.00  0.00     0.030 H 
ATOM     55  H   LIG d   1       3.271 -10.334  -4.577  0.00  0.00     0.030 H 
ENDBRANCH  13  42
TORSDOF 6
ENDMDL
MODEL 9
REMARK VINA RESULT:      -5.7      7.771     11.629
REMARK  6 active torsions:
REMARK  status: ('A' for Active; 'I' for Inactive)
REMARK    1  A    between atoms: C_1  and  O_2 
REMARK    2  A    between atoms: O_2  and  C_3 
REMARK    3  A    between atoms: C_6  and  C_11 
REMARK    4  A    between atoms: C_7  and  O_9 
REMARK    5  A    between atoms: O_9  and  C_10 
REMARK    6  A    between atoms: N_23  and  C_26 
ROOT
ATOM      1  C   LIG d   1       6.098  -3.228  -5.425  0.00  0.00     0.071 C 
ATOM      2  C   LIG d   1       7.417  -3.047  -5.090  0.00  0.00    -0.036 C 
ATOM      3  C   LIG d   1       8.181  -4.188  -4.733  0.00  0.00     0.019 A 
ATOM      4  C   LIG d   1       9.468  -4.043  -4.194  0.00  0.00    -0.048 A 
ATOM      5  C   LIG d   1      10.175  -5.147  -3.820  0.00  0.00    -0.019 A 
ATOM      6  C   LIG d   1       9.633  -6.425  -3.972  0.00  0.00     0.130 A 
ATOM      7  C   LIG d   1       8.372  -6.588  -4.518  0.00  0.00     0.051 A 
ATOM      8  C   LIG d   1       7.644  -5.476  -4.913  0.00  0.00     0.147 A 
ATOM      9  O   LIG d   1       6.426  -5.625  -5.491  0.00  0.00    -0.421 OA
ATOM     10  C   LIG d   1       5.556  -4.595  -5.349  0.00  0.00     0.345 C 
ATOM     11  O   LIG d   1       4.369  -4.792  -5.169  0.00  0.00    -0.244 OA
ATOM     12  C   LIG d   1       7.775  -7.962  -4.687  0.00  0.00     0.034 C 
ATOM     13  N   LIG d   1       8.836  -8.975  -4.600  0.00  0.00    -0.261 N 
ATOM     14  C   LIG d   1       9.669  -8.737  -3.410  0.00  0.00     0.144 C 
ATOM     15  O   LIG d   1      10.366  -7.501  -3.582  0.00  0.00    -0.476 OA
ATOM     16  H   LIG d   1       7.861  -2.062  -5.099  0.00  0.00     0.063 H 
ATOM     17  H   LIG d   1       9.898  -3.059  -4.077  0.00  0.00     0.063 H 
ATOM     18  H   LIG d   1      11.163  -5.032  -3.401  0.00  0.00     0.065 H 
ATOM     19  H   LIG d   1       7.041  -8.137  -3.900  0.00  0.00     0.048 H 
ATOM     20  H   LIG d   1       7.288  -8.028  -5.660  0.00  0.00     0.048 H 
ATOM     21  H   LIG d   1       9.034  -8.680  -2.526  0.00  0.00     0.087 H 
ATOM     22  H   LIG d   1      10.387  -9.550  -3.297  0.00  0.00     0.087 H 
ENDROOT
BRANCH   1  23
ATOM     23  C   LIG d   1       5.248  -2.088  -5.839  0.00  0.00     0.031 A 
ATOM     24  C   LIG d   1       5.135  -1.755  -7.188  0.00  0.00    -0.047 A 
ATOM     25  C   LIG d   1       4.343  -0.693  -7.572  0.00  0.00    -0.019 A 
ATOM     26  H   LIG d   1       5.668  -2.327  -7.933  0.00  0.00     0.063 H 
ATOM     27  C   LIG d   1       3.655   0.045  -6.618  0.00  0.00     0.124 A 
ATOM     28  H   LIG d   1       4.256  -0.436  -8.617  0.00  0.00     0.065 H 
ATOM     29  C   LIG d   1       3.766  -0.275  -5.273  0.00  0.00     0.022 A 
ATOM     30  C   LIG d   1       4.554  -1.342  -4.879  0.00  0.00     0.132 A 
ATOM     31  H   LIG d   1       3.233   0.304  -4.534  0.00  0.00     0.069 H 
BRANCH  27  32
ATOM     32  O   LIG d   1       2.875   1.090  -7.003  0.00  0.00    -0.495 OA
BRANCH  32  33
ATOM     33  C   LIG d   1       2.973   1.505  -8.367  0.00  0.00     0.079 C 
ATOM     34  H   LIG d   1       2.056   1.244  -8.893  0.00  0.00     0.066 H 
ATOM     35  H   LIG d   1       3.121   2.584  -8.408  0.00  0.00     0.066 H 
ATOM     36  H   LIG d   1       3.818   1.004  -8.838  0.00  0.00     0.066 H 
ENDBRANCH  32  33
ENDBRANCH  27  32
BRANCH  30  37
ATOM     37  O   LIG d   1       4.660  -1.663  -3.563  0.00  0.00    -0.494 OA
BRANCH  37  38
ATOM     38  C   LIG d   1       3.459  -1.627  -2.789  0.00  0.00     0.079 C 
ATOM     39  H   LIG d   1       2.914  -0.708  -3.003  0.00  0.00     0.066 H 
ATOM     40  H   LIG d   1       2.837  -2.486  -3.045  0.00  0.00     0.066 H 
ATOM     41  H   LIG d   1       3.709  -1.663  -1.728  0.00  0.00     0.066 H 
ENDBRANCH  37  38
ENDBRANCH  30  37
ENDBRANCH   1  23
BRANCH  13  42
ATOM     42  C   LIG d   1       8.270 -10.331  -4.584  0.00  0.00     0.035 C 
ATOM     43  H   LIG d   1       8.494 -10.834  -5.526  0.00  0.00     0.048 H 
ATOM     44  C   LIG d   1       8.872 -11.138  -3.400  0.00  0.00     0.081 C 
ATOM     45  S   LIG d   1       7.617 -12.476  -3.231  0.00  0.00    -0.029 S 
ATOM     46  H   LIG d   1       9.850 -11.546  -3.657  0.00  0.00     0.051 H 
ATOM     47  H   LIG d   1       8.926 -10.531  -2.496  0.00  0.00     0.051 H 
ATOM     48  C   LIG d   1       6.188 -11.658  -4.050  0.00  0.00     0.067 C 
ATOM     49  O   LIG d   1       7.318 -12.658  -1.853  0.00  0.00    -0.174 OA
ATOM     50  O   LIG d   1       8.020 -13.592  -4.011  0.00  0.00    -0.174 OA
ATOM     51  C   LIG d   1       6.747 -10.255  -4.387  0.00  0.00    -0.016 C 
ATOM     52  H   LIG d   1       5.342 -11.583  -3.367  0.00  0.00     0.050 H 
ATOM     53  H   LIG d   1       5.906 -12.190  -4.959  0.00  0.00     0.050 H 
ATOM     54  H   LIG d   1       6.522  -9.569  -3.569  0.00  0.00     0.030 H 
ATOM     55  H   LIG d   1       6.281  -9.889  -5.302  0.00  0.00     0.030 H 
ENDBRANCH  13  42
TORSDOF 6
ENDMDL
