MODEL 1
REMARK VINA RESULT:      -6.9      0.000      0.000
REMARK  4 active torsions:
REMARK  status: ('A' for Active; 'I' for Inactive)
REMARK    1  A    between atoms: C_1  and  C_2 
REMARK    2  A    between atoms: C_13  and  O_15 
REMARK    3  A    between atoms: C_19  and  C_26 
REMARK    4  A    between atoms: C_22  and  O_25 
ROOT
ATOM      1  C   LIG d   1       4.484  -0.644  -3.354  0.00  0.00    -0.003 C 
ATOM      2  C   LIG d   1       3.167  -0.235  -3.971  0.00  0.00    -0.045 C 
ATOM      3  C   LIG d   1       3.322   0.078  -5.460  0.00  0.00    -0.049 C 
ATOM      4  C   LIG d   1       3.862  -1.173  -6.164  0.00  0.00    -0.029 C 
ATOM      5  H   LIG d   1       3.200  -2.015  -5.961  0.00  0.00     0.031 H 
ATOM      6  C   LIG d   1       5.252  -1.477  -5.610  0.00  0.00    -0.031 C 
ATOM      7  H   LIG d   1       5.675  -2.330  -6.138  0.00  0.00     0.031 H 
ATOM      8  C   LIG d   1       5.179  -1.789  -4.113  0.00  0.00    -0.030 C 
ATOM      9  H   LIG d   1       4.726  -2.761  -3.917  0.00  0.00     0.031 H 
ATOM     10  C   LIG d   1       6.633  -1.692  -3.566  0.00  0.00    -0.047 C 
ATOM     11  C   LIG d   1       6.891  -0.172  -3.466  0.00  0.00    -0.026 C 
ATOM     12  C   LIG d   1       5.508   0.498  -3.335  0.00  0.00     0.061 C 
ATOM     13  H   LIG d   1       5.337   1.171  -4.176  0.00  0.00     0.060 H 
ATOM     14  C   LIG d   1       6.138  -0.246  -5.830  0.00  0.00    -0.031 C 
ATOM     15  C   LIG d   1       6.134   0.103  -7.290  0.00  0.00    -0.084 C 
ATOM     16  C   LIG d   1       5.155  -0.199  -8.091  0.00  0.00    -0.065 C 
ATOM     17  C   LIG d   1       3.921  -0.941  -7.664  0.00  0.00    -0.008 C 
ATOM     18  C   LIG d   1       2.681  -0.171  -8.127  0.00  0.00    -0.041 C 
ATOM     19  C   LIG d   1       2.770   0.078  -9.633  0.00  0.00    -0.026 C 
ATOM     20  C   LIG d   1       3.984   0.956  -9.944  0.00  0.00     0.059 C 
ATOM     21  H   LIG d   1       3.912   1.884  -9.377  0.00  0.00     0.060 H 
ATOM     22  C   LIG d   1       5.264   0.215  -9.549  0.00  0.00    -0.005 C 
ATOM     23  H   LIG d   1       2.449  -1.047  -3.851  0.00  0.00     0.027 H 
ATOM     24  H   LIG d   1       2.792   0.650  -3.458  0.00  0.00     0.027 H 
ATOM     25  H   LIG d   1       2.353   0.348  -5.881  0.00  0.00     0.027 H 
ATOM     26  H   LIG d   1       4.021   0.904  -5.590  0.00  0.00     0.027 H 
ATOM     27  H   LIG d   1       6.705  -2.157  -2.584  0.00  0.00     0.027 H 
ATOM     28  H   LIG d   1       7.335  -2.155  -4.260  0.00  0.00     0.027 H 
ATOM     29  H   LIG d   1       7.496   0.047  -2.586  0.00  0.00     0.029 H 
ATOM     30  H   LIG d   1       7.396   0.182  -4.364  0.00  0.00     0.029 H 
ATOM     31  H   LIG d   1       7.157  -0.470  -5.511  0.00  0.00     0.031 H 
ATOM     32  H   LIG d   1       5.750   0.592  -5.251  0.00  0.00     0.031 H 
ATOM     33  H   LIG d   1       6.984   0.633  -7.694  0.00  0.00     0.057 H 
ATOM     34  H   LIG d   1       1.788  -0.757  -7.907  0.00  0.00     0.027 H 
ATOM     35  H   LIG d   1       2.628   0.783  -7.602  0.00  0.00     0.027 H 
ATOM     36  H   LIG d   1       2.873  -0.875 -10.153  0.00  0.00     0.029 H 
ATOM     37  H   LIG d   1       1.864   0.579  -9.972  0.00  0.00     0.029 H 
ATOM     38  H   LIG d   1       6.124   0.872  -9.680  0.00  0.00     0.034 H 
ATOM     39  H   LIG d   1       5.382  -0.671 -10.174  0.00  0.00     0.034 H 
ENDROOT
BRANCH   1  40
ATOM     40  C   LIG d   1       4.217  -1.093  -1.916  0.00  0.00    -0.057 C 
ATOM     41  H   LIG d   1       3.898  -0.237  -1.321  0.00  0.00     0.024 H 
ATOM     42  H   LIG d   1       3.434  -1.852  -1.912  0.00  0.00     0.024 H 
ATOM     43  H   LIG d   1       5.129  -1.511  -1.491  0.00  0.00     0.024 H 
ENDBRANCH   1  40
BRANCH  12  44
ATOM     44  O   LIG d   1       5.423   1.217  -2.103  0.00  0.00    -0.391 OA
ATOM     45  H   LIG d   1       5.727   2.133  -2.160  0.00  0.00     0.210 HD
ENDBRANCH  12  44
BRANCH  17  46
ATOM     46  C   LIG d   1       3.913  -2.301  -8.362  0.00  0.00    -0.056 C 
ATOM     47  H   LIG d   1       4.763  -2.892  -8.019  0.00  0.00     0.024 H 
ATOM     48  H   LIG d   1       2.987  -2.826  -8.124  0.00  0.00     0.024 H 
ATOM     49  H   LIG d   1       3.983  -2.158  -9.440  0.00  0.00     0.024 H 
ENDBRANCH  17  46
BRANCH  20  50
ATOM     50  O   LIG d   1       4.017   1.253 -11.341  0.00  0.00    -0.392 OA
ATOM     51  H   LIG d   1       4.036   0.470 -11.909  0.00  0.00     0.210 HD
ENDBRANCH  20  50
TORSDOF 4
ENDMDL
MODEL 2
REMARK VINA RESULT:      -6.6      2.780      4.836
REMARK  4 active torsions:
REMARK  status: ('A' for Active; 'I' for Inactive)
REMARK    1  A    between atoms: C_1  and  C_2 
REMARK    2  A    between atoms: C_13  and  O_15 
REMARK    3  A    between atoms: C_19  and  C_26 
REMARK    4  A    between atoms: C_22  and  O_25 
ROOT
ATOM      1  C   LIG d   1       3.651  -0.272  -4.451  0.00  0.00    -0.003 C 
ATOM      2  C   LIG d   1       4.287  -0.285  -5.821  0.00  0.00    -0.045 C 
ATOM      3  C   LIG d   1       5.649  -0.980  -5.796  0.00  0.00    -0.049 C 
ATOM      4  C   LIG d   1       5.450  -2.418  -5.300  0.00  0.00    -0.029 C 
ATOM      5  H   LIG d   1       4.715  -2.918  -5.929  0.00  0.00     0.031 H 
ATOM      6  C   LIG d   1       4.934  -2.364  -3.863  0.00  0.00    -0.031 C 
ATOM      7  H   LIG d   1       4.840  -3.378  -3.473  0.00  0.00     0.031 H 
ATOM      8  C   LIG d   1       3.572  -1.667  -3.806  0.00  0.00    -0.030 C 
ATOM      9  H   LIG d   1       2.777  -2.283  -4.226  0.00  0.00     0.031 H 
ATOM     10  C   LIG d   1       3.318  -1.310  -2.312  0.00  0.00    -0.047 C 
ATOM     11  C   LIG d   1       4.212  -0.075  -2.069  0.00  0.00    -0.026 C 
ATOM     12  C   LIG d   1       4.429   0.587  -3.445  0.00  0.00     0.061 C 
ATOM     13  H   LIG d   1       5.490   0.591  -3.697  0.00  0.00     0.060 H 
ATOM     14  C   LIG d   1       5.942  -1.581  -3.017  0.00  0.00    -0.031 C 
ATOM     15  C   LIG d   1       7.293  -2.223  -3.148  0.00  0.00    -0.084 C 
ATOM     16  C   LIG d   1       7.652  -2.920  -4.187  0.00  0.00    -0.065 C 
ATOM     17  C   LIG d   1       6.763  -3.178  -5.370  0.00  0.00    -0.008 C 
ATOM     18  C   LIG d   1       7.512  -2.817  -6.656  0.00  0.00    -0.041 C 
ATOM     19  C   LIG d   1       8.843  -3.570  -6.697  0.00  0.00    -0.026 C 
ATOM     20  C   LIG d   1       9.726  -3.131  -5.527  0.00  0.00     0.059 C 
ATOM     21  H   LIG d   1       9.863  -2.051  -5.564  0.00  0.00     0.060 H 
ATOM     22  C   LIG d   1       9.049  -3.515  -4.207  0.00  0.00    -0.005 C 
ATOM     23  H   LIG d   1       3.631  -0.812  -6.515  0.00  0.00     0.027 H 
ATOM     24  H   LIG d   1       4.416   0.741  -6.164  0.00  0.00     0.027 H 
ATOM     25  H   LIG d   1       6.073  -0.993  -6.801  0.00  0.00     0.027 H 
ATOM     26  H   LIG d   1       6.320  -0.447  -5.122  0.00  0.00     0.027 H 
ATOM     27  H   LIG d   1       2.270  -1.060  -2.151  0.00  0.00     0.027 H 
ATOM     28  H   LIG d   1       3.617  -2.134  -1.664  0.00  0.00     0.027 H 
ATOM     29  H   LIG d   1       3.713   0.622  -1.395  0.00  0.00     0.029 H 
ATOM     30  H   LIG d   1       5.169  -0.382  -1.647  0.00  0.00     0.029 H 
ATOM     31  H   LIG d   1       5.631  -1.598  -1.972  0.00  0.00     0.031 H 
ATOM     32  H   LIG d   1       5.991  -0.550  -3.367  0.00  0.00     0.031 H 
ATOM     33  H   LIG d   1       8.002  -2.098  -2.344  0.00  0.00     0.057 H 
ATOM     34  H   LIG d   1       6.908  -3.098  -7.519  0.00  0.00     0.027 H 
ATOM     35  H   LIG d   1       7.700  -1.743  -6.678  0.00  0.00     0.027 H 
ATOM     36  H   LIG d   1       8.656  -4.642  -6.624  0.00  0.00     0.029 H 
ATOM     37  H   LIG d   1       9.353  -3.354  -7.635  0.00  0.00     0.029 H 
ATOM     38  H   LIG d   1       9.627  -3.120  -3.371  0.00  0.00     0.034 H 
ATOM     39  H   LIG d   1       8.987  -4.600  -4.129  0.00  0.00     0.034 H 
ENDROOT
BRANCH   1  40
ATOM     40  C   LIG d   1       2.234   0.290  -4.589  0.00  0.00    -0.057 C 
ATOM     41  H   LIG d   1       2.271   1.241  -5.120  0.00  0.00     0.024 H 
ATOM     42  H   LIG d   1       1.617  -0.415  -5.147  0.00  0.00     0.024 H 
ATOM     43  H   LIG d   1       1.806   0.442  -3.599  0.00  0.00     0.024 H 
ENDBRANCH   1  40
BRANCH  12  44
ATOM     44  O   LIG d   1       3.918   1.921  -3.437  0.00  0.00    -0.391 OA
ATOM     45  H   LIG d   1       3.901   2.331  -2.562  0.00  0.00     0.210 HD
ENDBRANCH  12  44
BRANCH  17  46
ATOM     46  C   LIG d   1       6.450  -4.674  -5.417  0.00  0.00    -0.056 C 
ATOM     47  H   LIG d   1       6.713  -5.132  -4.462  0.00  0.00     0.024 H 
ATOM     48  H   LIG d   1       5.386  -4.817  -5.607  0.00  0.00     0.024 H 
ATOM     49  H   LIG d   1       7.028  -5.142  -6.214  0.00  0.00     0.024 H 
ENDBRANCH  17  46
BRANCH  20  50
ATOM     50  O   LIG d   1      10.997  -3.776  -5.615  0.00  0.00    -0.392 OA
ATOM     51  H   LIG d   1      11.722  -3.185  -5.860  0.00  0.00     0.210 HD
ENDBRANCH  20  50
TORSDOF 4
ENDMDL
MODEL 3
REMARK VINA RESULT:      -6.5      1.091      5.971
REMARK  4 active torsions:
REMARK  status: ('A' for Active; 'I' for Inactive)
REMARK    1  A    between atoms: C_1  and  C_2 
REMARK    2  A    between atoms: C_13  and  O_15 
REMARK    3  A    between atoms: C_19  and  C_26 
REMARK    4  A    between atoms: C_22  and  O_25 
ROOT
ATOM      1  C   LIG d   1       4.696  -0.323  -9.327  0.00  0.00    -0.003 C 
ATOM      2  C   LIG d   1       5.999  -0.192  -8.573  0.00  0.00    -0.045 C 
ATOM      3  C   LIG d   1       5.758   0.081  -7.088  0.00  0.00    -0.049 C 
ATOM      4  C   LIG d   1       4.935  -1.078  -6.510  0.00  0.00    -0.029 C 
ATOM      5  H   LIG d   1       5.451  -2.019  -6.704  0.00  0.00     0.031 H 
ATOM      6  C   LIG d   1       3.574  -1.095  -7.202  0.00  0.00    -0.031 C 
ATOM      7  H   LIG d   1       2.954  -1.877  -6.765  0.00  0.00     0.031 H 
ATOM      8  C   LIG d   1       3.735  -1.351  -8.703  0.00  0.00    -0.030 C 
ATOM      9  H   LIG d   1       4.022  -2.381  -8.915  0.00  0.00     0.031 H 
ATOM     10  C   LIG d   1       2.383  -0.963  -9.368  0.00  0.00    -0.047 C 
ATOM     11  C   LIG d   1       2.414   0.580  -9.400  0.00  0.00    -0.026 C 
ATOM     12  C   LIG d   1       3.901   0.989  -9.368  0.00  0.00     0.061 C 
ATOM     13  H   LIG d   1       4.108   1.581  -8.476  0.00  0.00     0.060 H 
ATOM     14  C   LIG d   1       2.907   0.267  -6.988  0.00  0.00    -0.031 C 
ATOM     15  C   LIG d   1       2.831   0.547  -5.515  0.00  0.00    -0.084 C 
ATOM     16  C   LIG d   1       3.657   0.035  -4.649  0.00  0.00    -0.065 C 
ATOM     17  C   LIG d   1       4.772  -0.903  -5.010  0.00  0.00    -0.008 C 
ATOM     18  C   LIG d   1       6.080  -0.397  -4.394  0.00  0.00    -0.041 C 
ATOM     19  C   LIG d   1       5.890  -0.200  -2.889  0.00  0.00    -0.026 C 
ATOM     20  C   LIG d   1       4.830   0.873  -2.634  0.00  0.00     0.059 C 
ATOM     21  H   LIG d   1       5.123   1.795  -3.136  0.00  0.00     0.060 H 
ATOM     22  C   LIG d   1       3.482   0.399  -3.185  0.00  0.00    -0.005 C 
ATOM     23  H   LIG d   1       6.567  -1.116  -8.678  0.00  0.00     0.027 H 
ATOM     24  H   LIG d   1       6.575   0.630  -8.997  0.00  0.00     0.027 H 
ATOM     25  H   LIG d   1       6.713   0.148  -6.567  0.00  0.00     0.027 H 
ATOM     26  H   LIG d   1       5.209   1.015  -6.970  0.00  0.00     0.027 H 
ATOM     27  H   LIG d   1       2.325  -1.365 -10.380  0.00  0.00     0.027 H 
ATOM     28  H   LIG d   1       1.545  -1.318  -8.769  0.00  0.00     0.027 H 
ATOM     29  H   LIG d   1       1.947   0.945 -10.315  0.00  0.00     0.029 H 
ATOM     30  H   LIG d   1       1.896   0.983  -8.530  0.00  0.00     0.029 H 
ATOM     31  H   LIG d   1       1.901   0.250  -7.408  0.00  0.00     0.031 H 
ATOM     32  H   LIG d   1       3.494   1.044  -7.478  0.00  0.00     0.031 H 
ATOM     33  H   LIG d   1       2.056   1.208  -5.156  0.00  0.00     0.057 H 
ATOM     34  H   LIG d   1       6.870  -1.127  -4.569  0.00  0.00     0.027 H 
ATOM     35  H   LIG d   1       6.355   0.553  -4.854  0.00  0.00     0.027 H 
ATOM     36  H   LIG d   1       5.567  -1.139  -2.439  0.00  0.00     0.029 H 
ATOM     37  H   LIG d   1       6.834   0.110  -2.442  0.00  0.00     0.029 H 
ATOM     38  H   LIG d   1       2.746   1.198  -3.091  0.00  0.00     0.034 H 
ATOM     39  H   LIG d   1       3.145  -0.476  -2.627  0.00  0.00     0.034 H 
ENDROOT
BRANCH   1  40
ATOM     40  C   LIG d   1       5.017  -0.752 -10.761  0.00  0.00    -0.057 C 
ATOM     41  H   LIG d   1       5.201   0.132 -11.371  0.00  0.00     0.024 H 
ATOM     42  H   LIG d   1       5.904  -1.385 -10.760  0.00  0.00     0.024 H 
ATOM     43  H   LIG d   1       4.174  -1.307 -11.170  0.00  0.00     0.024 H 
ENDBRANCH   1  40
BRANCH  12  44
ATOM     44  O   LIG d   1       4.234   1.731 -10.542  0.00  0.00    -0.391 OA
ATOM     45  H   LIG d   1       3.486   2.194 -10.941  0.00  0.00     0.210 HD
ENDBRANCH  12  44
BRANCH  17  46
ATOM     46  C   LIG d   1       4.467  -2.270  -4.397  0.00  0.00    -0.056 C 
ATOM     47  H   LIG d   1       5.373  -2.878  -4.392  0.00  0.00     0.024 H 
ATOM     48  H   LIG d   1       4.114  -2.138  -3.374  0.00  0.00     0.024 H 
ATOM     49  H   LIG d   1       3.698  -2.771  -4.985  0.00  0.00     0.024 H 
ENDBRANCH  17  46
BRANCH  20  50
ATOM     50  O   LIG d   1       4.714   1.111  -1.231  0.00  0.00    -0.392 OA
ATOM     51  H   LIG d   1       3.820   1.339  -0.943  0.00  0.00     0.210 HD
ENDBRANCH  20  50
TORSDOF 4
ENDMDL
MODEL 4
REMARK VINA RESULT:      -5.7      2.659      6.051
REMARK  4 active torsions:
REMARK  status: ('A' for Active; 'I' for Inactive)
REMARK    1  A    between atoms: C_1  and  C_2 
REMARK    2  A    between atoms: C_13  and  O_15 
REMARK    3  A    between atoms: C_19  and  C_26 
REMARK    4  A    between atoms: C_22  and  O_25 
ROOT
ATOM      1  C   LIG d   1       5.448  -3.959  -7.587  0.00  0.00    -0.003 C 
ATOM      2  C   LIG d   1       5.715  -2.485  -7.777  0.00  0.00    -0.045 C 
ATOM      3  C   LIG d   1       5.497  -1.707  -6.478  0.00  0.00    -0.049 C 
ATOM      4  C   LIG d   1       6.440  -2.274  -5.410  0.00  0.00    -0.029 C 
ATOM      5  H   LIG d   1       7.466  -2.235  -5.777  0.00  0.00     0.031 H 
ATOM      6  C   LIG d   1       6.052  -3.728  -5.147  0.00  0.00    -0.031 C 
ATOM      7  H   LIG d   1       6.675  -4.131  -4.350  0.00  0.00     0.031 H 
ATOM      8  C   LIG d   1       6.232  -4.571  -6.412  0.00  0.00    -0.030 C 
ATOM      9  H   LIG d   1       7.283  -4.739  -6.648  0.00  0.00     0.031 H 
ATOM     10  C   LIG d   1       5.459  -5.901  -6.175  0.00  0.00    -0.047 C 
ATOM     11  C   LIG d   1       3.979  -5.509  -6.376  0.00  0.00    -0.026 C 
ATOM     12  C   LIG d   1       3.975  -4.259  -7.278  0.00  0.00     0.061 C 
ATOM     13  H   LIG d   1       3.523  -3.418  -6.752  0.00  0.00     0.060 H 
ATOM     14  C   LIG d   1       4.582  -3.764  -4.717  0.00  0.00    -0.031 C 
ATOM     15  C   LIG d   1       4.399  -2.866  -3.528  0.00  0.00    -0.084 C 
ATOM     16  C   LIG d   1       5.170  -1.848  -3.279  0.00  0.00    -0.065 C 
ATOM     17  C   LIG d   1       6.337  -1.453  -4.137  0.00  0.00    -0.008 C 
ATOM     18  C   LIG d   1       6.235   0.037  -4.478  0.00  0.00    -0.041 C 
ATOM     19  C   LIG d   1       6.105   0.846  -3.187  0.00  0.00    -0.026 C 
ATOM     20  C   LIG d   1       4.813   0.464  -2.461  0.00  0.00     0.059 C 
ATOM     21  H   LIG d   1       3.965   0.615  -3.129  0.00  0.00     0.060 H 
ATOM     22  C   LIG d   1       4.879  -1.009  -2.046  0.00  0.00    -0.005 C 
ATOM     23  H   LIG d   1       6.746  -2.347  -8.105  0.00  0.00     0.027 H 
ATOM     24  H   LIG d   1       5.044  -2.096  -8.542  0.00  0.00     0.027 H 
ATOM     25  H   LIG d   1       5.718  -0.651  -6.641  0.00  0.00     0.027 H 
ATOM     26  H   LIG d   1       4.463  -1.819  -6.153  0.00  0.00     0.027 H 
ATOM     27  H   LIG d   1       5.757  -6.653  -6.904  0.00  0.00     0.027 H 
ATOM     28  H   LIG d   1       5.625  -6.265  -5.161  0.00  0.00     0.027 H 
ATOM     29  H   LIG d   1       3.440  -6.322  -6.862  0.00  0.00     0.029 H 
ATOM     30  H   LIG d   1       3.519  -5.279  -5.415  0.00  0.00     0.029 H 
ATOM     31  H   LIG d   1       4.306  -4.785  -4.450  0.00  0.00     0.031 H 
ATOM     32  H   LIG d   1       3.952  -3.419  -5.537  0.00  0.00     0.031 H 
ATOM     33  H   LIG d   1       3.587  -3.074  -2.847  0.00  0.00     0.057 H 
ATOM     34  H   LIG d   1       7.131   0.349  -5.014  0.00  0.00     0.027 H 
ATOM     35  H   LIG d   1       5.359   0.207  -5.105  0.00  0.00     0.027 H 
ATOM     36  H   LIG d   1       6.957   0.637  -2.540  0.00  0.00     0.029 H 
ATOM     37  H   LIG d   1       6.084   1.909  -3.426  0.00  0.00     0.029 H 
ATOM     38  H   LIG d   1       3.925  -1.312  -1.614  0.00  0.00     0.034 H 
ATOM     39  H   LIG d   1       5.674  -1.149  -1.313  0.00  0.00     0.034 H 
ENDROOT
BRANCH   1  40
ATOM     40  C   LIG d   1       5.841  -4.685  -8.876  0.00  0.00    -0.057 C 
ATOM     41  H   LIG d   1       6.050  -3.952  -9.655  0.00  0.00     0.024 H 
ATOM     42  H   LIG d   1       6.730  -5.288  -8.695  0.00  0.00     0.024 H 
ATOM     43  H   LIG d   1       5.023  -5.330  -9.193  0.00  0.00     0.024 H 
ENDBRANCH   1  40
BRANCH  12  44
ATOM     44  O   LIG d   1       3.263  -4.526  -8.488  0.00  0.00    -0.391 OA
ATOM     45  H   LIG d   1       2.365  -4.857  -8.351  0.00  0.00     0.210 HD
ENDBRANCH  12  44
BRANCH  17  46
ATOM     46  C   LIG d   1       7.618  -1.658  -3.327  0.00  0.00    -0.056 C 
ATOM     47  H   LIG d   1       8.041  -0.688  -3.063  0.00  0.00     0.024 H 
ATOM     48  H   LIG d   1       7.388  -2.213  -2.417  0.00  0.00     0.024 H 
ATOM     49  H   LIG d   1       8.340  -2.219  -3.921  0.00  0.00     0.024 H 
ENDBRANCH  17  46
BRANCH  20  50
ATOM     50  O   LIG d   1       4.656   1.279  -1.298  0.00  0.00    -0.392 OA
ATOM     51  H   LIG d   1       5.008   0.882  -0.489  0.00  0.00     0.210 HD
ENDBRANCH  20  50
TORSDOF 4
ENDMDL
MODEL 5
REMARK VINA RESULT:      -5.7      1.639      2.740
REMARK  4 active torsions:
REMARK  status: ('A' for Active; 'I' for Inactive)
REMARK    1  A    between atoms: C_1  and  C_2 
REMARK    2  A    between atoms: C_13  and  O_15 
REMARK    3  A    between atoms: C_19  and  C_26 
REMARK    4  A    between atoms: C_22  and  O_25 
ROOT
ATOM      1  C   LIG d   1       5.377  -1.946  -4.148  0.00  0.00    -0.003 C 
ATOM      2  C   LIG d   1       5.245  -3.120  -5.089  0.00  0.00    -0.045 C 
ATOM      3  C   LIG d   1       4.358  -2.777  -6.287  0.00  0.00    -0.049 C 
ATOM      4  C   LIG d   1       4.980  -1.585  -7.025  0.00  0.00    -0.029 C 
ATOM      5  H   LIG d   1       6.008  -1.825  -7.296  0.00  0.00     0.031 H 
ATOM      6  C   LIG d   1       4.972  -0.380  -6.086  0.00  0.00    -0.031 C 
ATOM      7  H   LIG d   1       5.359   0.493  -6.612  0.00  0.00     0.031 H 
ATOM      8  C   LIG d   1       5.834  -0.654  -4.850  0.00  0.00    -0.030 C 
ATOM      9  H   LIG d   1       6.899  -0.654  -5.084  0.00  0.00     0.031 H 
ATOM     10  C   LIG d   1       5.458   0.428  -3.796  0.00  0.00    -0.047 C 
ATOM     11  C   LIG d   1       4.103  -0.056  -3.236  0.00  0.00    -0.026 C 
ATOM     12  C   LIG d   1       4.052  -1.580  -3.468  0.00  0.00     0.061 C 
ATOM     13  H   LIG d   1       3.214  -1.833  -4.119  0.00  0.00     0.060 H 
ATOM     14  C   LIG d   1       3.528  -0.117  -5.650  0.00  0.00    -0.031 C 
ATOM     15  C   LIG d   1       2.674   0.066  -6.872  0.00  0.00    -0.084 C 
ATOM     16  C   LIG d   1       2.967  -0.454  -8.028  0.00  0.00    -0.065 C 
ATOM     17  C   LIG d   1       4.190  -1.285  -8.287  0.00  0.00    -0.008 C 
ATOM     18  C   LIG d   1       3.780  -2.592  -8.973  0.00  0.00    -0.041 C 
ATOM     19  C   LIG d   1       2.964  -2.273 -10.227  0.00  0.00    -0.026 C 
ATOM     20  C   LIG d   1       1.674  -1.548  -9.837  0.00  0.00     0.059 C 
ATOM     21  H   LIG d   1       1.117  -2.160  -9.127  0.00  0.00     0.060 H 
ATOM     22  C   LIG d   1       2.020  -0.204  -9.190  0.00  0.00    -0.005 C 
ATOM     23  H   LIG d   1       6.235  -3.403  -5.449  0.00  0.00     0.027 H 
ATOM     24  H   LIG d   1       4.809  -3.961  -4.552  0.00  0.00     0.027 H 
ATOM     25  H   LIG d   1       4.299  -3.635  -6.958  0.00  0.00     0.027 H 
ATOM     26  H   LIG d   1       3.359  -2.515  -5.939  0.00  0.00     0.027 H 
ATOM     27  H   LIG d   1       6.206   0.468  -3.005  0.00  0.00     0.027 H 
ATOM     28  H   LIG d   1       5.351   1.404  -4.270  0.00  0.00     0.027 H 
ATOM     29  H   LIG d   1       4.040   0.161  -2.169  0.00  0.00     0.029 H 
ATOM     30  H   LIG d   1       3.283   0.431  -3.765  0.00  0.00     0.029 H 
ATOM     31  H   LIG d   1       3.490   0.787  -5.040  0.00  0.00     0.031 H 
ATOM     32  H   LIG d   1       3.160  -0.964  -5.070  0.00  0.00     0.031 H 
ATOM     33  H   LIG d   1       1.774   0.655  -6.786  0.00  0.00     0.057 H 
ATOM     34  H   LIG d   1       4.673  -3.151  -9.253  0.00  0.00     0.027 H 
ATOM     35  H   LIG d   1       3.178  -3.189  -8.288  0.00  0.00     0.027 H 
ATOM     36  H   LIG d   1       3.549  -1.634 -10.888  0.00  0.00     0.029 H 
ATOM     37  H   LIG d   1       2.716  -3.200 -10.744  0.00  0.00     0.029 H 
ATOM     38  H   LIG d   1       1.110   0.273  -8.825  0.00  0.00     0.034 H 
ATOM     39  H   LIG d   1       2.503   0.442  -9.923  0.00  0.00     0.034 H 
ENDROOT
BRANCH   1  40
ATOM     40  C   LIG d   1       6.401  -2.312  -3.071  0.00  0.00    -0.057 C 
ATOM     41  H   LIG d   1       7.408  -2.167  -3.463  0.00  0.00     0.024 H 
ATOM     42  H   LIG d   1       6.255  -1.673  -2.200  0.00  0.00     0.024 H 
ATOM     43  H   LIG d   1       6.269  -3.354  -2.784  0.00  0.00     0.024 H 
ENDBRANCH   1  40
BRANCH  12  44
ATOM     44  O   LIG d   1       3.932  -2.265  -2.221  0.00  0.00    -0.391 OA
ATOM     45  H   LIG d   1       3.514  -3.134  -2.288  0.00  0.00     0.210 HD
ENDBRANCH  12  44
BRANCH  17  46
ATOM     46  C   LIG d   1       5.096  -0.518  -9.251  0.00  0.00    -0.056 C 
ATOM     47  H   LIG d   1       5.911  -1.164  -9.578  0.00  0.00     0.024 H 
ATOM     48  H   LIG d   1       4.517  -0.198 -10.117  0.00  0.00     0.024 H 
ATOM     49  H   LIG d   1       5.507   0.356  -8.746  0.00  0.00     0.024 H 
ENDBRANCH  17  46
BRANCH  20  50
ATOM     50  O   LIG d   1       0.877  -1.324 -11.001  0.00  0.00    -0.392 OA
ATOM     51  H   LIG d   1       0.120  -1.921 -11.081  0.00  0.00     0.210 HD
ENDBRANCH  20  50
TORSDOF 4
ENDMDL
MODEL 6
REMARK VINA RESULT:      -5.6      1.594      5.953
REMARK  4 active torsions:
REMARK  status: ('A' for Active; 'I' for Inactive)
REMARK    1  A    between atoms: C_1  and  C_2 
REMARK    2  A    between atoms: C_13  and  O_15 
REMARK    3  A    between atoms: C_19  and  C_26 
REMARK    4  A    between atoms: C_22  and  O_25 
ROOT
ATOM      1  C   LIG d   1       2.785  -0.497  -9.780  0.00  0.00    -0.003 C 
ATOM      2  C   LIG d   1       2.770  -1.826  -9.062  0.00  0.00    -0.045 C 
ATOM      3  C   LIG d   1       3.837  -1.880  -7.967  0.00  0.00    -0.049 C 
ATOM      4  C   LIG d   1       3.565  -0.746  -6.971  0.00  0.00    -0.029 C 
ATOM      5  H   LIG d   1       2.546  -0.833  -6.594  0.00  0.00     0.031 H 
ATOM      6  C   LIG d   1       3.722   0.586  -7.702  0.00  0.00    -0.031 C 
ATOM      7  H   LIG d   1       3.588   1.405  -6.996  0.00  0.00     0.031 H 
ATOM      8  C   LIG d   1       2.691   0.708  -8.827  0.00  0.00    -0.030 C 
ATOM      9  H   LIG d   1       1.683   0.867  -8.445  0.00  0.00     0.031 H 
ATOM     10  C   LIG d   1       3.168   1.873  -9.743  0.00  0.00    -0.047 C 
ATOM     11  C   LIG d   1       4.321   1.252 -10.562  0.00  0.00    -0.026 C 
ATOM     12  C   LIG d   1       4.075  -0.270 -10.579  0.00  0.00     0.061 C 
ATOM     13  H   LIG d   1       4.908  -0.790 -10.104  0.00  0.00     0.060 H 
ATOM     14  C   LIG d   1       5.133   0.647  -8.296  0.00  0.00    -0.031 C 
ATOM     15  C   LIG d   1       6.135   0.440  -7.197  0.00  0.00    -0.084 C 
ATOM     16  C   LIG d   1       5.869  -0.217  -6.106  0.00  0.00    -0.065 C 
ATOM     17  C   LIG d   1       4.534  -0.835  -5.805  0.00  0.00    -0.008 C 
ATOM     18  C   LIG d   1       4.733  -2.298  -5.397  0.00  0.00    -0.041 C 
ATOM     19  C   LIG d   1       5.731  -2.372  -4.240  0.00  0.00    -0.026 C 
ATOM     20  C   LIG d   1       7.094  -1.845  -4.695  0.00  0.00     0.059 C 
ATOM     21  H   LIG d   1       7.428  -2.411  -5.564  0.00  0.00     0.060 H 
ATOM     22  C   LIG d   1       6.969  -0.364  -5.068  0.00  0.00    -0.005 C 
ATOM     23  H   LIG d   1       1.789  -1.978  -8.611  0.00  0.00     0.027 H 
ATOM     24  H   LIG d   1       2.957  -2.622  -9.782  0.00  0.00     0.027 H 
ATOM     25  H   LIG d   1       3.787  -2.841  -7.453  0.00  0.00     0.027 H 
ATOM     26  H   LIG d   1       4.824  -1.752  -8.410  0.00  0.00     0.027 H 
ATOM     27  H   LIG d   1       2.363   2.196 -10.402  0.00  0.00     0.027 H 
ATOM     28  H   LIG d   1       3.529   2.708  -9.144  0.00  0.00     0.027 H 
ATOM     29  H   LIG d   1       4.310   1.643 -11.579  0.00  0.00     0.029 H 
ATOM     30  H   LIG d   1       5.277   1.471 -10.088  0.00  0.00     0.029 H 
ATOM     31  H   LIG d   1       5.292   1.622  -8.756  0.00  0.00     0.031 H 
ATOM     32  H   LIG d   1       5.247  -0.134  -9.048  0.00  0.00     0.031 H 
ATOM     33  H   LIG d   1       7.124   0.854  -7.319  0.00  0.00     0.057 H 
ATOM     34  H   LIG d   1       3.778  -2.720  -5.081  0.00  0.00     0.027 H 
ATOM     35  H   LIG d   1       5.117  -2.863  -6.246  0.00  0.00     0.027 H 
ATOM     36  H   LIG d   1       5.370  -1.765  -3.410  0.00  0.00     0.029 H 
ATOM     37  H   LIG d   1       5.834  -3.406  -3.915  0.00  0.00     0.029 H 
ATOM     38  H   LIG d   1       7.913  -0.010  -5.482  0.00  0.00     0.034 H 
ATOM     39  H   LIG d   1       6.716   0.218  -4.181  0.00  0.00     0.034 H 
ENDROOT
BRANCH   1  40
ATOM     40  C   LIG d   1       1.595  -0.461 -10.741  0.00  0.00    -0.057 C 
ATOM     41  H   LIG d   1       0.894   0.311 -10.423  0.00  0.00     0.024 H 
ATOM     42  H   LIG d   1       1.948  -0.240 -11.749  0.00  0.00     0.024 H 
ATOM     43  H   LIG d   1       1.095  -1.430 -10.737  0.00  0.00     0.024 H 
ENDBRANCH   1  40
BRANCH  12  44
ATOM     44  O   LIG d   1       3.910  -0.728 -11.922  0.00  0.00    -0.391 OA
ATOM     45  H   LIG d   1       4.694  -0.616 -12.476  0.00  0.00     0.210 HD
ENDBRANCH  12  44
BRANCH  17  46
ATOM     46  C   LIG d   1       3.921  -0.098  -4.613  0.00  0.00    -0.056 C 
ATOM     47  H   LIG d   1       4.152  -0.638  -3.693  0.00  0.00     0.024 H 
ATOM     48  H   LIG d   1       4.337   0.908  -4.556  0.00  0.00     0.024 H 
ATOM     49  H   LIG d   1       2.841  -0.038  -4.737  0.00  0.00     0.024 H 
ENDBRANCH  17  46
BRANCH  20  50
ATOM     50  O   LIG d   1       8.043  -1.990  -3.638  0.00  0.00    -0.392 OA
ATOM     51  H   LIG d   1       8.863  -2.429  -3.902  0.00  0.00     0.210 HD
ENDBRANCH  20  50
TORSDOF 4
ENDMDL
MODEL 7
REMARK VINA RESULT:      -5.5      3.210      5.560
REMARK  4 active torsions:
REMARK  status: ('A' for Active; 'I' for Inactive)
REMARK    1  A    between atoms: C_1  and  C_2 
REMARK    2  A    between atoms: C_13  and  O_15 
REMARK    3  A    between atoms: C_19  and  C_26 
REMARK    4  A    between atoms: C_22  and  O_25 
ROOT
ATOM      1  C   LIG d   1       5.949  -5.026  -6.196  0.00  0.00    -0.003 C 
ATOM      2  C   LIG d   1       4.767  -5.013  -5.254  0.00  0.00    -0.045 C 
ATOM      3  C   LIG d   1       4.732  -3.730  -4.422  0.00  0.00    -0.049 C 
ATOM      4  C   LIG d   1       4.649  -2.535  -5.380  0.00  0.00    -0.029 C 
ATOM      5  H   LIG d   1       3.786  -2.656  -6.034  0.00  0.00     0.031 H 
ATOM      6  C   LIG d   1       5.922  -2.502  -6.222  0.00  0.00    -0.031 C 
ATOM      7  H   LIG d   1       5.907  -1.626  -6.869  0.00  0.00     0.031 H 
ATOM      8  C   LIG d   1       6.035  -3.767  -7.077  0.00  0.00    -0.030 C 
ATOM      9  H   LIG d   1       5.316  -3.774  -7.896  0.00  0.00     0.031 H 
ATOM     10  C   LIG d   1       7.507  -3.834  -7.580  0.00  0.00    -0.047 C 
ATOM     11  C   LIG d   1       8.298  -4.326  -6.348  0.00  0.00    -0.026 C 
ATOM     12  C   LIG d   1       7.293  -5.087  -5.458  0.00  0.00     0.061 C 
ATOM     13  H   LIG d   1       7.210  -4.600  -4.486  0.00  0.00     0.060 H 
ATOM     14  C   LIG d   1       7.125  -2.420  -5.276  0.00  0.00    -0.031 C 
ATOM     15  C   LIG d   1       6.962  -1.224  -4.383  0.00  0.00    -0.084 C 
ATOM     16  C   LIG d   1       5.803  -0.714  -4.079  0.00  0.00    -0.065 C 
ATOM     17  C   LIG d   1       4.495  -1.246  -4.590  0.00  0.00    -0.008 C 
ATOM     18  C   LIG d   1       3.541  -1.462  -3.412  0.00  0.00    -0.041 C 
ATOM     19  C   LIG d   1       3.418  -0.164  -2.612  0.00  0.00    -0.026 C 
ATOM     20  C   LIG d   1       4.779   0.214  -2.023  0.00  0.00     0.059 C 
ATOM     21  H   LIG d   1       5.150  -0.611  -1.415  0.00  0.00     0.060 H 
ATOM     22  C   LIG d   1       5.767   0.494  -3.160  0.00  0.00    -0.005 C 
ATOM     23  H   LIG d   1       3.847  -5.087  -5.835  0.00  0.00     0.027 H 
ATOM     24  H   LIG d   1       4.835  -5.870  -4.585  0.00  0.00     0.027 H 
ATOM     25  H   LIG d   1       3.858  -3.740  -3.770  0.00  0.00     0.027 H 
ATOM     26  H   LIG d   1       5.638  -3.658  -3.821  0.00  0.00     0.027 H 
ATOM     27  H   LIG d   1       7.599  -4.545  -8.401  0.00  0.00     0.027 H 
ATOM     28  H   LIG d   1       7.852  -2.848  -7.889  0.00  0.00     0.027 H 
ATOM     29  H   LIG d   1       9.099  -4.996  -6.661  0.00  0.00     0.029 H 
ATOM     30  H   LIG d   1       8.710  -3.477  -5.804  0.00  0.00     0.029 H 
ATOM     31  H   LIG d   1       8.040  -2.317  -5.859  0.00  0.00     0.031 H 
ATOM     32  H   LIG d   1       7.177  -3.325  -4.670  0.00  0.00     0.031 H 
ATOM     33  H   LIG d   1       7.848  -0.765  -3.970  0.00  0.00     0.057 H 
ATOM     34  H   LIG d   1       2.559  -1.751  -3.788  0.00  0.00     0.027 H 
ATOM     35  H   LIG d   1       3.930  -2.251  -2.768  0.00  0.00     0.027 H 
ATOM     36  H   LIG d   1       3.077   0.636  -3.270  0.00  0.00     0.029 H 
ATOM     37  H   LIG d   1       2.700  -0.301  -1.805  0.00  0.00     0.029 H 
ATOM     38  H   LIG d   1       6.760   0.670  -2.747  0.00  0.00     0.034 H 
ATOM     39  H   LIG d   1       5.442   1.371  -3.720  0.00  0.00     0.034 H 
ENDROOT
BRANCH   1  40
ATOM     40  C   LIG d   1       5.825  -6.255  -7.099  0.00  0.00    -0.057 C 
ATOM     41  H   LIG d   1       5.897  -7.159  -6.494  0.00  0.00     0.024 H 
ATOM     42  H   LIG d   1       4.862  -6.235  -7.609  0.00  0.00     0.024 H 
ATOM     43  H   LIG d   1       6.626  -6.246  -7.837  0.00  0.00     0.024 H 
ENDBRANCH   1  40
BRANCH  12  44
ATOM     44  O   LIG d   1       7.706  -6.444  -5.297  0.00  0.00    -0.391 OA
ATOM     45  H   LIG d   1       7.030  -7.093  -5.536  0.00  0.00     0.210 HD
ENDBRANCH  12  44
BRANCH  17  46
ATOM     46  C   LIG d   1       3.873  -0.192  -5.506  0.00  0.00    -0.056 C 
ATOM     47  H   LIG d   1       4.447  -0.129  -6.431  0.00  0.00     0.024 H 
ATOM     48  H   LIG d   1       2.845  -0.472  -5.737  0.00  0.00     0.024 H 
ATOM     49  H   LIG d   1       3.883   0.777  -5.007  0.00  0.00     0.024 H 
ENDBRANCH  17  46
BRANCH  20  50
ATOM     50  O   LIG d   1       4.644   1.382  -1.212  0.00  0.00    -0.392 OA
ATOM     51  H   LIG d   1       5.486   1.754  -0.914  0.00  0.00     0.210 HD
ENDBRANCH  20  50
TORSDOF 4
ENDMDL
MODEL 8
REMARK VINA RESULT:      -5.5      3.136      4.152
REMARK  4 active torsions:
REMARK  status: ('A' for Active; 'I' for Inactive)
REMARK    1  A    between atoms: C_1  and  C_2 
REMARK    2  A    between atoms: C_13  and  O_15 
REMARK    3  A    between atoms: C_19  and  C_26 
REMARK    4  A    between atoms: C_22  and  O_25 
ROOT
ATOM      1  C   LIG d   1       4.547  -1.873  -3.370  0.00  0.00    -0.003 C 
ATOM      2  C   LIG d   1       4.824  -3.109  -4.194  0.00  0.00    -0.045 C 
ATOM      3  C   LIG d   1       5.833  -2.824  -5.306  0.00  0.00    -0.049 C 
ATOM      4  C   LIG d   1       7.133  -2.324  -4.664  0.00  0.00    -0.029 C 
ATOM      5  H   LIG d   1       7.481  -3.057  -3.936  0.00  0.00     0.031 H 
ATOM      6  C   LIG d   1       6.844  -1.003  -3.954  0.00  0.00    -0.031 C 
ATOM      7  H   LIG d   1       7.769  -0.604  -3.539  0.00  0.00     0.031 H 
ATOM      8  C   LIG d   1       5.826  -1.208  -2.829  0.00  0.00    -0.030 C 
ATOM      9  H   LIG d   1       6.253  -1.741  -1.980  0.00  0.00     0.031 H 
ATOM     10  C   LIG d   1       5.304   0.206  -2.439  0.00  0.00    -0.047 C 
ATOM     11  C   LIG d   1       4.317   0.563  -3.571  0.00  0.00    -0.026 C 
ATOM     12  C   LIG d   1       3.837  -0.775  -4.171  0.00  0.00     0.061 C 
ATOM     13  H   LIG d   1       4.117  -0.836  -5.223  0.00  0.00     0.060 H 
ATOM     14  C   LIG d   1       6.276  -0.018  -4.981  0.00  0.00    -0.031 C 
ATOM     15  C   LIG d   1       7.243   0.110  -6.122  0.00  0.00    -0.084 C 
ATOM     16  C   LIG d   1       8.084  -0.827  -6.451  0.00  0.00    -0.065 C 
ATOM     17  C   LIG d   1       8.201  -2.139  -5.728  0.00  0.00    -0.008 C 
ATOM     18  C   LIG d   1       8.138  -3.284  -6.742  0.00  0.00    -0.041 C 
ATOM     19  C   LIG d   1       9.201  -3.067  -7.821  0.00  0.00    -0.026 C 
ATOM     20  C   LIG d   1       8.909  -1.775  -8.587  0.00  0.00     0.059 C 
ATOM     21  H   LIG d   1       7.903  -1.822  -9.003  0.00  0.00     0.060 H 
ATOM     22  C   LIG d   1       9.009  -0.583  -7.630  0.00  0.00    -0.005 C 
ATOM     23  H   LIG d   1       5.221  -3.890  -3.544  0.00  0.00     0.027 H 
ATOM     24  H   LIG d   1       3.892  -3.457  -4.638  0.00  0.00     0.027 H 
ATOM     25  H   LIG d   1       6.028  -3.738  -5.868  0.00  0.00     0.027 H 
ATOM     26  H   LIG d   1       5.436  -2.060  -5.975  0.00  0.00     0.027 H 
ATOM     27  H   LIG d   1       4.789   0.173  -1.480  0.00  0.00     0.027 H 
ATOM     28  H   LIG d   1       6.125   0.922  -2.406  0.00  0.00     0.027 H 
ATOM     29  H   LIG d   1       3.469   1.116  -3.168  0.00  0.00     0.029 H 
ATOM     30  H   LIG d   1       4.821   1.156  -4.334  0.00  0.00     0.029 H 
ATOM     31  H   LIG d   1       6.134   0.956  -4.511  0.00  0.00     0.031 H 
ATOM     32  H   LIG d   1       5.319  -0.387  -5.351  0.00  0.00     0.031 H 
ATOM     33  H   LIG d   1       7.239   1.022  -6.700  0.00  0.00     0.057 H 
ATOM     34  H   LIG d   1       8.323  -4.230  -6.234  0.00  0.00     0.027 H 
ATOM     35  H   LIG d   1       7.150  -3.307  -7.204  0.00  0.00     0.027 H 
ATOM     36  H   LIG d   1      10.182  -2.994  -7.353  0.00  0.00     0.029 H 
ATOM     37  H   LIG d   1       9.191  -3.908  -8.514  0.00  0.00     0.029 H 
ATOM     38  H   LIG d   1       8.710   0.329  -8.148  0.00  0.00     0.034 H 
ATOM     39  H   LIG d   1      10.036  -0.482  -7.276  0.00  0.00     0.034 H 
ENDROOT
BRANCH   1  40
ATOM     40  C   LIG d   1       3.662  -2.276  -2.189  0.00  0.00    -0.057 C 
ATOM     41  H   LIG d   1       3.021  -3.108  -2.482  0.00  0.00     0.024 H 
ATOM     42  H   LIG d   1       4.289  -2.578  -1.351  0.00  0.00     0.024 H 
ATOM     43  H   LIG d   1       3.044  -1.429  -1.893  0.00  0.00     0.024 H 
ENDBRANCH   1  40
BRANCH  12  44
ATOM     44  O   LIG d   1       2.421  -0.899  -4.030  0.00  0.00    -0.391 OA
ATOM     45  H   LIG d   1       2.050  -0.375  -3.307  0.00  0.00     0.210 HD
ENDBRANCH  12  44
BRANCH  17  46
ATOM     46  C   LIG d   1       9.571  -2.192  -5.050  0.00  0.00    -0.056 C 
ATOM     47  H   LIG d   1       9.997  -3.188  -5.169  0.00  0.00     0.024 H 
ATOM     48  H   LIG d   1      10.232  -1.457  -5.509  0.00  0.00     0.024 H 
ATOM     49  H   LIG d   1       9.461  -1.969  -3.989  0.00  0.00     0.024 H 
ENDBRANCH  17  46
BRANCH  20  50
ATOM     50  O   LIG d   1       9.856  -1.618  -9.644  0.00  0.00    -0.392 OA
ATOM     51  H   LIG d   1       9.737  -2.241 -10.375  0.00  0.00     0.210 HD
ENDBRANCH  20  50
TORSDOF 4
ENDMDL
MODEL 9
REMARK VINA RESULT:      -5.5      3.312      5.904
REMARK  4 active torsions:
REMARK  status: ('A' for Active; 'I' for Inactive)
REMARK    1  A    between atoms: C_1  and  C_2 
REMARK    2  A    between atoms: C_13  and  O_15 
REMARK    3  A    between atoms: C_19  and  C_26 
REMARK    4  A    between atoms: C_22  and  O_25 
ROOT
ATOM      1  C   LIG d   1       3.790   1.313  -9.502  0.00  0.00    -0.003 C 
ATOM      2  C   LIG d   1       4.063   1.270 -10.988  0.00  0.00    -0.045 C 
ATOM      3  C   LIG d   1       3.833  -0.131 -11.556  0.00  0.00    -0.049 C 
ATOM      4  C   LIG d   1       2.377  -0.531 -11.282  0.00  0.00    -0.029 C 
ATOM      5  H   LIG d   1       1.711   0.225 -11.698  0.00  0.00     0.031 H 
ATOM      6  C   LIG d   1       2.175  -0.609  -9.771  0.00  0.00    -0.031 C 
ATOM      7  H   LIG d   1       1.162  -0.947  -9.557  0.00  0.00     0.031 H 
ATOM      8  C   LIG d   1       2.403   0.761  -9.125  0.00  0.00    -0.030 C 
ATOM      9  H   LIG d   1       1.596   1.459  -9.347  0.00  0.00     0.031 H 
ATOM     10  C   LIG d   1       2.567   0.512  -7.598  0.00  0.00    -0.047 C 
ATOM     11  C   LIG d   1       4.004  -0.040  -7.465  0.00  0.00    -0.026 C 
ATOM     12  C   LIG d   1       4.785   0.472  -8.692  0.00  0.00     0.061 C 
ATOM     13  H   LIG d   1       5.139  -0.369  -9.289  0.00  0.00     0.060 H 
ATOM     14  C   LIG d   1       3.182  -1.613  -9.200  0.00  0.00    -0.031 C 
ATOM     15  C   LIG d   1       3.008  -2.930  -9.900  0.00  0.00    -0.084 C 
ATOM     16  C   LIG d   1       2.526  -3.038 -11.103  0.00  0.00    -0.065 C 
ATOM     17  C   LIG d   1       2.075  -1.870 -11.933  0.00  0.00    -0.008 C 
ATOM     18  C   LIG d   1       2.734  -1.944 -13.314  0.00  0.00    -0.041 C 
ATOM     19  C   LIG d   1       2.442  -3.308 -13.943  0.00  0.00    -0.026 C 
ATOM     20  C   LIG d   1       3.063  -4.417 -13.091  0.00  0.00     0.059 C 
ATOM     21  H   LIG d   1       4.132  -4.234 -12.982  0.00  0.00     0.060 H 
ATOM     22  C   LIG d   1       2.404  -4.426 -11.708  0.00  0.00    -0.005 C 
ATOM     23  H   LIG d   1       3.401   1.973 -11.494  0.00  0.00     0.027 H 
ATOM     24  H   LIG d   1       5.097   1.562 -11.168  0.00  0.00     0.027 H 
ATOM     25  H   LIG d   1       4.017  -0.126 -12.631  0.00  0.00     0.027 H 
ATOM     26  H   LIG d   1       4.506  -0.838 -11.072  0.00  0.00     0.027 H 
ATOM     27  H   LIG d   1       2.464   1.444  -7.044  0.00  0.00     0.027 H 
ATOM     28  H   LIG d   1       1.841  -0.222  -7.248  0.00  0.00     0.027 H 
ATOM     29  H   LIG d   1       4.464   0.332  -6.549  0.00  0.00     0.029 H 
ATOM     30  H   LIG d   1       3.987  -1.129  -7.459  0.00  0.00     0.029 H 
ATOM     31  H   LIG d   1       3.002  -1.741  -8.132  0.00  0.00     0.031 H 
ATOM     32  H   LIG d   1       4.196  -1.245  -9.358  0.00  0.00     0.031 H 
ATOM     33  H   LIG d   1       3.298  -3.830  -9.380  0.00  0.00     0.057 H 
ATOM     34  H   LIG d   1       2.332  -1.156 -13.951  0.00  0.00     0.027 H 
ATOM     35  H   LIG d   1       3.811  -1.813 -13.210  0.00  0.00     0.027 H 
ATOM     36  H   LIG d   1       1.364  -3.458 -14.000  0.00  0.00     0.029 H 
ATOM     37  H   LIG d   1       2.866  -3.342 -14.946  0.00  0.00     0.029 H 
ATOM     38  H   LIG d   1       2.907  -5.150 -11.067  0.00  0.00     0.034 H 
ATOM     39  H   LIG d   1       1.351  -4.692 -11.805  0.00  0.00     0.034 H 
ENDROOT
BRANCH   1  40
ATOM     40  C   LIG d   1       3.884   2.770  -9.043  0.00  0.00    -0.057 C 
ATOM     41  H   LIG d   1       3.181   3.377  -9.614  0.00  0.00     0.024 H 
ATOM     42  H   LIG d   1       3.641   2.832  -7.982  0.00  0.00     0.024 H 
ATOM     43  H   LIG d   1       4.896   3.137  -9.205  0.00  0.00     0.024 H 
ENDBRANCH   1  40
BRANCH  12  44
ATOM     44  O   LIG d   1       5.887   1.279  -8.274  0.00  0.00    -0.391 OA
ATOM     45  H   LIG d   1       6.732   0.811  -8.254  0.00  0.00     0.210 HD
ENDBRANCH  12  44
BRANCH  17  46
ATOM     46  C   LIG d   1       0.563  -1.978 -12.132  0.00  0.00    -0.056 C 
ATOM     47  H   LIG d   1       0.207  -2.919 -11.713  0.00  0.00     0.024 H 
ATOM     48  H   LIG d   1       0.070  -1.147 -11.626  0.00  0.00     0.024 H 
ATOM     49  H   LIG d   1       0.332  -1.944 -13.196  0.00  0.00     0.024 H 
ENDBRANCH  17  46
BRANCH  20  50
ATOM     50  O   LIG d   1       2.858  -5.681 -13.724  0.00  0.00    -0.392 OA
ATOM     51  H   LIG d   1       2.067  -6.149 -13.422  0.00  0.00     0.210 HD
ENDBRANCH  20  50
TORSDOF 4
ENDMDL
MODEL 10
REMARK VINA RESULT:      -5.4      7.576      9.937
REMARK  4 active torsions:
REMARK  status: ('A' for Active; 'I' for Inactive)
REMARK    1  A    between atoms: C_1  and  C_2 
REMARK    2  A    between atoms: C_13  and  O_15 
REMARK    3  A    between atoms: C_19  and  C_26 
REMARK    4  A    between atoms: C_22  and  O_25 
ROOT
ATOM      1  C   LIG d   1      10.000   8.695  -7.214  0.00  0.00    -0.003 C 
ATOM      2  C   LIG d   1       9.488   8.607  -5.796  0.00  0.00    -0.045 C 
ATOM      3  C   LIG d   1       9.335   7.153  -5.347  0.00  0.00    -0.049 C 
ATOM      4  C   LIG d   1      10.704   6.468  -5.450  0.00  0.00    -0.029 C 
ATOM      5  H   LIG d   1      11.434   7.031  -4.869  0.00  0.00     0.031 H 
ATOM      6  C   LIG d   1      11.127   6.455  -6.917  0.00  0.00    -0.031 C 
ATOM      7  H   LIG d   1      12.072   5.922  -7.018  0.00  0.00     0.031 H 
ATOM      8  C   LIG d   1      11.289   7.883  -7.444  0.00  0.00    -0.030 C 
ATOM      9  H   LIG d   1      12.174   8.373  -7.039  0.00  0.00     0.031 H 
ATOM     10  C   LIG d   1      11.325   7.784  -8.997  0.00  0.00    -0.047 C 
ATOM     11  C   LIG d   1       9.847   7.567  -9.390  0.00  0.00    -0.026 C 
ATOM     12  C   LIG d   1       8.999   8.147  -8.240  0.00  0.00     0.061 C 
ATOM     13  H   LIG d   1       8.390   7.363  -7.789  0.00  0.00     0.060 H 
ATOM     14  C   LIG d   1      10.043   5.735  -7.726  0.00  0.00    -0.031 C 
ATOM     15  C   LIG d   1       9.831   4.366  -7.147  0.00  0.00    -0.084 C 
ATOM     16  C   LIG d   1      10.081   4.072  -5.905  0.00  0.00    -0.065 C 
ATOM     17  C   LIG d   1      10.619   5.053  -4.904  0.00  0.00    -0.008 C 
ATOM     18  C   LIG d   1       9.746   5.026  -3.646  0.00  0.00    -0.041 C 
ATOM     19  C   LIG d   1       9.650   3.591  -3.125  0.00  0.00    -0.026 C 
ATOM     20  C   LIG d   1       8.963   2.705  -4.166  0.00  0.00     0.059 C 
ATOM     21  H   LIG d   1       7.985   3.122  -4.407  0.00  0.00     0.060 H 
ATOM     22  C   LIG d   1       9.820   2.651  -5.435  0.00  0.00    -0.005 C 
ATOM     23  H   LIG d   1      10.189   9.113  -5.131  0.00  0.00     0.027 H 
ATOM     24  H   LIG d   1       8.520   9.103  -5.735  0.00  0.00     0.027 H 
ATOM     25  H   LIG d   1       8.986   7.122  -4.314  0.00  0.00     0.027 H 
ATOM     26  H   LIG d   1       8.619   6.644  -5.992  0.00  0.00     0.027 H 
ATOM     27  H   LIG d   1      11.703   8.708  -9.432  0.00  0.00     0.027 H 
ATOM     28  H   LIG d   1      11.934   6.937  -9.313  0.00  0.00     0.027 H 
ATOM     29  H   LIG d   1       9.626   8.092 -10.319  0.00  0.00     0.029 H 
ATOM     30  H   LIG d   1       9.643   6.502  -9.505  0.00  0.00     0.029 H 
ATOM     31  H   LIG d   1      10.362   5.647  -8.765  0.00  0.00     0.031 H 
ATOM     32  H   LIG d   1       9.113   6.301  -7.677  0.00  0.00     0.031 H 
ATOM     33  H   LIG d   1       9.451   3.588  -7.793  0.00  0.00     0.057 H 
ATOM     34  H   LIG d   1      10.192   5.662  -2.881  0.00  0.00     0.027 H 
ATOM     35  H   LIG d   1       8.749   5.394  -3.888  0.00  0.00     0.027 H 
ATOM     36  H   LIG d   1      10.651   3.207  -2.931  0.00  0.00     0.029 H 
ATOM     37  H   LIG d   1       9.072   3.579  -2.202  0.00  0.00     0.029 H 
ATOM     38  H   LIG d   1       9.290   2.100  -6.212  0.00  0.00     0.034 H 
ATOM     39  H   LIG d   1      10.767   2.157  -5.217  0.00  0.00     0.034 H 
ENDROOT
BRANCH   1  40
ATOM     40  C   LIG d   1      10.279  10.166  -7.530  0.00  0.00    -0.057 C 
ATOM     41  H   LIG d   1      10.959  10.232  -8.380  0.00  0.00     0.024 H 
ATOM     42  H   LIG d   1       9.343  10.668  -7.773  0.00  0.00     0.024 H 
ATOM     43  H   LIG d   1      10.733  10.643  -6.663  0.00  0.00     0.024 H 
ENDBRANCH   1  40
BRANCH  12  44
ATOM     44  O   LIG d   1       8.166   9.201  -8.725  0.00  0.00    -0.391 OA
ATOM     45  H   LIG d   1       8.607  10.059  -8.780  0.00  0.00     0.210 HD
ENDBRANCH  12  44
BRANCH  17  46
ATOM     46  C   LIG d   1      12.027   4.607  -4.504  0.00  0.00    -0.056 C 
ATOM     47  H   LIG d   1      12.760   5.094  -5.148  0.00  0.00     0.024 H 
ATOM     48  H   LIG d   1      12.214   4.886  -3.466  0.00  0.00     0.024 H 
ATOM     49  H   LIG d   1      12.110   3.526  -4.611  0.00  0.00     0.024 H 
ENDBRANCH  17  46
BRANCH  20  50
ATOM     50  O   LIG d   1       8.802   1.385  -3.644  0.00  0.00    -0.392 OA
ATOM     51  H   LIG d   1       8.115   1.310  -2.968  0.00  0.00     0.210 HD
ENDBRANCH  20  50
TORSDOF 4
ENDMDL
