MODEL 1
REMARK VINA RESULT:      -6.2      0.000      0.000
REMARK  9 active torsions:
REMARK  status: ('A' for Active; 'I' for Inactive)
REMARK    1  A    between atoms: C_1  and  O_2 
REMARK    2  A    between atoms: O_2  and  C_3 
REMARK    3  A    between atoms: C_8  and  O_9 
REMARK    4  A    between atoms: O_9  and  C_10 
REMARK    5  A    between atoms: C_13  and  N_20 
REMARK    6  A    between atoms: N_20  and  C_21 
REMARK    7  A    between atoms: C_21  and  C_22 
REMARK    8  A    between atoms: C_22  and  C_23 
REMARK    9  A    between atoms: C_23  and  N_24 
ROOT
ATOM      1  C   LIG d   1       1.559  -2.464 -12.999  0.00  0.00     0.162 A 
ATOM      2  C   LIG d   1       2.622  -1.573 -13.090  0.00  0.00    -0.012 A 
ATOM      3  C   LIG d   1       3.069  -0.928 -11.963  0.00  0.00    -0.033 A 
ATOM      4  C   LIG d   1       2.457  -1.164 -10.724  0.00  0.00     0.006 A 
ATOM      5  C   LIG d   1       1.393  -2.058 -10.633  0.00  0.00    -0.007 A 
ATOM      6  C   LIG d   1       0.952  -2.711 -11.770  0.00  0.00     0.162 A 
ATOM      7  C   LIG d   1       2.965  -0.439  -9.545  0.00  0.00     0.057 A 
ATOM      8  C   LIG d   1       2.742  -0.895  -8.278  0.00  0.00     0.003 A 
ATOM      9  C   LIG d   1       3.266  -0.163  -7.198  0.00  0.00     0.126 A 
ATOM     10  N   LIG d   1       3.962   0.944  -7.428  0.00  0.00    -0.178 NA
ATOM     11  C   LIG d   1       4.172   1.383  -8.667  0.00  0.00     0.351 A 
ATOM     12  O   LIG d   1       4.820   2.402  -8.841  0.00  0.00    -0.244 OA
ATOM     13  N   LIG d   1       3.682   0.721  -9.729  0.00  0.00    -0.292 N 
ATOM     14  C   LIG d   1       3.898   1.225 -11.090  0.00  0.00     0.032 C 
ATOM     15  C   LIG d   1       4.225   0.042 -12.015  0.00  0.00    -0.009 C 
ATOM     16  H   LIG d   1       3.093  -1.387 -14.043  0.00  0.00     0.066 H 
ATOM     17  H   LIG d   1       0.920  -2.245  -9.680  0.00  0.00     0.066 H 
ATOM     18  H   LIG d   1       2.176  -1.799  -8.109  0.00  0.00     0.067 H 
ATOM     19  H   LIG d   1       4.730   1.929 -11.090  0.00  0.00     0.050 H 
ATOM     20  H   LIG d   1       2.995   1.725 -11.442  0.00  0.00     0.050 H 
ATOM     21  H   LIG d   1       5.135  -0.450 -11.673  0.00  0.00     0.033 H 
ATOM     22  H   LIG d   1       4.361   0.400 -13.036  0.00  0.00     0.033 H 
ENDROOT
BRANCH   9  23
ATOM     23  N   LIG d   1       3.056  -0.594  -5.906  0.00  0.00    -0.329 NA
ATOM     24  H   LIG d   1       2.403  -1.350  -5.908  0.00  0.00     0.147 HD
BRANCH  23  25
ATOM     25  C   LIG d   1       2.522   0.332  -4.904  0.00  0.00     0.012 C 
ATOM     26  H   LIG d   1       3.161   1.213  -4.845  0.00  0.00     0.046 H 
ATOM     27  H   LIG d   1       1.514   0.632  -5.188  0.00  0.00     0.046 H 
BRANCH  25  28
ATOM     28  C   LIG d   1       2.484  -0.361  -3.540  0.00  0.00    -0.019 C 
ATOM     29  H   LIG d   1       1.492  -0.245  -3.102  0.00  0.00     0.030 H 
ATOM     30  H   LIG d   1       2.705  -1.420  -3.663  0.00  0.00     0.030 H 
BRANCH  28  31
ATOM     31  C   LIG d   1       3.526   0.273  -2.616  0.00  0.00     0.026 C 
ATOM     32  H   LIG d   1       3.554   1.350  -2.784  0.00  0.00     0.049 H 
ATOM     33  H   LIG d   1       3.259   0.075  -1.578  0.00  0.00     0.049 H 
BRANCH  31  34
ATOM     34  N   LIG d   1       4.844  -0.300  -2.900  0.00  0.00    -0.337 N 
ATOM     35  C   LIG d   1       5.167  -1.610  -2.889  0.00  0.00     0.096 A 
ATOM     36  N   LIG d   1       6.431  -1.732  -3.190  0.00  0.00    -0.244 NA
ATOM     37  H   LIG d   1       4.492  -2.423  -2.667  0.00  0.00     0.103 H 
ATOM     38  C   LIG d   1       6.955  -0.515  -3.402  0.00  0.00     0.045 A 
ATOM     39  C   LIG d   1       5.977   0.394  -3.231  0.00  0.00     0.024 A 
ATOM     40  H   LIG d   1       7.980  -0.303  -3.668  0.00  0.00     0.085 H 
ATOM     41  H   LIG d   1       6.069   1.466  -3.332  0.00  0.00     0.083 H 
ENDBRANCH  31  34
ENDBRANCH  28  31
ENDBRANCH  25  28
ENDBRANCH  23  25
ENDBRANCH   9  23
BRANCH   6  42
ATOM     42  O   LIG d   1      -0.083  -3.591 -11.688  0.00  0.00    -0.491 OA
BRANCH  42  43
ATOM     43  C   LIG d   1      -0.115  -4.450 -10.547  0.00  0.00     0.079 C 
ATOM     44  H   LIG d   1      -1.046  -4.294 -10.001  0.00  0.00     0.066 H 
ATOM     45  H   LIG d   1      -0.055  -5.488 -10.872  0.00  0.00     0.066 H 
ATOM     46  H   LIG d   1       0.729  -4.223  -9.896  0.00  0.00     0.066 H 
ENDBRANCH  42  43
ENDBRANCH   6  42
BRANCH   1  47
ATOM     47  O   LIG d   1       1.117  -3.103 -14.114  0.00  0.00    -0.491 OA
BRANCH  47  48
ATOM     48  C   LIG d   1       1.863  -2.905 -15.316  0.00  0.00     0.079 C 
ATOM     49  H   LIG d   1       2.722  -2.266 -15.109  0.00  0.00     0.066 H 
ATOM     50  H   LIG d   1       2.209  -3.868 -15.691  0.00  0.00     0.066 H 
ATOM     51  H   LIG d   1       1.229  -2.430 -16.063  0.00  0.00     0.066 H 
ENDBRANCH  47  48
ENDBRANCH   1  47
TORSDOF 9
ENDMDL
MODEL 2
REMARK VINA RESULT:      -6.0      6.340     11.419
REMARK  9 active torsions:
REMARK  status: ('A' for Active; 'I' for Inactive)
REMARK    1  A    between atoms: C_1  and  O_2 
REMARK    2  A    between atoms: O_2  and  C_3 
REMARK    3  A    between atoms: C_8  and  O_9 
REMARK    4  A    between atoms: O_9  and  C_10 
REMARK    5  A    between atoms: C_13  and  N_20 
REMARK    6  A    between atoms: N_20  and  C_21 
REMARK    7  A    between atoms: C_21  and  C_22 
REMARK    8  A    between atoms: C_22  and  C_23 
REMARK    9  A    between atoms: C_23  and  N_24 
ROOT
ATOM      1  C   LIG d   1      10.126   7.852  -1.787  0.00  0.00     0.162 A 
ATOM      2  C   LIG d   1       9.936   7.936  -3.162  0.00  0.00    -0.012 A 
ATOM      3  C   LIG d   1       9.760   6.791  -3.898  0.00  0.00    -0.033 A 
ATOM      4  C   LIG d   1       9.773   5.537  -3.268  0.00  0.00     0.006 A 
ATOM      5  C   LIG d   1       9.962   5.454  -1.891  0.00  0.00    -0.007 A 
ATOM      6  C   LIG d   1      10.132   6.612  -1.153  0.00  0.00     0.162 A 
ATOM      7  C   LIG d   1       9.590   4.336  -4.102  0.00  0.00     0.057 A 
ATOM      8  C   LIG d   1       9.171   3.153  -3.564  0.00  0.00     0.003 A 
ATOM      9  C   LIG d   1       9.004   2.049  -4.418  0.00  0.00     0.126 A 
ATOM     10  N   LIG d   1       9.253   2.175  -5.716  0.00  0.00    -0.178 NA
ATOM     11  C   LIG d   1       9.664   3.331  -6.231  0.00  0.00     0.351 A 
ATOM     12  O   LIG d   1       9.879   3.412  -7.429  0.00  0.00    -0.244 OA
ATOM     13  N   LIG d   1       9.847   4.411  -5.451  0.00  0.00    -0.292 N 
ATOM     14  C   LIG d   1      10.324   5.676  -6.024  0.00  0.00     0.032 C 
ATOM     15  C   LIG d   1       9.542   6.837  -5.391  0.00  0.00    -0.009 C 
ATOM     16  H   LIG d   1       9.929   8.899  -3.650  0.00  0.00     0.066 H 
ATOM     17  H   LIG d   1       9.970   4.491  -1.401  0.00  0.00     0.066 H 
ATOM     18  H   LIG d   1       8.970   3.069  -2.507  0.00  0.00     0.067 H 
ATOM     19  H   LIG d   1      10.163   5.672  -7.102  0.00  0.00     0.050 H 
ATOM     20  H   LIG d   1      11.387   5.793  -5.813  0.00  0.00     0.050 H 
ATOM     21  H   LIG d   1       8.480   6.728  -5.612  0.00  0.00     0.033 H 
ATOM     22  H   LIG d   1       9.906   7.785  -5.787  0.00  0.00     0.033 H 
ENDROOT
BRANCH   9  23
ATOM     23  N   LIG d   1       8.585   0.839  -3.908  0.00  0.00    -0.329 NA
ATOM     24  H   LIG d   1       9.290   0.148  -4.066  0.00  0.00     0.147 HD
BRANCH  23  25
ATOM     25  C   LIG d   1       7.360   0.216  -4.415  0.00  0.00     0.012 C 
ATOM     26  H   LIG d   1       6.857   0.903  -5.096  0.00  0.00     0.046 H 
ATOM     27  H   LIG d   1       7.613  -0.701  -4.946  0.00  0.00     0.046 H 
BRANCH  25  28
ATOM     28  C   LIG d   1       6.431  -0.111  -3.244  0.00  0.00    -0.019 C 
ATOM     29  H   LIG d   1       7.013  -0.541  -2.429  0.00  0.00     0.030 H 
ATOM     30  H   LIG d   1       5.944   0.801  -2.901  0.00  0.00     0.030 H 
BRANCH  28  31
ATOM     31  C   LIG d   1       5.370  -1.115  -3.699  0.00  0.00     0.026 C 
ATOM     32  H   LIG d   1       5.826  -1.851  -4.361  0.00  0.00     0.049 H 
ATOM     33  H   LIG d   1       4.953  -1.621  -2.828  0.00  0.00     0.049 H 
BRANCH  31  34
ATOM     34  N   LIG d   1       4.303  -0.410  -4.413  0.00  0.00    -0.337 N 
ATOM     35  C   LIG d   1       3.468   0.515  -3.895  0.00  0.00     0.096 A 
ATOM     36  N   LIG d   1       2.654   0.916  -4.833  0.00  0.00    -0.244 NA
ATOM     37  H   LIG d   1       3.471   0.864  -2.873  0.00  0.00     0.103 H 
ATOM     38  C   LIG d   1       2.938   0.268  -5.972  0.00  0.00     0.045 A 
ATOM     39  C   LIG d   1       3.971  -0.562  -5.732  0.00  0.00     0.024 A 
ATOM     40  H   LIG d   1       2.431   0.393  -6.918  0.00  0.00     0.085 H 
ATOM     41  H   LIG d   1       4.445  -1.224  -6.444  0.00  0.00     0.083 H 
ENDBRANCH  31  34
ENDBRANCH  28  31
ENDBRANCH  25  28
ENDBRANCH  23  25
ENDBRANCH   9  23
BRANCH   6  42
ATOM     42  O   LIG d   1      10.311   6.538   0.193  0.00  0.00    -0.491 OA
BRANCH  42  43
ATOM     43  C   LIG d   1      11.404   5.745   0.660  0.00  0.00     0.079 C 
ATOM     44  H   LIG d   1      11.781   5.129  -0.157  0.00  0.00     0.066 H 
ATOM     45  H   LIG d   1      12.199   6.399   1.019  0.00  0.00     0.066 H 
ATOM     46  H   LIG d   1      11.067   5.103   1.474  0.00  0.00     0.066 H 
ENDBRANCH  42  43
ENDBRANCH   6  42
BRANCH   1  47
ATOM     47  O   LIG d   1      10.301   8.985  -1.059  0.00  0.00    -0.491 OA
BRANCH  47  48
ATOM     48  C   LIG d   1       9.132   9.752  -0.759  0.00  0.00     0.079 C 
ATOM     49  H   LIG d   1       9.426  10.701  -0.312  0.00  0.00     0.066 H 
ATOM     50  H   LIG d   1       8.576   9.939  -1.678  0.00  0.00     0.066 H 
ATOM     51  H   LIG d   1       8.505   9.199  -0.060  0.00  0.00     0.066 H 
ENDBRANCH  47  48
ENDBRANCH   1  47
TORSDOF 9
ENDMDL
MODEL 3
REMARK VINA RESULT:      -5.7      6.372      8.225
REMARK  9 active torsions:
REMARK  status: ('A' for Active; 'I' for Inactive)
REMARK    1  A    between atoms: C_1  and  O_2 
REMARK    2  A    between atoms: O_2  and  C_3 
REMARK    3  A    between atoms: C_8  and  O_9 
REMARK    4  A    between atoms: O_9  and  C_10 
REMARK    5  A    between atoms: C_13  and  N_20 
REMARK    6  A    between atoms: N_20  and  C_21 
REMARK    7  A    between atoms: C_21  and  C_22 
REMARK    8  A    between atoms: C_22  and  C_23 
REMARK    9  A    between atoms: C_23  and  N_24 
ROOT
ATOM      1  C   LIG d   1       6.235  -4.772  -5.308  0.00  0.00     0.162 A 
ATOM      2  C   LIG d   1       5.080  -4.147  -4.851  0.00  0.00    -0.012 A 
ATOM      3  C   LIG d   1       5.140  -2.853  -4.396  0.00  0.00    -0.033 A 
ATOM      4  C   LIG d   1       6.360  -2.162  -4.389  0.00  0.00     0.006 A 
ATOM      5  C   LIG d   1       7.516  -2.788  -4.848  0.00  0.00    -0.007 A 
ATOM      6  C   LIG d   1       7.449  -4.090  -5.312  0.00  0.00     0.162 A 
ATOM      7  C   LIG d   1       6.375  -0.778  -3.881  0.00  0.00     0.057 A 
ATOM      8  C   LIG d   1       7.371   0.093  -4.217  0.00  0.00     0.003 A 
ATOM      9  C   LIG d   1       7.319   1.402  -3.708  0.00  0.00     0.126 A 
ATOM     10  N   LIG d   1       6.312   1.764  -2.922  0.00  0.00    -0.178 NA
ATOM     11  C   LIG d   1       5.347   0.907  -2.597  0.00  0.00     0.351 A 
ATOM     12  O   LIG d   1       4.435   1.276  -1.875  0.00  0.00    -0.244 OA
ATOM     13  N   LIG d   1       5.361  -0.357  -3.052  0.00  0.00    -0.292 N 
ATOM     14  C   LIG d   1       4.306  -1.303  -2.669  0.00  0.00     0.032 C 
ATOM     15  C   LIG d   1       3.909  -2.133  -3.899  0.00  0.00    -0.009 C 
ATOM     16  H   LIG d   1       4.141  -4.677  -4.853  0.00  0.00     0.066 H 
ATOM     17  H   LIG d   1       8.458  -2.259  -4.846  0.00  0.00     0.066 H 
ATOM     18  H   LIG d   1       8.181  -0.217  -4.860  0.00  0.00     0.067 H 
ATOM     19  H   LIG d   1       3.438  -0.752  -2.305  0.00  0.00     0.050 H 
ATOM     20  H   LIG d   1       4.675  -1.964  -1.885  0.00  0.00     0.050 H 
ATOM     21  H   LIG d   1       3.527  -1.475  -4.680  0.00  0.00     0.033 H 
ATOM     22  H   LIG d   1       3.145  -2.859  -3.623  0.00  0.00     0.033 H 
ENDROOT
BRANCH   9  23
ATOM     23  N   LIG d   1       8.309   2.306  -4.025  0.00  0.00    -0.329 NA
ATOM     24  H   LIG d   1       8.293   2.489  -5.008  0.00  0.00     0.147 HD
BRANCH  23  25
ATOM     25  C   LIG d   1       9.712   1.983  -3.749  0.00  0.00     0.012 C 
ATOM     26  H   LIG d   1       9.762   1.122  -3.081  0.00  0.00     0.046 H 
ATOM     27  H   LIG d   1      10.220   1.747  -4.684  0.00  0.00     0.046 H 
BRANCH  25  28
ATOM     28  C   LIG d   1      10.391   3.182  -3.086  0.00  0.00    -0.019 C 
ATOM     29  H   LIG d   1      10.298   3.099  -2.003  0.00  0.00     0.030 H 
ATOM     30  H   LIG d   1      11.445   3.200  -3.360  0.00  0.00     0.030 H 
BRANCH  28  31
ATOM     31  C   LIG d   1       9.720   4.474  -3.557  0.00  0.00     0.026 C 
ATOM     32  H   LIG d   1      10.209   4.828  -4.464  0.00  0.00     0.049 H 
ATOM     33  H   LIG d   1       8.667   4.281  -3.765  0.00  0.00     0.049 H 
BRANCH  31  34
ATOM     34  N   LIG d   1       9.833   5.494  -2.512  0.00  0.00    -0.337 N 
ATOM     35  C   LIG d   1      10.424   5.344  -1.308  0.00  0.00     0.096 A 
ATOM     36  N   LIG d   1      10.326   6.468  -0.651  0.00  0.00    -0.244 NA
ATOM     37  H   LIG d   1      10.899   4.444  -0.947  0.00  0.00     0.103 H 
ATOM     38  C   LIG d   1       9.674   7.365  -1.405  0.00  0.00     0.045 A 
ATOM     39  C   LIG d   1       9.362   6.778  -2.575  0.00  0.00     0.024 A 
ATOM     40  H   LIG d   1       9.445   8.383  -1.124  0.00  0.00     0.085 H 
ATOM     41  H   LIG d   1       8.838   7.231  -3.405  0.00  0.00     0.083 H 
ENDBRANCH  31  34
ENDBRANCH  28  31
ENDBRANCH  25  28
ENDBRANCH  23  25
ENDBRANCH   9  23
BRANCH   6  42
ATOM     42  O   LIG d   1       8.574  -4.705  -5.768  0.00  0.00    -0.491 OA
BRANCH  42  43
ATOM     43  C   LIG d   1       9.626  -3.865  -6.245  0.00  0.00     0.079 C 
ATOM     44  H   LIG d   1       9.968  -4.227  -7.215  0.00  0.00     0.066 H 
ATOM     45  H   LIG d   1       9.258  -2.845  -6.347  0.00  0.00     0.066 H 
ATOM     46  H   LIG d   1      10.455  -3.883  -5.538  0.00  0.00     0.066 H 
ENDBRANCH  42  43
ENDBRANCH   6  42
BRANCH   1  47
ATOM     47  O   LIG d   1       6.177  -6.053  -5.758  0.00  0.00    -0.491 OA
BRANCH  47  48
ATOM     48  C   LIG d   1       4.893  -6.681  -5.768  0.00  0.00     0.079 C 
ATOM     49  H   LIG d   1       4.551  -6.791  -6.797  0.00  0.00     0.066 H 
ATOM     50  H   LIG d   1       4.967  -7.663  -5.302  0.00  0.00     0.066 H 
ATOM     51  H   LIG d   1       4.185  -6.067  -5.213  0.00  0.00     0.066 H 
ENDBRANCH  47  48
ENDBRANCH   1  47
TORSDOF 9
ENDMDL
MODEL 4
REMARK VINA RESULT:      -5.6      7.727     13.008
REMARK  9 active torsions:
REMARK  status: ('A' for Active; 'I' for Inactive)
REMARK    1  A    between atoms: C_1  and  O_2 
REMARK    2  A    between atoms: O_2  and  C_3 
REMARK    3  A    between atoms: C_8  and  O_9 
REMARK    4  A    between atoms: O_9  and  C_10 
REMARK    5  A    between atoms: C_13  and  N_20 
REMARK    6  A    between atoms: N_20  and  C_21 
REMARK    7  A    between atoms: C_21  and  C_22 
REMARK    8  A    between atoms: C_22  and  C_23 
REMARK    9  A    between atoms: C_23  and  N_24 
ROOT
ATOM      1  C   LIG d   1      11.039   8.719   0.321  0.00  0.00     0.162 A 
ATOM      2  C   LIG d   1      10.757   9.143  -0.973  0.00  0.00    -0.012 A 
ATOM      3  C   LIG d   1      10.515   8.216  -1.956  0.00  0.00    -0.033 A 
ATOM      4  C   LIG d   1      10.551   6.846  -1.661  0.00  0.00     0.006 A 
ATOM      5  C   LIG d   1      10.831   6.422  -0.365  0.00  0.00    -0.007 A 
ATOM      6  C   LIG d   1      11.068   7.359   0.625  0.00  0.00     0.162 A 
ATOM      7  C   LIG d   1      10.294   5.889  -2.753  0.00  0.00     0.057 A 
ATOM      8  C   LIG d   1       9.894   4.610  -2.499  0.00  0.00     0.003 A 
ATOM      9  C   LIG d   1       9.654   3.752  -3.587  0.00  0.00     0.126 A 
ATOM     10  N   LIG d   1       9.816   4.199  -4.827  0.00  0.00    -0.178 NA
ATOM     11  C   LIG d   1      10.209   5.448  -5.065  0.00  0.00     0.351 A 
ATOM     12  O   LIG d   1      10.344   5.826  -6.217  0.00  0.00    -0.244 OA
ATOM     13  N   LIG d   1      10.460   6.300  -4.056  0.00  0.00    -0.292 N 
ATOM     14  C   LIG d   1      10.917   7.668  -4.327  0.00  0.00     0.032 C 
ATOM     15  C   LIG d   1      10.197   8.633  -3.373  0.00  0.00    -0.009 C 
ATOM     16  H   LIG d   1      10.732  10.197  -1.204  0.00  0.00     0.066 H 
ATOM     17  H   LIG d   1      10.858   5.367  -0.132  0.00  0.00     0.066 H 
ATOM     18  H   LIG d   1       9.764   4.264  -1.485  0.00  0.00     0.067 H 
ATOM     19  H   LIG d   1      10.683   7.933  -5.359  0.00  0.00     0.050 H 
ATOM     20  H   LIG d   1      11.993   7.732  -4.168  0.00  0.00     0.050 H 
ATOM     21  H   LIG d   1       9.121   8.581  -3.540  0.00  0.00     0.033 H 
ATOM     22  H   LIG d   1      10.548   9.651  -3.544  0.00  0.00     0.033 H 
ENDROOT
BRANCH   9  23
ATOM     23  N   LIG d   1       9.252   2.453  -3.367  0.00  0.00    -0.329 NA
ATOM     24  H   LIG d   1      10.055   1.862  -3.302  0.00  0.00     0.147 HD
BRANCH  23  25
ATOM     25  C   LIG d   1       8.394   1.776  -4.343  0.00  0.00     0.012 C 
ATOM     26  H   LIG d   1       8.168   2.459  -5.163  0.00  0.00     0.046 H 
ATOM     27  H   LIG d   1       8.909   0.899  -4.733  0.00  0.00     0.046 H 
BRANCH  25  28
ATOM     28  C   LIG d   1       7.092   1.345  -3.666  0.00  0.00    -0.019 C 
ATOM     29  H   LIG d   1       7.259   1.240  -2.593  0.00  0.00     0.030 H 
ATOM     30  H   LIG d   1       6.324   2.097  -3.842  0.00  0.00     0.030 H 
BRANCH  28  31
ATOM     31  C   LIG d   1       6.635   0.004  -4.245  0.00  0.00     0.026 C 
ATOM     32  H   LIG d   1       6.217   0.161  -5.239  0.00  0.00     0.049 H 
ATOM     33  H   LIG d   1       7.488  -0.671  -4.312  0.00  0.00     0.049 H 
BRANCH  31  34
ATOM     34  N   LIG d   1       5.614  -0.582  -3.373  0.00  0.00    -0.337 N 
ATOM     35  C   LIG d   1       5.004   0.024  -2.333  0.00  0.00     0.096 A 
ATOM     36  N   LIG d   1       4.157  -0.813  -1.799  0.00  0.00    -0.244 NA
ATOM     37  H   LIG d   1       5.188   1.034  -1.997  0.00  0.00     0.103 H 
ATOM     38  C   LIG d   1       4.196  -1.972  -2.473  0.00  0.00     0.045 A 
ATOM     39  C   LIG d   1       5.097  -1.847  -3.465  0.00  0.00     0.024 A 
ATOM     40  H   LIG d   1       3.604  -2.850  -2.260  0.00  0.00     0.085 H 
ATOM     41  H   LIG d   1       5.363  -2.600  -4.193  0.00  0.00     0.083 H 
ENDBRANCH  31  34
ENDBRANCH  28  31
ENDBRANCH  25  28
ENDBRANCH  23  25
ENDBRANCH   9  23
BRANCH   6  42
ATOM     42  O   LIG d   1      11.337   6.952   1.894  0.00  0.00    -0.491 OA
BRANCH  42  43
ATOM     43  C   LIG d   1      10.895   5.644   2.264  0.00  0.00     0.079 C 
ATOM     44  H   LIG d   1      11.760   4.992   2.393  0.00  0.00     0.066 H 
ATOM     45  H   LIG d   1      10.339   5.699   3.199  0.00  0.00     0.066 H 
ATOM     46  H   LIG d   1      10.251   5.243   1.481  0.00  0.00     0.066 H 
ENDBRANCH  42  43
ENDBRANCH   6  42
BRANCH   1  47
ATOM     47  O   LIG d   1      11.279   9.635   1.295  0.00  0.00    -0.491 OA
BRANCH  47  48
ATOM     48  C   LIG d   1      11.679  10.941   0.874  0.00  0.00     0.079 C 
ATOM     49  H   LIG d   1      12.327  11.383   1.631  0.00  0.00     0.066 H 
ATOM     50  H   LIG d   1      12.218  10.868  -0.070  0.00  0.00     0.066 H 
ATOM     51  H   LIG d   1      10.796  11.566   0.742  0.00  0.00     0.066 H 
ENDBRANCH  47  48
ENDBRANCH   1  47
TORSDOF 9
ENDMDL
MODEL 5
REMARK VINA RESULT:      -5.6      7.965     11.925
REMARK  9 active torsions:
REMARK  status: ('A' for Active; 'I' for Inactive)
REMARK    1  A    between atoms: C_1  and  O_2 
REMARK    2  A    between atoms: O_2  and  C_3 
REMARK    3  A    between atoms: C_8  and  O_9 
REMARK    4  A    between atoms: O_9  and  C_10 
REMARK    5  A    between atoms: C_13  and  N_20 
REMARK    6  A    between atoms: N_20  and  C_21 
REMARK    7  A    between atoms: C_21  and  C_22 
REMARK    8  A    between atoms: C_22  and  C_23 
REMARK    9  A    between atoms: C_23  and  N_24 
ROOT
ATOM      1  C   LIG d   1       9.895  10.036  -6.821  0.00  0.00     0.162 A 
ATOM      2  C   LIG d   1      10.404  10.453  -5.596  0.00  0.00    -0.012 A 
ATOM      3  C   LIG d   1      10.422   9.584  -4.534  0.00  0.00    -0.033 A 
ATOM      4  C   LIG d   1       9.928   8.280  -4.678  0.00  0.00     0.006 A 
ATOM      5  C   LIG d   1       9.419   7.862  -5.906  0.00  0.00    -0.007 A 
ATOM      6  C   LIG d   1       9.410   8.739  -6.976  0.00  0.00     0.162 A 
ATOM      7  C   LIG d   1       9.958   7.387  -3.506  0.00  0.00     0.057 A 
ATOM      8  C   LIG d   1       9.908   6.030  -3.642  0.00  0.00     0.003 A 
ATOM      9  C   LIG d   1       9.954   5.236  -2.483  0.00  0.00     0.126 A 
ATOM     10  N   LIG d   1      10.047   5.814  -1.291  0.00  0.00    -0.178 NA
ATOM     11  C   LIG d   1      10.093   7.139  -1.168  0.00  0.00     0.351 A 
ATOM     12  O   LIG d   1      10.182   7.635  -0.057  0.00  0.00    -0.244 OA
ATOM     13  N   LIG d   1      10.041   7.937  -2.247  0.00  0.00    -0.292 N 
ATOM     14  C   LIG d   1      10.067   9.397  -2.100  0.00  0.00     0.032 C 
ATOM     15  C   LIG d   1      10.973   9.993  -3.189  0.00  0.00    -0.009 C 
ATOM     16  H   LIG d   1      10.782  11.457  -5.481  0.00  0.00     0.066 H 
ATOM     17  H   LIG d   1       9.039   6.858  -6.023  0.00  0.00     0.066 H 
ATOM     18  H   LIG d   1       9.836   5.577  -4.619  0.00  0.00     0.067 H 
ATOM     19  H   LIG d   1      10.459   9.658  -1.116  0.00  0.00     0.050 H 
ATOM     20  H   LIG d   1       9.057   9.793  -2.209  0.00  0.00     0.050 H 
ATOM     21  H   LIG d   1      11.987   9.609  -3.073  0.00  0.00     0.033 H 
ATOM     22  H   LIG d   1      10.979  11.080  -3.108  0.00  0.00     0.033 H 
ENDROOT
BRANCH   9  23
ATOM     23  N   LIG d   1       9.903   3.863  -2.584  0.00  0.00    -0.329 NA
ATOM     24  H   LIG d   1      10.721   3.467  -2.167  0.00  0.00     0.147 HD
BRANCH  23  25
ATOM     25  C   LIG d   1       9.838   3.228  -3.903  0.00  0.00     0.012 C 
ATOM     26  H   LIG d   1       9.290   3.873  -4.590  0.00  0.00     0.046 H 
ATOM     27  H   LIG d   1      10.848   3.070  -4.281  0.00  0.00     0.046 H 
BRANCH  25  28
ATOM     28  C   LIG d   1       9.121   1.882  -3.786  0.00  0.00    -0.019 C 
ATOM     29  H   LIG d   1       9.623   1.147  -4.416  0.00  0.00     0.030 H 
ATOM     30  H   LIG d   1       9.142   1.547  -2.749  0.00  0.00     0.030 H 
BRANCH  28  31
ATOM     31  C   LIG d   1       7.668   2.036  -4.241  0.00  0.00     0.026 C 
ATOM     32  H   LIG d   1       7.278   2.993  -3.896  0.00  0.00     0.049 H 
ATOM     33  H   LIG d   1       7.623   1.997  -5.330  0.00  0.00     0.049 H 
BRANCH  31  34
ATOM     34  N   LIG d   1       6.861   0.950  -3.680  0.00  0.00    -0.337 N 
ATOM     35  C   LIG d   1       7.128  -0.371  -3.762  0.00  0.00     0.096 A 
ATOM     36  N   LIG d   1       6.185  -1.027  -3.144  0.00  0.00    -0.244 NA
ATOM     37  H   LIG d   1       7.980  -0.811  -4.258  0.00  0.00     0.103 H 
ATOM     38  C   LIG d   1       5.291  -0.158  -2.651  0.00  0.00     0.045 A 
ATOM     39  C   LIG d   1       5.699   1.085  -2.970  0.00  0.00     0.024 A 
ATOM     40  H   LIG d   1       4.402  -0.410  -2.090  0.00  0.00     0.085 H 
ATOM     41  H   LIG d   1       5.203   2.011  -2.717  0.00  0.00     0.083 H 
ENDBRANCH  31  34
ENDBRANCH  28  31
ENDBRANCH  25  28
ENDBRANCH  23  25
ENDBRANCH   9  23
BRANCH   6  42
ATOM     42  O   LIG d   1       8.921   8.336  -8.179  0.00  0.00    -0.491 OA
BRANCH  42  43
ATOM     43  C   LIG d   1       9.632   7.296  -8.854  0.00  0.00     0.079 C 
ATOM     44  H   LIG d   1      10.464   6.964  -8.233  0.00  0.00     0.066 H 
ATOM     45  H   LIG d   1       8.961   6.458  -9.040  0.00  0.00     0.066 H 
ATOM     46  H   LIG d   1      10.014   7.673  -9.803  0.00  0.00     0.066 H 
ENDBRANCH  42  43
ENDBRANCH   6  42
BRANCH   1  47
ATOM     47  O   LIG d   1       9.877  10.895  -7.873  0.00  0.00    -0.491 OA
BRANCH  47  48
ATOM     48  C   LIG d   1      10.907  11.884  -7.922  0.00  0.00     0.079 C 
ATOM     49  H   LIG d   1      11.191  12.163  -6.907  0.00  0.00     0.066 H 
ATOM     50  H   LIG d   1      11.774  11.480  -8.444  0.00  0.00     0.066 H 
ATOM     51  H   LIG d   1      10.541  12.764  -8.451  0.00  0.00     0.066 H 
ENDBRANCH  47  48
ENDBRANCH   1  47
TORSDOF 9
ENDMDL
MODEL 6
REMARK VINA RESULT:      -5.5      8.803     12.383
REMARK  9 active torsions:
REMARK  status: ('A' for Active; 'I' for Inactive)
REMARK    1  A    between atoms: C_1  and  O_2 
REMARK    2  A    between atoms: O_2  and  C_3 
REMARK    3  A    between atoms: C_8  and  O_9 
REMARK    4  A    between atoms: O_9  and  C_10 
REMARK    5  A    between atoms: C_13  and  N_20 
REMARK    6  A    between atoms: N_20  and  C_21 
REMARK    7  A    between atoms: C_21  and  C_22 
REMARK    8  A    between atoms: C_22  and  C_23 
REMARK    9  A    between atoms: C_23  and  N_24 
ROOT
ATOM      1  C   LIG d   1       9.997   4.204  -6.560  0.00  0.00     0.162 A 
ATOM      2  C   LIG d   1      10.208   3.469  -5.399  0.00  0.00    -0.012 A 
ATOM      3  C   LIG d   1      10.187   4.099  -4.179  0.00  0.00    -0.033 A 
ATOM      4  C   LIG d   1       9.953   5.480  -4.101  0.00  0.00     0.006 A 
ATOM      5  C   LIG d   1       9.739   6.215  -5.264  0.00  0.00    -0.007 A 
ATOM      6  C   LIG d   1       9.755   5.574  -6.490  0.00  0.00     0.162 A 
ATOM      7  C   LIG d   1       9.949   6.113  -2.770  0.00  0.00     0.057 A 
ATOM      8  C   LIG d   1       9.332   7.310  -2.552  0.00  0.00     0.003 A 
ATOM      9  C   LIG d   1       9.355   7.853  -1.256  0.00  0.00     0.126 A 
ATOM     10  N   LIG d   1       9.968   7.197  -0.277  0.00  0.00    -0.178 NA
ATOM     11  C   LIG d   1      10.570   6.030  -0.499  0.00  0.00     0.351 A 
ATOM     12  O   LIG d   1      11.120   5.453   0.424  0.00  0.00    -0.244 OA
ATOM     13  N   LIG d   1      10.582   5.479  -1.725  0.00  0.00    -0.292 N 
ATOM     14  C   LIG d   1      11.269   4.205  -1.966  0.00  0.00     0.032 C 
ATOM     15  C   LIG d   1      10.404   3.338  -2.893  0.00  0.00    -0.009 C 
ATOM     16  H   LIG d   1      10.391   2.407  -5.456  0.00  0.00     0.066 H 
ATOM     17  H   LIG d   1       9.556   7.278  -5.208  0.00  0.00     0.066 H 
ATOM     18  H   LIG d   1       8.835   7.829  -3.359  0.00  0.00     0.067 H 
ATOM     19  H   LIG d   1      11.420   3.687  -1.018  0.00  0.00     0.050 H 
ATOM     20  H   LIG d   1      12.234   4.394  -2.438  0.00  0.00     0.050 H 
ATOM     21  H   LIG d   1       9.444   3.137  -2.418  0.00  0.00     0.033 H 
ATOM     22  H   LIG d   1      10.916   2.399  -3.103  0.00  0.00     0.033 H 
ENDROOT
BRANCH   9  23
ATOM     23  N   LIG d   1       8.744   9.061  -1.002  0.00  0.00    -0.329 NA
ATOM     24  H   LIG d   1       8.475   9.487  -1.865  0.00  0.00     0.147 HD
BRANCH  23  25
ATOM     25  C   LIG d   1       9.476  10.119  -0.300  0.00  0.00     0.012 C 
ATOM     26  H   LIG d   1       8.772  10.869   0.061  0.00  0.00     0.046 H 
ATOM     27  H   LIG d   1      10.013   9.689   0.545  0.00  0.00     0.046 H 
BRANCH  25  28
ATOM     28  C   LIG d   1      10.471  10.773  -1.259  0.00  0.00    -0.019 C 
ATOM     29  H   LIG d   1      11.051  11.526  -0.723  0.00  0.00     0.030 H 
ATOM     30  H   LIG d   1      11.143  10.015  -1.659  0.00  0.00     0.030 H 
BRANCH  28  31
ATOM     31  C   LIG d   1       9.711  11.439  -2.408  0.00  0.00     0.026 C 
ATOM     32  H   LIG d   1       8.639  11.374  -2.220  0.00  0.00     0.049 H 
ATOM     33  H   LIG d   1      10.004  12.486  -2.479  0.00  0.00     0.049 H 
BRANCH  31  34
ATOM     34  N   LIG d   1      10.028  10.756  -3.665  0.00  0.00    -0.337 N 
ATOM     35  C   LIG d   1      11.166  10.087  -3.947  0.00  0.00     0.096 A 
ATOM     36  N   LIG d   1      11.083   9.616  -5.162  0.00  0.00    -0.244 NA
ATOM     37  H   LIG d   1      12.005   9.962  -3.280  0.00  0.00     0.103 H 
ATOM     38  C   LIG d   1       9.902   9.965  -5.693  0.00  0.00     0.045 A 
ATOM     39  C   LIG d   1       9.225  10.674  -4.770  0.00  0.00     0.024 A 
ATOM     40  H   LIG d   1       9.553   9.717  -6.684  0.00  0.00     0.085 H 
ATOM     41  H   LIG d   1       8.237  11.099  -4.881  0.00  0.00     0.083 H 
ENDBRANCH  31  34
ENDBRANCH  28  31
ENDBRANCH  25  28
ENDBRANCH  23  25
ENDBRANCH   9  23
BRANCH   6  42
ATOM     42  O   LIG d   1       9.541   6.286  -7.630  0.00  0.00    -0.491 OA
BRANCH  42  43
ATOM     43  C   LIG d   1      10.605   7.126  -8.080  0.00  0.00     0.079 C 
ATOM     44  H   LIG d   1      11.514   6.890  -7.525  0.00  0.00     0.066 H 
ATOM     45  H   LIG d   1      10.775   6.958  -9.143  0.00  0.00     0.066 H 
ATOM     46  H   LIG d   1      10.339   8.170  -7.916  0.00  0.00     0.066 H 
ENDBRANCH  42  43
ENDBRANCH   6  42
BRANCH   1  47
ATOM     47  O   LIG d   1      10.018   3.581  -7.767  0.00  0.00    -0.491 OA
BRANCH  47  48
ATOM     48  C   LIG d   1       8.998   2.612  -8.016  0.00  0.00     0.079 C 
ATOM     49  H   LIG d   1       8.021   3.057  -7.829  0.00  0.00     0.066 H 
ATOM     50  H   LIG d   1       9.056   2.284  -9.054  0.00  0.00     0.066 H 
ATOM     51  H   LIG d   1       9.141   1.757  -7.356  0.00  0.00     0.066 H 
ENDBRANCH  47  48
ENDBRANCH   1  47
TORSDOF 9
ENDMDL
MODEL 7
REMARK VINA RESULT:      -5.5      3.946      6.203
REMARK  9 active torsions:
REMARK  status: ('A' for Active; 'I' for Inactive)
REMARK    1  A    between atoms: C_1  and  O_2 
REMARK    2  A    between atoms: O_2  and  C_3 
REMARK    3  A    between atoms: C_8  and  O_9 
REMARK    4  A    between atoms: O_9  and  C_10 
REMARK    5  A    between atoms: C_13  and  N_20 
REMARK    6  A    between atoms: N_20  and  C_21 
REMARK    7  A    between atoms: C_21  and  C_22 
REMARK    8  A    between atoms: C_22  and  C_23 
REMARK    9  A    between atoms: C_23  and  N_24 
ROOT
ATOM      1  C   LIG d   1       3.099  -0.870  -8.975  0.00  0.00     0.162 A 
ATOM      2  C   LIG d   1       2.452  -0.313  -7.878  0.00  0.00    -0.012 A 
ATOM      3  C   LIG d   1       3.147  -0.094  -6.715  0.00  0.00    -0.033 A 
ATOM      4  C   LIG d   1       4.505  -0.431  -6.629  0.00  0.00     0.006 A 
ATOM      5  C   LIG d   1       5.154  -0.987  -7.729  0.00  0.00    -0.007 A 
ATOM      6  C   LIG d   1       4.451  -1.199  -8.901  0.00  0.00     0.162 A 
ATOM      7  C   LIG d   1       5.206  -0.186  -5.355  0.00  0.00     0.057 A 
ATOM      8  C   LIG d   1       6.565  -0.077  -5.300  0.00  0.00     0.003 A 
ATOM      9  C   LIG d   1       7.170   0.170  -4.055  0.00  0.00     0.126 A 
ATOM     10  N   LIG d   1       6.416   0.292  -2.969  0.00  0.00    -0.178 NA
ATOM     11  C   LIG d   1       5.091   0.181  -3.032  0.00  0.00     0.351 A 
ATOM     12  O   LIG d   1       4.429   0.303  -2.014  0.00  0.00    -0.244 OA
ATOM     13  N   LIG d   1       4.471  -0.065  -4.199  0.00  0.00    -0.292 N 
ATOM     14  C   LIG d   1       3.011  -0.210  -4.255  0.00  0.00     0.032 C 
ATOM     15  C   LIG d   1       2.485   0.516  -5.502  0.00  0.00    -0.009 C 
ATOM     16  H   LIG d   1       1.406  -0.056  -7.940  0.00  0.00     0.066 H 
ATOM     17  H   LIG d   1       6.201  -1.246  -7.668  0.00  0.00     0.066 H 
ATOM     18  H   LIG d   1       7.163  -0.176  -6.193  0.00  0.00     0.067 H 
ATOM     19  H   LIG d   1       2.567   0.229  -3.362  0.00  0.00     0.050 H 
ATOM     20  H   LIG d   1       2.752  -1.268  -4.311  0.00  0.00     0.050 H 
ATOM     21  H   LIG d   1       2.732   1.576  -5.442  0.00  0.00     0.033 H 
ATOM     22  H   LIG d   1       1.404   0.392  -5.572  0.00  0.00     0.033 H 
ENDROOT
BRANCH   9  23
ATOM     23  N   LIG d   1       8.539   0.283  -3.963  0.00  0.00    -0.329 NA
ATOM     24  H   LIG d   1       8.792   0.537  -3.029  0.00  0.00     0.147 HD
BRANCH  23  25
ATOM     25  C   LIG d   1       9.252   1.255  -4.796  0.00  0.00     0.012 C 
ATOM     26  H   LIG d   1      10.322   1.047  -4.763  0.00  0.00     0.046 H 
ATOM     27  H   LIG d   1       8.899   1.179  -5.824  0.00  0.00     0.046 H 
BRANCH  25  28
ATOM     28  C   LIG d   1       8.990   2.667  -4.270  0.00  0.00    -0.019 C 
ATOM     29  H   LIG d   1       9.038   3.377  -5.096  0.00  0.00     0.030 H 
ATOM     30  H   LIG d   1       8.002   2.708  -3.813  0.00  0.00     0.030 H 
BRANCH  28  31
ATOM     31  C   LIG d   1      10.050   3.027  -3.226  0.00  0.00     0.026 C 
ATOM     32  H   LIG d   1       9.838   2.499  -2.297  0.00  0.00     0.049 H 
ATOM     33  H   LIG d   1      11.034   2.736  -3.593  0.00  0.00     0.049 H 
BRANCH  31  34
ATOM     34  N   LIG d   1      10.026   4.472  -2.984  0.00  0.00    -0.337 N 
ATOM     35  C   LIG d   1       9.661   5.426  -3.865  0.00  0.00     0.096 A 
ATOM     36  N   LIG d   1       9.770   6.592  -3.288  0.00  0.00    -0.244 NA
ATOM     37  H   LIG d   1       9.333   5.254  -4.879  0.00  0.00     0.103 H 
ATOM     38  C   LIG d   1      10.206   6.425  -2.031  0.00  0.00     0.045 A 
ATOM     39  C   LIG d   1      10.367   5.105  -1.819  0.00  0.00     0.024 A 
ATOM     40  H   LIG d   1      10.390   7.211  -1.313  0.00  0.00     0.085 H 
ATOM     41  H   LIG d   1      10.703   4.636  -0.905  0.00  0.00     0.083 H 
ENDBRANCH  31  34
ENDBRANCH  28  31
ENDBRANCH  25  28
ENDBRANCH  23  25
ENDBRANCH   9  23
BRANCH   6  42
ATOM     42  O   LIG d   1       5.080  -1.737  -9.981  0.00  0.00    -0.491 OA
BRANCH  42  43
ATOM     43  C   LIG d   1       6.091  -0.943 -10.605  0.00  0.00     0.079 C 
ATOM     44  H   LIG d   1       5.673   0.025 -10.883  0.00  0.00     0.066 H 
ATOM     45  H   LIG d   1       6.917  -0.796  -9.910  0.00  0.00     0.066 H 
ATOM     46  H   LIG d   1       6.454  -1.452 -11.497  0.00  0.00     0.066 H 
ENDBRANCH  42  43
ENDBRANCH   6  42
BRANCH   1  47
ATOM     47  O   LIG d   1       2.412  -1.087 -10.127  0.00  0.00    -0.491 OA
BRANCH  47  48
ATOM     48  C   LIG d   1       1.547  -2.224 -10.163  0.00  0.00     0.079 C 
ATOM     49  H   LIG d   1       1.477  -2.594 -11.186  0.00  0.00     0.066 H 
ATOM     50  H   LIG d   1       1.950  -3.007  -9.520  0.00  0.00     0.066 H 
ATOM     51  H   LIG d   1       0.557  -1.939  -9.811  0.00  0.00     0.066 H 
ENDBRANCH  47  48
ENDBRANCH   1  47
TORSDOF 9
ENDMDL
MODEL 8
REMARK VINA RESULT:      -5.5      8.945     13.335
REMARK  9 active torsions:
REMARK  status: ('A' for Active; 'I' for Inactive)
REMARK    1  A    between atoms: C_1  and  O_2 
REMARK    2  A    between atoms: O_2  and  C_3 
REMARK    3  A    between atoms: C_8  and  O_9 
REMARK    4  A    between atoms: O_9  and  C_10 
REMARK    5  A    between atoms: C_13  and  N_20 
REMARK    6  A    between atoms: N_20  and  C_21 
REMARK    7  A    between atoms: C_21  and  C_22 
REMARK    8  A    between atoms: C_22  and  C_23 
REMARK    9  A    between atoms: C_23  and  N_24 
ROOT
ATOM      1  C   LIG d   1      10.327   6.560  -0.863  0.00  0.00     0.162 A 
ATOM      2  C   LIG d   1      10.420   5.213  -1.193  0.00  0.00    -0.012 A 
ATOM      3  C   LIG d   1      10.307   4.822  -2.504  0.00  0.00    -0.033 A 
ATOM      4  C   LIG d   1      10.097   5.776  -3.510  0.00  0.00     0.006 A 
ATOM      5  C   LIG d   1      10.006   7.126  -3.180  0.00  0.00    -0.007 A 
ATOM      6  C   LIG d   1      10.127   7.515  -1.857  0.00  0.00     0.162 A 
ATOM      7  C   LIG d   1       9.972   5.306  -4.902  0.00  0.00     0.057 A 
ATOM      8  C   LIG d   1      10.191   6.143  -5.958  0.00  0.00     0.003 A 
ATOM      9  C   LIG d   1      10.067   5.628  -7.260  0.00  0.00     0.126 A 
ATOM     10  N   LIG d   1       9.746   4.351  -7.437  0.00  0.00    -0.178 NA
ATOM     11  C   LIG d   1       9.531   3.544  -6.400  0.00  0.00     0.351 A 
ATOM     12  O   LIG d   1       9.242   2.376  -6.600  0.00  0.00    -0.244 OA
ATOM     13  N   LIG d   1       9.629   3.995  -5.138  0.00  0.00    -0.292 N 
ATOM     14  C   LIG d   1       9.366   3.104  -4.002  0.00  0.00     0.032 C 
ATOM     15  C   LIG d   1      10.410   3.371  -2.907  0.00  0.00    -0.009 C 
ATOM     16  H   LIG d   1      10.578   4.476  -0.420  0.00  0.00     0.066 H 
ATOM     17  H   LIG d   1       9.846   7.864  -3.952  0.00  0.00     0.066 H 
ATOM     18  H   LIG d   1      10.455   7.177  -5.796  0.00  0.00     0.067 H 
ATOM     19  H   LIG d   1       9.437   2.066  -4.329  0.00  0.00     0.050 H 
ATOM     20  H   LIG d   1       8.368   3.297  -3.610  0.00  0.00     0.050 H 
ATOM     21  H   LIG d   1      11.408   3.165  -3.293  0.00  0.00     0.033 H 
ATOM     22  H   LIG d   1      10.210   2.734  -2.045  0.00  0.00     0.033 H 
ENDROOT
BRANCH   9  23
ATOM     23  N   LIG d   1      10.279   6.445  -8.349  0.00  0.00    -0.329 NA
ATOM     24  H   LIG d   1      10.886   7.196  -8.089  0.00  0.00     0.147 HD
BRANCH  23  25
ATOM     25  C   LIG d   1       9.146   7.113  -8.994  0.00  0.00     0.012 C 
ATOM     26  H   LIG d   1       9.418   7.388 -10.013  0.00  0.00     0.046 H 
ATOM     27  H   LIG d   1       8.291   6.439  -9.016  0.00  0.00     0.046 H 
BRANCH  25  28
ATOM     28  C   LIG d   1       8.782   8.374  -8.207  0.00  0.00    -0.019 C 
ATOM     29  H   LIG d   1       8.030   8.940  -8.757  0.00  0.00     0.030 H 
ATOM     30  H   LIG d   1       8.384   8.092  -7.232  0.00  0.00     0.030 H 
BRANCH  28  31
ATOM     31  C   LIG d   1      10.032   9.236  -8.017  0.00  0.00     0.026 C 
ATOM     32  H   LIG d   1      10.889   8.594  -7.817  0.00  0.00     0.049 H 
ATOM     33  H   LIG d   1      10.215   9.814  -8.923  0.00  0.00     0.049 H 
BRANCH  31  34
ATOM     34  N   LIG d   1       9.830  10.148  -6.888  0.00  0.00    -0.337 N 
ATOM     35  C   LIG d   1       9.465   9.803  -5.636  0.00  0.00     0.096 A 
ATOM     36  N   LIG d   1       9.387  10.885  -4.910  0.00  0.00    -0.244 NA
ATOM     37  H   LIG d   1       9.269   8.799  -5.291  0.00  0.00     0.103 H 
ATOM     38  C   LIG d   1       9.696  11.949  -5.667  0.00  0.00     0.045 A 
ATOM     39  C   LIG d   1       9.982  11.508  -6.907  0.00  0.00     0.024 A 
ATOM     40  H   LIG d   1       9.717  12.977  -5.338  0.00  0.00     0.085 H 
ATOM     41  H   LIG d   1      10.273  12.112  -7.754  0.00  0.00     0.083 H 
ENDBRANCH  31  34
ENDBRANCH  28  31
ENDBRANCH  25  28
ENDBRANCH  23  25
ENDBRANCH   9  23
BRANCH   6  42
ATOM     42  O   LIG d   1      10.045   8.832  -1.528  0.00  0.00    -0.491 OA
BRANCH  42  43
ATOM     43  C   LIG d   1      11.171   9.652  -1.846  0.00  0.00     0.079 C 
ATOM     44  H   LIG d   1      11.913   9.574  -1.050  0.00  0.00     0.066 H 
ATOM     45  H   LIG d   1      11.610   9.319  -2.786  0.00  0.00     0.066 H 
ATOM     46  H   LIG d   1      10.851  10.690  -1.942  0.00  0.00     0.066 H 
ENDBRANCH  42  43
ENDBRANCH   6  42
BRANCH   1  47
ATOM     47  O   LIG d   1      10.438   6.948   0.434  0.00  0.00    -0.491 OA
BRANCH  47  48
ATOM     48  C   LIG d   1      11.056   6.027   1.337  0.00  0.00     0.079 C 
ATOM     49  H   LIG d   1      11.524   5.222   0.770  0.00  0.00     0.066 H 
ATOM     50  H   LIG d   1      11.813   6.547   1.923  0.00  0.00     0.066 H 
ATOM     51  H   LIG d   1      10.301   5.611   2.004  0.00  0.00     0.066 H 
ENDBRANCH  47  48
ENDBRANCH   1  47
TORSDOF 9
ENDMDL
MODEL 9
REMARK VINA RESULT:      -5.5      9.969     12.304
REMARK  9 active torsions:
REMARK  status: ('A' for Active; 'I' for Inactive)
REMARK    1  A    between atoms: C_1  and  O_2 
REMARK    2  A    between atoms: O_2  and  C_3 
REMARK    3  A    between atoms: C_8  and  O_9 
REMARK    4  A    between atoms: O_9  and  C_10 
REMARK    5  A    between atoms: C_13  and  N_20 
REMARK    6  A    between atoms: N_20  and  C_21 
REMARK    7  A    between atoms: C_21  and  C_22 
REMARK    8  A    between atoms: C_22  and  C_23 
REMARK    9  A    between atoms: C_23  and  N_24 
ROOT
ATOM      1  C   LIG d   1       9.593   7.288  -8.525  0.00  0.00     0.162 A 
ATOM      2  C   LIG d   1       9.659   5.953  -8.142  0.00  0.00    -0.012 A 
ATOM      3  C   LIG d   1       9.759   5.629  -6.812  0.00  0.00    -0.033 A 
ATOM      4  C   LIG d   1       9.794   6.638  -5.839  0.00  0.00     0.006 A 
ATOM      5  C   LIG d   1       9.726   7.976  -6.223  0.00  0.00    -0.007 A 
ATOM      6  C   LIG d   1       9.619   8.296  -7.565  0.00  0.00     0.162 A 
ATOM      7  C   LIG d   1       9.912   6.241  -4.425  0.00  0.00     0.057 A 
ATOM      8  C   LIG d   1       9.536   7.080  -3.416  0.00  0.00     0.003 A 
ATOM      9  C   LIG d   1       9.662   6.634  -2.089  0.00  0.00     0.126 A 
ATOM     10  N   LIG d   1      10.137   5.419  -1.844  0.00  0.00    -0.178 NA
ATOM     11  C   LIG d   1      10.505   4.608  -2.834  0.00  0.00     0.351 A 
ATOM     12  O   LIG d   1      10.933   3.497  -2.573  0.00  0.00    -0.244 OA
ATOM     13  N   LIG d   1      10.411   4.996  -4.118  0.00  0.00    -0.292 N 
ATOM     14  C   LIG d   1      10.841   4.106  -5.203  0.00  0.00     0.032 C 
ATOM     15  C   LIG d   1       9.826   4.192  -6.352  0.00  0.00    -0.009 C 
ATOM     16  H   LIG d   1       9.635   5.174  -8.889  0.00  0.00     0.066 H 
ATOM     17  H   LIG d   1       9.751   8.757  -5.477  0.00  0.00     0.066 H 
ATOM     18  H   LIG d   1       9.148   8.064  -3.633  0.00  0.00     0.067 H 
ATOM     19  H   LIG d   1      10.890   3.080  -4.835  0.00  0.00     0.050 H 
ATOM     20  H   LIG d   1      11.824   4.414  -5.559  0.00  0.00     0.050 H 
ATOM     21  H   LIG d   1       8.845   3.872  -6.000  0.00  0.00     0.033 H 
ATOM     22  H   LIG d   1      10.148   3.556  -7.177  0.00  0.00     0.033 H 
ENDROOT
BRANCH   9  23
ATOM     23  N   LIG d   1       9.295   7.456  -1.046  0.00  0.00    -0.329 NA
ATOM     24  H   LIG d   1       8.715   8.194  -1.391  0.00  0.00     0.147 HD
BRANCH  23  25
ATOM     25  C   LIG d   1      10.321   8.151  -0.264  0.00  0.00     0.012 C 
ATOM     26  H   LIG d   1      10.301   7.788   0.764  0.00  0.00     0.046 H 
ATOM     27  H   LIG d   1      11.301   7.958  -0.699  0.00  0.00     0.046 H 
BRANCH  25  28
ATOM     28  C   LIG d   1      10.042   9.655  -0.279  0.00  0.00    -0.019 C 
ATOM     29  H   LIG d   1       9.835   9.995   0.736  0.00  0.00     0.030 H 
ATOM     30  H   LIG d   1      10.912  10.182  -0.668  0.00  0.00     0.030 H 
BRANCH  28  31
ATOM     31  C   LIG d   1       8.831   9.941  -1.169  0.00  0.00     0.026 C 
ATOM     32  H   LIG d   1       8.376   9.000  -1.477  0.00  0.00     0.049 H 
ATOM     33  H   LIG d   1       8.103  10.531  -0.613  0.00  0.00     0.049 H 
BRANCH  31  34
ATOM     34  N   LIG d   1       9.261  10.686  -2.355  0.00  0.00    -0.337 N 
ATOM     35  C   LIG d   1       8.501  11.519  -3.096  0.00  0.00     0.096 A 
ATOM     36  N   LIG d   1       9.230  11.996  -4.068  0.00  0.00    -0.244 NA
ATOM     37  H   LIG d   1       7.462  11.752  -2.916  0.00  0.00     0.103 H 
ATOM     38  C   LIG d   1      10.468  11.489  -3.983  0.00  0.00     0.045 A 
ATOM     39  C   LIG d   1      10.510  10.672  -2.914  0.00  0.00     0.024 A 
ATOM     40  H   LIG d   1      11.290  11.704  -4.651  0.00  0.00     0.085 H 
ATOM     41  H   LIG d   1      11.365  10.110  -2.566  0.00  0.00     0.083 H 
ENDBRANCH  31  34
ENDBRANCH  28  31
ENDBRANCH  25  28
ENDBRANCH  23  25
ENDBRANCH   9  23
BRANCH   6  42
ATOM     42  O   LIG d   1       9.545   9.600  -7.946  0.00  0.00    -0.491 OA
BRANCH  42  43
ATOM     43  C   LIG d   1      10.707  10.405  -7.734  0.00  0.00     0.079 C 
ATOM     44  H   LIG d   1      11.062  10.789  -8.691  0.00  0.00     0.066 H 
ATOM     45  H   LIG d   1      10.456  11.238  -7.078  0.00  0.00     0.066 H 
ATOM     46  H   LIG d   1      11.488   9.802  -7.272  0.00  0.00     0.066 H 
ENDBRANCH  42  43
ENDBRANCH   6  42
BRANCH   1  47
ATOM     47  O   LIG d   1       9.495   7.609  -9.842  0.00  0.00    -0.491 OA
BRANCH  47  48
ATOM     48  C   LIG d   1      10.401   6.963 -10.737  0.00  0.00     0.079 C 
ATOM     49  H   LIG d   1      10.134   5.910 -10.828  0.00  0.00     0.066 H 
ATOM     50  H   LIG d   1      10.344   7.439 -11.716  0.00  0.00     0.066 H 
ATOM     51  H   LIG d   1      11.416   7.048 -10.351  0.00  0.00     0.066 H 
ENDBRANCH  47  48
ENDBRANCH   1  47
TORSDOF 9
ENDMDL
