MODEL 1
REMARK VINA RESULT:      -5.9      0.000      0.000
REMARK  3 active torsions:
REMARK  status: ('A' for Active; 'I' for Inactive)
REMARK    1  A    between atoms: C_10  and  N_17 
REMARK    2  A    between atoms: C_11  and  C_13 
REMARK    3  A    between atoms: C_14  and  C_15 
ROOT
ATOM      1  C   LIG d   1       4.372  -1.190  -2.245  0.00  0.00    -0.047 A 
ATOM      2  C   LIG d   1       4.169   0.140  -2.083  0.00  0.00     0.003 A 
ATOM      3  C   LIG d   1       4.039   0.983  -3.208  0.00  0.00     0.249 A 
ATOM      4  O   LIG d   1       3.851   2.175  -3.039  0.00  0.00    -0.268 OA
ATOM      5  N   LIG d   1       4.124   0.504  -4.462  0.00  0.00    -0.322 N 
ATOM      6  H   LIG d   1       4.037   1.129  -5.236  0.00  0.00     0.169 HD
ATOM      7  C   LIG d   1       4.330  -0.841  -4.695  0.00  0.00     0.050 A 
ATOM      8  C   LIG d   1       4.460  -1.725  -3.606  0.00  0.00     0.005 A 
ATOM      9  C   LIG d   1       4.670  -3.092  -3.830  0.00  0.00     0.025 A 
ATOM     10  C   LIG d   1       4.748  -3.568  -5.104  0.00  0.00     0.281 A 
ATOM     11  C   LIG d   1       4.620  -2.697  -6.198  0.00  0.00     0.054 A 
ATOM     12  C   LIG d   1       4.411  -1.334  -5.990  0.00  0.00    -0.024 A 
ATOM     13  H   LIG d   1       4.469  -1.842  -1.389  0.00  0.00     0.063 H 
ATOM     14  H   LIG d   1       4.101   0.556  -1.088  0.00  0.00     0.067 H 
ATOM     15  H   LIG d   1       4.770  -3.767  -2.994  0.00  0.00     0.069 H 
ATOM     16  H   LIG d   1       4.312  -0.665  -6.832  0.00  0.00     0.065 H 
ENDROOT
BRANCH  11  17
ATOM     17  C   LIG d   1       4.707  -3.225  -7.568  0.00  0.00    -0.046 C 
ATOM     18  C   LIG d   1       3.729  -2.954  -8.457  0.00  0.00    -0.039 C 
ATOM     19  H   LIG d   1       2.884  -2.349  -8.164  0.00  0.00     0.064 H 
ATOM     20  H   LIG d   1       5.552  -3.829  -7.862  0.00  0.00     0.063 H 
BRANCH  18  21
ATOM     21  C   LIG d   1       3.815  -3.479  -9.821  0.00  0.00     0.065 C 
ATOM     22  O   LIG d   1       4.849  -3.368 -10.452  0.00  0.00    -0.545 OA
ATOM     23  O   LIG d   1       2.748  -4.087 -10.378  0.00  0.00    -0.545 OA
ENDBRANCH  18  21
ENDBRANCH  11  17
BRANCH  10  24
ATOM     24  N   LIG d   1       4.968  -5.013  -5.337  0.00  0.00     0.080 N 
ATOM     25  O   LIG d   1       4.022  -5.780  -5.352  0.00  0.00     0.042 OA
ATOM     26  O   LIG d   1       6.097  -5.436  -5.513  0.00  0.00    -0.576 OA
ENDBRANCH  10  24
TORSDOF 3
ENDMDL
MODEL 2
REMARK VINA RESULT:      -5.8      8.894     12.903
REMARK  3 active torsions:
REMARK  status: ('A' for Active; 'I' for Inactive)
REMARK    1  A    between atoms: C_10  and  N_17 
REMARK    2  A    between atoms: C_11  and  C_13 
REMARK    3  A    between atoms: C_14  and  C_15 
ROOT
ATOM      1  C   LIG d   1       9.768   4.227  -4.369  0.00  0.00    -0.047 A 
ATOM      2  C   LIG d   1      10.306   3.001  -4.581  0.00  0.00     0.003 A 
ATOM      3  C   LIG d   1      11.123   2.402  -3.598  0.00  0.00     0.249 A 
ATOM      4  O   LIG d   1      11.592   1.297  -3.807  0.00  0.00    -0.268 OA
ATOM      5  N   LIG d   1      11.403   3.025  -2.439  0.00  0.00    -0.322 N 
ATOM      6  H   LIG d   1      11.993   2.577  -1.768  0.00  0.00     0.169 HD
ATOM      7  C   LIG d   1      10.886   4.275  -2.162  0.00  0.00     0.050 A 
ATOM      8  C   LIG d   1      10.059   4.912  -3.108  0.00  0.00     0.005 A 
ATOM      9  C   LIG d   1       9.530   6.181  -2.839  0.00  0.00     0.025 A 
ATOM     10  C   LIG d   1       9.814   6.800  -1.659  0.00  0.00     0.281 A 
ATOM     11  C   LIG d   1      10.637   6.175  -0.708  0.00  0.00     0.054 A 
ATOM     12  C   LIG d   1      11.171   4.912  -0.963  0.00  0.00    -0.024 A 
ATOM     13  H   LIG d   1       9.138   4.690  -5.116  0.00  0.00     0.063 H 
ATOM     14  H   LIG d   1      10.104   2.478  -5.504  0.00  0.00     0.067 H 
ATOM     15  H   LIG d   1       8.898   6.668  -3.565  0.00  0.00     0.069 H 
ATOM     16  H   LIG d   1      11.803   4.432  -0.230  0.00  0.00     0.065 H 
ENDROOT
BRANCH  11  17
ATOM     17  C   LIG d   1      10.936   6.855   0.561  0.00  0.00    -0.046 C 
ATOM     18  C   LIG d   1      10.972   6.150   1.711  0.00  0.00    -0.039 C 
ATOM     19  H   LIG d   1      10.783   5.087   1.700  0.00  0.00     0.064 H 
ATOM     20  H   LIG d   1      11.126   7.918   0.574  0.00  0.00     0.063 H 
BRANCH  18  21
ATOM     21  C   LIG d   1      11.269   6.827   2.975  0.00  0.00     0.065 C 
ATOM     22  O   LIG d   1      11.163   6.226   4.027  0.00  0.00    -0.545 OA
ATOM     23  O   LIG d   1      11.661   8.118   2.972  0.00  0.00    -0.545 OA
ENDBRANCH  18  21
ENDBRANCH  11  17
BRANCH  10  24
ATOM     24  N   LIG d   1       9.252   8.140  -1.377  0.00  0.00     0.080 N 
ATOM     25  O   LIG d   1       9.833   9.138  -1.762  0.00  0.00     0.042 OA
ATOM     26  O   LIG d   1       8.208   8.244  -0.757  0.00  0.00    -0.576 OA
ENDBRANCH  10  24
TORSDOF 3
ENDMDL
MODEL 3
REMARK VINA RESULT:      -5.8      2.248      2.476
REMARK  3 active torsions:
REMARK  status: ('A' for Active; 'I' for Inactive)
REMARK    1  A    between atoms: C_10  and  N_17 
REMARK    2  A    between atoms: C_11  and  C_13 
REMARK    3  A    between atoms: C_14  and  C_15 
ROOT
ATOM      1  C   LIG d   1       4.495  -1.828  -2.911  0.00  0.00    -0.047 A 
ATOM      2  C   LIG d   1       4.196  -0.790  -2.092  0.00  0.00     0.003 A 
ATOM      3  C   LIG d   1       3.752   0.438  -2.631  0.00  0.00     0.249 A 
ATOM      4  O   LIG d   1       3.484   1.356  -1.876  0.00  0.00    -0.268 OA
ATOM      5  N   LIG d   1       3.627   0.621  -3.957  0.00  0.00    -0.322 N 
ATOM      6  H   LIG d   1       3.319   1.505  -4.306  0.00  0.00     0.169 HD
ATOM      7  C   LIG d   1       3.915  -0.396  -4.845  0.00  0.00     0.050 A 
ATOM      8  C   LIG d   1       4.355  -1.643  -4.357  0.00  0.00     0.005 A 
ATOM      9  C   LIG d   1       4.652  -2.682  -5.248  0.00  0.00     0.025 A 
ATOM     10  C   LIG d   1       4.514  -2.488  -6.590  0.00  0.00     0.281 A 
ATOM     11  C   LIG d   1       4.077  -1.250  -7.088  0.00  0.00     0.054 A 
ATOM     12  C   LIG d   1       3.778  -0.207  -6.213  0.00  0.00    -0.024 A 
ATOM     13  H   LIG d   1       4.830  -2.771  -2.506  0.00  0.00     0.063 H 
ATOM     14  H   LIG d   1       4.292  -0.905  -1.022  0.00  0.00     0.067 H 
ATOM     15  H   LIG d   1       4.989  -3.636  -4.872  0.00  0.00     0.069 H 
ATOM     16  H   LIG d   1       3.441   0.745  -6.597  0.00  0.00     0.065 H 
ENDROOT
BRANCH  11  17
ATOM     17  C   LIG d   1       3.934  -1.054  -8.538  0.00  0.00    -0.046 C 
ATOM     18  C   LIG d   1       3.399   0.089  -9.015  0.00  0.00    -0.039 C 
ATOM     19  H   LIG d   1       3.076   0.860  -8.331  0.00  0.00     0.064 H 
ATOM     20  H   LIG d   1       4.256  -1.825  -9.223  0.00  0.00     0.063 H 
BRANCH  18  21
ATOM     21  C   LIG d   1       3.255   0.284 -10.459  0.00  0.00     0.065 C 
ATOM     22  O   LIG d   1       2.555  -0.469 -11.108  0.00  0.00    -0.545 OA
ATOM     23  O   LIG d   1       3.901   1.299 -11.069  0.00  0.00    -0.545 OA
ENDBRANCH  18  21
ENDBRANCH  11  17
BRANCH  10  24
ATOM     24  N   LIG d   1       4.827  -3.589  -7.529  0.00  0.00     0.080 N 
ATOM     25  O   LIG d   1       3.955  -4.371  -7.863  0.00  0.00     0.042 OA
ATOM     26  O   LIG d   1       5.958  -3.714  -7.965  0.00  0.00    -0.576 OA
ENDBRANCH  10  24
TORSDOF 3
ENDMDL
MODEL 4
REMARK VINA RESULT:      -5.8      4.233      7.866
REMARK  3 active torsions:
REMARK  status: ('A' for Active; 'I' for Inactive)
REMARK    1  A    between atoms: C_10  and  N_17 
REMARK    2  A    between atoms: C_11  and  C_13 
REMARK    3  A    between atoms: C_14  and  C_15 
ROOT
ATOM      1  C   LIG d   1       3.105  -1.015 -12.687  0.00  0.00    -0.047 A 
ATOM      2  C   LIG d   1       2.113  -1.827 -13.127  0.00  0.00     0.003 A 
ATOM      3  C   LIG d   1       1.035  -2.161 -12.278  0.00  0.00     0.249 A 
ATOM      4  O   LIG d   1       0.152  -2.888 -12.697  0.00  0.00    -0.268 OA
ATOM      5  N   LIG d   1       0.963  -1.701 -11.017  0.00  0.00    -0.322 N 
ATOM      6  H   LIG d   1       0.191  -1.964 -10.439  0.00  0.00     0.169 HD
ATOM      7  C   LIG d   1       1.940  -0.869 -10.508  0.00  0.00     0.050 A 
ATOM      8  C   LIG d   1       3.034  -0.502 -11.317  0.00  0.00     0.005 A 
ATOM      9  C   LIG d   1       4.032   0.340 -10.811  0.00  0.00     0.025 A 
ATOM     10  C   LIG d   1       3.946   0.807  -9.533  0.00  0.00     0.281 A 
ATOM     11  C   LIG d   1       2.861   0.447  -8.717  0.00  0.00     0.054 A 
ATOM     12  C   LIG d   1       1.860  -0.390  -9.207  0.00  0.00    -0.024 A 
ATOM     13  H   LIG d   1       3.930  -0.752 -13.332  0.00  0.00     0.063 H 
ATOM     14  H   LIG d   1       2.145  -2.217 -14.134  0.00  0.00     0.067 H 
ATOM     15  H   LIG d   1       4.869   0.620 -11.432  0.00  0.00     0.069 H 
ATOM     16  H   LIG d   1       1.026  -0.666  -8.579  0.00  0.00     0.065 H 
ENDROOT
BRANCH  11  17
ATOM     17  C   LIG d   1       2.781   0.957  -7.340  0.00  0.00    -0.046 C 
ATOM     18  C   LIG d   1       2.723   0.095  -6.304  0.00  0.00    -0.039 C 
ATOM     19  H   LIG d   1       2.736  -0.970  -6.486  0.00  0.00     0.064 H 
ATOM     20  H   LIG d   1       2.768   2.022  -7.157  0.00  0.00     0.063 H 
BRANCH  18  21
ATOM     21  C   LIG d   1       2.643   0.603  -4.934  0.00  0.00     0.065 C 
ATOM     22  O   LIG d   1       2.688   1.800  -4.724  0.00  0.00    -0.545 OA
ATOM     23  O   LIG d   1       2.520  -0.258  -3.902  0.00  0.00    -0.545 OA
ENDBRANCH  18  21
ENDBRANCH  11  17
BRANCH  10  24
ATOM     24  N   LIG d   1       5.002   1.698  -9.002  0.00  0.00     0.080 N 
ATOM     25  O   LIG d   1       5.847   1.257  -8.245  0.00  0.00     0.042 OA
ATOM     26  O   LIG d   1       5.024   2.873  -9.322  0.00  0.00    -0.576 OA
ENDBRANCH  10  24
TORSDOF 3
ENDMDL
MODEL 5
REMARK VINA RESULT:      -5.7      6.512      8.568
REMARK  3 active torsions:
REMARK  status: ('A' for Active; 'I' for Inactive)
REMARK    1  A    between atoms: C_10  and  N_17 
REMARK    2  A    between atoms: C_11  and  C_13 
REMARK    3  A    between atoms: C_14  and  C_15 
ROOT
ATOM      1  C   LIG d   1       7.317 -11.376  -0.835  0.00  0.00    -0.047 A 
ATOM      2  C   LIG d   1       8.640 -11.178  -0.619  0.00  0.00     0.003 A 
ATOM      3  C   LIG d   1       9.375 -10.305  -1.450  0.00  0.00     0.249 A 
ATOM      4  O   LIG d   1      10.563 -10.137  -1.235  0.00  0.00    -0.268 OA
ATOM      5  N   LIG d   1       8.798  -9.660  -2.479  0.00  0.00    -0.322 N 
ATOM      6  H   LIG d   1       9.349  -9.056  -3.054  0.00  0.00     0.169 HD
ATOM      7  C   LIG d   1       7.455  -9.818  -2.753  0.00  0.00     0.050 A 
ATOM      8  C   LIG d   1       6.676 -10.674  -1.948  0.00  0.00     0.005 A 
ATOM      9  C   LIG d   1       5.312 -10.843  -2.217  0.00  0.00     0.025 A 
ATOM     10  C   LIG d   1       4.736 -10.179  -3.258  0.00  0.00     0.281 A 
ATOM     11  C   LIG d   1       5.501  -9.324  -4.067  0.00  0.00     0.054 A 
ATOM     12  C   LIG d   1       6.860  -9.146  -3.812  0.00  0.00    -0.024 A 
ATOM     13  H   LIG d   1       6.748 -12.040  -0.200  0.00  0.00     0.063 H 
ATOM     14  H   LIG d   1       9.134 -11.686   0.197  0.00  0.00     0.067 H 
ATOM     15  H   LIG d   1       4.718 -11.500  -1.600  0.00  0.00     0.069 H 
ATOM     16  H   LIG d   1       7.448  -8.487  -4.434  0.00  0.00     0.065 H 
ENDROOT
BRANCH  11  17
ATOM     17  C   LIG d   1       4.866  -8.614  -5.187  0.00  0.00    -0.046 C 
ATOM     18  C   LIG d   1       5.101  -7.298  -5.371  0.00  0.00    -0.039 C 
ATOM     19  H   LIG d   1       5.755  -6.767  -4.696  0.00  0.00     0.064 H 
ATOM     20  H   LIG d   1       4.212  -9.145  -5.863  0.00  0.00     0.063 H 
BRANCH  18  21
ATOM     21  C   LIG d   1       4.469  -6.591  -6.486  0.00  0.00     0.065 C 
ATOM     22  O   LIG d   1       4.756  -6.881  -7.632  0.00  0.00    -0.545 OA
ATOM     23  O   LIG d   1       3.567  -5.618  -6.243  0.00  0.00    -0.545 OA
ENDBRANCH  18  21
ENDBRANCH  11  17
BRANCH  10  24
ATOM     24  N   LIG d   1       3.293 -10.360  -3.538  0.00  0.00     0.080 N 
ATOM     25  O   LIG d   1       2.475  -9.619  -3.023  0.00  0.00     0.042 OA
ATOM     26  O   LIG d   1       2.924 -11.251  -4.282  0.00  0.00    -0.576 OA
ENDBRANCH  10  24
TORSDOF 3
ENDMDL
MODEL 6
REMARK VINA RESULT:      -5.5      9.827     12.398
REMARK  3 active torsions:
REMARK  status: ('A' for Active; 'I' for Inactive)
REMARK    1  A    between atoms: C_10  and  N_17 
REMARK    2  A    between atoms: C_11  and  C_13 
REMARK    3  A    between atoms: C_14  and  C_15 
ROOT
ATOM      1  C   LIG d   1       9.517   7.654  -6.249  0.00  0.00    -0.047 A 
ATOM      2  C   LIG d   1       9.399   8.982  -6.495  0.00  0.00     0.003 A 
ATOM      3  C   LIG d   1       9.492   9.913  -5.438  0.00  0.00     0.249 A 
ATOM      4  O   LIG d   1       9.389  11.103  -5.682  0.00  0.00    -0.268 OA
ATOM      5  N   LIG d   1       9.684   9.519  -4.167  0.00  0.00    -0.322 N 
ATOM      6  H   LIG d   1       9.735  10.204  -3.441  0.00  0.00     0.169 HD
ATOM      7  C   LIG d   1       9.811   8.182  -3.849  0.00  0.00     0.050 A 
ATOM      8  C   LIG d   1       9.733   7.213  -4.870  0.00  0.00     0.005 A 
ATOM      9  C   LIG d   1       9.860   5.853  -4.560  0.00  0.00     0.025 A 
ATOM     10  C   LIG d   1      10.061   5.465  -3.269  0.00  0.00     0.281 A 
ATOM     11  C   LIG d   1      10.141   6.421  -2.244  0.00  0.00     0.054 A 
ATOM     12  C   LIG d   1      10.016   7.778  -2.537  0.00  0.00    -0.024 A 
ATOM     13  H   LIG d   1       9.451   6.936  -7.054  0.00  0.00     0.063 H 
ATOM     14  H   LIG d   1       9.240   9.330  -7.506  0.00  0.00     0.067 H 
ATOM     15  H   LIG d   1       9.798   5.113  -5.343  0.00  0.00     0.069 H 
ATOM     16  H   LIG d   1      10.078   8.513  -1.748  0.00  0.00     0.065 H 
ENDROOT
BRANCH  11  17
ATOM     17  C   LIG d   1      10.357   5.988  -0.855  0.00  0.00    -0.046 C 
ATOM     18  C   LIG d   1      10.874   6.848   0.046  0.00  0.00    -0.039 C 
ATOM     19  H   LIG d   1      11.128   7.855  -0.251  0.00  0.00     0.064 H 
ATOM     20  H   LIG d   1      10.104   4.982  -0.557  0.00  0.00     0.063 H 
BRANCH  18  21
ATOM     21  C   LIG d   1      11.090   6.417   1.428  0.00  0.00     0.065 C 
ATOM     22  O   LIG d   1      10.970   5.244   1.726  0.00  0.00    -0.545 OA
ATOM     23  O   LIG d   1      11.422   7.322   2.373  0.00  0.00    -0.545 OA
ENDBRANCH  18  21
ENDBRANCH  11  17
BRANCH  10  24
ATOM     24  N   LIG d   1      10.196   4.027  -2.946  0.00  0.00     0.080 N 
ATOM     25  O   LIG d   1       9.213   3.308  -2.944  0.00  0.00     0.042 OA
ATOM     26  O   LIG d   1      11.291   3.563  -2.680  0.00  0.00    -0.576 OA
ENDBRANCH  10  24
TORSDOF 3
ENDMDL
MODEL 7
REMARK VINA RESULT:      -5.4      3.023      4.863
REMARK  3 active torsions:
REMARK  status: ('A' for Active; 'I' for Inactive)
REMARK    1  A    between atoms: C_10  and  N_17 
REMARK    2  A    between atoms: C_11  and  C_13 
REMARK    3  A    between atoms: C_14  and  C_15 
ROOT
ATOM      1  C   LIG d   1       3.214  -1.399  -3.735  0.00  0.00    -0.047 A 
ATOM      2  C   LIG d   1       3.008  -0.316  -2.947  0.00  0.00     0.003 A 
ATOM      3  C   LIG d   1       4.092   0.302  -2.286  0.00  0.00     0.249 A 
ATOM      4  O   LIG d   1       3.884   1.278  -1.587  0.00  0.00    -0.268 OA
ATOM      5  N   LIG d   1       5.347  -0.166  -2.403  0.00  0.00    -0.322 N 
ATOM      6  H   LIG d   1       6.090   0.289  -1.914  0.00  0.00     0.169 HD
ATOM      7  C   LIG d   1       5.625  -1.265  -3.189  0.00  0.00     0.050 A 
ATOM      8  C   LIG d   1       4.578  -1.913  -3.876  0.00  0.00     0.005 A 
ATOM      9  C   LIG d   1       4.848  -3.031  -4.676  0.00  0.00     0.025 A 
ATOM     10  C   LIG d   1       6.125  -3.492  -4.793  0.00  0.00     0.281 A 
ATOM     11  C   LIG d   1       7.175  -2.855  -4.114  0.00  0.00     0.054 A 
ATOM     12  C   LIG d   1       6.923  -1.742  -3.314  0.00  0.00    -0.024 A 
ATOM     13  H   LIG d   1       2.390  -1.874  -4.247  0.00  0.00     0.063 H 
ATOM     14  H   LIG d   1       2.010   0.081  -2.829  0.00  0.00     0.067 H 
ATOM     15  H   LIG d   1       4.044  -3.526  -5.200  0.00  0.00     0.069 H 
ATOM     16  H   LIG d   1       7.732  -1.252  -2.793  0.00  0.00     0.065 H 
ENDROOT
BRANCH  11  17
ATOM     17  C   LIG d   1       8.549  -3.364  -4.249  0.00  0.00    -0.046 C 
ATOM     18  C   LIG d   1       9.192  -3.862  -3.173  0.00  0.00    -0.039 C 
ATOM     19  H   LIG d   1       8.698  -3.888  -2.212  0.00  0.00     0.064 H 
ATOM     20  H   LIG d   1       9.043  -3.339  -5.209  0.00  0.00     0.063 H 
BRANCH  18  21
ATOM     21  C   LIG d   1      10.558  -4.369  -3.307  0.00  0.00     0.065 C 
ATOM     22  O   LIG d   1      10.767  -5.567  -3.296  0.00  0.00    -0.545 OA
ATOM     23  O   LIG d   1      11.587  -3.507  -3.442  0.00  0.00    -0.545 OA
ENDBRANCH  18  21
ENDBRANCH  11  17
BRANCH  10  24
ATOM     24  N   LIG d   1       6.406  -4.672  -5.641  0.00  0.00     0.080 N 
ATOM     25  O   LIG d   1       6.359  -5.791  -5.162  0.00  0.00     0.042 OA
ATOM     26  O   LIG d   1       6.686  -4.524  -6.817  0.00  0.00    -0.576 OA
ENDBRANCH  10  24
TORSDOF 3
ENDMDL
MODEL 8
REMARK VINA RESULT:      -5.3      9.517     12.364
REMARK  3 active torsions:
REMARK  status: ('A' for Active; 'I' for Inactive)
REMARK    1  A    between atoms: C_10  and  N_17 
REMARK    2  A    between atoms: C_11  and  C_13 
REMARK    3  A    between atoms: C_14  and  C_15 
ROOT
ATOM      1  C   LIG d   1      10.334  10.841  -1.481  0.00  0.00    -0.047 A 
ATOM      2  C   LIG d   1       9.872  11.562  -2.532  0.00  0.00     0.003 A 
ATOM      3  C   LIG d   1       9.434  10.910  -3.705  0.00  0.00     0.249 A 
ATOM      4  O   LIG d   1       9.018  11.578  -4.636  0.00  0.00    -0.268 OA
ATOM      5  N   LIG d   1       9.472   9.571  -3.824  0.00  0.00    -0.322 N 
ATOM      6  H   LIG d   1       9.163   9.143  -4.672  0.00  0.00     0.169 HD
ATOM      7  C   LIG d   1       9.931   8.780  -2.791  0.00  0.00     0.050 A 
ATOM      8  C   LIG d   1      10.373   9.381  -1.596  0.00  0.00     0.005 A 
ATOM      9  C   LIG d   1      10.843   8.588  -0.541  0.00  0.00     0.025 A 
ATOM     10  C   LIG d   1      10.870   7.232  -0.669  0.00  0.00     0.281 A 
ATOM     11  C   LIG d   1      10.432   6.621  -1.855  0.00  0.00     0.054 A 
ATOM     12  C   LIG d   1       9.963   7.398  -2.914  0.00  0.00    -0.024 A 
ATOM     13  H   LIG d   1      10.667  11.332  -0.578  0.00  0.00     0.063 H 
ATOM     14  H   LIG d   1       9.834  12.640  -2.469  0.00  0.00     0.067 H 
ATOM     15  H   LIG d   1      11.181   9.051   0.373  0.00  0.00     0.069 H 
ATOM     16  H   LIG d   1       9.626   6.926  -3.825  0.00  0.00     0.065 H 
ENDROOT
BRANCH  11  17
ATOM     17  C   LIG d   1      10.468   5.156  -1.980  0.00  0.00    -0.046 C 
ATOM     18  C   LIG d   1       9.812   4.550  -2.990  0.00  0.00    -0.039 C 
ATOM     19  H   LIG d   1       9.260   5.139  -3.708  0.00  0.00     0.064 H 
ATOM     20  H   LIG d   1      11.019   4.565  -1.264  0.00  0.00     0.063 H 
BRANCH  18  21
ATOM     21  C   LIG d   1       9.847   3.091  -3.115  0.00  0.00     0.065 C 
ATOM     22  O   LIG d   1       8.824   2.475  -3.341  0.00  0.00    -0.545 OA
ATOM     23  O   LIG d   1      11.016   2.431  -2.979  0.00  0.00    -0.545 OA
ENDBRANCH  18  21
ENDBRANCH  11  17
BRANCH  10  24
ATOM     24  N   LIG d   1      11.364   6.397   0.449  0.00  0.00     0.080 N 
ATOM     25  O   LIG d   1      12.553   6.147   0.543  0.00  0.00     0.042 OA
ATOM     26  O   LIG d   1      10.582   5.958   1.273  0.00  0.00    -0.576 OA
ENDBRANCH  10  24
TORSDOF 3
ENDMDL
MODEL 9
REMARK VINA RESULT:      -5.2      9.841     14.019
REMARK  3 active torsions:
REMARK  status: ('A' for Active; 'I' for Inactive)
REMARK    1  A    between atoms: C_10  and  N_17 
REMARK    2  A    between atoms: C_11  and  C_13 
REMARK    3  A    between atoms: C_14  and  C_15 
ROOT
ATOM      1  C   LIG d   1       9.569   5.235  -3.661  0.00  0.00    -0.047 A 
ATOM      2  C   LIG d   1       9.980   3.946  -3.737  0.00  0.00     0.003 A 
ATOM      3  C   LIG d   1      10.740   3.377  -2.692  0.00  0.00     0.249 A 
ATOM      4  O   LIG d   1      11.095   2.215  -2.779  0.00  0.00    -0.268 OA
ATOM      5  N   LIG d   1      11.090   4.090  -1.607  0.00  0.00    -0.322 N 
ATOM      6  H   LIG d   1      11.637   3.659  -0.890  0.00  0.00     0.169 HD
ATOM      7  C   LIG d   1      10.703   5.407  -1.468  0.00  0.00     0.050 A 
ATOM      8  C   LIG d   1       9.937   6.019  -2.480  0.00  0.00     0.005 A 
ATOM      9  C   LIG d   1       9.540   7.356  -2.350  0.00  0.00     0.025 A 
ATOM     10  C   LIG d   1       9.893   8.067  -1.243  0.00  0.00     0.281 A 
ATOM     11  C   LIG d   1      10.656   7.468  -0.228  0.00  0.00     0.054 A 
ATOM     12  C   LIG d   1      11.059   6.138  -0.343  0.00  0.00    -0.024 A 
ATOM     13  H   LIG d   1       8.983   5.676  -4.454  0.00  0.00     0.063 H 
ATOM     14  H   LIG d   1       9.719   3.349  -4.599  0.00  0.00     0.067 H 
ATOM     15  H   LIG d   1       8.954   7.823  -3.127  0.00  0.00     0.069 H 
ATOM     16  H   LIG d   1      11.646   5.679   0.439  0.00  0.00     0.065 H 
ENDROOT
BRANCH  11  17
ATOM     17  C   LIG d   1      11.031   8.247   0.962  0.00  0.00    -0.046 C 
ATOM     18  C   LIG d   1      12.181   8.954   0.970  0.00  0.00    -0.039 C 
ATOM     19  H   LIG d   1      12.825   8.948   0.103  0.00  0.00     0.064 H 
ATOM     20  H   LIG d   1      10.388   8.254   1.829  0.00  0.00     0.063 H 
BRANCH  18  21
ATOM     21  C   LIG d   1      12.554   9.729   2.154  0.00  0.00     0.065 C 
ATOM     22  O   LIG d   1      13.502   9.384   2.834  0.00  0.00    -0.545 OA
ATOM     23  O   LIG d   1      11.847  10.827   2.492  0.00  0.00    -0.545 OA
ENDBRANCH  18  21
ENDBRANCH  11  17
BRANCH  10  24
ATOM     24  N   LIG d   1       9.470   9.479  -1.109  0.00  0.00     0.080 N 
ATOM     25  O   LIG d   1       8.422   9.751  -0.552  0.00  0.00     0.042 OA
ATOM     26  O   LIG d   1      10.170  10.370  -1.557  0.00  0.00    -0.576 OA
ENDBRANCH  10  24
TORSDOF 3
ENDMDL
MODEL 10
REMARK VINA RESULT:      -5.2      3.513      5.988
REMARK  3 active torsions:
REMARK  status: ('A' for Active; 'I' for Inactive)
REMARK    1  A    between atoms: C_10  and  N_17 
REMARK    2  A    between atoms: C_11  and  C_13 
REMARK    3  A    between atoms: C_14  and  C_15 
ROOT
ATOM      1  C   LIG d   1       9.424  -5.317  -5.154  0.00  0.00    -0.047 A 
ATOM      2  C   LIG d   1      10.599  -4.956  -4.583  0.00  0.00     0.003 A 
ATOM      3  C   LIG d   1      10.656  -3.844  -3.713  0.00  0.00     0.249 A 
ATOM      4  O   LIG d   1      11.721  -3.540  -3.206  0.00  0.00    -0.268 OA
ATOM      5  N   LIG d   1       9.564  -3.109  -3.437  0.00  0.00    -0.322 N 
ATOM      6  H   LIG d   1       9.641  -2.323  -2.825  0.00  0.00     0.169 HD
ATOM      7  C   LIG d   1       8.338  -3.425  -3.987  0.00  0.00     0.050 A 
ATOM      8  C   LIG d   1       8.227  -4.529  -4.856  0.00  0.00     0.005 A 
ATOM      9  C   LIG d   1       6.988  -4.858  -5.420  0.00  0.00     0.025 A 
ATOM     10  C   LIG d   1       5.887  -4.110  -5.128  0.00  0.00     0.281 A 
ATOM     11  C   LIG d   1       5.985  -3.008  -4.264  0.00  0.00     0.054 A 
ATOM     12  C   LIG d   1       7.212  -2.668  -3.695  0.00  0.00    -0.024 A 
ATOM     13  H   LIG d   1       9.373  -6.169  -5.817  0.00  0.00     0.063 H 
ATOM     14  H   LIG d   1      11.495  -5.523  -4.789  0.00  0.00     0.067 H 
ATOM     15  H   LIG d   1       6.906  -5.703  -6.086  0.00  0.00     0.069 H 
ATOM     16  H   LIG d   1       7.286  -1.820  -3.030  0.00  0.00     0.065 H 
ENDROOT
BRANCH  11  17
ATOM     17  C   LIG d   1       4.789  -2.210  -3.958  0.00  0.00    -0.046 C 
ATOM     18  C   LIG d   1       4.812  -1.322  -2.942  0.00  0.00    -0.039 C 
ATOM     19  H   LIG d   1       5.709  -1.198  -2.354  0.00  0.00     0.064 H 
ATOM     20  H   LIG d   1       3.891  -2.333  -4.545  0.00  0.00     0.063 H 
BRANCH  18  21
ATOM     21  C   LIG d   1       3.621  -0.528  -2.637  0.00  0.00     0.065 C 
ATOM     22  O   LIG d   1       3.703   0.431  -1.894  0.00  0.00    -0.545 OA
ATOM     23  O   LIG d   1       2.432  -0.859  -3.181  0.00  0.00    -0.545 OA
ENDBRANCH  18  21
ENDBRANCH  11  17
BRANCH  10  24
ATOM     24  N   LIG d   1       4.579  -4.462  -5.725  0.00  0.00     0.080 N 
ATOM     25  O   LIG d   1       4.182  -3.872  -6.714  0.00  0.00     0.042 OA
ATOM     26  O   LIG d   1       3.899  -5.342  -5.226  0.00  0.00    -0.576 OA
ENDBRANCH  10  24
TORSDOF 3
ENDMDL
