MODEL 1
REMARK VINA RESULT:      -7.2      0.000      0.000
REMARK  7 active torsions:
REMARK  status: ('A' for Active; 'I' for Inactive)
REMARK    1  A    between atoms: C_1  and  C_2 
REMARK    2  A    between atoms: C_2  and  C_3 
REMARK    3  A    between atoms: C_3  and  O_4 
REMARK    4  A    between atoms: O_4  and  C_5 
REMARK    5  A    between atoms: C_10  and  N_11 
REMARK    6  A    between atoms: C_16  and  C_32 
REMARK    7  A    between atoms: C_20  and  C_26 
ROOT
ATOM      1  N   LIG d   1       7.660   0.040  -5.487  0.00  0.00    -0.206 N 
ATOM      2  C   LIG d   1       7.308  -1.187  -5.024  0.00  0.00     0.231 C 
ATOM      3  O   LIG d   1       7.609  -1.676  -3.956  0.00  0.00    -0.275 OA
ATOM      4  C   LIG d   1       6.475  -1.817  -6.098  0.00  0.00     0.059 C 
ATOM      5  H   LIG d   1       7.111  -2.319  -6.827  0.00  0.00     0.041 H 
ATOM      6  C   LIG d   1       5.335  -2.723  -5.683  0.00  0.00     0.014 C 
ATOM      7  H   LIG d   1       5.727  -3.681  -5.341  0.00  0.00     0.040 H 
ATOM      8  C   LIG d   1       4.468  -2.927  -6.906  0.00  0.00    -0.079 C 
ATOM      9  C   LIG d   1       4.488  -2.162  -7.956  0.00  0.00    -0.079 C 
ATOM     10  C   LIG d   1       5.366  -0.938  -8.104  0.00  0.00     0.014 C 
ATOM     11  H   LIG d   1       6.234  -1.173  -8.719  0.00  0.00     0.040 H 
ATOM     12  C   LIG d   1       5.828  -0.543  -6.725  0.00  0.00     0.059 C 
ATOM     13  H   LIG d   1       4.971  -0.220  -6.133  0.00  0.00     0.041 H 
ATOM     14  C   LIG d   1       6.963   0.425  -6.587  0.00  0.00     0.231 C 
ATOM     15  O   LIG d   1       7.210   1.362  -7.315  0.00  0.00    -0.275 OA
ATOM     16  H   LIG d   1       3.785  -3.764  -6.907  0.00  0.00     0.058 H 
ATOM     17  H   LIG d   1       3.837  -2.418  -8.779  0.00  0.00     0.058 H 
ENDROOT
BRANCH   1  18
ATOM     18  C   LIG d   1       8.646   0.838  -4.883  0.00  0.00     0.085 A 
ATOM     19  C   LIG d   1       9.988   0.645  -5.196  0.00  0.00     0.142 A 
ATOM     20  C   LIG d   1      10.956   1.440  -4.601  0.00  0.00    -0.018 A 
ATOM     21  C   LIG d   1      10.588   2.416  -3.696  0.00  0.00    -0.058 A 
ATOM     22  H   LIG d   1      11.998   1.294  -4.845  0.00  0.00     0.066 H 
ATOM     23  C   LIG d   1       9.254   2.604  -3.380  0.00  0.00    -0.060 A 
ATOM     24  H   LIG d   1      11.343   3.034  -3.233  0.00  0.00     0.062 H 
ATOM     25  C   LIG d   1       8.283   1.817  -3.969  0.00  0.00    -0.036 A 
ATOM     26  H   LIG d   1       8.971   3.368  -2.671  0.00  0.00     0.062 H 
ATOM     27  H   LIG d   1       7.243   1.966  -3.721  0.00  0.00     0.064 H 
BRANCH  19  28
ATOM     28  O   LIG d   1      10.349  -0.316  -6.088  0.00  0.00    -0.490 OA
BRANCH  28  29
ATOM     29  C   LIG d   1      10.798   0.125  -7.371  0.00  0.00     0.089 C 
ATOM     30  H   LIG d   1      11.857  -0.106  -7.484  0.00  0.00     0.070 H 
ATOM     31  H   LIG d   1      10.649   1.201  -7.458  0.00  0.00     0.070 H 
BRANCH  29  32
ATOM     32  C   LIG d   1       9.999  -0.591  -8.462  0.00  0.00    -0.021 C 
ATOM     33  H   LIG d   1      10.620  -0.708  -9.350  0.00  0.00     0.029 H 
ATOM     34  H   LIG d   1       9.115  -0.003  -8.711  0.00  0.00     0.029 H 
BRANCH  32  35
ATOM     35  C   LIG d   1       9.568  -1.969  -7.957  0.00  0.00    -0.062 C 
ATOM     36  H   LIG d   1       9.224  -2.573  -8.796  0.00  0.00     0.023 H 
ATOM     37  H   LIG d   1      10.415  -2.462  -7.477  0.00  0.00     0.023 H 
ATOM     38  H   LIG d   1       8.759  -1.855  -7.235  0.00  0.00     0.023 H 
ENDBRANCH  32  35
ENDBRANCH  29  32
ENDBRANCH  28  29
ENDBRANCH  19  28
ENDBRANCH   1  18
BRANCH  10  39
ATOM     39  C   LIG d   1       4.581   0.186  -8.731  0.00  0.00    -0.040 A 
ATOM     40  C   LIG d   1       3.647   0.878  -7.985  0.00  0.00    -0.058 A 
ATOM     41  C   LIG d   1       2.930   1.911  -8.559  0.00  0.00    -0.061 A 
ATOM     42  H   LIG d   1       3.479   0.614  -6.950  0.00  0.00     0.062 H 
ATOM     43  C   LIG d   1       3.143   2.247  -9.883  0.00  0.00    -0.062 A 
ATOM     44  H   LIG d   1       2.203   2.455  -7.975  0.00  0.00     0.062 H 
ATOM     45  C   LIG d   1       4.075   1.551 -10.632  0.00  0.00    -0.061 A 
ATOM     46  H   LIG d   1       2.581   3.052 -10.333  0.00  0.00     0.062 H 
ATOM     47  C   LIG d   1       4.794   0.521 -10.055  0.00  0.00    -0.058 A 
ATOM     48  H   LIG d   1       4.240   1.813 -11.666  0.00  0.00     0.062 H 
ATOM     49  H   LIG d   1       5.521  -0.023 -10.640  0.00  0.00     0.062 H 
ENDBRANCH  10  39
BRANCH   6  50
ATOM     50  C   LIG d   1       4.534  -2.072  -4.584  0.00  0.00    -0.040 A 
ATOM     51  C   LIG d   1       4.520  -2.627  -3.318  0.00  0.00    -0.058 A 
ATOM     52  C   LIG d   1       3.788  -2.028  -2.309  0.00  0.00    -0.061 A 
ATOM     53  H   LIG d   1       5.081  -3.527  -3.116  0.00  0.00     0.062 H 
ATOM     54  C   LIG d   1       3.065  -0.880  -2.569  0.00  0.00    -0.062 A 
ATOM     55  H   LIG d   1       3.780  -2.460  -1.319  0.00  0.00     0.062 H 
ATOM     56  C   LIG d   1       3.076  -0.327  -3.836  0.00  0.00    -0.061 A 
ATOM     57  H   LIG d   1       2.491  -0.413  -1.782  0.00  0.00     0.062 H 
ATOM     58  C   LIG d   1       3.810  -0.923  -4.844  0.00  0.00    -0.058 A 
ATOM     59  H   LIG d   1       2.510   0.571  -4.039  0.00  0.00     0.062 H 
ATOM     60  H   LIG d   1       3.819  -0.492  -5.834  0.00  0.00     0.062 H 
ENDBRANCH   6  50
TORSDOF 7
ENDMDL
MODEL 2
REMARK VINA RESULT:      -7.2      1.158      2.751
REMARK  7 active torsions:
REMARK  status: ('A' for Active; 'I' for Inactive)
REMARK    1  A    between atoms: C_1  and  C_2 
REMARK    2  A    between atoms: C_2  and  C_3 
REMARK    3  A    between atoms: C_3  and  O_4 
REMARK    4  A    between atoms: O_4  and  C_5 
REMARK    5  A    between atoms: C_10  and  N_11 
REMARK    6  A    between atoms: C_16  and  C_32 
REMARK    7  A    between atoms: C_20  and  C_26 
ROOT
ATOM      1  N   LIG d   1       7.686  -0.189  -5.735  0.00  0.00    -0.206 N 
ATOM      2  C   LIG d   1       7.353  -1.452  -5.360  0.00  0.00     0.231 C 
ATOM      3  O   LIG d   1       7.682  -2.018  -4.340  0.00  0.00    -0.275 OA
ATOM      4  C   LIG d   1       6.499  -2.003  -6.460  0.00  0.00     0.059 C 
ATOM      5  H   LIG d   1       7.122  -2.443  -7.240  0.00  0.00     0.041 H 
ATOM      6  C   LIG d   1       5.376  -2.949  -6.090  0.00  0.00     0.014 C 
ATOM      7  H   LIG d   1       5.782  -3.927  -5.832  0.00  0.00     0.040 H 
ATOM      8  C   LIG d   1       4.481  -3.066  -7.305  0.00  0.00    -0.079 C 
ATOM      9  C   LIG d   1       4.472  -2.223  -8.293  0.00  0.00    -0.079 C 
ATOM     10  C   LIG d   1       5.337  -0.983  -8.366  0.00  0.00     0.014 C 
ATOM     11  H   LIG d   1       6.193  -1.163  -9.018  0.00  0.00     0.040 H 
ATOM     12  C   LIG d   1       5.829  -0.691  -6.972  0.00  0.00     0.059 C 
ATOM     13  H   LIG d   1       4.984  -0.422  -6.338  0.00  0.00     0.041 H 
ATOM     14  C   LIG d   1       6.960   0.273  -6.786  0.00  0.00     0.231 C 
ATOM     15  O   LIG d   1       7.184   1.266  -7.445  0.00  0.00    -0.275 OA
ATOM     16  H   LIG d   1       3.804  -3.906  -7.355  0.00  0.00     0.058 H 
ATOM     17  H   LIG d   1       3.803  -2.420  -9.119  0.00  0.00     0.058 H 
ENDROOT
BRANCH   1  18
ATOM     18  C   LIG d   1       8.679   0.569  -5.094  0.00  0.00     0.085 A 
ATOM     19  C   LIG d   1       8.321   1.602  -4.232  0.00  0.00     0.142 A 
ATOM     20  C   LIG d   1       9.306   2.343  -3.598  0.00  0.00    -0.018 A 
ATOM     21  C   LIG d   1      10.639   2.058  -3.825  0.00  0.00    -0.058 A 
ATOM     22  H   LIG d   1       9.031   3.142  -2.926  0.00  0.00     0.066 H 
ATOM     23  C   LIG d   1      10.995   1.036  -4.686  0.00  0.00    -0.060 A 
ATOM     24  H   LIG d   1      11.405   2.637  -3.330  0.00  0.00     0.062 H 
ATOM     25  C   LIG d   1      10.019   0.293  -5.322  0.00  0.00    -0.036 A 
ATOM     26  H   LIG d   1      12.038   0.818  -4.861  0.00  0.00     0.062 H 
ATOM     27  H   LIG d   1      10.300  -0.506  -5.993  0.00  0.00     0.064 H 
BRANCH  19  28
ATOM     28  O   LIG d   1       7.009   1.880  -4.009  0.00  0.00    -0.490 OA
BRANCH  28  29
ATOM     29  C   LIG d   1       6.289   0.978  -3.168  0.00  0.00     0.089 C 
ATOM     30  H   LIG d   1       6.878   0.762  -2.277  0.00  0.00     0.070 H 
ATOM     31  H   LIG d   1       6.095   0.052  -3.709  0.00  0.00     0.070 H 
BRANCH  29  32
ATOM     32  C   LIG d   1       4.959   1.615  -2.758  0.00  0.00    -0.021 C 
ATOM     33  H   LIG d   1       4.183   1.323  -3.463  0.00  0.00     0.029 H 
ATOM     34  H   LIG d   1       5.062   2.701  -2.758  0.00  0.00     0.029 H 
BRANCH  32  35
ATOM     35  C   LIG d   1       4.578   1.140  -1.354  0.00  0.00    -0.062 C 
ATOM     36  H   LIG d   1       3.826   1.808  -0.935  0.00  0.00     0.023 H 
ATOM     37  H   LIG d   1       4.175   0.128  -1.410  0.00  0.00     0.023 H 
ATOM     38  H   LIG d   1       5.463   1.142  -0.716  0.00  0.00     0.023 H 
ENDBRANCH  32  35
ENDBRANCH  29  32
ENDBRANCH  28  29
ENDBRANCH  19  28
ENDBRANCH   1  18
BRANCH  10  39
ATOM     39  C   LIG d   1       4.531   0.179  -8.887  0.00  0.00    -0.040 A 
ATOM     40  C   LIG d   1       3.607   0.802  -8.070  0.00  0.00    -0.058 A 
ATOM     41  C   LIG d   1       2.871   1.870  -8.546  0.00  0.00    -0.061 A 
ATOM     42  H   LIG d   1       3.464   0.457  -7.056  0.00  0.00     0.062 H 
ATOM     43  C   LIG d   1       3.052   2.310  -9.844  0.00  0.00    -0.062 A 
ATOM     44  H   LIG d   1       2.153   2.361  -7.906  0.00  0.00     0.062 H 
ATOM     45  C   LIG d   1       3.972   1.683 -10.665  0.00  0.00    -0.061 A 
ATOM     46  H   LIG d   1       2.474   3.143 -10.218  0.00  0.00     0.062 H 
ATOM     47  C   LIG d   1       4.712   0.618 -10.186  0.00  0.00    -0.058 A 
ATOM     48  H   LIG d   1       4.113   2.027 -11.679  0.00  0.00     0.062 H 
ATOM     49  H   LIG d   1       5.430   0.128 -10.826  0.00  0.00     0.062 H 
ENDBRANCH  10  39
BRANCH   6  50
ATOM     50  C   LIG d   1       4.596  -2.391  -4.927  0.00  0.00    -0.040 A 
ATOM     51  C   LIG d   1       3.740  -1.323  -5.118  0.00  0.00    -0.058 A 
ATOM     52  C   LIG d   1       3.021  -0.813  -4.052  0.00  0.00    -0.061 A 
ATOM     53  H   LIG d   1       3.631  -0.887  -6.100  0.00  0.00     0.062 H 
ATOM     54  C   LIG d   1       3.165  -1.368  -2.794  0.00  0.00    -0.062 A 
ATOM     55  H   LIG d   1       2.349   0.019  -4.202  0.00  0.00     0.062 H 
ATOM     56  C   LIG d   1       4.025  -2.433  -2.602  0.00  0.00    -0.061 A 
ATOM     57  H   LIG d   1       2.606  -0.968  -1.961  0.00  0.00     0.062 H 
ATOM     58  C   LIG d   1       4.740  -2.945  -3.668  0.00  0.00    -0.058 A 
ATOM     59  H   LIG d   1       4.138  -2.867  -1.619  0.00  0.00     0.062 H 
ATOM     60  H   LIG d   1       5.412  -3.777  -3.519  0.00  0.00     0.062 H 
ENDBRANCH   6  50
TORSDOF 7
ENDMDL
MODEL 3
REMARK VINA RESULT:      -7.1      1.863      6.500
REMARK  7 active torsions:
REMARK  status: ('A' for Active; 'I' for Inactive)
REMARK    1  A    between atoms: C_1  and  C_2 
REMARK    2  A    between atoms: C_2  and  C_3 
REMARK    3  A    between atoms: C_3  and  O_4 
REMARK    4  A    between atoms: O_4  and  C_5 
REMARK    5  A    between atoms: C_10  and  N_11 
REMARK    6  A    between atoms: C_16  and  C_32 
REMARK    7  A    between atoms: C_20  and  C_26 
ROOT
ATOM      1  N   LIG d   1       6.522  -0.341  -4.435  0.00  0.00    -0.206 N 
ATOM      2  C   LIG d   1       7.106  -1.108  -5.392  0.00  0.00     0.231 C 
ATOM      3  O   LIG d   1       6.582  -1.991  -6.037  0.00  0.00    -0.275 OA
ATOM      4  C   LIG d   1       8.527  -0.644  -5.492  0.00  0.00     0.059 C 
ATOM      5  H   LIG d   1       9.147  -1.161  -4.757  0.00  0.00     0.041 H 
ATOM      6  C   LIG d   1       9.196  -0.665  -6.850  0.00  0.00     0.014 C 
ATOM      7  H   LIG d   1       9.447  -1.689  -7.126  0.00  0.00     0.040 H 
ATOM      8  C   LIG d   1      10.458   0.162  -6.732  0.00  0.00    -0.079 C 
ATOM      9  C   LIG d   1      10.686   1.021  -5.784  0.00  0.00    -0.079 C 
ATOM     10  C   LIG d   1       9.714   1.341  -4.668  0.00  0.00     0.014 C 
ATOM     11  H   LIG d   1      10.007   0.820  -3.756  0.00  0.00     0.040 H 
ATOM     12  C   LIG d   1       8.354   0.856  -5.101  0.00  0.00     0.059 C 
ATOM     13  H   LIG d   1       8.018   1.437  -5.959  0.00  0.00     0.041 H 
ATOM     14  C   LIG d   1       7.265   0.739  -4.079  0.00  0.00     0.231 C 
ATOM     15  O   LIG d   1       7.085   1.462  -3.122  0.00  0.00    -0.275 OA
ATOM     16  H   LIG d   1      11.220   0.031  -7.485  0.00  0.00     0.058 H 
ATOM     17  H   LIG d   1      11.634   1.539  -5.791  0.00  0.00     0.058 H 
ENDROOT
BRANCH   1  18
ATOM     18  C   LIG d   1       5.268  -0.632  -3.874  0.00  0.00     0.085 A 
ATOM     19  C   LIG d   1       4.104  -0.242  -4.529  0.00  0.00     0.142 A 
ATOM     20  C   LIG d   1       2.868  -0.537  -3.972  0.00  0.00    -0.018 A 
ATOM     21  C   LIG d   1       2.796  -1.212  -2.768  0.00  0.00    -0.058 A 
ATOM     22  H   LIG d   1       1.963  -0.239  -4.480  0.00  0.00     0.066 H 
ATOM     23  C   LIG d   1       3.953  -1.593  -2.115  0.00  0.00    -0.060 A 
ATOM     24  H   LIG d   1       1.833  -1.440  -2.336  0.00  0.00     0.062 H 
ATOM     25  C   LIG d   1       5.188  -1.303  -2.662  0.00  0.00    -0.036 A 
ATOM     26  H   LIG d   1       3.892  -2.119  -1.174  0.00  0.00     0.062 H 
ATOM     27  H   LIG d   1       6.091  -1.603  -2.151  0.00  0.00     0.064 H 
BRANCH  19  28
ATOM     28  O   LIG d   1       4.176   0.421  -5.713  0.00  0.00    -0.490 OA
BRANCH  28  29
ATOM     29  C   LIG d   1       3.021   0.376  -6.554  0.00  0.00     0.089 C 
ATOM     30  H   LIG d   1       2.318   1.148  -6.245  0.00  0.00     0.070 H 
ATOM     31  H   LIG d   1       2.549  -0.603  -6.470  0.00  0.00     0.070 H 
BRANCH  29  32
ATOM     32  C   LIG d   1       3.439   0.617  -8.006  0.00  0.00    -0.021 C 
ATOM     33  H   LIG d   1       3.019  -0.163  -8.640  0.00  0.00     0.029 H 
ATOM     34  H   LIG d   1       4.527   0.599  -8.079  0.00  0.00     0.029 H 
BRANCH  32  35
ATOM     35  C   LIG d   1       2.921   1.982  -8.465  0.00  0.00    -0.062 C 
ATOM     36  H   LIG d   1       2.930   2.027  -9.554  0.00  0.00     0.023 H 
ATOM     37  H   LIG d   1       1.902   2.124  -8.104  0.00  0.00     0.023 H 
ATOM     38  H   LIG d   1       3.561   2.768  -8.063  0.00  0.00     0.023 H 
ENDBRANCH  32  35
ENDBRANCH  29  32
ENDBRANCH  28  29
ENDBRANCH  19  28
ENDBRANCH   1  18
BRANCH  10  39
ATOM     39  C   LIG d   1       9.682   2.827  -4.423  0.00  0.00    -0.040 A 
ATOM     40  C   LIG d   1       9.384   3.693  -5.458  0.00  0.00    -0.058 A 
ATOM     41  C   LIG d   1       9.352   5.056  -5.232  0.00  0.00    -0.061 A 
ATOM     42  H   LIG d   1       9.173   3.304  -6.444  0.00  0.00     0.062 H 
ATOM     43  C   LIG d   1       9.625   5.555  -3.971  0.00  0.00    -0.062 A 
ATOM     44  H   LIG d   1       9.114   5.733  -6.039  0.00  0.00     0.062 H 
ATOM     45  C   LIG d   1       9.928   4.689  -2.936  0.00  0.00    -0.061 A 
ATOM     46  H   LIG d   1       9.602   6.620  -3.795  0.00  0.00     0.062 H 
ATOM     47  C   LIG d   1       9.957   3.325  -3.162  0.00  0.00    -0.058 A 
ATOM     48  H   LIG d   1      10.142   5.078  -1.952  0.00  0.00     0.062 H 
ATOM     49  H   LIG d   1      10.194   2.649  -2.355  0.00  0.00     0.062 H 
ENDBRANCH  10  39
BRANCH   6  50
ATOM     50  C   LIG d   1       8.279  -0.062  -7.883  0.00  0.00    -0.040 A 
ATOM     51  C   LIG d   1       7.785  -0.846  -8.909  0.00  0.00    -0.058 A 
ATOM     52  C   LIG d   1       6.940  -0.295  -9.856  0.00  0.00    -0.061 A 
ATOM     53  H   LIG d   1       8.057  -1.890  -8.971  0.00  0.00     0.062 H 
ATOM     54  C   LIG d   1       6.597   1.041  -9.780  0.00  0.00    -0.062 A 
ATOM     55  H   LIG d   1       6.551  -0.909 -10.654  0.00  0.00     0.062 H 
ATOM     56  C   LIG d   1       7.094   1.826  -8.757  0.00  0.00    -0.061 A 
ATOM     57  H   LIG d   1       5.940   1.473 -10.520  0.00  0.00     0.062 H 
ATOM     58  C   LIG d   1       7.935   1.275  -7.808  0.00  0.00    -0.058 A 
ATOM     59  H   LIG d   1       6.826   2.871  -8.697  0.00  0.00     0.062 H 
ATOM     60  H   LIG d   1       8.324   1.888  -7.009  0.00  0.00     0.062 H 
ENDBRANCH   6  50
TORSDOF 7
ENDMDL
MODEL 4
REMARK VINA RESULT:      -6.9      2.592      5.867
REMARK  7 active torsions:
REMARK  status: ('A' for Active; 'I' for Inactive)
REMARK    1  A    between atoms: C_1  and  C_2 
REMARK    2  A    between atoms: C_2  and  C_3 
REMARK    3  A    between atoms: C_3  and  O_4 
REMARK    4  A    between atoms: O_4  and  C_5 
REMARK    5  A    between atoms: C_10  and  N_11 
REMARK    6  A    between atoms: C_16  and  C_32 
REMARK    7  A    between atoms: C_20  and  C_26 
ROOT
ATOM      1  N   LIG d   1       5.590  -0.680  -7.286  0.00  0.00    -0.206 N 
ATOM      2  C   LIG d   1       6.337  -0.439  -6.177  0.00  0.00     0.231 C 
ATOM      3  O   LIG d   1       6.332   0.569  -5.502  0.00  0.00    -0.275 OA
ATOM      4  C   LIG d   1       7.166  -1.666  -5.955  0.00  0.00     0.059 C 
ATOM      5  H   LIG d   1       8.088  -1.611  -6.537  0.00  0.00     0.041 H 
ATOM      6  C   LIG d   1       7.469  -2.080  -4.530  0.00  0.00     0.014 C 
ATOM      7  H   LIG d   1       8.223  -1.418  -4.103  0.00  0.00     0.040 H 
ATOM      8  C   LIG d   1       7.998  -3.497  -4.586  0.00  0.00    -0.079 C 
ATOM      9  C   LIG d   1       7.837  -4.300  -5.595  0.00  0.00    -0.079 C 
ATOM     10  C   LIG d   1       7.075  -3.948  -6.855  0.00  0.00     0.014 C 
ATOM     11  H   LIG d   1       7.772  -3.690  -7.652  0.00  0.00     0.040 H 
ATOM     12  C   LIG d   1       6.213  -2.752  -6.543  0.00  0.00     0.059 C 
ATOM     13  H   LIG d   1       5.456  -3.031  -5.811  0.00  0.00     0.041 H 
ATOM     14  C   LIG d   1       5.602  -1.982  -7.673  0.00  0.00     0.231 C 
ATOM     15  O   LIG d   1       5.200  -2.432  -8.725  0.00  0.00    -0.275 OA
ATOM     16  H   LIG d   1       8.545  -3.866  -3.732  0.00  0.00     0.058 H 
ATOM     17  H   LIG d   1       8.277  -5.285  -5.530  0.00  0.00     0.058 H 
ENDROOT
BRANCH   1  18
ATOM     18  C   LIG d   1       4.871   0.318  -7.963  0.00  0.00     0.085 A 
ATOM     19  C   LIG d   1       3.555   0.595  -7.601  0.00  0.00     0.142 A 
ATOM     20  C   LIG d   1       2.851   1.586  -8.270  0.00  0.00    -0.018 A 
ATOM     21  C   LIG d   1       3.454   2.291  -9.294  0.00  0.00    -0.058 A 
ATOM     22  H   LIG d   1       1.832   1.805  -7.990  0.00  0.00     0.066 H 
ATOM     23  C   LIG d   1       4.759   2.010  -9.656  0.00  0.00    -0.060 A 
ATOM     24  H   LIG d   1       2.904   3.062  -9.813  0.00  0.00     0.062 H 
ATOM     25  C   LIG d   1       5.467   1.025  -8.996  0.00  0.00    -0.036 A 
ATOM     26  H   LIG d   1       5.226   2.564 -10.458  0.00  0.00     0.062 H 
ATOM     27  H   LIG d   1       6.487   0.809  -9.280  0.00  0.00     0.064 H 
BRANCH  19  28
ATOM     28  O   LIG d   1       2.963  -0.099  -6.593  0.00  0.00    -0.490 OA
BRANCH  28  29
ATOM     29  C   LIG d   1       2.223   0.657  -5.633  0.00  0.00     0.089 C 
ATOM     30  H   LIG d   1       1.172   0.375  -5.681  0.00  0.00     0.070 H 
ATOM     31  H   LIG d   1       2.326   1.720  -5.849  0.00  0.00     0.070 H 
BRANCH  29  32
ATOM     32  C   LIG d   1       2.765   0.368  -4.231  0.00  0.00    -0.021 C 
ATOM     33  H   LIG d   1       3.585  -0.346  -4.298  0.00  0.00     0.029 H 
ATOM     34  H   LIG d   1       1.970  -0.048  -3.612  0.00  0.00     0.029 H 
BRANCH  32  35
ATOM     35  C   LIG d   1       3.271   1.668  -3.603  0.00  0.00    -0.062 C 
ATOM     36  H   LIG d   1       2.605   1.964  -2.792  0.00  0.00     0.023 H 
ATOM     37  H   LIG d   1       4.277   1.515  -3.209  0.00  0.00     0.023 H 
ATOM     38  H   LIG d   1       3.293   2.453  -4.359  0.00  0.00     0.023 H 
ENDBRANCH  32  35
ENDBRANCH  29  32
ENDBRANCH  28  29
ENDBRANCH  19  28
ENDBRANCH   1  18
BRANCH  10  39
ATOM     39  C   LIG d   1       6.216  -5.111  -7.280  0.00  0.00    -0.040 A 
ATOM     40  C   LIG d   1       6.360  -5.652  -8.543  0.00  0.00    -0.058 A 
ATOM     41  C   LIG d   1       5.576  -6.722  -8.932  0.00  0.00    -0.061 A 
ATOM     42  H   LIG d   1       7.089  -5.240  -9.227  0.00  0.00     0.062 H 
ATOM     43  C   LIG d   1       4.641  -7.246  -8.058  0.00  0.00    -0.062 A 
ATOM     44  H   LIG d   1       5.692  -7.148  -9.917  0.00  0.00     0.062 H 
ATOM     45  C   LIG d   1       4.493  -6.702  -6.795  0.00  0.00    -0.061 A 
ATOM     46  H   LIG d   1       4.026  -8.080  -8.363  0.00  0.00     0.062 H 
ATOM     47  C   LIG d   1       5.281  -5.635  -6.406  0.00  0.00    -0.058 A 
ATOM     48  H   LIG d   1       3.763  -7.111  -6.113  0.00  0.00     0.062 H 
ATOM     49  H   LIG d   1       5.166  -5.210  -5.421  0.00  0.00     0.062 H 
ENDBRANCH  10  39
BRANCH   6  50
ATOM     50  C   LIG d   1       6.211  -2.030  -3.702  0.00  0.00    -0.040 A 
ATOM     51  C   LIG d   1       5.171  -2.900  -3.972  0.00  0.00    -0.058 A 
ATOM     52  C   LIG d   1       4.018  -2.858  -3.210  0.00  0.00    -0.061 A 
ATOM     53  H   LIG d   1       5.260  -3.614  -4.778  0.00  0.00     0.062 H 
ATOM     54  C   LIG d   1       3.903  -1.941  -2.183  0.00  0.00    -0.062 A 
ATOM     55  H   LIG d   1       3.208  -3.541  -3.419  0.00  0.00     0.062 H 
ATOM     56  C   LIG d   1       4.940  -1.068  -1.915  0.00  0.00    -0.061 A 
ATOM     57  H   LIG d   1       3.001  -1.906  -1.589  0.00  0.00     0.062 H 
ATOM     58  C   LIG d   1       6.095  -1.112  -2.675  0.00  0.00    -0.058 A 
ATOM     59  H   LIG d   1       4.850  -0.351  -1.113  0.00  0.00     0.062 H 
ATOM     60  H   LIG d   1       6.905  -0.431  -2.466  0.00  0.00     0.062 H 
ENDBRANCH   6  50
TORSDOF 7
ENDMDL
MODEL 5
REMARK VINA RESULT:      -6.7      2.287      5.440
REMARK  7 active torsions:
REMARK  status: ('A' for Active; 'I' for Inactive)
REMARK    1  A    between atoms: C_1  and  C_2 
REMARK    2  A    between atoms: C_2  and  C_3 
REMARK    3  A    between atoms: C_3  and  O_4 
REMARK    4  A    between atoms: O_4  and  C_5 
REMARK    5  A    between atoms: C_10  and  N_11 
REMARK    6  A    between atoms: C_16  and  C_32 
REMARK    7  A    between atoms: C_20  and  C_26 
ROOT
ATOM      1  N   LIG d   1       5.642  -0.643  -7.248  0.00  0.00    -0.206 N 
ATOM      2  C   LIG d   1       6.421  -0.139  -6.256  0.00  0.00     0.231 C 
ATOM      3  O   LIG d   1       6.427   1.000  -5.843  0.00  0.00    -0.275 OA
ATOM      4  C   LIG d   1       7.272  -1.275  -5.776  0.00  0.00     0.059 C 
ATOM      5  H   LIG d   1       8.173  -1.358  -6.385  0.00  0.00     0.041 H 
ATOM      6  C   LIG d   1       7.627  -1.333  -4.305  0.00  0.00     0.014 C 
ATOM      7  H   LIG d   1       8.387  -0.586  -4.075  0.00  0.00     0.040 H 
ATOM      8  C   LIG d   1       8.170  -2.720  -4.038  0.00  0.00    -0.079 C 
ATOM      9  C   LIG d   1       7.986  -3.743  -4.818  0.00  0.00    -0.079 C 
ATOM     10  C   LIG d   1       7.179  -3.706  -6.098  0.00  0.00     0.014 C 
ATOM     11  H   LIG d   1       7.846  -3.645  -6.958  0.00  0.00     0.040 H 
ATOM     12  C   LIG d   1       6.313  -2.473  -6.053  0.00  0.00     0.059 C 
ATOM     13  H   LIG d   1       5.584  -2.572  -5.249  0.00  0.00     0.041 H 
ATOM     14  C   LIG d   1       5.656  -2.000  -7.313  0.00  0.00     0.231 C 
ATOM     15  O   LIG d   1       5.225  -2.690  -8.211  0.00  0.00    -0.275 OA
ATOM     16  H   LIG d   1       8.750  -2.872  -3.139  0.00  0.00     0.058 H 
ATOM     17  H   LIG d   1       8.439  -4.681  -4.535  0.00  0.00     0.058 H 
ENDROOT
BRANCH   1  18
ATOM     18  C   LIG d   1       4.889   0.161  -8.120  0.00  0.00     0.085 A 
ATOM     19  C   LIG d   1       5.458   0.633  -9.299  0.00  0.00     0.142 A 
ATOM     20  C   LIG d   1       4.707   1.422 -10.158  0.00  0.00    -0.018 A 
ATOM     21  C   LIG d   1       3.401   1.741  -9.840  0.00  0.00    -0.058 A 
ATOM     22  H   LIG d   1       5.144   1.787 -11.076  0.00  0.00     0.066 H 
ATOM     23  C   LIG d   1       2.839   1.277  -8.665  0.00  0.00    -0.060 A 
ATOM     24  H   LIG d   1       2.818   2.356 -10.510  0.00  0.00     0.062 H 
ATOM     25  C   LIG d   1       3.579   0.490  -7.804  0.00  0.00    -0.036 A 
ATOM     26  H   LIG d   1       1.817   1.530  -8.421  0.00  0.00     0.062 H 
ATOM     27  H   LIG d   1       3.137   0.128  -6.887  0.00  0.00     0.064 H 
BRANCH  19  28
ATOM     28  O   LIG d   1       6.742   0.318  -9.611  0.00  0.00    -0.490 OA
BRANCH  28  29
ATOM     29  C   LIG d   1       6.941  -0.629 -10.664  0.00  0.00     0.089 C 
ATOM     30  H   LIG d   1       7.273  -0.108 -11.561  0.00  0.00     0.070 H 
ATOM     31  H   LIG d   1       6.004  -1.147 -10.868  0.00  0.00     0.070 H 
BRANCH  29  32
ATOM     32  C   LIG d   1       8.004  -1.645 -10.240  0.00  0.00    -0.021 C 
ATOM     33  H   LIG d   1       8.661  -1.856 -11.083  0.00  0.00     0.029 H 
ATOM     34  H   LIG d   1       7.518  -2.566  -9.917  0.00  0.00     0.029 H 
BRANCH  32  35
ATOM     35  C   LIG d   1       8.826  -1.070  -9.084  0.00  0.00    -0.062 C 
ATOM     36  H   LIG d   1       9.197  -0.082  -9.358  0.00  0.00     0.023 H 
ATOM     37  H   LIG d   1       8.198  -0.989  -8.196  0.00  0.00     0.023 H 
ATOM     38  H   LIG d   1       9.668  -1.729  -8.874  0.00  0.00     0.023 H 
ENDBRANCH  32  35
ENDBRANCH  29  32
ENDBRANCH  28  29
ENDBRANCH  19  28
ENDBRANCH   1  18
BRANCH  10  39
ATOM     39  C   LIG d   1       6.321  -4.941  -6.202  0.00  0.00    -0.040 A 
ATOM     40  C   LIG d   1       6.638  -5.929  -7.114  0.00  0.00    -0.058 A 
ATOM     41  C   LIG d   1       5.853  -7.063  -7.206  0.00  0.00    -0.061 A 
ATOM     42  H   LIG d   1       7.502  -5.817  -7.753  0.00  0.00     0.062 H 
ATOM     43  C   LIG d   1       4.746  -7.205  -6.391  0.00  0.00    -0.062 A 
ATOM     44  H   LIG d   1       6.104  -7.838  -7.916  0.00  0.00     0.062 H 
ATOM     45  C   LIG d   1       4.425  -6.214  -5.481  0.00  0.00    -0.061 A 
ATOM     46  H   LIG d   1       4.131  -8.090  -6.465  0.00  0.00     0.062 H 
ATOM     47  C   LIG d   1       5.213  -5.082  -5.387  0.00  0.00    -0.058 A 
ATOM     48  H   LIG d   1       3.559  -6.325  -4.845  0.00  0.00     0.062 H 
ATOM     49  H   LIG d   1       4.962  -4.308  -4.677  0.00  0.00     0.062 H 
ENDBRANCH  10  39
BRANCH   6  50
ATOM     50  C   LIG d   1       6.396  -1.091  -3.469  0.00  0.00    -0.040 A 
ATOM     51  C   LIG d   1       5.491  -2.115  -3.260  0.00  0.00    -0.058 A 
ATOM     52  C   LIG d   1       4.363  -1.894  -2.490  0.00  0.00    -0.061 A 
ATOM     53  H   LIG d   1       5.665  -3.087  -3.696  0.00  0.00     0.062 H 
ATOM     54  C   LIG d   1       4.138  -0.648  -1.937  0.00  0.00    -0.062 A 
ATOM     55  H   LIG d   1       3.659  -2.695  -2.323  0.00  0.00     0.062 H 
ATOM     56  C   LIG d   1       5.041   0.377  -2.150  0.00  0.00    -0.061 A 
ATOM     57  H   LIG d   1       3.257  -0.475  -1.338  0.00  0.00     0.062 H 
ATOM     58  C   LIG d   1       6.170   0.156  -2.916  0.00  0.00    -0.058 A 
ATOM     59  H   LIG d   1       4.865   1.351  -1.717  0.00  0.00     0.062 H 
ATOM     60  H   LIG d   1       6.875   0.956  -3.083  0.00  0.00     0.062 H 
ENDBRANCH   6  50
TORSDOF 7
ENDMDL
MODEL 6
REMARK VINA RESULT:      -6.4      1.873      5.825
REMARK  7 active torsions:
REMARK  status: ('A' for Active; 'I' for Inactive)
REMARK    1  A    between atoms: C_1  and  C_2 
REMARK    2  A    between atoms: C_2  and  C_3 
REMARK    3  A    between atoms: C_3  and  O_4 
REMARK    4  A    between atoms: O_4  and  C_5 
REMARK    5  A    between atoms: C_10  and  N_11 
REMARK    6  A    between atoms: C_16  and  C_32 
REMARK    7  A    between atoms: C_20  and  C_26 
ROOT
ATOM      1  N   LIG d   1       5.549  -0.788  -5.831  0.00  0.00    -0.206 N 
ATOM      2  C   LIG d   1       5.258  -1.270  -7.068  0.00  0.00     0.231 C 
ATOM      3  O   LIG d   1       4.195  -1.715  -7.444  0.00  0.00    -0.275 OA
ATOM      4  C   LIG d   1       6.514  -1.140  -7.874  0.00  0.00     0.059 C 
ATOM      5  H   LIG d   1       7.150  -2.014  -7.728  0.00  0.00     0.041 H 
ATOM      6  C   LIG d   1       6.391  -0.820  -9.349  0.00  0.00     0.014 C 
ATOM      7  H   LIG d   1       6.059  -1.704  -9.895  0.00  0.00     0.040 H 
ATOM      8  C   LIG d   1       7.766  -0.405  -9.825  0.00  0.00    -0.079 C 
ATOM      9  C   LIG d   1       8.730  -0.024  -9.042  0.00  0.00    -0.079 C 
ATOM     10  C   LIG d   1       8.615   0.085  -7.536  0.00  0.00     0.014 C 
ATOM     11  H   LIG d   1       9.076  -0.783  -7.063  0.00  0.00     0.040 H 
ATOM     12  C   LIG d   1       7.147   0.115  -7.196  0.00  0.00     0.059 C 
ATOM     13  H   LIG d   1       6.701   1.027  -7.591  0.00  0.00     0.041 H 
ATOM     14  C   LIG d   1       6.726  -0.112  -5.776  0.00  0.00     0.231 C 
ATOM     15  O   LIG d   1       7.318   0.238  -4.778  0.00  0.00    -0.275 OA
ATOM     16  H   LIG d   1       7.960  -0.426 -10.888  0.00  0.00     0.058 H 
ATOM     17  H   LIG d   1       9.677   0.231  -9.495  0.00  0.00     0.058 H 
ENDROOT
BRANCH   1  18
ATOM     18  C   LIG d   1       4.711  -0.967  -4.718  0.00  0.00     0.085 A 
ATOM     19  C   LIG d   1       4.833  -2.109  -3.931  0.00  0.00     0.142 A 
ATOM     20  C   LIG d   1       4.007  -2.277  -2.830  0.00  0.00    -0.018 A 
ATOM     21  C   LIG d   1       3.063  -1.317  -2.520  0.00  0.00    -0.058 A 
ATOM     22  H   LIG d   1       4.101  -3.160  -2.215  0.00  0.00     0.066 H 
ATOM     23  C   LIG d   1       2.939  -0.186  -3.307  0.00  0.00    -0.060 A 
ATOM     24  H   LIG d   1       2.421  -1.450  -1.662  0.00  0.00     0.062 H 
ATOM     25  C   LIG d   1       3.758  -0.010  -4.405  0.00  0.00    -0.036 A 
ATOM     26  H   LIG d   1       2.199   0.561  -3.061  0.00  0.00     0.062 H 
ATOM     27  H   LIG d   1       3.659   0.874  -5.017  0.00  0.00     0.064 H 
BRANCH  19  28
ATOM     28  O   LIG d   1       5.762  -3.053  -4.236  0.00  0.00    -0.490 OA
BRANCH  28  29
ATOM     29  C   LIG d   1       5.316  -4.183  -4.988  0.00  0.00     0.089 C 
ATOM     30  H   LIG d   1       4.519  -3.877  -5.665  0.00  0.00     0.070 H 
ATOM     31  H   LIG d   1       4.943  -4.948  -4.308  0.00  0.00     0.070 H 
BRANCH  29  32
ATOM     32  C   LIG d   1       6.485  -4.748  -5.800  0.00  0.00    -0.021 C 
ATOM     33  H   LIG d   1       6.208  -4.795  -6.852  0.00  0.00     0.029 H 
ATOM     34  H   LIG d   1       6.726  -5.749  -5.441  0.00  0.00     0.029 H 
BRANCH  32  35
ATOM     35  C   LIG d   1       7.705  -3.839  -5.634  0.00  0.00    -0.062 C 
ATOM     36  H   LIG d   1       8.576  -4.314  -6.086  0.00  0.00     0.023 H 
ATOM     37  H   LIG d   1       7.516  -2.884  -6.125  0.00  0.00     0.023 H 
ATOM     38  H   LIG d   1       7.892  -3.671  -4.573  0.00  0.00     0.023 H 
ENDBRANCH  32  35
ENDBRANCH  29  32
ENDBRANCH  28  29
ENDBRANCH  19  28
ENDBRANCH   1  18
BRANCH  10  39
ATOM     39  C   LIG d   1       9.285   1.347  -7.058  0.00  0.00    -0.040 A 
ATOM     40  C   LIG d   1       8.892   2.573  -7.560  0.00  0.00    -0.058 A 
ATOM     41  C   LIG d   1       9.504   3.731  -7.119  0.00  0.00    -0.061 A 
ATOM     42  H   LIG d   1       8.102   2.626  -8.296  0.00  0.00     0.062 H 
ATOM     43  C   LIG d   1      10.516   3.662  -6.180  0.00  0.00    -0.062 A 
ATOM     44  H   LIG d   1       9.193   4.689  -7.507  0.00  0.00     0.062 H 
ATOM     45  C   LIG d   1      10.914   2.435  -5.681  0.00  0.00    -0.061 A 
ATOM     46  H   LIG d   1      10.997   4.566  -5.837  0.00  0.00     0.062 H 
ATOM     47  C   LIG d   1      10.299   1.278  -6.120  0.00  0.00    -0.058 A 
ATOM     48  H   LIG d   1      11.706   2.381  -4.948  0.00  0.00     0.062 H 
ATOM     49  H   LIG d   1      10.609   0.320  -5.731  0.00  0.00     0.062 H 
ENDBRANCH  10  39
BRANCH   6  50
ATOM     50  C   LIG d   1       5.412   0.308  -9.550  0.00  0.00    -0.040 A 
ATOM     51  C   LIG d   1       4.226   0.081 -10.224  0.00  0.00    -0.058 A 
ATOM     52  C   LIG d   1       3.326   1.115 -10.406  0.00  0.00    -0.061 A 
ATOM     53  H   LIG d   1       4.002  -0.904 -10.607  0.00  0.00     0.062 H 
ATOM     54  C   LIG d   1       3.615   2.376  -9.921  0.00  0.00    -0.062 A 
ATOM     55  H   LIG d   1       2.398   0.936 -10.928  0.00  0.00     0.062 H 
ATOM     56  C   LIG d   1       4.803   2.604  -9.252  0.00  0.00    -0.061 A 
ATOM     57  H   LIG d   1       2.914   3.184 -10.066  0.00  0.00     0.062 H 
ATOM     58  C   LIG d   1       5.701   1.570  -9.066  0.00  0.00    -0.058 A 
ATOM     59  H   LIG d   1       5.029   3.590  -8.873  0.00  0.00     0.062 H 
ATOM     60  H   LIG d   1       6.629   1.747  -8.543  0.00  0.00     0.062 H 
ENDBRANCH   6  50
TORSDOF 7
ENDMDL
MODEL 7
REMARK VINA RESULT:      -6.4      3.164      6.521
REMARK  7 active torsions:
REMARK  status: ('A' for Active; 'I' for Inactive)
REMARK    1  A    between atoms: C_1  and  C_2 
REMARK    2  A    between atoms: C_2  and  C_3 
REMARK    3  A    between atoms: C_3  and  O_4 
REMARK    4  A    between atoms: O_4  and  C_5 
REMARK    5  A    between atoms: C_10  and  N_11 
REMARK    6  A    between atoms: C_16  and  C_32 
REMARK    7  A    between atoms: C_20  and  C_26 
ROOT
ATOM      1  N   LIG d   1       5.863  -2.189  -4.897  0.00  0.00    -0.206 N 
ATOM      2  C   LIG d   1       7.100  -1.839  -5.335  0.00  0.00     0.231 C 
ATOM      3  O   LIG d   1       7.789  -0.931  -4.921  0.00  0.00    -0.275 OA
ATOM      4  C   LIG d   1       7.443  -2.800  -6.432  0.00  0.00     0.059 C 
ATOM      5  H   LIG d   1       7.049  -2.443  -7.385  0.00  0.00     0.041 H 
ATOM      6  C   LIG d   1       8.887  -3.226  -6.588  0.00  0.00     0.014 C 
ATOM      7  H   LIG d   1       9.469  -2.418  -7.031  0.00  0.00     0.040 H 
ATOM      8  C   LIG d   1       8.894  -4.430  -7.505  0.00  0.00    -0.079 C 
ATOM      9  C   LIG d   1       7.852  -5.162  -7.763  0.00  0.00    -0.079 C 
ATOM     10  C   LIG d   1       6.480  -4.936  -7.165  0.00  0.00     0.014 C 
ATOM     11  H   LIG d   1       5.837  -4.429  -7.886  0.00  0.00     0.040 H 
ATOM     12  C   LIG d   1       6.654  -4.057  -5.953  0.00  0.00     0.059 C 
ATOM     13  H   LIG d   1       7.220  -4.595  -5.193  0.00  0.00     0.041 H 
ATOM     14  C   LIG d   1       5.449  -3.400  -5.353  0.00  0.00     0.231 C 
ATOM     15  O   LIG d   1       4.328  -3.857  -5.288  0.00  0.00    -0.275 OA
ATOM     16  H   LIG d   1       9.827  -4.700  -7.978  0.00  0.00     0.058 H 
ATOM     17  H   LIG d   1       7.972  -5.986  -8.450  0.00  0.00     0.058 H 
ENDROOT
BRANCH   1  18
ATOM     18  C   LIG d   1       5.089  -1.380  -4.049  0.00  0.00     0.085 A 
ATOM     19  C   LIG d   1       4.318  -0.349  -4.582  0.00  0.00     0.142 A 
ATOM     20  C   LIG d   1       3.551   0.443  -3.741  0.00  0.00    -0.018 A 
ATOM     21  C   LIG d   1       3.557   0.212  -2.378  0.00  0.00    -0.058 A 
ATOM     22  H   LIG d   1       2.950   1.240  -4.151  0.00  0.00     0.066 H 
ATOM     23  C   LIG d   1       4.327  -0.808  -1.850  0.00  0.00    -0.060 A 
ATOM     24  H   LIG d   1       2.959   0.830  -1.725  0.00  0.00     0.062 H 
ATOM     25  C   LIG d   1       5.094  -1.602  -2.680  0.00  0.00    -0.036 A 
ATOM     26  H   LIG d   1       4.329  -0.984  -0.784  0.00  0.00     0.062 H 
ATOM     27  H   LIG d   1       5.694  -2.398  -2.265  0.00  0.00     0.064 H 
BRANCH  19  28
ATOM     28  O   LIG d   1       4.313  -0.124  -5.922  0.00  0.00    -0.490 OA
BRANCH  28  29
ATOM     29  C   LIG d   1       3.045   0.125  -6.533  0.00  0.00     0.089 C 
ATOM     30  H   LIG d   1       2.822   1.190  -6.485  0.00  0.00     0.070 H 
ATOM     31  H   LIG d   1       2.272  -0.434  -6.007  0.00  0.00     0.070 H 
BRANCH  29  32
ATOM     32  C   LIG d   1       3.090  -0.321  -7.997  0.00  0.00    -0.021 C 
ATOM     33  H   LIG d   1       3.634   0.417  -8.585  0.00  0.00     0.029 H 
ATOM     34  H   LIG d   1       2.073  -0.414  -8.379  0.00  0.00     0.029 H 
BRANCH  32  35
ATOM     35  C   LIG d   1       3.797  -1.674  -8.095  0.00  0.00    -0.062 C 
ATOM     36  H   LIG d   1       4.628  -1.600  -8.797  0.00  0.00     0.023 H 
ATOM     37  H   LIG d   1       4.176  -1.959  -7.113  0.00  0.00     0.023 H 
ATOM     38  H   LIG d   1       3.092  -2.429  -8.444  0.00  0.00     0.023 H 
ENDBRANCH  32  35
ENDBRANCH  29  32
ENDBRANCH  28  29
ENDBRANCH  19  28
ENDBRANCH   1  18
BRANCH  10  39
ATOM     39  C   LIG d   1       5.866  -6.254  -6.768  0.00  0.00    -0.040 A 
ATOM     40  C   LIG d   1       4.924  -6.852  -7.582  0.00  0.00    -0.058 A 
ATOM     41  C   LIG d   1       4.365  -8.063  -7.221  0.00  0.00    -0.061 A 
ATOM     42  H   LIG d   1       4.627  -6.374  -8.505  0.00  0.00     0.062 H 
ATOM     43  C   LIG d   1       4.743  -8.673  -6.039  0.00  0.00    -0.062 A 
ATOM     44  H   LIG d   1       3.632  -8.533  -7.860  0.00  0.00     0.062 H 
ATOM     45  C   LIG d   1       5.682  -8.072  -5.220  0.00  0.00    -0.061 A 
ATOM     46  H   LIG d   1       4.304  -9.618  -5.755  0.00  0.00     0.062 H 
ATOM     47  C   LIG d   1       6.244  -6.863  -5.585  0.00  0.00    -0.058 A 
ATOM     48  H   LIG d   1       5.977  -8.548  -4.297  0.00  0.00     0.062 H 
ATOM     49  H   LIG d   1       6.977  -6.394  -4.947  0.00  0.00     0.062 H 
ENDBRANCH  10  39
BRANCH   6  50
ATOM     50  C   LIG d   1       9.461  -3.598  -5.244  0.00  0.00    -0.040 A 
ATOM     51  C   LIG d   1      10.595  -2.960  -4.778  0.00  0.00    -0.058 A 
ATOM     52  C   LIG d   1      11.120  -3.297  -3.544  0.00  0.00    -0.061 A 
ATOM     53  H   LIG d   1      11.071  -2.197  -5.376  0.00  0.00     0.062 H 
ATOM     54  C   LIG d   1      10.515  -4.278  -2.781  0.00  0.00    -0.062 A 
ATOM     55  H   LIG d   1      12.003  -2.796  -3.178  0.00  0.00     0.062 H 
ATOM     56  C   LIG d   1       9.383  -4.919  -3.249  0.00  0.00    -0.061 A 
ATOM     57  H   LIG d   1      10.925  -4.544  -1.818  0.00  0.00     0.062 H 
ATOM     58  C   LIG d   1       8.856  -4.579  -4.481  0.00  0.00    -0.058 A 
ATOM     59  H   LIG d   1       8.910  -5.685  -2.653  0.00  0.00     0.062 H 
ATOM     60  H   LIG d   1       7.972  -5.079  -4.848  0.00  0.00     0.062 H 
ENDBRANCH   6  50
TORSDOF 7
ENDMDL
MODEL 8
REMARK VINA RESULT:      -6.3      2.999      7.394
REMARK  7 active torsions:
REMARK  status: ('A' for Active; 'I' for Inactive)
REMARK    1  A    between atoms: C_1  and  C_2 
REMARK    2  A    between atoms: C_2  and  C_3 
REMARK    3  A    between atoms: C_3  and  O_4 
REMARK    4  A    between atoms: O_4  and  C_5 
REMARK    5  A    between atoms: C_10  and  N_11 
REMARK    6  A    between atoms: C_16  and  C_32 
REMARK    7  A    between atoms: C_20  and  C_26 
ROOT
ATOM      1  N   LIG d   1       5.009  -3.562  -8.400  0.00  0.00    -0.206 N 
ATOM      2  C   LIG d   1       5.813  -2.664  -9.026  0.00  0.00     0.231 C 
ATOM      3  O   LIG d   1       6.005  -2.567 -10.220  0.00  0.00    -0.275 OA
ATOM      4  C   LIG d   1       6.414  -1.816  -7.948  0.00  0.00     0.059 C 
ATOM      5  H   LIG d   1       7.316  -2.287  -7.554  0.00  0.00     0.041 H 
ATOM      6  C   LIG d   1       6.671  -0.354  -8.243  0.00  0.00     0.014 C 
ATOM      7  H   LIG d   1       7.542  -0.252  -8.892  0.00  0.00     0.040 H 
ATOM      8  C   LIG d   1       6.936   0.324  -6.916  0.00  0.00    -0.079 C 
ATOM      9  C   LIG d   1       6.610  -0.174  -5.760  0.00  0.00    -0.079 C 
ATOM     10  C   LIG d   1       5.894  -1.494  -5.570  0.00  0.00     0.014 C 
ATOM     11  H   LIG d   1       6.608  -2.267  -5.282  0.00  0.00     0.040 H 
ATOM     12  C   LIG d   1       5.268  -1.864  -6.890  0.00  0.00     0.059 C 
ATOM     13  H   LIG d   1       4.490  -1.142  -7.138  0.00  0.00     0.041 H 
ATOM     14  C   LIG d   1       4.779  -3.265  -7.095  0.00  0.00     0.231 C 
ATOM     15  O   LIG d   1       4.278  -3.989  -6.261  0.00  0.00    -0.275 OA
ATOM     16  H   LIG d   1       7.428   1.285  -6.928  0.00  0.00     0.058 H 
ATOM     17  H   LIG d   1       6.868   0.392  -4.877  0.00  0.00     0.058 H 
ENDROOT
BRANCH   1  18
ATOM     18  C   LIG d   1       4.465  -4.687  -9.041  0.00  0.00     0.085 A 
ATOM     19  C   LIG d   1       3.187  -4.626  -9.590  0.00  0.00     0.142 A 
ATOM     20  C   LIG d   1       2.657  -5.738 -10.227  0.00  0.00    -0.018 A 
ATOM     21  C   LIG d   1       3.394  -6.903 -10.311  0.00  0.00    -0.058 A 
ATOM     22  H   LIG d   1       1.667  -5.692 -10.656  0.00  0.00     0.066 H 
ATOM     23  C   LIG d   1       4.661  -6.965  -9.760  0.00  0.00    -0.060 A 
ATOM     24  H   LIG d   1       2.979  -7.768 -10.807  0.00  0.00     0.062 H 
ATOM     25  C   LIG d   1       5.197  -5.862  -9.124  0.00  0.00    -0.036 A 
ATOM     26  H   LIG d   1       5.233  -7.879  -9.827  0.00  0.00     0.062 H 
ATOM     27  H   LIG d   1       6.187  -5.913  -8.695  0.00  0.00     0.064 H 
BRANCH  19  28
ATOM     28  O   LIG d   1       2.463  -3.478  -9.507  0.00  0.00    -0.490 OA
BRANCH  28  29
ATOM     29  C   LIG d   1       2.493  -2.609 -10.641  0.00  0.00     0.089 C 
ATOM     30  H   LIG d   1       2.373  -3.196 -11.551  0.00  0.00     0.070 H 
ATOM     31  H   LIG d   1       3.446  -2.082 -10.670  0.00  0.00     0.070 H 
BRANCH  29  32
ATOM     32  C   LIG d   1       1.352  -1.595 -10.535  0.00  0.00    -0.021 C 
ATOM     33  H   LIG d   1       1.711  -0.694 -10.038  0.00  0.00     0.029 H 
ATOM     34  H   LIG d   1       0.534  -2.027  -9.958  0.00  0.00     0.029 H 
BRANCH  32  35
ATOM     35  C   LIG d   1       0.855  -1.239 -11.938  0.00  0.00    -0.062 C 
ATOM     36  H   LIG d   1       0.484  -0.214 -11.943  0.00  0.00     0.023 H 
ATOM     37  H   LIG d   1       1.676  -1.333 -12.649  0.00  0.00     0.023 H 
ATOM     38  H   LIG d   1       0.050  -1.918 -12.221  0.00  0.00     0.023 H 
ENDBRANCH  32  35
ENDBRANCH  29  32
ENDBRANCH  28  29
ENDBRANCH  19  28
ENDBRANCH   1  18
BRANCH  10  39
ATOM     39  C   LIG d   1       4.831  -1.356  -4.511  0.00  0.00    -0.040 A 
ATOM     40  C   LIG d   1       4.911  -2.101  -3.350  0.00  0.00    -0.058 A 
ATOM     41  C   LIG d   1       3.938  -1.971  -2.376  0.00  0.00    -0.061 A 
ATOM     42  H   LIG d   1       5.736  -2.783  -3.201  0.00  0.00     0.062 H 
ATOM     43  C   LIG d   1       2.881  -1.101  -2.568  0.00  0.00    -0.062 A 
ATOM     44  H   LIG d   1       4.003  -2.550  -1.466  0.00  0.00     0.062 H 
ATOM     45  C   LIG d   1       2.798  -0.359  -3.732  0.00  0.00    -0.061 A 
ATOM     46  H   LIG d   1       2.119  -1.002  -1.808  0.00  0.00     0.062 H 
ATOM     47  C   LIG d   1       3.774  -0.487  -4.703  0.00  0.00    -0.058 A 
ATOM     48  H   LIG d   1       1.972   0.320  -3.882  0.00  0.00     0.062 H 
ATOM     49  H   LIG d   1       3.709   0.092  -5.612  0.00  0.00     0.062 H 
ENDBRANCH  10  39
BRANCH   6  50
ATOM     50  C   LIG d   1       5.462   0.258  -8.903  0.00  0.00    -0.040 A 
ATOM     51  C   LIG d   1       4.355   0.590  -8.144  0.00  0.00    -0.058 A 
ATOM     52  C   LIG d   1       3.247   1.155  -8.749  0.00  0.00    -0.061 A 
ATOM     53  H   LIG d   1       4.356   0.411  -7.079  0.00  0.00     0.062 H 
ATOM     54  C   LIG d   1       3.244   1.380 -10.112  0.00  0.00    -0.062 A 
ATOM     55  H   LIG d   1       2.385   1.419  -8.155  0.00  0.00     0.062 H 
ATOM     56  C   LIG d   1       4.349   1.043 -10.871  0.00  0.00    -0.061 A 
ATOM     57  H   LIG d   1       2.378   1.819 -10.585  0.00  0.00     0.062 H 
ATOM     58  C   LIG d   1       5.458   0.482 -10.267  0.00  0.00    -0.058 A 
ATOM     59  H   LIG d   1       4.346   1.218 -11.937  0.00  0.00     0.062 H 
ATOM     60  H   LIG d   1       6.321   0.219 -10.860  0.00  0.00     0.062 H 
ENDBRANCH   6  50
TORSDOF 7
ENDMDL
MODEL 9
REMARK VINA RESULT:      -6.2      2.629      6.969
REMARK  7 active torsions:
REMARK  status: ('A' for Active; 'I' for Inactive)
REMARK    1  A    between atoms: C_1  and  C_2 
REMARK    2  A    between atoms: C_2  and  C_3 
REMARK    3  A    between atoms: C_3  and  O_4 
REMARK    4  A    between atoms: O_4  and  C_5 
REMARK    5  A    between atoms: C_10  and  N_11 
REMARK    6  A    between atoms: C_16  and  C_32 
REMARK    7  A    between atoms: C_20  and  C_26 
ROOT
ATOM      1  N   LIG d   1       6.453  -0.620  -4.747  0.00  0.00    -0.206 N 
ATOM      2  C   LIG d   1       6.941  -0.059  -5.884  0.00  0.00     0.231 C 
ATOM      3  O   LIG d   1       6.752   1.072  -6.277  0.00  0.00    -0.275 OA
ATOM      4  C   LIG d   1       7.758  -1.120  -6.556  0.00  0.00     0.059 C 
ATOM      5  H   LIG d   1       7.123  -1.746  -7.185  0.00  0.00     0.041 H 
ATOM      6  C   LIG d   1       8.996  -0.697  -7.317  0.00  0.00     0.014 C 
ATOM      7  H   LIG d   1       8.713  -0.231  -8.261  0.00  0.00     0.040 H 
ATOM      8  C   LIG d   1       9.800  -1.952  -7.582  0.00  0.00    -0.079 C 
ATOM      9  C   LIG d   1       9.646  -3.071  -6.939  0.00  0.00    -0.079 C 
ATOM     10  C   LIG d   1       8.656  -3.280  -5.813  0.00  0.00     0.014 C 
ATOM     11  H   LIG d   1       7.775  -3.804  -6.183  0.00  0.00     0.040 H 
ATOM     12  C   LIG d   1       8.249  -1.919  -5.310  0.00  0.00     0.059 C 
ATOM     13  H   LIG d   1       9.110  -1.427  -4.857  0.00  0.00     0.041 H 
ATOM     14  C   LIG d   1       7.044  -1.801  -4.429  0.00  0.00     0.231 C 
ATOM     15  O   LIG d   1       6.669  -2.602  -3.599  0.00  0.00    -0.275 OA
ATOM     16  H   LIG d   1      10.553  -1.916  -8.356  0.00  0.00     0.058 H 
ATOM     17  H   LIG d   1      10.264  -3.908  -7.229  0.00  0.00     0.058 H 
ENDROOT
BRANCH   1  18
ATOM     18  C   LIG d   1       5.441  -0.031  -3.970  0.00  0.00     0.085 A 
ATOM     19  C   LIG d   1       4.113  -0.110  -4.381  0.00  0.00     0.142 A 
ATOM     20  C   LIG d   1       3.118   0.468  -3.607  0.00  0.00    -0.018 A 
ATOM     21  C   LIG d   1       3.446   1.124  -2.436  0.00  0.00    -0.058 A 
ATOM     22  H   LIG d   1       2.087   0.405  -3.922  0.00  0.00     0.066 H 
ATOM     23  C   LIG d   1       4.766   1.207  -2.033  0.00  0.00    -0.060 A 
ATOM     24  H   LIG d   1       2.669   1.573  -1.835  0.00  0.00     0.062 H 
ATOM     25  C   LIG d   1       5.764   0.634  -2.797  0.00  0.00    -0.036 A 
ATOM     26  H   LIG d   1       5.017   1.721  -1.117  0.00  0.00     0.062 H 
ATOM     27  H   LIG d   1       6.794   0.699  -2.479  0.00  0.00     0.064 H 
BRANCH  19  28
ATOM     28  O   LIG d   1       3.792  -0.756  -5.533  0.00  0.00    -0.490 OA
BRANCH  28  29
ATOM     29  C   LIG d   1       3.158   0.016  -6.555  0.00  0.00     0.089 C 
ATOM     30  H   LIG d   1       3.579   1.020  -6.565  0.00  0.00     0.070 H 
ATOM     31  H   LIG d   1       2.088   0.071  -6.356  0.00  0.00     0.070 H 
BRANCH  29  32
ATOM     32  C   LIG d   1       3.391  -0.649  -7.913  0.00  0.00    -0.021 C 
ATOM     33  H   LIG d   1       3.369  -1.732  -7.797  0.00  0.00     0.029 H 
ATOM     34  H   LIG d   1       4.361  -0.344  -8.305  0.00  0.00     0.029 H 
BRANCH  32  35
ATOM     35  C   LIG d   1       2.290  -0.219  -8.886  0.00  0.00    -0.062 C 
ATOM     36  H   LIG d   1       2.290  -0.881  -9.751  0.00  0.00     0.023 H 
ATOM     37  H   LIG d   1       1.322  -0.273  -8.386  0.00  0.00     0.023 H 
ATOM     38  H   LIG d   1       2.474   0.806  -9.212  0.00  0.00     0.023 H 
ENDBRANCH  32  35
ENDBRANCH  29  32
ENDBRANCH  28  29
ENDBRANCH  19  28
ENDBRANCH   1  18
BRANCH  10  39
ATOM     39  C   LIG d   1       9.298  -4.074  -4.704  0.00  0.00    -0.040 A 
ATOM     40  C   LIG d   1      10.379  -3.556  -4.018  0.00  0.00    -0.058 A 
ATOM     41  C   LIG d   1      10.964  -4.282  -2.998  0.00  0.00    -0.061 A 
ATOM     42  H   LIG d   1      10.765  -2.580  -4.276  0.00  0.00     0.062 H 
ATOM     43  C   LIG d   1      10.473  -5.532  -2.670  0.00  0.00    -0.062 A 
ATOM     44  H   LIG d   1      11.806  -3.875  -2.458  0.00  0.00     0.062 H 
ATOM     45  C   LIG d   1       9.394  -6.054  -3.360  0.00  0.00    -0.061 A 
ATOM     46  H   LIG d   1      10.932  -6.101  -1.875  0.00  0.00     0.062 H 
ATOM     47  C   LIG d   1       8.806  -5.324  -4.377  0.00  0.00    -0.058 A 
ATOM     48  H   LIG d   1       9.010  -7.030  -3.104  0.00  0.00     0.062 H 
ATOM     49  H   LIG d   1       7.964  -5.731  -4.916  0.00  0.00     0.062 H 
ENDBRANCH  10  39
BRANCH   6  50
ATOM     50  C   LIG d   1       9.805   0.268  -6.488  0.00  0.00    -0.040 A 
ATOM     51  C   LIG d   1       9.800   1.616  -6.797  0.00  0.00    -0.058 A 
ATOM     52  C   LIG d   1      10.538   2.502  -6.034  0.00  0.00    -0.061 A 
ATOM     53  H   LIG d   1       9.219   1.977  -7.632  0.00  0.00     0.062 H 
ATOM     54  C   LIG d   1      11.286   2.040  -4.969  0.00  0.00    -0.062 A 
ATOM     55  H   LIG d   1      10.530   3.556  -6.273  0.00  0.00     0.062 H 
ATOM     56  C   LIG d   1      11.294   0.692  -4.663  0.00  0.00    -0.061 A 
ATOM     57  H   LIG d   1      11.865   2.732  -4.375  0.00  0.00     0.062 H 
ATOM     58  C   LIG d   1      10.554  -0.194  -5.422  0.00  0.00    -0.058 A 
ATOM     59  H   LIG d   1      11.880   0.330  -3.830  0.00  0.00     0.062 H 
ATOM     60  H   LIG d   1      10.560  -1.247  -5.184  0.00  0.00     0.062 H 
ENDBRANCH   6  50
TORSDOF 7
ENDMDL
MODEL 10
REMARK VINA RESULT:      -6.2      2.288      5.674
REMARK  7 active torsions:
REMARK  status: ('A' for Active; 'I' for Inactive)
REMARK    1  A    between atoms: C_1  and  C_2 
REMARK    2  A    between atoms: C_2  and  C_3 
REMARK    3  A    between atoms: C_3  and  O_4 
REMARK    4  A    between atoms: O_4  and  C_5 
REMARK    5  A    between atoms: C_10  and  N_11 
REMARK    6  A    between atoms: C_16  and  C_32 
REMARK    7  A    between atoms: C_20  and  C_26 
ROOT
ATOM      1  N   LIG d   1       5.838  -1.577  -4.178  0.00  0.00    -0.206 N 
ATOM      2  C   LIG d   1       5.431  -2.868  -4.296  0.00  0.00     0.231 C 
ATOM      3  O   LIG d   1       4.312  -3.297  -4.112  0.00  0.00    -0.275 OA
ATOM      4  C   LIG d   1       6.641  -3.653  -4.699  0.00  0.00     0.059 C 
ATOM      5  H   LIG d   1       7.208  -3.956  -3.817  0.00  0.00     0.041 H 
ATOM      6  C   LIG d   1       6.454  -4.831  -5.632  0.00  0.00     0.014 C 
ATOM      7  H   LIG d   1       6.015  -5.669  -5.091  0.00  0.00     0.040 H 
ATOM      8  C   LIG d   1       7.828  -5.210  -6.143  0.00  0.00    -0.079 C 
ATOM      9  C   LIG d   1       8.868  -4.432  -6.098  0.00  0.00    -0.079 C 
ATOM     10  C   LIG d   1       8.856  -3.021  -5.548  0.00  0.00     0.014 C 
ATOM     11  H   LIG d   1       9.269  -3.010  -4.539  0.00  0.00     0.040 H 
ATOM     12  C   LIG d   1       7.420  -2.566  -5.501  0.00  0.00     0.059 C 
ATOM     13  H   LIG d   1       7.030  -2.489  -6.516  0.00  0.00     0.041 H 
ATOM     14  C   LIG d   1       7.070  -1.348  -4.703  0.00  0.00     0.231 C 
ATOM     15  O   LIG d   1       7.751  -0.356  -4.555  0.00  0.00    -0.275 OA
ATOM     16  H   LIG d   1       7.953  -6.191  -6.576  0.00  0.00     0.058 H 
ATOM     17  H   LIG d   1       9.803  -4.818  -6.475  0.00  0.00     0.058 H 
ENDROOT
BRANCH   1  18
ATOM     18  C   LIG d   1       5.059  -0.575  -3.576  0.00  0.00     0.085 A 
ATOM     19  C   LIG d   1       4.168   0.169  -4.344  0.00  0.00     0.142 A 
ATOM     20  C   LIG d   1       3.397   1.153  -3.743  0.00  0.00    -0.018 A 
ATOM     21  C   LIG d   1       3.518   1.396  -2.389  0.00  0.00    -0.058 A 
ATOM     22  H   LIG d   1       2.702   1.730  -4.335  0.00  0.00     0.066 H 
ATOM     23  C   LIG d   1       4.408   0.660  -1.628  0.00  0.00    -0.060 A 
ATOM     24  H   LIG d   1       2.917   2.163  -1.923  0.00  0.00     0.062 H 
ATOM     25  C   LIG d   1       5.180  -0.323  -2.218  0.00  0.00    -0.036 A 
ATOM     26  H   LIG d   1       4.500   0.853  -0.569  0.00  0.00     0.062 H 
ATOM     27  H   LIG d   1       5.874  -0.897  -1.621  0.00  0.00     0.064 H 
BRANCH  19  28
ATOM     28  O   LIG d   1       4.049  -0.070  -5.677  0.00  0.00    -0.490 OA
BRANCH  28  29
ATOM     29  C   LIG d   1       2.789   0.231  -6.280  0.00  0.00     0.089 C 
ATOM     30  H   LIG d   1       2.579   1.295  -6.170  0.00  0.00     0.070 H 
ATOM     31  H   LIG d   1       2.005  -0.348  -5.793  0.00  0.00     0.070 H 
BRANCH  29  32
ATOM     32  C   LIG d   1       2.839  -0.127  -7.767  0.00  0.00    -0.021 C 
ATOM     33  H   LIG d   1       1.973  -0.735  -8.024  0.00  0.00     0.029 H 
ATOM     34  H   LIG d   1       3.752  -0.687  -7.976  0.00  0.00     0.029 H 
BRANCH  32  35
ATOM     35  C   LIG d   1       2.826   1.156  -8.601  0.00  0.00    -0.062 C 
ATOM     36  H   LIG d   1       2.910   2.020  -7.941  0.00  0.00     0.023 H 
ATOM     37  H   LIG d   1       3.667   1.147  -9.296  0.00  0.00     0.023 H 
ATOM     38  H   LIG d   1       1.893   1.217  -9.161  0.00  0.00     0.023 H 
ENDBRANCH  32  35
ENDBRANCH  29  32
ENDBRANCH  28  29
ENDBRANCH  19  28
ENDBRANCH   1  18
BRANCH  10  39
ATOM     39  C   LIG d   1       9.660  -2.113  -6.443  0.00  0.00    -0.040 A 
ATOM     40  C   LIG d   1      10.807  -1.509  -5.964  0.00  0.00    -0.058 A 
ATOM     41  C   LIG d   1      11.547  -0.680  -6.785  0.00  0.00    -0.061 A 
ATOM     42  H   LIG d   1      11.127  -1.688  -4.947  0.00  0.00     0.062 H 
ATOM     43  C   LIG d   1      11.136  -0.449  -8.085  0.00  0.00    -0.062 A 
ATOM     44  H   LIG d   1      12.446  -0.211  -6.412  0.00  0.00     0.062 H 
ATOM     45  C   LIG d   1       9.986  -1.050  -8.563  0.00  0.00    -0.061 A 
ATOM     46  H   LIG d   1      11.713   0.201  -8.726  0.00  0.00     0.062 H 
ATOM     47  C   LIG d   1       9.248  -1.882  -7.742  0.00  0.00    -0.058 A 
ATOM     48  H   LIG d   1       9.665  -0.869  -9.578  0.00  0.00     0.062 H 
ATOM     49  H   LIG d   1       8.350  -2.351  -8.115  0.00  0.00     0.062 H 
ENDBRANCH  10  39
BRANCH   6  50
ATOM     50  C   LIG d   1       5.565  -4.438  -6.784  0.00  0.00    -0.040 A 
ATOM     51  C   LIG d   1       4.333  -5.045  -6.943  0.00  0.00    -0.058 A 
ATOM     52  C   LIG d   1       3.515  -4.682  -7.997  0.00  0.00    -0.061 A 
ATOM     53  H   LIG d   1       4.008  -5.800  -6.243  0.00  0.00     0.062 H 
ATOM     54  C   LIG d   1       3.932  -3.719  -8.896  0.00  0.00    -0.062 A 
ATOM     55  H   LIG d   1       2.550  -5.153  -8.119  0.00  0.00     0.062 H 
ATOM     56  C   LIG d   1       5.166  -3.116  -8.739  0.00  0.00    -0.061 A 
ATOM     57  H   LIG d   1       3.295  -3.437  -9.721  0.00  0.00     0.062 H 
ATOM     58  C   LIG d   1       5.983  -3.475  -7.683  0.00  0.00    -0.058 A 
ATOM     59  H   LIG d   1       5.493  -2.363  -9.442  0.00  0.00     0.062 H 
ATOM     60  H   LIG d   1       6.947  -3.004  -7.561  0.00  0.00     0.062 H 
ENDBRANCH   6  50
TORSDOF 7
ENDMDL
