MODEL 1
REMARK VINA RESULT:      -6.2      0.000      0.000
REMARK  11 active torsions:
REMARK  status: ('A' for Active; 'I' for Inactive)
REMARK    1  A    between atoms: C_1  and  O_2 
REMARK    2  A    between atoms: O_2  and  C_3 
REMARK    3  A    between atoms: C_6  and  C_9 
REMARK       I    between atoms: C_9  and  N_11 
REMARK    4  A    between atoms: N_11  and  C_12 
REMARK    5  A    between atoms: C_19  and  C_24 
REMARK    6  A    between atoms: C_26  and  O_34 
REMARK    7  A    between atoms: C_27  and  O_32 
REMARK    8  A    between atoms: C_28  and  O_30 
REMARK    9  A    between atoms: O_30  and  C_31 
REMARK   10  A    between atoms: O_32  and  C_33 
REMARK   11  A    between atoms: O_34  and  C_35 
ROOT
ATOM      1  C   LIG d   1       7.868   0.958  -6.480  0.00  0.00     0.222 A 
ATOM      2  N   LIG d   1       8.824   0.052  -6.318  0.00  0.00    -0.222 NA
ATOM      3  C   LIG d   1       9.875   0.307  -5.560  0.00  0.00     0.043 A 
ATOM      4  C   LIG d   1       9.960   1.556  -4.932  0.00  0.00     0.057 A 
ATOM      5  C   LIG d   1       8.933   2.488  -5.125  0.00  0.00     0.057 A 
ATOM      6  N   LIG d   1       7.912   2.149  -5.894  0.00  0.00    -0.218 NA
ATOM      7  C   LIG d   1       8.973   3.848  -4.489  0.00  0.00    -0.002 C 
ATOM      8  C   LIG d   1       9.883   3.858  -3.263  0.00  0.00    -0.003 C 
ATOM      9  H   LIG d   1       9.456   3.218  -2.490  0.00  0.00     0.036 H 
ATOM     10  C   LIG d   1      11.271   3.334  -3.652  0.00  0.00     0.018 C 
ATOM     11  C   LIG d   1      11.109   1.888  -4.076  0.00  0.00     0.167 C 
ATOM     12  O   LIG d   1      11.900   1.037  -3.728  0.00  0.00    -0.292 OA
ATOM     13  H   LIG d   1      10.651  -0.431  -5.427  0.00  0.00     0.084 H 
ATOM     14  H   LIG d   1       7.964   4.132  -4.188  0.00  0.00     0.033 H 
ATOM     15  H   LIG d   1       9.345   4.572  -5.215  0.00  0.00     0.033 H 
ATOM     16  H   LIG d   1      11.887   3.405  -2.867  0.00  0.00     0.035 H 
ATOM     17  H   LIG d   1      11.670   3.920  -4.480  0.00  0.00     0.035 H 
ENDROOT
BRANCH   8  18
ATOM     18  C   LIG d   1      10.005   5.266  -2.739  0.00  0.00    -0.036 A 
ATOM     19  C   LIG d   1       9.894   6.335  -3.608  0.00  0.00    -0.013 A 
ATOM     20  C   LIG d   1      10.006   7.633  -3.130  0.00  0.00     0.165 A 
ATOM     21  H   LIG d   1       9.720   6.161  -4.659  0.00  0.00     0.066 H 
ATOM     22  C   LIG d   1      10.230   7.856  -1.777  0.00  0.00     0.203 A 
ATOM     23  C   LIG d   1      10.342   6.778  -0.908  0.00  0.00     0.165 A 
ATOM     24  C   LIG d   1      10.222   5.484  -1.393  0.00  0.00    -0.013 A 
ATOM     25  H   LIG d   1      10.305   4.645  -0.716  0.00  0.00     0.066 H 
BRANCH  20  26
ATOM     26  O   LIG d   1       9.896   8.684  -3.985  0.00  0.00    -0.491 OA
BRANCH  26  27
ATOM     27  C   LIG d   1       9.656   8.380  -5.361  0.00  0.00     0.079 C 
ATOM     28  H   LIG d   1       8.757   8.897  -5.695  0.00  0.00     0.066 H 
ATOM     29  H   LIG d   1      10.507   8.706  -5.959  0.00  0.00     0.066 H 
ATOM     30  H   LIG d   1       9.521   7.305  -5.477  0.00  0.00     0.066 H 
ENDBRANCH  26  27
ENDBRANCH  20  26
BRANCH  22  31
ATOM     31  O   LIG d   1      10.339   9.128  -1.305  0.00  0.00    -0.488 OA
BRANCH  31  32
ATOM     32  C   LIG d   1       9.136   9.766  -0.872  0.00  0.00     0.079 C 
ATOM     33  H   LIG d   1       8.316   9.478  -1.531  0.00  0.00     0.066 H 
ATOM     34  H   LIG d   1       8.907   9.458   0.148  0.00  0.00     0.066 H 
ATOM     35  H   LIG d   1       9.266  10.848  -0.905  0.00  0.00     0.066 H 
ENDBRANCH  31  32
ENDBRANCH  22  31
BRANCH  23  36
ATOM     36  O   LIG d   1      10.561   6.991   0.417  0.00  0.00    -0.491 OA
BRANCH  36  37
ATOM     37  C   LIG d   1      11.097   5.901   1.170  0.00  0.00     0.079 C 
ATOM     38  H   LIG d   1      12.185   5.962   1.172  0.00  0.00     0.066 H 
ATOM     39  H   LIG d   1      10.728   5.950   2.194  0.00  0.00     0.066 H 
ATOM     40  H   LIG d   1      10.786   4.959   0.716  0.00  0.00     0.066 H 
ENDBRANCH  36  37
ENDBRANCH  23  36
ENDBRANCH   8  18
BRANCH   1  41
ATOM     41  N   LIG d   1       6.783   0.648  -7.279  0.00  0.00    -0.251 N 
ATOM     42  C   LIG d   1       5.655   0.159  -6.726  0.00  0.00     0.250 C 
ATOM     43  O   LIG d   1       5.591  -0.008  -5.524  0.00  0.00    -0.270 OA
ATOM     44  H   LIG d   1       6.833   0.781  -8.239  0.00  0.00     0.158 HD
BRANCH  42  45
ATOM     45  C   LIG d   1       4.498  -0.172  -7.580  0.00  0.00     0.037 A 
ATOM     46  C   LIG d   1       3.651   0.842  -8.036  0.00  0.00    -0.046 A 
ATOM     47  C   LIG d   1       2.572   0.529  -8.833  0.00  0.00    -0.019 A 
ATOM     48  H   LIG d   1       3.842   1.870  -7.763  0.00  0.00     0.063 H 
ATOM     49  C   LIG d   1       2.325  -0.794  -9.183  0.00  0.00     0.120 A 
ATOM     50  H   LIG d   1       1.917   1.312  -9.186  0.00  0.00     0.065 H 
ATOM     51  C   LIG d   1       3.166  -1.805  -8.732  0.00  0.00    -0.019 A 
ATOM     52  C   LIG d   1       4.250  -1.500  -7.939  0.00  0.00    -0.046 A 
ATOM     53  H   LIG d   1       2.970  -2.831  -9.005  0.00  0.00     0.065 H 
ATOM     54  H   LIG d   1       4.904  -2.286  -7.592  0.00  0.00     0.063 H 
BRANCH  49  55
ATOM     55  O   LIG d   1       1.262  -1.098  -9.969  0.00  0.00    -0.495 OA
BRANCH  55  56
ATOM     56  C   LIG d   1       1.481  -1.109 -11.381  0.00  0.00     0.079 C 
ATOM     57  H   LIG d   1       0.598  -0.722 -11.888  0.00  0.00     0.066 H 
ATOM     58  H   LIG d   1       2.341  -0.484 -11.620  0.00  0.00     0.066 H 
ATOM     59  H   LIG d   1       1.671  -2.130 -11.711  0.00  0.00     0.066 H 
ENDBRANCH  55  56
ENDBRANCH  49  55
ENDBRANCH  42  45
ENDBRANCH   1  41
TORSDOF 11
ENDMDL
MODEL 2
REMARK VINA RESULT:      -6.2      0.722      2.351
REMARK  11 active torsions:
REMARK  status: ('A' for Active; 'I' for Inactive)
REMARK    1  A    between atoms: C_1  and  O_2 
REMARK    2  A    between atoms: O_2  and  C_3 
REMARK    3  A    between atoms: C_6  and  C_9 
REMARK       I    between atoms: C_9  and  N_11 
REMARK    4  A    between atoms: N_11  and  C_12 
REMARK    5  A    between atoms: C_19  and  C_24 
REMARK    6  A    between atoms: C_26  and  O_34 
REMARK    7  A    between atoms: C_27  and  O_32 
REMARK    8  A    between atoms: C_28  and  O_30 
REMARK    9  A    between atoms: O_30  and  C_31 
REMARK   10  A    between atoms: O_32  and  C_33 
REMARK   11  A    between atoms: O_34  and  C_35 
ROOT
ATOM      1  C   LIG d   1       7.599   0.631  -5.795  0.00  0.00     0.222 A 
ATOM      2  N   LIG d   1       8.632  -0.202  -5.798  0.00  0.00    -0.222 NA
ATOM      3  C   LIG d   1       9.784   0.148  -5.256  0.00  0.00     0.043 A 
ATOM      4  C   LIG d   1       9.894   1.419  -4.679  0.00  0.00     0.057 A 
ATOM      5  C   LIG d   1       8.783   2.273  -4.693  0.00  0.00     0.057 A 
ATOM      6  N   LIG d   1       7.665   1.840  -5.250  0.00  0.00    -0.218 NA
ATOM      7  C   LIG d   1       8.842   3.652  -4.102  0.00  0.00    -0.002 C 
ATOM      8  C   LIG d   1       9.961   3.763  -3.068  0.00  0.00    -0.003 C 
ATOM      9  H   LIG d   1       9.733   3.121  -2.217  0.00  0.00     0.036 H 
ATOM     10  C   LIG d   1      11.287   3.322  -3.701  0.00  0.00     0.018 C 
ATOM     11  C   LIG d   1      11.154   1.856  -4.060  0.00  0.00     0.167 C 
ATOM     12  O   LIG d   1      12.056   1.072  -3.850  0.00  0.00    -0.292 OA
ATOM     13  H   LIG d   1      10.624  -0.531  -5.258  0.00  0.00     0.084 H 
ATOM     14  H   LIG d   1       7.889   3.875  -3.622  0.00  0.00     0.033 H 
ATOM     15  H   LIG d   1       9.019   4.375  -4.898  0.00  0.00     0.033 H 
ATOM     16  H   LIG d   1      12.031   3.460  -3.047  0.00  0.00     0.035 H 
ATOM     17  H   LIG d   1      11.481   3.907  -4.600  0.00  0.00     0.035 H 
ENDROOT
BRANCH   8  18
ATOM     18  C   LIG d   1      10.076   5.192  -2.604  0.00  0.00    -0.036 A 
ATOM     19  C   LIG d   1      10.291   5.465  -1.266  0.00  0.00    -0.013 A 
ATOM     20  C   LIG d   1      10.398   6.779  -0.834  0.00  0.00     0.165 A 
ATOM     21  H   LIG d   1      10.376   4.656  -0.557  0.00  0.00     0.066 H 
ATOM     22  C   LIG d   1      10.288   7.820  -1.748  0.00  0.00     0.203 A 
ATOM     23  C   LIG d   1      10.072   7.540  -3.092  0.00  0.00     0.165 A 
ATOM     24  C   LIG d   1       9.972   6.224  -3.516  0.00  0.00    -0.013 A 
ATOM     25  H   LIG d   1       9.808   6.005  -4.562  0.00  0.00     0.066 H 
BRANCH  20  26
ATOM     26  O   LIG d   1      10.609   7.048   0.482  0.00  0.00    -0.491 OA
BRANCH  26  27
ATOM     27  C   LIG d   1      11.033   5.960   1.306  0.00  0.00     0.079 C 
ATOM     28  H   LIG d   1      10.367   5.111   1.157  0.00  0.00     0.066 H 
ATOM     29  H   LIG d   1      12.051   5.676   1.038  0.00  0.00     0.066 H 
ATOM     30  H   LIG d   1      11.005   6.264   2.352  0.00  0.00     0.066 H 
ENDBRANCH  26  27
ENDBRANCH  20  26
BRANCH  22  31
ATOM     31  O   LIG d   1      10.393   9.111  -1.328  0.00  0.00    -0.488 OA
BRANCH  31  32
ATOM     32  C   LIG d   1       9.191   9.754  -0.900  0.00  0.00     0.079 C 
ATOM     33  H   LIG d   1       9.414  10.420  -0.067  0.00  0.00     0.066 H 
ATOM     34  H   LIG d   1       8.774  10.331  -1.726  0.00  0.00     0.066 H 
ATOM     35  H   LIG d   1       8.470   9.002  -0.582  0.00  0.00     0.066 H 
ENDBRANCH  31  32
ENDBRANCH  22  31
BRANCH  23  36
ATOM     36  O   LIG d   1       9.964   8.555  -3.990  0.00  0.00    -0.491 OA
BRANCH  36  37
ATOM     37  C   LIG d   1       9.602   8.203  -5.327  0.00  0.00     0.079 C 
ATOM     38  H   LIG d   1      10.234   8.746  -6.029  0.00  0.00     0.066 H 
ATOM     39  H   LIG d   1       9.736   7.131  -5.470  0.00  0.00     0.066 H 
ATOM     40  H   LIG d   1       8.558   8.464  -5.501  0.00  0.00     0.066 H 
ENDBRANCH  36  37
ENDBRANCH  23  36
ENDBRANCH   8  18
BRANCH   1  41
ATOM     41  N   LIG d   1       6.411   0.222  -6.371  0.00  0.00    -0.251 N 
ATOM     42  C   LIG d   1       6.002   0.766  -7.534  0.00  0.00     0.250 C 
ATOM     43  O   LIG d   1       6.679   1.617  -8.078  0.00  0.00    -0.270 OA
ATOM     44  H   LIG d   1       5.869  -0.457  -5.938  0.00  0.00     0.158 HD
BRANCH  42  45
ATOM     45  C   LIG d   1       4.733   0.330  -8.148  0.00  0.00     0.037 A 
ATOM     46  C   LIG d   1       3.907   1.259  -8.787  0.00  0.00    -0.046 A 
ATOM     47  C   LIG d   1       2.724   0.848  -9.359  0.00  0.00    -0.019 A 
ATOM     48  H   LIG d   1       4.197   2.299  -8.831  0.00  0.00     0.063 H 
ATOM     49  C   LIG d   1       2.351  -0.490  -9.301  0.00  0.00     0.120 A 
ATOM     50  H   LIG d   1       2.086   1.565  -9.852  0.00  0.00     0.065 H 
ATOM     51  C   LIG d   1       3.170  -1.418  -8.667  0.00  0.00    -0.019 A 
ATOM     52  C   LIG d   1       4.357  -1.015  -8.097  0.00  0.00    -0.046 A 
ATOM     53  H   LIG d   1       2.875  -2.456  -8.624  0.00  0.00     0.065 H 
ATOM     54  H   LIG d   1       4.994  -1.738  -7.609  0.00  0.00     0.063 H 
BRANCH  49  55
ATOM     55  O   LIG d   1       1.185  -0.892  -9.867  0.00  0.00    -0.495 OA
BRANCH  55  56
ATOM     56  C   LIG d   1       1.199  -1.141 -11.274  0.00  0.00     0.079 C 
ATOM     57  H   LIG d   1       2.027  -0.600 -11.730  0.00  0.00     0.066 H 
ATOM     58  H   LIG d   1       1.319  -2.209 -11.452  0.00  0.00     0.066 H 
ATOM     59  H   LIG d   1       0.259  -0.803 -11.712  0.00  0.00     0.066 H 
ENDBRANCH  55  56
ENDBRANCH  49  55
ENDBRANCH  42  45
ENDBRANCH   1  41
TORSDOF 11
ENDMDL
MODEL 3
REMARK VINA RESULT:      -6.2      2.847     11.027
REMARK  11 active torsions:
REMARK  status: ('A' for Active; 'I' for Inactive)
REMARK    1  A    between atoms: C_1  and  O_2 
REMARK    2  A    between atoms: O_2  and  C_3 
REMARK    3  A    between atoms: C_6  and  C_9 
REMARK       I    between atoms: C_9  and  N_11 
REMARK    4  A    between atoms: N_11  and  C_12 
REMARK    5  A    between atoms: C_19  and  C_24 
REMARK    6  A    between atoms: C_26  and  O_34 
REMARK    7  A    between atoms: C_27  and  O_32 
REMARK    8  A    between atoms: C_28  and  O_30 
REMARK    9  A    between atoms: O_30  and  C_31 
REMARK   10  A    between atoms: O_32  and  C_33 
REMARK   11  A    between atoms: O_34  and  C_35 
ROOT
ATOM      1  C   LIG d   1      10.609   4.302  -2.721  0.00  0.00     0.222 A 
ATOM      2  N   LIG d   1      11.164   4.754  -3.839  0.00  0.00    -0.222 NA
ATOM      3  C   LIG d   1      10.845   4.233  -5.010  0.00  0.00     0.043 A 
ATOM      4  C   LIG d   1       9.909   3.192  -5.047  0.00  0.00     0.057 A 
ATOM      5  C   LIG d   1       9.342   2.741  -3.849  0.00  0.00     0.057 A 
ATOM      6  N   LIG d   1       9.712   3.322  -2.720  0.00  0.00    -0.218 NA
ATOM      7  C   LIG d   1       8.344   1.619  -3.823  0.00  0.00    -0.002 C 
ATOM      8  C   LIG d   1       7.656   1.461  -5.177  0.00  0.00    -0.003 C 
ATOM      9  H   LIG d   1       7.055   2.346  -5.384  0.00  0.00     0.036 H 
ATOM     10  C   LIG d   1       8.718   1.296  -6.272  0.00  0.00     0.018 C 
ATOM     11  C   LIG d   1       9.519   2.581  -6.327  0.00  0.00     0.167 C 
ATOM     12  O   LIG d   1       9.832   3.084  -7.385  0.00  0.00    -0.292 OA
ATOM     13  H   LIG d   1      11.296   4.603  -5.918  0.00  0.00     0.084 H 
ATOM     14  H   LIG d   1       7.591   1.830  -3.063  0.00  0.00     0.033 H 
ATOM     15  H   LIG d   1       8.855   0.691  -3.571  0.00  0.00     0.033 H 
ATOM     16  H   LIG d   1       8.268   1.122  -7.150  0.00  0.00     0.035 H 
ATOM     17  H   LIG d   1       9.375   0.460  -6.030  0.00  0.00     0.035 H 
ENDROOT
BRANCH   8  18
ATOM     18  C   LIG d   1       6.769   0.243  -5.150  0.00  0.00    -0.036 A 
ATOM     19  C   LIG d   1       6.339  -0.269  -3.940  0.00  0.00    -0.013 A 
ATOM     20  C   LIG d   1       5.521  -1.389  -3.911  0.00  0.00     0.165 A 
ATOM     21  H   LIG d   1       6.640   0.203  -3.017  0.00  0.00     0.066 H 
ATOM     22  C   LIG d   1       5.135  -1.996  -5.099  0.00  0.00     0.203 A 
ATOM     23  C   LIG d   1       5.569  -1.478  -6.313  0.00  0.00     0.165 A 
ATOM     24  C   LIG d   1       6.381  -0.354  -6.334  0.00  0.00    -0.013 A 
ATOM     25  H   LIG d   1       6.716   0.052  -7.278  0.00  0.00     0.066 H 
BRANCH  20  26
ATOM     26  O   LIG d   1       5.099  -1.892  -2.721  0.00  0.00    -0.491 OA
BRANCH  26  27
ATOM     27  C   LIG d   1       4.332  -1.024  -1.884  0.00  0.00     0.079 C 
ATOM     28  H   LIG d   1       4.379  -1.377  -0.855  0.00  0.00     0.066 H 
ATOM     29  H   LIG d   1       4.736  -0.013  -1.941  0.00  0.00     0.066 H 
ATOM     30  H   LIG d   1       3.295  -1.019  -2.219  0.00  0.00     0.066 H 
ENDBRANCH  26  27
ENDBRANCH  20  26
BRANCH  22  31
ATOM     31  O   LIG d   1       4.332  -3.095  -5.075  0.00  0.00    -0.488 OA
BRANCH  31  32
ATOM     32  C   LIG d   1       4.974  -4.369  -5.142  0.00  0.00     0.079 C 
ATOM     33  H   LIG d   1       4.998  -4.816  -4.148  0.00  0.00     0.066 H 
ATOM     34  H   LIG d   1       4.421  -5.019  -5.820  0.00  0.00     0.066 H 
ATOM     35  H   LIG d   1       5.992  -4.245  -5.509  0.00  0.00     0.066 H 
ENDBRANCH  31  32
ENDBRANCH  22  31
BRANCH  23  36
ATOM     36  O   LIG d   1       5.193  -2.068  -7.479  0.00  0.00    -0.491 OA
BRANCH  36  37
ATOM     37  C   LIG d   1       4.105  -1.471  -8.188  0.00  0.00     0.079 C 
ATOM     38  H   LIG d   1       3.315  -1.208  -7.485  0.00  0.00     0.066 H 
ATOM     39  H   LIG d   1       4.452  -0.572  -8.697  0.00  0.00     0.066 H 
ATOM     40  H   LIG d   1       3.718  -2.178  -8.922  0.00  0.00     0.066 H 
ENDBRANCH  36  37
ENDBRANCH  23  36
ENDBRANCH   8  18
BRANCH   1  41
ATOM     41  N   LIG d   1      10.968   4.878  -1.517  0.00  0.00    -0.251 N 
ATOM     42  C   LIG d   1      10.393   6.031  -1.122  0.00  0.00     0.250 C 
ATOM     43  O   LIG d   1       9.557   6.565  -1.825  0.00  0.00    -0.270 OA
ATOM     44  H   LIG d   1      11.636   4.453  -0.955  0.00  0.00     0.158 HD
BRANCH  42  45
ATOM     45  C   LIG d   1      10.778   6.646   0.163  0.00  0.00     0.037 A 
ATOM     46  C   LIG d   1      11.090   8.007   0.224  0.00  0.00    -0.046 A 
ATOM     47  C   LIG d   1      11.448   8.577   1.425  0.00  0.00    -0.019 A 
ATOM     48  H   LIG d   1      11.051   8.611  -0.672  0.00  0.00     0.063 H 
ATOM     49  C   LIG d   1      11.500   7.800   2.576  0.00  0.00     0.120 A 
ATOM     50  H   LIG d   1      11.689   9.628   1.472  0.00  0.00     0.065 H 
ATOM     51  C   LIG d   1      11.190   6.446   2.521  0.00  0.00    -0.019 A 
ATOM     52  C   LIG d   1      10.825   5.870   1.324  0.00  0.00    -0.046 A 
ATOM     53  H   LIG d   1      11.232   5.846   3.418  0.00  0.00     0.065 H 
ATOM     54  H   LIG d   1      10.581   4.819   1.283  0.00  0.00     0.063 H 
BRANCH  49  55
ATOM     55  O   LIG d   1      11.853   8.365   3.758  0.00  0.00    -0.495 OA
BRANCH  55  56
ATOM     56  C   LIG d   1      11.544   7.633   4.946  0.00  0.00     0.079 C 
ATOM     57  H   LIG d   1      12.096   6.693   4.946  0.00  0.00     0.066 H 
ATOM     58  H   LIG d   1      11.825   8.221   5.819  0.00  0.00     0.066 H 
ATOM     59  H   LIG d   1      10.474   7.425   4.976  0.00  0.00     0.066 H 
ENDBRANCH  55  56
ENDBRANCH  49  55
ENDBRANCH  42  45
ENDBRANCH   1  41
TORSDOF 11
ENDMDL
MODEL 4
REMARK VINA RESULT:      -6.2      3.925     10.955
REMARK  11 active torsions:
REMARK  status: ('A' for Active; 'I' for Inactive)
REMARK    1  A    between atoms: C_1  and  O_2 
REMARK    2  A    between atoms: O_2  and  C_3 
REMARK    3  A    between atoms: C_6  and  C_9 
REMARK       I    between atoms: C_9  and  N_11 
REMARK    4  A    between atoms: N_11  and  C_12 
REMARK    5  A    between atoms: C_19  and  C_24 
REMARK    6  A    between atoms: C_26  and  O_34 
REMARK    7  A    between atoms: C_27  and  O_32 
REMARK    8  A    between atoms: C_28  and  O_30 
REMARK    9  A    between atoms: O_30  and  C_31 
REMARK   10  A    between atoms: O_32  and  C_33 
REMARK   11  A    between atoms: O_34  and  C_35 
ROOT
ATOM      1  C   LIG d   1      10.946   6.280  -3.001  0.00  0.00     0.222 A 
ATOM      2  N   LIG d   1      11.188   6.705  -4.235  0.00  0.00    -0.222 NA
ATOM      3  C   LIG d   1      10.807   5.996  -5.281  0.00  0.00     0.043 A 
ATOM      4  C   LIG d   1      10.142   4.783  -5.061  0.00  0.00     0.057 A 
ATOM      5  C   LIG d   1       9.901   4.365  -3.746  0.00  0.00     0.057 A 
ATOM      6  N   LIG d   1      10.311   5.140  -2.755  0.00  0.00    -0.218 NA
ATOM      7  C   LIG d   1       9.205   3.069  -3.445  0.00  0.00    -0.002 C 
ATOM      8  C   LIG d   1       8.356   2.611  -4.630  0.00  0.00    -0.003 C 
ATOM      9  H   LIG d   1       7.542   3.318  -4.787  0.00  0.00     0.036 H 
ATOM     10  C   LIG d   1       9.229   2.547  -5.889  0.00  0.00     0.018 C 
ATOM     11  C   LIG d   1       9.694   3.957  -6.193  0.00  0.00     0.167 C 
ATOM     12  O   LIG d   1       9.702   4.388  -7.327  0.00  0.00    -0.292 OA
ATOM     13  H   LIG d   1      11.003   6.343  -6.284  0.00  0.00     0.084 H 
ATOM     14  H   LIG d   1       8.562   3.203  -2.576  0.00  0.00     0.033 H 
ATOM     15  H   LIG d   1       9.950   2.306  -3.223  0.00  0.00     0.033 H 
ATOM     16  H   LIG d   1       8.692   2.181  -6.650  0.00  0.00     0.035 H 
ATOM     17  H   LIG d   1      10.091   1.904  -5.712  0.00  0.00     0.035 H 
ENDROOT
BRANCH   8  18
ATOM     18  C   LIG d   1       7.789   1.245  -4.342  0.00  0.00    -0.036 A 
ATOM     19  C   LIG d   1       8.316   0.134  -4.973  0.00  0.00    -0.013 A 
ATOM     20  C   LIG d   1       7.796  -1.125  -4.710  0.00  0.00     0.165 A 
ATOM     21  H   LIG d   1       9.132   0.246  -5.670  0.00  0.00     0.066 H 
ATOM     22  C   LIG d   1       6.745  -1.268  -3.813  0.00  0.00     0.203 A 
ATOM     23  C   LIG d   1       6.219  -0.148  -3.181  0.00  0.00     0.165 A 
ATOM     24  C   LIG d   1       6.748   1.106  -3.444  0.00  0.00    -0.013 A 
ATOM     25  H   LIG d   1       6.341   1.977  -2.950  0.00  0.00     0.066 H 
BRANCH  20  26
ATOM     26  O   LIG d   1       8.315  -2.218  -5.331  0.00  0.00    -0.491 OA
BRANCH  26  27
ATOM     27  C   LIG d   1       9.710  -2.470  -5.144  0.00  0.00     0.079 C 
ATOM     28  H   LIG d   1      10.269  -2.055  -5.982  0.00  0.00     0.066 H 
ATOM     29  H   LIG d   1      10.042  -2.002  -4.217  0.00  0.00     0.066 H 
ATOM     30  H   LIG d   1       9.881  -3.545  -5.090  0.00  0.00     0.066 H 
ENDBRANCH  26  27
ENDBRANCH  20  26
BRANCH  22  31
ATOM     31  O   LIG d   1       6.233  -2.502  -3.552  0.00  0.00    -0.488 OA
BRANCH  31  32
ATOM     32  C   LIG d   1       5.127  -2.928  -4.349  0.00  0.00     0.079 C 
ATOM     33  H   LIG d   1       4.341  -3.318  -3.702  0.00  0.00     0.066 H 
ATOM     34  H   LIG d   1       4.742  -2.082  -4.918  0.00  0.00     0.066 H 
ATOM     35  H   LIG d   1       5.452  -3.709  -5.036  0.00  0.00     0.066 H 
ENDBRANCH  31  32
ENDBRANCH  22  31
BRANCH  23  36
ATOM     36  O   LIG d   1       5.190  -0.283  -2.302  0.00  0.00    -0.491 OA
BRANCH  36  37
ATOM     37  C   LIG d   1       4.552   0.917  -1.861  0.00  0.00     0.079 C 
ATOM     38  H   LIG d   1       4.108   1.428  -2.716  0.00  0.00     0.066 H 
ATOM     39  H   LIG d   1       3.774   0.672  -1.139  0.00  0.00     0.066 H 
ATOM     40  H   LIG d   1       5.290   1.570  -1.392  0.00  0.00     0.066 H 
ENDBRANCH  36  37
ENDBRANCH  23  36
ENDBRANCH   8  18
BRANCH   1  41
ATOM     41  N   LIG d   1      11.360   7.057  -1.935  0.00  0.00    -0.251 N 
ATOM     42  C   LIG d   1      10.480   7.858  -1.302  0.00  0.00     0.250 C 
ATOM     43  O   LIG d   1       9.322   7.898  -1.669  0.00  0.00    -0.270 OA
ATOM     44  H   LIG d   1      12.284   7.025  -1.641  0.00  0.00     0.158 HD
BRANCH  42  45
ATOM     45  C   LIG d   1      10.922   8.686  -0.163  0.00  0.00     0.037 A 
ATOM     46  C   LIG d   1      10.842  10.080  -0.238  0.00  0.00    -0.046 A 
ATOM     47  C   LIG d   1      11.255  10.850   0.826  0.00  0.00    -0.019 A 
ATOM     48  H   LIG d   1      10.456  10.552  -1.130  0.00  0.00     0.063 H 
ATOM     49  C   LIG d   1      11.753  10.242   1.974  0.00  0.00     0.120 A 
ATOM     50  H   LIG d   1      11.194  11.926   0.769  0.00  0.00     0.065 H 
ATOM     51  C   LIG d   1      11.833   8.857   2.052  0.00  0.00    -0.019 A 
ATOM     52  C   LIG d   1      11.417   8.080   0.994  0.00  0.00    -0.046 A 
ATOM     53  H   LIG d   1      12.221   8.389   2.945  0.00  0.00     0.065 H 
ATOM     54  H   LIG d   1      11.477   7.003   1.058  0.00  0.00     0.063 H 
BRANCH  49  55
ATOM     55  O   LIG d   1      12.158  11.004   3.020  0.00  0.00    -0.495 OA
BRANCH  55  56
ATOM     56  C   LIG d   1      12.640  10.315   4.176  0.00  0.00     0.079 C 
ATOM     57  H   LIG d   1      12.006   9.450   4.373  0.00  0.00     0.066 H 
ATOM     58  H   LIG d   1      13.663   9.984   4.002  0.00  0.00     0.066 H 
ATOM     59  H   LIG d   1      12.615  10.986   5.035  0.00  0.00     0.066 H 
ENDBRANCH  55  56
ENDBRANCH  49  55
ENDBRANCH  42  45
ENDBRANCH   1  41
TORSDOF 11
ENDMDL
MODEL 5
REMARK VINA RESULT:      -6.1      3.898     11.008
REMARK  11 active torsions:
REMARK  status: ('A' for Active; 'I' for Inactive)
REMARK    1  A    between atoms: C_1  and  O_2 
REMARK    2  A    between atoms: O_2  and  C_3 
REMARK    3  A    between atoms: C_6  and  C_9 
REMARK       I    between atoms: C_9  and  N_11 
REMARK    4  A    between atoms: N_11  and  C_12 
REMARK    5  A    between atoms: C_19  and  C_24 
REMARK    6  A    between atoms: C_26  and  O_34 
REMARK    7  A    between atoms: C_27  and  O_32 
REMARK    8  A    between atoms: C_28  and  O_30 
REMARK    9  A    between atoms: O_30  and  C_31 
REMARK   10  A    between atoms: O_32  and  C_33 
REMARK   11  A    between atoms: O_34  and  C_35 
ROOT
ATOM      1  C   LIG d   1      10.990   6.207  -2.974  0.00  0.00     0.222 A 
ATOM      2  N   LIG d   1      11.272   6.614  -4.205  0.00  0.00    -0.222 NA
ATOM      3  C   LIG d   1      10.900   5.902  -5.254  0.00  0.00     0.043 A 
ATOM      4  C   LIG d   1      10.202   4.707  -5.039  0.00  0.00     0.057 A 
ATOM      5  C   LIG d   1       9.920   4.309  -3.726  0.00  0.00     0.057 A 
ATOM      6  N   LIG d   1      10.323   5.084  -2.733  0.00  0.00    -0.218 NA
ATOM      7  C   LIG d   1       9.188   3.032  -3.430  0.00  0.00    -0.002 C 
ATOM      8  C   LIG d   1       8.358   2.581  -4.631  0.00  0.00    -0.003 C 
ATOM      9  H   LIG d   1       7.564   3.304  -4.815  0.00  0.00     0.036 H 
ATOM     10  C   LIG d   1       9.260   2.484  -5.868  0.00  0.00     0.018 C 
ATOM     11  C   LIG d   1       9.764   3.880  -6.173  0.00  0.00     0.167 C 
ATOM     12  O   LIG d   1       9.810   4.299  -7.311  0.00  0.00    -0.292 OA
ATOM     13  H   LIG d   1      11.129   6.235  -6.255  0.00  0.00     0.084 H 
ATOM     14  H   LIG d   1       8.526   3.189  -2.578  0.00  0.00     0.033 H 
ATOM     15  H   LIG d   1       9.909   2.254  -3.182  0.00  0.00     0.033 H 
ATOM     16  H   LIG d   1       8.733   2.123  -6.638  0.00  0.00     0.035 H 
ATOM     17  H   LIG d   1      10.102   1.823  -5.662  0.00  0.00     0.035 H 
ENDROOT
BRANCH   8  18
ATOM     18  C   LIG d   1       7.752   1.231  -4.344  0.00  0.00    -0.036 A 
ATOM     19  C   LIG d   1       6.723   1.119  -3.427  0.00  0.00    -0.013 A 
ATOM     20  C   LIG d   1       6.163  -0.121  -3.161  0.00  0.00     0.165 A 
ATOM     21  H   LIG d   1       6.356   1.998  -2.919  0.00  0.00     0.066 H 
ATOM     22  C   LIG d   1       6.636  -1.251  -3.816  0.00  0.00     0.203 A 
ATOM     23  C   LIG d   1       7.671  -1.134  -4.736  0.00  0.00     0.165 A 
ATOM     24  C   LIG d   1       8.222   0.111  -5.002  0.00  0.00    -0.013 A 
ATOM     25  H   LIG d   1       9.023   0.204  -5.720  0.00  0.00     0.066 H 
BRANCH  20  26
ATOM     26  O   LIG d   1       5.151  -0.231  -2.259  0.00  0.00    -0.491 OA
BRANCH  26  27
ATOM     27  C   LIG d   1       4.471   0.973  -1.897  0.00  0.00     0.079 C 
ATOM     28  H   LIG d   1       5.203   1.754  -1.690  0.00  0.00     0.066 H 
ATOM     29  H   LIG d   1       3.826   1.287  -2.716  0.00  0.00     0.066 H 
ATOM     30  H   LIG d   1       3.868   0.796  -1.006  0.00  0.00     0.066 H 
ENDBRANCH  26  27
ENDBRANCH  20  26
BRANCH  22  31
ATOM     31  O   LIG d   1       6.088  -2.470  -3.558  0.00  0.00    -0.488 OA
BRANCH  31  32
ATOM     32  C   LIG d   1       4.942  -2.842  -4.325  0.00  0.00     0.079 C 
ATOM     33  H   LIG d   1       4.318  -1.964  -4.494  0.00  0.00     0.066 H 
ATOM     34  H   LIG d   1       5.262  -3.250  -5.283  0.00  0.00     0.066 H 
ATOM     35  H   LIG d   1       4.369  -3.595  -3.782  0.00  0.00     0.066 H 
ENDBRANCH  31  32
ENDBRANCH  22  31
BRANCH  23  36
ATOM     36  O   LIG d   1       8.138  -2.237  -5.380  0.00  0.00    -0.491 OA
BRANCH  36  37
ATOM     37  C   LIG d   1       9.424  -2.721  -4.988  0.00  0.00     0.079 C 
ATOM     38  H   LIG d   1       9.840  -3.335  -5.787  0.00  0.00     0.066 H 
ATOM     39  H   LIG d   1      10.087  -1.878  -4.795  0.00  0.00     0.066 H 
ATOM     40  H   LIG d   1       9.326  -3.321  -4.082  0.00  0.00     0.066 H 
ENDBRANCH  36  37
ENDBRANCH  23  36
ENDBRANCH   8  18
BRANCH   1  41
ATOM     41  N   LIG d   1      11.395   6.985  -1.905  0.00  0.00    -0.251 N 
ATOM     42  C   LIG d   1      10.545   7.878  -1.360  0.00  0.00     0.250 C 
ATOM     43  O   LIG d   1       9.421   7.999  -1.807  0.00  0.00    -0.270 OA
ATOM     44  H   LIG d   1      12.292   6.889  -1.547  0.00  0.00     0.158 HD
BRANCH  42  45
ATOM     45  C   LIG d   1      10.978   8.707  -0.219  0.00  0.00     0.037 A 
ATOM     46  C   LIG d   1      10.934  10.102  -0.310  0.00  0.00    -0.046 A 
ATOM     47  C   LIG d   1      11.338  10.873   0.757  0.00  0.00    -0.019 A 
ATOM     48  H   LIG d   1      10.583  10.573  -1.217  0.00  0.00     0.063 H 
ATOM     49  C   LIG d   1      11.791  10.266   1.923  0.00  0.00     0.120 A 
ATOM     50  H   LIG d   1      11.304  11.950   0.687  0.00  0.00     0.065 H 
ATOM     51  C   LIG d   1      11.835   8.880   2.018  0.00  0.00    -0.019 A 
ATOM     52  C   LIG d   1      11.427   8.102   0.957  0.00  0.00    -0.046 A 
ATOM     53  H   LIG d   1      12.188   8.412   2.925  0.00  0.00     0.065 H 
ATOM     54  H   LIG d   1      11.459   7.025   1.034  0.00  0.00     0.063 H 
BRANCH  49  55
ATOM     55  O   LIG d   1      12.187  11.029   2.972  0.00  0.00    -0.495 OA
BRANCH  55  56
ATOM     56  C   LIG d   1      12.599  10.341   4.156  0.00  0.00     0.079 C 
ATOM     57  H   LIG d   1      12.333   9.288   4.073  0.00  0.00     0.066 H 
ATOM     58  H   LIG d   1      13.678  10.437   4.274  0.00  0.00     0.066 H 
ATOM     59  H   LIG d   1      12.098  10.776   5.021  0.00  0.00     0.066 H 
ENDBRANCH  55  56
ENDBRANCH  49  55
ENDBRANCH  42  45
ENDBRANCH   1  41
TORSDOF 11
ENDMDL
MODEL 6
REMARK VINA RESULT:      -6.1      3.091      5.173
REMARK  11 active torsions:
REMARK  status: ('A' for Active; 'I' for Inactive)
REMARK    1  A    between atoms: C_1  and  O_2 
REMARK    2  A    between atoms: O_2  and  C_3 
REMARK    3  A    between atoms: C_6  and  C_9 
REMARK       I    between atoms: C_9  and  N_11 
REMARK    4  A    between atoms: N_11  and  C_12 
REMARK    5  A    between atoms: C_19  and  C_24 
REMARK    6  A    between atoms: C_26  and  O_34 
REMARK    7  A    between atoms: C_27  and  O_32 
REMARK    8  A    between atoms: C_28  and  O_30 
REMARK    9  A    between atoms: O_30  and  C_31 
REMARK   10  A    between atoms: O_32  and  C_33 
REMARK   11  A    between atoms: O_34  and  C_35 
ROOT
ATOM      1  C   LIG d   1       9.125   2.363  -4.117  0.00  0.00     0.222 A 
ATOM      2  N   LIG d   1       9.944   2.282  -3.075  0.00  0.00    -0.222 NA
ATOM      3  C   LIG d   1      10.655   3.327  -2.692  0.00  0.00     0.043 A 
ATOM      4  C   LIG d   1      10.527   4.523  -3.410  0.00  0.00     0.057 A 
ATOM      5  C   LIG d   1       9.653   4.573  -4.503  0.00  0.00     0.057 A 
ATOM      6  N   LIG d   1       8.973   3.482  -4.815  0.00  0.00    -0.218 NA
ATOM      7  C   LIG d   1       9.483   5.822  -5.320  0.00  0.00    -0.002 C 
ATOM      8  C   LIG d   1       9.889   7.061  -4.524  0.00  0.00    -0.003 C 
ATOM      9  H   LIG d   1       9.203   7.196  -3.689  0.00  0.00     0.036 H 
ATOM     10  C   LIG d   1      11.316   6.880  -3.991  0.00  0.00     0.018 C 
ATOM     11  C   LIG d   1      11.295   5.715  -3.022  0.00  0.00     0.167 C 
ATOM     12  O   LIG d   1      11.894   5.762  -1.968  0.00  0.00    -0.292 OA
ATOM     13  H   LIG d   1      11.320   3.260  -1.844  0.00  0.00     0.084 H 
ATOM     14  H   LIG d   1       8.438   5.914  -5.616  0.00  0.00     0.033 H 
ATOM     15  H   LIG d   1      10.102   5.752  -6.213  0.00  0.00     0.033 H 
ATOM     16  H   LIG d   1      11.609   7.718  -3.529  0.00  0.00     0.035 H 
ATOM     17  H   LIG d   1      11.996   6.664  -4.815  0.00  0.00     0.035 H 
ENDROOT
BRANCH   8  18
ATOM     18  C   LIG d   1       9.837   8.272  -5.420  0.00  0.00    -0.036 A 
ATOM     19  C   LIG d   1       9.722   9.533  -4.866  0.00  0.00    -0.013 A 
ATOM     20  C   LIG d   1       9.674  10.650  -5.687  0.00  0.00     0.165 A 
ATOM     21  H   LIG d   1       9.670   9.649  -3.794  0.00  0.00     0.066 H 
ATOM     22  C   LIG d   1       9.742  10.500  -7.067  0.00  0.00     0.203 A 
ATOM     23  C   LIG d   1       9.857   9.230  -7.619  0.00  0.00     0.165 A 
ATOM     24  C   LIG d   1       9.910   8.119  -6.791  0.00  0.00    -0.013 A 
ATOM     25  H   LIG d   1      10.004   7.131  -7.219  0.00  0.00     0.066 H 
BRANCH  20  26
ATOM     26  O   LIG d   1       9.561  11.890  -5.142  0.00  0.00    -0.491 OA
BRANCH  26  27
ATOM     27  C   LIG d   1       8.908  11.985  -3.874  0.00  0.00     0.079 C 
ATOM     28  H   LIG d   1       8.520  11.007  -3.592  0.00  0.00     0.066 H 
ATOM     29  H   LIG d   1       9.620  12.324  -3.122  0.00  0.00     0.066 H 
ATOM     30  H   LIG d   1       8.085  12.697  -3.942  0.00  0.00     0.066 H 
ENDBRANCH  26  27
ENDBRANCH  20  26
BRANCH  22  31
ATOM     31  O   LIG d   1       9.696  11.594  -7.875  0.00  0.00    -0.488 OA
BRANCH  31  32
ATOM     32  C   LIG d   1      10.933  12.258  -8.140  0.00  0.00     0.079 C 
ATOM     33  H   LIG d   1      11.122  12.996  -7.360  0.00  0.00     0.066 H 
ATOM     34  H   LIG d   1      11.742  11.528  -8.153  0.00  0.00     0.066 H 
ATOM     35  H   LIG d   1      10.878  12.758  -9.107  0.00  0.00     0.066 H 
ENDBRANCH  31  32
ENDBRANCH  22  31
BRANCH  23  36
ATOM     36  O   LIG d   1       9.923   9.078  -8.968  0.00  0.00    -0.491 OA
BRANCH  36  37
ATOM     37  C   LIG d   1       9.912   7.740  -9.472  0.00  0.00     0.079 C 
ATOM     38  H   LIG d   1      10.088   7.043  -8.653  0.00  0.00     0.066 H 
ATOM     39  H   LIG d   1       8.944   7.530  -9.926  0.00  0.00     0.066 H 
ATOM     40  H   LIG d   1      10.697   7.627 -10.220  0.00  0.00     0.066 H 
ENDBRANCH  36  37
ENDBRANCH  23  36
ENDBRANCH   8  18
BRANCH   1  41
ATOM     41  N   LIG d   1       8.396   1.246  -4.481  0.00  0.00    -0.251 N 
ATOM     42  C   LIG d   1       7.206   0.997  -3.900  0.00  0.00     0.250 C 
ATOM     43  O   LIG d   1       6.772   1.756  -3.055  0.00  0.00    -0.270 OA
ATOM     44  H   LIG d   1       8.742   0.639  -5.155  0.00  0.00     0.158 HD
BRANCH  42  45
ATOM     45  C   LIG d   1       6.429  -0.196  -4.289  0.00  0.00     0.037 A 
ATOM     46  C   LIG d   1       6.113  -0.418  -5.632  0.00  0.00    -0.046 A 
ATOM     47  C   LIG d   1       5.388  -1.533  -5.992  0.00  0.00    -0.019 A 
ATOM     48  H   LIG d   1       6.436   0.284  -6.387  0.00  0.00     0.063 H 
ATOM     49  C   LIG d   1       4.971  -2.435  -5.020  0.00  0.00     0.120 A 
ATOM     50  H   LIG d   1       5.144  -1.705  -7.029  0.00  0.00     0.065 H 
ATOM     51  C   LIG d   1       5.284  -2.218  -3.683  0.00  0.00    -0.019 A 
ATOM     52  C   LIG d   1       6.013  -1.109  -3.316  0.00  0.00    -0.046 A 
ATOM     53  H   LIG d   1       4.957  -2.921  -2.931  0.00  0.00     0.065 H 
ATOM     54  H   LIG d   1       6.259  -0.943  -2.278  0.00  0.00     0.063 H 
BRANCH  49  55
ATOM     55  O   LIG d   1       4.258  -3.533  -5.378  0.00  0.00    -0.495 OA
BRANCH  55  56
ATOM     56  C   LIG d   1       4.988  -4.747  -5.567  0.00  0.00     0.079 C 
ATOM     57  H   LIG d   1       5.949  -4.676  -5.058  0.00  0.00     0.066 H 
ATOM     58  H   LIG d   1       4.419  -5.580  -5.156  0.00  0.00     0.066 H 
ATOM     59  H   LIG d   1       5.153  -4.909  -6.632  0.00  0.00     0.066 H 
ENDBRANCH  55  56
ENDBRANCH  49  55
ENDBRANCH  42  45
ENDBRANCH   1  41
TORSDOF 11
ENDMDL
MODEL 7
REMARK VINA RESULT:      -6.1      8.275     11.661
REMARK  11 active torsions:
REMARK  status: ('A' for Active; 'I' for Inactive)
REMARK    1  A    between atoms: C_1  and  O_2 
REMARK    2  A    between atoms: O_2  and  C_3 
REMARK    3  A    between atoms: C_6  and  C_9 
REMARK       I    between atoms: C_9  and  N_11 
REMARK    4  A    between atoms: N_11  and  C_12 
REMARK    5  A    between atoms: C_19  and  C_24 
REMARK    6  A    between atoms: C_26  and  O_34 
REMARK    7  A    between atoms: C_27  and  O_32 
REMARK    8  A    between atoms: C_28  and  O_30 
REMARK    9  A    between atoms: O_30  and  C_31 
REMARK   10  A    between atoms: O_32  and  C_33 
REMARK   11  A    between atoms: O_34  and  C_35 
ROOT
ATOM      1  C   LIG d   1      10.788  -6.600  -1.759  0.00  0.00     0.222 A 
ATOM      2  N   LIG d   1      11.360  -7.042  -2.872  0.00  0.00    -0.222 NA
ATOM      3  C   LIG d   1      11.080  -6.494  -4.040  0.00  0.00     0.043 A 
ATOM      4  C   LIG d   1      10.164  -5.435  -4.080  0.00  0.00     0.057 A 
ATOM      5  C   LIG d   1       9.581  -4.992  -2.887  0.00  0.00     0.057 A 
ATOM      6  N   LIG d   1       9.922  -5.592  -1.759  0.00  0.00    -0.218 NA
ATOM      7  C   LIG d   1       8.583  -3.870  -2.866  0.00  0.00    -0.002 C 
ATOM      8  C   LIG d   1       8.727  -2.980  -4.099  0.00  0.00    -0.003 C 
ATOM      9  H   LIG d   1       9.693  -2.475  -4.071  0.00  0.00     0.036 H 
ATOM     10  C   LIG d   1       8.637  -3.842  -5.364  0.00  0.00     0.018 C 
ATOM     11  C   LIG d   1       9.821  -4.788  -5.356  0.00  0.00     0.167 C 
ATOM     12  O   LIG d   1      10.458  -5.008  -6.364  0.00  0.00    -0.292 OA
ATOM     13  H   LIG d   1      11.547  -6.854  -4.945  0.00  0.00     0.084 H 
ATOM     14  H   LIG d   1       8.741  -3.268  -1.971  0.00  0.00     0.033 H 
ATOM     15  H   LIG d   1       7.576  -4.286  -2.842  0.00  0.00     0.033 H 
ATOM     16  H   LIG d   1       8.661  -3.253  -6.172  0.00  0.00     0.035 H 
ATOM     17  H   LIG d   1       7.708  -4.413  -5.360  0.00  0.00     0.035 H 
ENDROOT
BRANCH   8  18
ATOM     18  C   LIG d   1       7.623  -1.954  -4.110  0.00  0.00    -0.036 A 
ATOM     19  C   LIG d   1       6.314  -2.350  -3.905  0.00  0.00    -0.013 A 
ATOM     20  C   LIG d   1       5.295  -1.409  -3.914  0.00  0.00     0.165 A 
ATOM     21  H   LIG d   1       6.085  -3.391  -3.738  0.00  0.00     0.066 H 
ATOM     22  C   LIG d   1       5.591  -0.068  -4.129  0.00  0.00     0.203 A 
ATOM     23  C   LIG d   1       6.908   0.324  -4.334  0.00  0.00     0.165 A 
ATOM     24  C   LIG d   1       7.922  -0.622  -4.318  0.00  0.00    -0.013 A 
ATOM     25  H   LIG d   1       8.947  -0.317  -4.473  0.00  0.00     0.066 H 
BRANCH  20  26
ATOM     26  O   LIG d   1       4.008  -1.798  -3.712  0.00  0.00    -0.491 OA
BRANCH  26  27
ATOM     27  C   LIG d   1       3.633  -2.132  -2.374  0.00  0.00     0.079 C 
ATOM     28  H   LIG d   1       2.568  -1.943  -2.238  0.00  0.00     0.066 H 
ATOM     29  H   LIG d   1       3.841  -3.186  -2.191  0.00  0.00     0.066 H 
ATOM     30  H   LIG d   1       4.203  -1.522  -1.674  0.00  0.00     0.066 H 
ENDBRANCH  26  27
ENDBRANCH  20  26
BRANCH  22  31
ATOM     31  O   LIG d   1       4.594   0.858  -4.137  0.00  0.00    -0.488 OA
BRANCH  31  32
ATOM     32  C   LIG d   1       4.252   1.455  -2.885  0.00  0.00     0.079 C 
ATOM     33  H   LIG d   1       3.543   2.267  -3.051  0.00  0.00     0.066 H 
ATOM     34  H   LIG d   1       3.800   0.705  -2.236  0.00  0.00     0.066 H 
ATOM     35  H   LIG d   1       5.151   1.850  -2.413  0.00  0.00     0.066 H 
ENDBRANCH  31  32
ENDBRANCH  22  31
BRANCH  23  36
ATOM     36  O   LIG d   1       7.203   1.635  -4.545  0.00  0.00    -0.491 OA
BRANCH  36  37
ATOM     37  C   LIG d   1       8.463   2.102  -4.060  0.00  0.00     0.079 C 
ATOM     38  H   LIG d   1       8.432   2.166  -2.972  0.00  0.00     0.066 H 
ATOM     39  H   LIG d   1       9.249   1.410  -4.361  0.00  0.00     0.066 H 
ATOM     40  H   LIG d   1       8.669   3.089  -4.475  0.00  0.00     0.066 H 
ENDBRANCH  36  37
ENDBRANCH  23  36
ENDBRANCH   8  18
BRANCH   1  41
ATOM     41  N   LIG d   1      11.113  -7.201  -0.558  0.00  0.00    -0.251 N 
ATOM     42  C   LIG d   1      10.584  -8.399  -0.238  0.00  0.00     0.250 C 
ATOM     43  O   LIG d   1       9.821  -8.951  -1.007  0.00  0.00    -0.270 OA
ATOM     44  H   LIG d   1      11.722  -6.761   0.057  0.00  0.00     0.158 HD
BRANCH  42  45
ATOM     45  C   LIG d   1      10.931  -9.040   1.045  0.00  0.00     0.037 A 
ATOM     46  C   LIG d   1      10.773 -10.420   1.204  0.00  0.00    -0.046 A 
ATOM     47  C   LIG d   1      11.098 -11.015   2.402  0.00  0.00    -0.019 A 
ATOM     48  H   LIG d   1      10.395 -11.018   0.387  0.00  0.00     0.063 H 
ATOM     49  C   LIG d   1      11.582 -10.244   3.454  0.00  0.00     0.120 A 
ATOM     50  H   LIG d   1      10.976 -12.080   2.526  0.00  0.00     0.065 H 
ATOM     51  C   LIG d   1      11.741  -8.872   3.299  0.00  0.00    -0.019 A 
ATOM     52  C   LIG d   1      11.424  -8.270   2.102  0.00  0.00    -0.046 A 
ATOM     53  H   LIG d   1      12.117  -8.277   4.119  0.00  0.00     0.065 H 
ATOM     54  H   LIG d   1      11.551  -7.205   1.982  0.00  0.00     0.063 H 
BRANCH  49  55
ATOM     55  O   LIG d   1      11.902 -10.835   4.633  0.00  0.00    -0.495 OA
BRANCH  55  56
ATOM     56  C   LIG d   1      11.461 -12.181   4.825  0.00  0.00     0.079 C 
ATOM     57  H   LIG d   1      10.402 -12.253   4.582  0.00  0.00     0.066 H 
ATOM     58  H   LIG d   1      12.031 -12.845   4.176  0.00  0.00     0.066 H 
ATOM     59  H   LIG d   1      11.616 -12.468   5.866  0.00  0.00     0.066 H 
ENDBRANCH  55  56
ENDBRANCH  49  55
ENDBRANCH  42  45
ENDBRANCH   1  41
TORSDOF 11
ENDMDL
MODEL 8
REMARK VINA RESULT:      -6.1      8.323     11.649
REMARK  11 active torsions:
REMARK  status: ('A' for Active; 'I' for Inactive)
REMARK    1  A    between atoms: C_1  and  O_2 
REMARK    2  A    between atoms: O_2  and  C_3 
REMARK    3  A    between atoms: C_6  and  C_9 
REMARK       I    between atoms: C_9  and  N_11 
REMARK    4  A    between atoms: N_11  and  C_12 
REMARK    5  A    between atoms: C_19  and  C_24 
REMARK    6  A    between atoms: C_26  and  O_34 
REMARK    7  A    between atoms: C_27  and  O_32 
REMARK    8  A    between atoms: C_28  and  O_30 
REMARK    9  A    between atoms: O_30  and  C_31 
REMARK   10  A    between atoms: O_32  and  C_33 
REMARK   11  A    between atoms: O_34  and  C_35 
ROOT
ATOM      1  C   LIG d   1      10.809  -6.659  -1.719  0.00  0.00     0.222 A 
ATOM      2  N   LIG d   1      11.374  -7.119  -2.828  0.00  0.00    -0.222 NA
ATOM      3  C   LIG d   1      11.096  -6.581  -4.001  0.00  0.00     0.043 A 
ATOM      4  C   LIG d   1      10.189  -5.516  -4.051  0.00  0.00     0.057 A 
ATOM      5  C   LIG d   1       9.612  -5.055  -2.862  0.00  0.00     0.057 A 
ATOM      6  N   LIG d   1       9.951  -5.645  -1.728  0.00  0.00    -0.218 NA
ATOM      7  C   LIG d   1       8.623  -3.925  -2.852  0.00  0.00    -0.002 C 
ATOM      8  C   LIG d   1       8.771  -3.050  -4.095  0.00  0.00    -0.003 C 
ATOM      9  H   LIG d   1       9.741  -2.553  -4.075  0.00  0.00     0.036 H 
ATOM     10  C   LIG d   1       8.671  -3.926  -5.350  0.00  0.00     0.018 C 
ATOM     11  C   LIG d   1       9.847  -4.881  -5.333  0.00  0.00     0.167 C 
ATOM     12  O   LIG d   1      10.481  -5.118  -6.340  0.00  0.00    -0.292 OA
ATOM     13  H   LIG d   1      11.558  -6.956  -4.903  0.00  0.00     0.084 H 
ATOM     14  H   LIG d   1       8.788  -3.314  -1.964  0.00  0.00     0.033 H 
ATOM     15  H   LIG d   1       7.613  -4.332  -2.821  0.00  0.00     0.033 H 
ATOM     16  H   LIG d   1       8.698  -3.346  -6.165  0.00  0.00     0.035 H 
ATOM     17  H   LIG d   1       7.737  -4.489  -5.337  0.00  0.00     0.035 H 
ENDROOT
BRANCH   8  18
ATOM     18  C   LIG d   1       7.675  -2.016  -4.115  0.00  0.00    -0.036 A 
ATOM     19  C   LIG d   1       7.986  -0.688  -4.343  0.00  0.00    -0.013 A 
ATOM     20  C   LIG d   1       6.980   0.267  -4.363  0.00  0.00     0.165 A 
ATOM     21  H   LIG d   1       9.012  -0.395  -4.505  0.00  0.00     0.066 H 
ATOM     22  C   LIG d   1       5.660  -0.112  -4.154  0.00  0.00     0.203 A 
ATOM     23  C   LIG d   1       5.352  -1.448  -3.926  0.00  0.00     0.165 A 
ATOM     24  C   LIG d   1       6.363  -2.398  -3.913  0.00  0.00    -0.013 A 
ATOM     25  H   LIG d   1       6.124  -3.437  -3.740  0.00  0.00     0.066 H 
BRANCH  20  26
ATOM     26  O   LIG d   1       7.286   1.572  -4.587  0.00  0.00    -0.491 OA
BRANCH  26  27
ATOM     27  C   LIG d   1       8.383   2.117  -3.851  0.00  0.00     0.079 C 
ATOM     28  H   LIG d   1       9.277   1.522  -4.037  0.00  0.00     0.066 H 
ATOM     29  H   LIG d   1       8.559   3.145  -4.167  0.00  0.00     0.066 H 
ATOM     30  H   LIG d   1       8.151   2.099  -2.786  0.00  0.00     0.066 H 
ENDBRANCH  26  27
ENDBRANCH  20  26
BRANCH  22  31
ATOM     31  O   LIG d   1       4.670   0.822  -4.174  0.00  0.00    -0.488 OA
BRANCH  31  32
ATOM     32  C   LIG d   1       4.365   1.471  -2.938  0.00  0.00     0.079 C 
ATOM     33  H   LIG d   1       3.295   1.669  -2.886  0.00  0.00     0.066 H 
ATOM     34  H   LIG d   1       4.657   0.828  -2.108  0.00  0.00     0.066 H 
ATOM     35  H   LIG d   1       4.912   2.412  -2.877  0.00  0.00     0.066 H 
ENDBRANCH  31  32
ENDBRANCH  22  31
BRANCH  23  36
ATOM     36  O   LIG d   1       4.062  -1.824  -3.720  0.00  0.00    -0.491 OA
BRANCH  36  37
ATOM     37  C   LIG d   1       3.678  -2.121  -2.376  0.00  0.00     0.079 C 
ATOM     38  H   LIG d   1       2.713  -2.628  -2.377  0.00  0.00     0.066 H 
ATOM     39  H   LIG d   1       4.427  -2.766  -1.917  0.00  0.00     0.066 H 
ATOM     40  H   LIG d   1       3.600  -1.194  -1.808  0.00  0.00     0.066 H 
ENDBRANCH  36  37
ENDBRANCH  23  36
ENDBRANCH   8  18
BRANCH   1  41
ATOM     41  N   LIG d   1      11.131  -7.249  -0.511  0.00  0.00    -0.251 N 
ATOM     42  C   LIG d   1      10.616  -8.452  -0.189  0.00  0.00     0.250 C 
ATOM     43  O   LIG d   1       9.867  -9.019  -0.960  0.00  0.00    -0.270 OA
ATOM     44  H   LIG d   1      11.729  -6.797   0.106  0.00  0.00     0.158 HD
BRANCH  42  45
ATOM     45  C   LIG d   1      10.961  -9.081   1.101  0.00  0.00     0.037 A 
ATOM     46  C   LIG d   1      10.755 -10.451   1.290  0.00  0.00    -0.046 A 
ATOM     47  C   LIG d   1      11.078 -11.034   2.494  0.00  0.00    -0.019 A 
ATOM     48  H   LIG d   1      10.342 -11.050   0.491  0.00  0.00     0.063 H 
ATOM     49  C   LIG d   1      11.608 -10.263   3.522  0.00  0.00     0.120 A 
ATOM     50  H   LIG d   1      10.919 -12.092   2.641  0.00  0.00     0.065 H 
ATOM     51  C   LIG d   1      11.815  -8.900   3.338  0.00  0.00    -0.019 A 
ATOM     52  C   LIG d   1      11.499  -8.310   2.135  0.00  0.00    -0.046 A 
ATOM     53  H   LIG d   1      12.227  -8.304   4.140  0.00  0.00     0.065 H 
ATOM     54  H   LIG d   1      11.665  -7.253   1.992  0.00  0.00     0.063 H 
BRANCH  49  55
ATOM     55  O   LIG d   1      11.926 -10.842   4.707  0.00  0.00    -0.495 OA
BRANCH  55  56
ATOM     56  C   LIG d   1      11.611 -12.228   4.857  0.00  0.00     0.079 C 
ATOM     57  H   LIG d   1      10.593 -12.408   4.512  0.00  0.00     0.066 H 
ATOM     58  H   LIG d   1      12.306 -12.824   4.268  0.00  0.00     0.066 H 
ATOM     59  H   LIG d   1      11.692 -12.507   5.908  0.00  0.00     0.066 H 
ENDBRANCH  55  56
ENDBRANCH  49  55
ENDBRANCH  42  45
ENDBRANCH   1  41
TORSDOF 11
ENDMDL
MODEL 9
REMARK VINA RESULT:      -6.1      3.026      4.860
REMARK  11 active torsions:
REMARK  status: ('A' for Active; 'I' for Inactive)
REMARK    1  A    between atoms: C_1  and  O_2 
REMARK    2  A    between atoms: O_2  and  C_3 
REMARK    3  A    between atoms: C_6  and  C_9 
REMARK       I    between atoms: C_9  and  N_11 
REMARK    4  A    between atoms: N_11  and  C_12 
REMARK    5  A    between atoms: C_19  and  C_24 
REMARK    6  A    between atoms: C_26  and  O_34 
REMARK    7  A    between atoms: C_27  and  O_32 
REMARK    8  A    between atoms: C_28  and  O_30 
REMARK    9  A    between atoms: O_30  and  C_31 
REMARK   10  A    between atoms: O_32  and  C_33 
REMARK   11  A    between atoms: O_34  and  C_35 
ROOT
ATOM      1  C   LIG d   1       9.095   2.302  -4.083  0.00  0.00     0.222 A 
ATOM      2  N   LIG d   1       9.892   2.220  -3.025  0.00  0.00    -0.222 NA
ATOM      3  C   LIG d   1      10.593   3.265  -2.626  0.00  0.00     0.043 A 
ATOM      4  C   LIG d   1      10.480   4.462  -3.343  0.00  0.00     0.057 A 
ATOM      5  C   LIG d   1       9.628   4.513  -4.454  0.00  0.00     0.057 A 
ATOM      6  N   LIG d   1       8.956   3.423  -4.782  0.00  0.00    -0.218 NA
ATOM      7  C   LIG d   1       9.474   5.763  -5.272  0.00  0.00    -0.002 C 
ATOM      8  C   LIG d   1       9.861   7.002  -4.466  0.00  0.00    -0.003 C 
ATOM      9  H   LIG d   1       9.158   7.135  -3.645  0.00  0.00     0.036 H 
ATOM     10  C   LIG d   1      11.277   6.822  -3.903  0.00  0.00     0.018 C 
ATOM     11  C   LIG d   1      11.238   5.655  -2.937  0.00  0.00     0.167 C 
ATOM     12  O   LIG d   1      11.814   5.701  -1.871  0.00  0.00    -0.292 OA
ATOM     13  H   LIG d   1      11.241   3.198  -1.764  0.00  0.00     0.084 H 
ATOM     14  H   LIG d   1       8.435   5.855  -5.590  0.00  0.00     0.033 H 
ATOM     15  H   LIG d   1      10.111   5.697  -6.153  0.00  0.00     0.033 H 
ATOM     16  H   LIG d   1      11.559   7.660  -3.434  0.00  0.00     0.035 H 
ATOM     17  H   LIG d   1      11.974   6.608  -4.713  0.00  0.00     0.035 H 
ENDROOT
BRANCH   8  18
ATOM     18  C   LIG d   1       9.826   8.214  -5.360  0.00  0.00    -0.036 A 
ATOM     19  C   LIG d   1       9.677   8.058  -6.726  0.00  0.00    -0.013 A 
ATOM     20  C   LIG d   1       9.643   9.172  -7.552  0.00  0.00     0.165 A 
ATOM     21  H   LIG d   1       9.586   7.069  -7.149  0.00  0.00     0.066 H 
ATOM     22  C   LIG d   1       9.760  10.444  -7.006  0.00  0.00     0.203 A 
ATOM     23  C   LIG d   1       9.911  10.596  -5.633  0.00  0.00     0.165 A 
ATOM     24  C   LIG d   1       9.937   9.478  -4.813  0.00  0.00    -0.013 A 
ATOM     25  H   LIG d   1      10.049   9.595  -3.745  0.00  0.00     0.066 H 
BRANCH  20  26
ATOM     26  O   LIG d   1       9.496   9.018  -8.895  0.00  0.00    -0.491 OA
BRANCH  26  27
ATOM     27  C   LIG d   1      10.613   8.491  -9.614  0.00  0.00     0.079 C 
ATOM     28  H   LIG d   1      10.318   7.572 -10.120  0.00  0.00     0.066 H 
ATOM     29  H   LIG d   1      10.947   9.220 -10.352  0.00  0.00     0.066 H 
ATOM     30  H   LIG d   1      11.425   8.278  -8.919  0.00  0.00     0.066 H 
ENDBRANCH  26  27
ENDBRANCH  20  26
BRANCH  22  31
ATOM     31  O   LIG d   1       9.727  11.539  -7.814  0.00  0.00    -0.488 OA
BRANCH  31  32
ATOM     32  C   LIG d   1      10.984  12.082  -8.224  0.00  0.00     0.079 C 
ATOM     33  H   LIG d   1      11.529  11.336  -8.803  0.00  0.00     0.066 H 
ATOM     34  H   LIG d   1      10.815  12.967  -8.837  0.00  0.00     0.066 H 
ATOM     35  H   LIG d   1      11.566  12.355  -7.344  0.00  0.00     0.066 H 
ENDBRANCH  31  32
ENDBRANCH  22  31
BRANCH  23  36
ATOM     36  O   LIG d   1      10.026  11.839  -5.094  0.00  0.00    -0.491 OA
BRANCH  36  37
ATOM     37  C   LIG d   1       9.130  12.171  -4.031  0.00  0.00     0.079 C 
ATOM     38  H   LIG d   1       8.241  12.650  -4.442  0.00  0.00     0.066 H 
ATOM     39  H   LIG d   1       8.841  11.263  -3.502  0.00  0.00     0.066 H 
ATOM     40  H   LIG d   1       9.624  12.853  -3.339  0.00  0.00     0.066 H 
ENDBRANCH  36  37
ENDBRANCH  23  36
ENDBRANCH   8  18
BRANCH   1  41
ATOM     41  N   LIG d   1       8.376   1.184  -4.465  0.00  0.00    -0.251 N 
ATOM     42  C   LIG d   1       7.174   0.933  -3.910  0.00  0.00     0.250 C 
ATOM     43  O   LIG d   1       6.721   1.690  -3.073  0.00  0.00    -0.270 OA
ATOM     44  H   LIG d   1       8.737   0.580  -5.133  0.00  0.00     0.158 HD
BRANCH  42  45
ATOM     45  C   LIG d   1       6.407  -0.260  -4.317  0.00  0.00     0.037 A 
ATOM     46  C   LIG d   1       6.097  -1.248  -3.378  0.00  0.00    -0.046 A 
ATOM     47  C   LIG d   1       5.381  -2.360  -3.762  0.00  0.00    -0.019 A 
ATOM     48  H   LIG d   1       6.419  -1.139  -2.353  0.00  0.00     0.063 H 
ATOM     49  C   LIG d   1       4.968  -2.500  -5.082  0.00  0.00     0.120 A 
ATOM     50  H   LIG d   1       5.141  -3.123  -3.038  0.00  0.00     0.065 H 
ATOM     51  C   LIG d   1       5.274  -1.520  -6.019  0.00  0.00    -0.019 A 
ATOM     52  C   LIG d   1       5.985  -0.402  -5.642  0.00  0.00    -0.046 A 
ATOM     53  H   LIG d   1       4.951  -1.633  -7.044  0.00  0.00     0.065 H 
ATOM     54  H   LIG d   1       6.218   0.361  -6.369  0.00  0.00     0.063 H 
BRANCH  49  55
ATOM     55  O   LIG d   1       4.261  -3.597  -5.457  0.00  0.00    -0.495 OA
BRANCH  55  56
ATOM     56  C   LIG d   1       4.416  -4.038  -6.807  0.00  0.00     0.079 C 
ATOM     57  H   LIG d   1       3.520  -4.576  -7.118  0.00  0.00     0.066 H 
ATOM     58  H   LIG d   1       4.566  -3.176  -7.456  0.00  0.00     0.066 H 
ATOM     59  H   LIG d   1       5.279  -4.700  -6.877  0.00  0.00     0.066 H 
ENDBRANCH  55  56
ENDBRANCH  49  55
ENDBRANCH  42  45
ENDBRANCH   1  41
TORSDOF 11
ENDMDL
