MODEL 1
REMARK VINA RESULT:      -5.3      0.000      0.000
REMARK  10 active torsions:
REMARK  status: ('A' for Active; 'I' for Inactive)
REMARK    1  A    between atoms: C_1  and  C_2 
REMARK    2  A    between atoms: C_2  and  O_3 
REMARK    3  A    between atoms: O_3  and  C_4 
REMARK    4  A    between atoms: C_4  and  C_6 
REMARK    5  A    between atoms: C_8  and  C_21 
REMARK    6  A    between atoms: C_14  and  C_16 
REMARK    7  A    between atoms: C_14  and  C_17 
REMARK    8  A    between atoms: C_21  and  O_23 
REMARK    9  A    between atoms: O_23  and  C_24 
REMARK   10  A    between atoms: C_24  and  C_25 
ROOT
ATOM      1  C   LIG d   1       6.362  -0.702  -6.647  0.00  0.00     0.169 C 
ATOM      2  H   LIG d   1       6.488  -1.699  -7.069  0.00  0.00     0.054 H 
ATOM      3  C   LIG d   1       7.009  -0.620  -5.243  0.00  0.00     0.119 C 
ATOM      4  H   LIG d   1       7.431  -1.582  -4.953  0.00  0.00     0.047 H 
ATOM      5  C   LIG d   1       5.805  -0.259  -4.349  0.00  0.00     0.132 C 
ATOM      6  C   LIG d   1       6.222   0.748  -3.283  0.00  0.00     0.012 C 
ATOM      7  C   LIG d   1       5.027   1.042  -2.371  0.00  0.00     0.052 C 
ATOM      8  O   LIG d   1       4.548  -0.181  -1.809  0.00  0.00    -0.374 OA
ATOM      9  C   LIG d   1       4.079  -1.126  -2.774  0.00  0.00     0.068 C 
ATOM     10  C   LIG d   1       5.232  -1.517  -3.703  0.00  0.00     0.017 C 
ATOM     11  O   LIG d   1       4.848   0.326  -5.248  0.00  0.00    -0.456 OA
ATOM     12  C   LIG d   1       4.891  -0.412  -6.389  0.00  0.00     0.323 C 
ATOM     13  O   LIG d   1       3.954  -0.767  -7.064  0.00  0.00    -0.250 OA
ATOM     14  H   LIG d   1       7.039   0.334  -2.691  0.00  0.00     0.033 H 
ATOM     15  H   LIG d   1       6.551   1.670  -3.763  0.00  0.00     0.033 H 
ATOM     16  H   LIG d   1       5.336   1.713  -1.571  0.00  0.00     0.056 H 
ATOM     17  H   LIG d   1       4.232   1.510  -2.953  0.00  0.00     0.056 H 
ATOM     18  H   LIG d   1       4.864  -2.189  -4.479  0.00  0.00     0.033 H 
ATOM     19  H   LIG d   1       6.011  -2.017  -3.127  0.00  0.00     0.033 H 
ENDROOT
BRANCH   3  20
ATOM     20  C   LIG d   1       8.058   0.461  -5.197  0.00  0.00     0.315 C 
ATOM     21  O   LIG d   1       9.222   0.167  -5.061  0.00  0.00    -0.250 OA
BRANCH  20  22
ATOM     22  O   LIG d   1       7.698   1.749  -5.306  0.00  0.00    -0.465 OA
BRANCH  22  23
ATOM     23  C   LIG d   1       8.726   2.726  -5.129  0.00  0.00     0.090 C 
ATOM     24  H   LIG d   1       8.328   3.576  -4.574  0.00  0.00     0.069 H 
ATOM     25  H   LIG d   1       9.555   2.287  -4.574  0.00  0.00     0.069 H 
BRANCH  23  26
ATOM     26  C   LIG d   1       9.222   3.198  -6.498  0.00  0.00    -0.031 C 
ATOM     27  H   LIG d   1       8.969   4.250  -6.633  0.00  0.00     0.026 H 
ATOM     28  H   LIG d   1      10.303   3.074  -6.554  0.00  0.00     0.026 H 
ATOM     29  H   LIG d   1       8.747   2.606  -7.280  0.00  0.00     0.026 H 
ENDBRANCH  23  26
ENDBRANCH  22  23
ENDBRANCH  20  22
ENDBRANCH   3  20
BRANCH   1  30
ATOM     30  C   LIG d   1       6.955   0.338  -7.564  0.00  0.00     0.322 C 
ATOM     31  O   LIG d   1       7.998   0.116  -8.133  0.00  0.00    -0.250 OA
BRANCH  30  32
ATOM     32  O   LIG d   1       6.324   1.508  -7.749  0.00  0.00    -0.464 OA
BRANCH  32  33
ATOM     33  C   LIG d   1       6.061   1.897  -9.099  0.00  0.00     0.090 C 
ATOM     34  H   LIG d   1       6.249   1.054  -9.763  0.00  0.00     0.069 H 
ATOM     35  H   LIG d   1       6.713   2.727  -9.371  0.00  0.00     0.069 H 
BRANCH  33  36
ATOM     36  C   LIG d   1       4.600   2.334  -9.227  0.00  0.00    -0.031 C 
ATOM     37  H   LIG d   1       4.559   3.392  -9.484  0.00  0.00     0.026 H 
ATOM     38  H   LIG d   1       4.115   1.752 -10.011  0.00  0.00     0.026 H 
ATOM     39  H   LIG d   1       4.086   2.168  -8.280  0.00  0.00     0.026 H 
ENDBRANCH  33  36
ENDBRANCH  32  33
ENDBRANCH  30  32
ENDBRANCH   1  30
BRANCH   9  40
ATOM     40  C   LIG d   1       2.950  -0.500  -3.596  0.00  0.00    -0.036 C 
ATOM     41  H   LIG d   1       3.371   0.215  -4.304  0.00  0.00     0.026 H 
ATOM     42  H   LIG d   1       2.420  -1.282  -4.139  0.00  0.00     0.026 H 
ATOM     43  H   LIG d   1       2.257   0.014  -2.929  0.00  0.00     0.026 H 
ENDBRANCH   9  40
BRANCH   9  44
ATOM     44  C   LIG d   1       3.557  -2.373  -2.056  0.00  0.00    -0.036 C 
ATOM     45  H   LIG d   1       2.877  -2.075  -1.258  0.00  0.00     0.026 H 
ATOM     46  H   LIG d   1       3.028  -3.007  -2.767  0.00  0.00     0.026 H 
ATOM     47  H   LIG d   1       4.396  -2.925  -1.631  0.00  0.00     0.026 H 
ENDBRANCH   9  44
TORSDOF 10
ENDMDL
MODEL 2
REMARK VINA RESULT:      -5.2      1.534      5.962
REMARK  10 active torsions:
REMARK  status: ('A' for Active; 'I' for Inactive)
REMARK    1  A    between atoms: C_1  and  C_2 
REMARK    2  A    between atoms: C_2  and  O_3 
REMARK    3  A    between atoms: O_3  and  C_4 
REMARK    4  A    between atoms: C_4  and  C_6 
REMARK    5  A    between atoms: C_8  and  C_21 
REMARK    6  A    between atoms: C_14  and  C_16 
REMARK    7  A    between atoms: C_14  and  C_17 
REMARK    8  A    between atoms: C_21  and  O_23 
REMARK    9  A    between atoms: O_23  and  C_24 
REMARK   10  A    between atoms: C_24  and  C_25 
ROOT
ATOM      1  C   LIG d   1       7.475   0.362  -3.823  0.00  0.00     0.169 C 
ATOM      2  H   LIG d   1       8.195  -0.155  -3.187  0.00  0.00     0.054 H 
ATOM      3  C   LIG d   1       7.375  -0.331  -5.204  0.00  0.00     0.119 C 
ATOM      4  H   LIG d   1       8.064  -1.173  -5.267  0.00  0.00     0.047 H 
ATOM      5  C   LIG d   1       7.799   0.797  -6.167  0.00  0.00     0.132 C 
ATOM      6  C   LIG d   1       6.942   0.765  -7.427  0.00  0.00     0.012 C 
ATOM      7  C   LIG d   1       7.423   1.853  -8.392  0.00  0.00     0.052 C 
ATOM      8  O   LIG d   1       8.811   1.659  -8.671  0.00  0.00    -0.374 OA
ATOM      9  C   LIG d   1       9.658   1.754  -7.523  0.00  0.00     0.068 C 
ATOM     10  C   LIG d   1       9.277   0.661  -6.519  0.00  0.00     0.017 C 
ATOM     11  O   LIG d   1       7.567   2.010  -5.430  0.00  0.00    -0.456 OA
ATOM     12  C   LIG d   1       7.961   1.765  -4.153  0.00  0.00     0.323 C 
ATOM     13  O   LIG d   1       8.574   2.508  -3.423  0.00  0.00    -0.250 OA
ATOM     14  H   LIG d   1       7.033  -0.211  -7.904  0.00  0.00     0.033 H 
ATOM     15  H   LIG d   1       5.900   0.947  -7.163  0.00  0.00     0.033 H 
ATOM     16  H   LIG d   1       6.855   1.794  -9.320  0.00  0.00     0.056 H 
ATOM     17  H   LIG d   1       7.277   2.834  -7.937  0.00  0.00     0.056 H 
ATOM     18  H   LIG d   1       9.878   0.769  -5.616  0.00  0.00     0.033 H 
ATOM     19  H   LIG d   1       9.456  -0.319  -6.962  0.00  0.00     0.033 H 
ENDROOT
BRANCH   3  20
ATOM     20  C   LIG d   1       5.961  -0.774  -5.482  0.00  0.00     0.315 C 
ATOM     21  O   LIG d   1       5.686  -1.950  -5.482  0.00  0.00    -0.250 OA
BRANCH  20  22
ATOM     22  O   LIG d   1       5.009   0.140  -5.729  0.00  0.00    -0.465 OA
BRANCH  22  23
ATOM     23  C   LIG d   1       3.696  -0.352  -6.006  0.00  0.00     0.090 C 
ATOM     24  H   LIG d   1       3.493  -0.268  -7.073  0.00  0.00     0.069 H 
ATOM     25  H   LIG d   1       3.628  -1.397  -5.705  0.00  0.00     0.069 H 
BRANCH  23  26
ATOM     26  C   LIG d   1       2.668   0.471  -5.225  0.00  0.00    -0.031 C 
ATOM     27  H   LIG d   1       1.681   0.026  -5.345  0.00  0.00     0.026 H 
ATOM     28  H   LIG d   1       2.938   0.479  -4.169  0.00  0.00     0.026 H 
ATOM     29  H   LIG d   1       2.656   1.492  -5.605  0.00  0.00     0.026 H 
ENDBRANCH  23  26
ENDBRANCH  22  23
ENDBRANCH  20  22
ENDBRANCH   3  20
BRANCH   1  30
ATOM     30  C   LIG d   1       6.123   0.412  -3.156  0.00  0.00     0.322 C 
ATOM     31  O   LIG d   1       5.458   1.419  -3.215  0.00  0.00    -0.250 OA
BRANCH  30  32
ATOM     32  O   LIG d   1       5.660  -0.661  -2.498  0.00  0.00    -0.464 OA
BRANCH  32  33
ATOM     33  C   LIG d   1       4.287  -0.635  -2.100  0.00  0.00     0.090 C 
ATOM     34  H   LIG d   1       3.773   0.171  -2.623  0.00  0.00     0.069 H 
ATOM     35  H   LIG d   1       4.224  -0.470  -1.025  0.00  0.00     0.069 H 
BRANCH  33  36
ATOM     36  C   LIG d   1       3.630  -1.972  -2.451  0.00  0.00    -0.031 C 
ATOM     37  H   LIG d   1       3.611  -2.094  -3.534  0.00  0.00     0.026 H 
ATOM     38  H   LIG d   1       4.201  -2.786  -2.004  0.00  0.00     0.026 H 
ATOM     39  H   LIG d   1       2.610  -1.988  -2.065  0.00  0.00     0.026 H 
ENDBRANCH  33  36
ENDBRANCH  32  33
ENDBRANCH  30  32
ENDBRANCH   1  30
BRANCH   9  40
ATOM     40  C   LIG d   1       9.486   3.128  -6.872  0.00  0.00    -0.036 C 
ATOM     41  H   LIG d   1      10.267   3.277  -6.127  0.00  0.00     0.026 H 
ATOM     42  H   LIG d   1       9.557   3.903  -7.635  0.00  0.00     0.026 H 
ATOM     43  H   LIG d   1       8.509   3.181  -6.390  0.00  0.00     0.026 H 
ENDBRANCH   9  40
BRANCH   9  44
ATOM     44  C   LIG d   1      11.117   1.569  -7.948  0.00  0.00    -0.036 C 
ATOM     45  H   LIG d   1      11.155   1.273  -8.996  0.00  0.00     0.026 H 
ATOM     46  H   LIG d   1      11.655   2.508  -7.816  0.00  0.00     0.026 H 
ATOM     47  H   LIG d   1      11.579   0.796  -7.335  0.00  0.00     0.026 H 
ENDBRANCH   9  44
TORSDOF 10
ENDMDL
MODEL 3
REMARK VINA RESULT:      -5.1      1.825      5.222
REMARK  10 active torsions:
REMARK  status: ('A' for Active; 'I' for Inactive)
REMARK    1  A    between atoms: C_1  and  C_2 
REMARK    2  A    between atoms: C_2  and  O_3 
REMARK    3  A    between atoms: O_3  and  C_4 
REMARK    4  A    between atoms: C_4  and  C_6 
REMARK    5  A    between atoms: C_8  and  C_21 
REMARK    6  A    between atoms: C_14  and  C_16 
REMARK    7  A    between atoms: C_14  and  C_17 
REMARK    8  A    between atoms: C_21  and  O_23 
REMARK    9  A    between atoms: O_23  and  C_24 
REMARK   10  A    between atoms: C_24  and  C_25 
ROOT
ATOM      1  C   LIG d   1       6.584  -0.743  -5.864  0.00  0.00     0.169 C 
ATOM      2  H   LIG d   1       7.235  -1.608  -5.998  0.00  0.00     0.054 H 
ATOM      3  C   LIG d   1       5.100  -1.148  -6.035  0.00  0.00     0.119 C 
ATOM      4  H   LIG d   1       5.011  -2.206  -6.282  0.00  0.00     0.047 H 
ATOM      5  C   LIG d   1       4.656  -0.270  -7.223  0.00  0.00     0.132 C 
ATOM      6  C   LIG d   1       3.242   0.252  -6.994  0.00  0.00     0.012 C 
ATOM      7  C   LIG d   1       2.801   1.068  -8.213  0.00  0.00     0.052 C 
ATOM      8  O   LIG d   1       2.901   0.258  -9.386  0.00  0.00    -0.374 OA
ATOM      9  C   LIG d   1       4.227  -0.192  -9.677  0.00  0.00     0.068 C 
ATOM     10  C   LIG d   1       4.730  -1.065  -8.523  0.00  0.00     0.017 C 
ATOM     11  O   LIG d   1       5.597   0.817  -7.243  0.00  0.00    -0.456 OA
ATOM     12  C   LIG d   1       6.814   0.276  -6.970  0.00  0.00     0.323 C 
ATOM     13  O   LIG d   1       7.867   0.547  -7.497  0.00  0.00    -0.250 OA
ATOM     14  H   LIG d   1       2.562  -0.589  -6.854  0.00  0.00     0.033 H 
ATOM     15  H   LIG d   1       3.227   0.885  -6.107  0.00  0.00     0.033 H 
ATOM     16  H   LIG d   1       1.769   1.391  -8.082  0.00  0.00     0.056 H 
ATOM     17  H   LIG d   1       3.446   1.941  -8.318  0.00  0.00     0.056 H 
ATOM     18  H   LIG d   1       5.763  -1.359  -8.711  0.00  0.00     0.033 H 
ATOM     19  H   LIG d   1       4.107  -1.956  -8.440  0.00  0.00     0.033 H 
ENDROOT
BRANCH   3  20
ATOM     20  C   LIG d   1       4.307  -0.820  -4.796  0.00  0.00     0.315 C 
ATOM     21  O   LIG d   1       3.871  -1.709  -4.105  0.00  0.00    -0.250 OA
BRANCH  20  22
ATOM     22  O   LIG d   1       4.087   0.462  -4.462  0.00  0.00    -0.465 OA
BRANCH  22  23
ATOM     23  C   LIG d   1       3.268   0.700  -3.315  0.00  0.00     0.090 C 
ATOM     24  H   LIG d   1       2.566   1.505  -3.529  0.00  0.00     0.069 H 
ATOM     25  H   LIG d   1       2.716  -0.206  -3.067  0.00  0.00     0.069 H 
BRANCH  23  26
ATOM     26  C   LIG d   1       4.153   1.097  -2.130  0.00  0.00    -0.031 C 
ATOM     27  H   LIG d   1       3.793   0.603  -1.227  0.00  0.00     0.026 H 
ATOM     28  H   LIG d   1       5.181   0.792  -2.327  0.00  0.00     0.026 H 
ATOM     29  H   LIG d   1       4.114   2.177  -1.994  0.00  0.00     0.026 H 
ENDBRANCH  23  26
ENDBRANCH  22  23
ENDBRANCH  20  22
ENDBRANCH   3  20
BRANCH   1  30
ATOM     30  C   LIG d   1       6.810  -0.118  -4.511  0.00  0.00     0.322 C 
ATOM     31  O   LIG d   1       6.956  -0.820  -3.539  0.00  0.00    -0.250 OA
BRANCH  30  32
ATOM     32  O   LIG d   1       6.849   1.217  -4.387  0.00  0.00    -0.464 OA
BRANCH  32  33
ATOM     33  C   LIG d   1       8.022   1.781  -3.795  0.00  0.00     0.090 C 
ATOM     34  H   LIG d   1       8.760   0.995  -3.635  0.00  0.00     0.069 H 
ATOM     35  H   LIG d   1       7.763   2.237  -2.840  0.00  0.00     0.069 H 
BRANCH  33  36
ATOM     36  C   LIG d   1       8.603   2.845  -4.728  0.00  0.00    -0.031 C 
ATOM     37  H   LIG d   1       8.381   3.835  -4.331  0.00  0.00     0.026 H 
ATOM     38  H   LIG d   1       9.683   2.716  -4.800  0.00  0.00     0.026 H 
ATOM     39  H   LIG d   1       8.158   2.742  -5.719  0.00  0.00     0.026 H 
ENDBRANCH  33  36
ENDBRANCH  32  33
ENDBRANCH  30  32
ENDBRANCH   1  30
BRANCH   9  40
ATOM     40  C   LIG d   1       5.152   1.015  -9.845  0.00  0.00    -0.036 C 
ATOM     41  H   LIG d   1       4.690   1.734 -10.523  0.00  0.00     0.026 H 
ATOM     42  H   LIG d   1       5.318   1.483  -8.876  0.00  0.00     0.026 H 
ATOM     43  H   LIG d   1       6.105   0.687 -10.259  0.00  0.00     0.026 H 
ENDBRANCH   9  40
BRANCH   9  44
ATOM     44  C   LIG d   1       4.216  -1.013 -10.969  0.00  0.00    -0.036 C 
ATOM     45  H   LIG d   1       3.585  -0.518 -11.708  0.00  0.00     0.026 H 
ATOM     46  H   LIG d   1       5.231  -1.095 -11.355  0.00  0.00     0.026 H 
ATOM     47  H   LIG d   1       3.823  -2.008 -10.764  0.00  0.00     0.026 H 
ENDBRANCH   9  44
TORSDOF 10
ENDMDL
MODEL 4
REMARK VINA RESULT:      -5.0      1.849      2.923
REMARK  10 active torsions:
REMARK  status: ('A' for Active; 'I' for Inactive)
REMARK    1  A    between atoms: C_1  and  C_2 
REMARK    2  A    between atoms: C_2  and  O_3 
REMARK    3  A    between atoms: O_3  and  C_4 
REMARK    4  A    between atoms: C_4  and  C_6 
REMARK    5  A    between atoms: C_8  and  C_21 
REMARK    6  A    between atoms: C_14  and  C_16 
REMARK    7  A    between atoms: C_14  and  C_17 
REMARK    8  A    between atoms: C_21  and  O_23 
REMARK    9  A    between atoms: O_23  and  C_24 
REMARK   10  A    between atoms: C_24  and  C_25 
ROOT
ATOM      1  C   LIG d   1       3.003  -0.262  -7.000  0.00  0.00     0.169 C 
ATOM      2  H   LIG d   1       2.269  -1.027  -7.259  0.00  0.00     0.054 H 
ATOM      3  C   LIG d   1       4.380  -0.907  -6.711  0.00  0.00     0.119 C 
ATOM      4  H   LIG d   1       4.328  -1.992  -6.798  0.00  0.00     0.047 H 
ATOM      5  C   LIG d   1       4.638  -0.486  -5.249  0.00  0.00     0.132 C 
ATOM      6  C   LIG d   1       6.106  -0.127  -5.055  0.00  0.00     0.012 C 
ATOM      7  C   LIG d   1       6.349   0.226  -3.584  0.00  0.00     0.052 C 
ATOM      8  O   LIG d   1       5.940  -0.868  -2.761  0.00  0.00    -0.374 OA
ATOM      9  C   LIG d   1       4.551  -1.190  -2.860  0.00  0.00     0.068 C 
ATOM     10  C   LIG d   1       4.229  -1.607  -4.299  0.00  0.00     0.017 C 
ATOM     11  O   LIG d   1       3.806   0.670  -5.053  0.00  0.00    -0.456 OA
ATOM     12  C   LIG d   1       2.632   0.412  -5.687  0.00  0.00     0.323 C 
ATOM     13  O   LIG d   1       1.518   0.665  -5.293  0.00  0.00    -0.250 OA
ATOM     14  H   LIG d   1       6.729  -0.979  -5.332  0.00  0.00     0.033 H 
ATOM     15  H   LIG d   1       6.359   0.728  -5.681  0.00  0.00     0.033 H 
ATOM     16  H   LIG d   1       7.409   0.422  -3.427  0.00  0.00     0.056 H 
ATOM     17  H   LIG d   1       5.771   1.113  -3.323  0.00  0.00     0.056 H 
ATOM     18  H   LIG d   1       3.158  -1.792  -4.393  0.00  0.00     0.033 H 
ATOM     19  H   LIG d   1       4.780  -2.514  -4.547  0.00  0.00     0.033 H 
ENDROOT
BRANCH   3  20
ATOM     20  C   LIG d   1       5.438  -0.348  -7.627  0.00  0.00     0.315 C 
ATOM     21  O   LIG d   1       5.893  -1.032  -8.513  0.00  0.00    -0.250 OA
BRANCH  20  22
ATOM     22  O   LIG d   1       5.875   0.910  -7.458  0.00  0.00    -0.465 OA
BRANCH  22  23
ATOM     23  C   LIG d   1       6.816   1.403  -8.413  0.00  0.00     0.090 C 
ATOM     24  H   LIG d   1       7.061   0.614  -9.123  0.00  0.00     0.069 H 
ATOM     25  H   LIG d   1       6.385   2.250  -8.946  0.00  0.00     0.069 H 
BRANCH  23  26
ATOM     26  C   LIG d   1       8.089   1.851  -7.690  0.00  0.00    -0.031 C 
ATOM     27  H   LIG d   1       8.008   1.611  -6.630  0.00  0.00     0.026 H 
ATOM     28  H   LIG d   1       8.949   1.335  -8.116  0.00  0.00     0.026 H 
ATOM     29  H   LIG d   1       8.215   2.927  -7.811  0.00  0.00     0.026 H 
ENDBRANCH  23  26
ENDBRANCH  22  23
ENDBRANCH  20  22
ENDBRANCH   3  20
BRANCH   1  30
ATOM     30  C   LIG d   1       3.116   0.756  -8.106  0.00  0.00     0.322 C 
ATOM     31  O   LIG d   1       3.203   1.931  -7.837  0.00  0.00    -0.250 OA
BRANCH  30  32
ATOM     32  O   LIG d   1       3.120   0.358  -9.387  0.00  0.00    -0.464 OA
BRANCH  32  33
ATOM     33  C   LIG d   1       3.644   1.275 -10.350  0.00  0.00     0.090 C 
ATOM     34  H   LIG d   1       4.422   1.883  -9.887  0.00  0.00     0.069 H 
ATOM     35  H   LIG d   1       2.843   1.922 -10.709  0.00  0.00     0.069 H 
BRANCH  33  36
ATOM     36  C   LIG d   1       4.236   0.497 -11.526  0.00  0.00    -0.031 C 
ATOM     37  H   LIG d   1       3.973   0.994 -12.460  0.00  0.00     0.026 H 
ATOM     38  H   LIG d   1       5.322   0.461 -11.429  0.00  0.00     0.026 H 
ATOM     39  H   LIG d   1       3.837  -0.518 -11.529  0.00  0.00     0.026 H 
ENDBRANCH  33  36
ENDBRANCH  32  33
ENDBRANCH  30  32
ENDBRANCH   1  30
BRANCH   9  40
ATOM     40  C   LIG d   1       3.714   0.035  -2.484  0.00  0.00    -0.036 C 
ATOM     41  H   LIG d   1       3.509   0.019  -1.413  0.00  0.00     0.026 H 
ATOM     42  H   LIG d   1       4.263   0.941  -2.736  0.00  0.00     0.026 H 
ATOM     43  H   LIG d   1       2.773   0.014  -3.034  0.00  0.00     0.026 H 
ENDBRANCH   9  40
BRANCH   9  44
ATOM     44  C   LIG d   1       4.224  -2.344  -1.909  0.00  0.00    -0.036 C 
ATOM     45  H   LIG d   1       5.011  -2.430  -1.160  0.00  0.00     0.026 H 
ATOM     46  H   LIG d   1       3.272  -2.150  -1.416  0.00  0.00     0.026 H 
ATOM     47  H   LIG d   1       4.158  -3.273  -2.475  0.00  0.00     0.026 H 
ENDBRANCH   9  44
TORSDOF 10
ENDMDL
MODEL 5
REMARK VINA RESULT:      -4.9      1.908      5.639
REMARK  10 active torsions:
REMARK  status: ('A' for Active; 'I' for Inactive)
REMARK    1  A    between atoms: C_1  and  C_2 
REMARK    2  A    between atoms: C_2  and  O_3 
REMARK    3  A    between atoms: O_3  and  C_4 
REMARK    4  A    between atoms: C_4  and  C_6 
REMARK    5  A    between atoms: C_8  and  C_21 
REMARK    6  A    between atoms: C_14  and  C_16 
REMARK    7  A    between atoms: C_14  and  C_17 
REMARK    8  A    between atoms: C_21  and  O_23 
REMARK    9  A    between atoms: O_23  and  C_24 
REMARK   10  A    between atoms: C_24  and  C_25 
ROOT
ATOM      1  C   LIG d   1       6.333  -0.677  -6.466  0.00  0.00     0.169 C 
ATOM      2  H   LIG d   1       6.883  -1.587  -6.708  0.00  0.00     0.054 H 
ATOM      3  C   LIG d   1       4.808  -0.941  -6.495  0.00  0.00     0.119 C 
ATOM      4  H   LIG d   1       4.596  -1.972  -6.778  0.00  0.00     0.047 H 
ATOM      5  C   LIG d   1       4.327   0.037  -7.588  0.00  0.00     0.132 C 
ATOM      6  C   LIG d   1       2.999   0.667  -7.185  0.00  0.00     0.012 C 
ATOM      7  C   LIG d   1       2.513   1.584  -8.311  0.00  0.00     0.052 C 
ATOM      8  O   LIG d   1       2.416   0.833  -9.524  0.00  0.00    -0.374 OA
ATOM      9  C   LIG d   1       3.658   0.286  -9.975  0.00  0.00     0.068 C 
ATOM     10  C   LIG d   1       4.194  -0.690  -8.922  0.00  0.00     0.017 C 
ATOM     11  O   LIG d   1       5.358   1.036  -7.659  0.00  0.00    -0.456 OA
ATOM     12  C   LIG d   1       6.541   0.377  -7.543  0.00  0.00     0.323 C 
ATOM     13  O   LIG d   1       7.556   0.584  -8.167  0.00  0.00    -0.250 OA
ATOM     14  H   LIG d   1       2.262  -0.118  -7.011  0.00  0.00     0.033 H 
ATOM     15  H   LIG d   1       3.134   1.249  -6.273  0.00  0.00     0.033 H 
ATOM     16  H   LIG d   1       1.534   1.988  -8.056  0.00  0.00     0.056 H 
ATOM     17  H   LIG d   1       3.222   2.402  -8.446  0.00  0.00     0.056 H 
ATOM     18  H   LIG d   1       5.170  -1.062  -9.234  0.00  0.00     0.033 H 
ATOM     19  H   LIG d   1       3.502  -1.525  -8.814  0.00  0.00     0.033 H 
ENDROOT
BRANCH   3  20
ATOM     20  C   LIG d   1       4.181  -0.613  -5.164  0.00  0.00     0.315 C 
ATOM     21  O   LIG d   1       3.972   0.538  -4.863  0.00  0.00    -0.250 OA
BRANCH  20  22
ATOM     22  O   LIG d   1       3.856  -1.600  -4.315  0.00  0.00    -0.465 OA
BRANCH  22  23
ATOM     23  C   LIG d   1       3.311  -1.214  -3.051  0.00  0.00     0.090 C 
ATOM     24  H   LIG d   1       3.141  -0.138  -3.042  0.00  0.00     0.069 H 
ATOM     25  H   LIG d   1       2.366  -1.732  -2.889  0.00  0.00     0.069 H 
BRANCH  23  26
ATOM     26  C   LIG d   1       4.293  -1.585  -1.937  0.00  0.00    -0.031 C 
ATOM     27  H   LIG d   1       3.743  -1.765  -1.013  0.00  0.00     0.026 H 
ATOM     28  H   LIG d   1       4.837  -2.487  -2.219  0.00  0.00     0.026 H 
ATOM     29  H   LIG d   1       4.998  -0.767  -1.787  0.00  0.00     0.026 H 
ENDBRANCH  23  26
ENDBRANCH  22  23
ENDBRANCH  20  22
ENDBRANCH   3  20
BRANCH   1  30
ATOM     30  C   LIG d   1       6.754  -0.149  -5.118  0.00  0.00     0.322 C 
ATOM     31  O   LIG d   1       6.899   1.040  -4.955  0.00  0.00    -0.250 OA
BRANCH  30  32
ATOM     32  O   LIG d   1       6.967  -0.998  -4.102  0.00  0.00    -0.464 OA
BRANCH  32  33
ATOM     33  C   LIG d   1       7.805  -2.126  -4.363  0.00  0.00     0.090 C 
ATOM     34  H   LIG d   1       8.561  -2.205  -3.583  0.00  0.00     0.069 H 
ATOM     35  H   LIG d   1       8.293  -1.999  -5.330  0.00  0.00     0.069 H 
BRANCH  33  36
ATOM     36  C   LIG d   1       6.956  -3.398  -4.383  0.00  0.00    -0.031 C 
ATOM     37  H   LIG d   1       6.405  -3.452  -5.322  0.00  0.00     0.026 H 
ATOM     38  H   LIG d   1       7.605  -4.270  -4.293  0.00  0.00     0.026 H 
ATOM     39  H   LIG d   1       6.254  -3.380  -3.550  0.00  0.00     0.026 H 
ENDBRANCH  33  36
ENDBRANCH  32  33
ENDBRANCH  30  32
ENDBRANCH   1  30
BRANCH   9  40
ATOM     40  C   LIG d   1       4.668   1.415 -10.187  0.00  0.00    -0.036 C 
ATOM     41  H   LIG d   1       4.673   2.066  -9.312  0.00  0.00     0.026 H 
ATOM     42  H   LIG d   1       5.661   0.991 -10.332  0.00  0.00     0.026 H 
ATOM     43  H   LIG d   1       4.387   1.993 -11.068  0.00  0.00     0.026 H 
ENDBRANCH   9  40
BRANCH   9  44
ATOM     44  C   LIG d   1       3.438  -0.458 -11.295  0.00  0.00    -0.036 C 
ATOM     45  H   LIG d   1       4.289  -1.112 -11.489  0.00  0.00     0.026 H 
ATOM     46  H   LIG d   1       2.529  -1.055 -11.227  0.00  0.00     0.026 H 
ATOM     47  H   LIG d   1       3.340   0.262 -12.106  0.00  0.00     0.026 H 
ENDBRANCH   9  44
TORSDOF 10
ENDMDL
MODEL 6
REMARK VINA RESULT:      -4.9      2.769      5.148
REMARK  10 active torsions:
REMARK  status: ('A' for Active; 'I' for Inactive)
REMARK    1  A    between atoms: C_1  and  C_2 
REMARK    2  A    between atoms: C_2  and  O_3 
REMARK    3  A    between atoms: O_3  and  C_4 
REMARK    4  A    between atoms: C_4  and  C_6 
REMARK    5  A    between atoms: C_8  and  C_21 
REMARK    6  A    between atoms: C_14  and  C_16 
REMARK    7  A    between atoms: C_14  and  C_17 
REMARK    8  A    between atoms: C_21  and  O_23 
REMARK    9  A    between atoms: O_23  and  C_24 
REMARK   10  A    between atoms: C_24  and  C_25 
ROOT
ATOM      1  C   LIG d   1       5.899  -1.241  -3.749  0.00  0.00     0.169 C 
ATOM      2  H   LIG d   1       5.388  -1.363  -2.794  0.00  0.00     0.054 H 
ATOM      3  C   LIG d   1       4.930  -1.525  -4.923  0.00  0.00     0.119 C 
ATOM      4  H   LIG d   1       3.946  -1.816  -4.554  0.00  0.00     0.047 H 
ATOM      5  C   LIG d   1       5.618  -2.707  -5.637  0.00  0.00     0.132 C 
ATOM      6  C   LIG d   1       5.496  -2.553  -7.148  0.00  0.00     0.012 C 
ATOM      7  C   LIG d   1       6.131  -3.768  -7.832  0.00  0.00     0.052 C 
ATOM      8  O   LIG d   1       5.507  -4.961  -7.352  0.00  0.00    -0.374 OA
ATOM      9  C   LIG d   1       5.662  -5.179  -5.947  0.00  0.00     0.068 C 
ATOM     10  C   LIG d   1       5.005  -4.027  -5.181  0.00  0.00     0.017 C 
ATOM     11  O   LIG d   1       6.994  -2.624  -5.231  0.00  0.00    -0.456 OA
ATOM     12  C   LIG d   1       6.987  -2.291  -3.913  0.00  0.00     0.323 C 
ATOM     13  O   LIG d   1       7.700  -2.736  -3.044  0.00  0.00    -0.250 OA
ATOM     14  H   LIG d   1       4.443  -2.490  -7.424  0.00  0.00     0.033 H 
ATOM     15  H   LIG d   1       6.012  -1.646  -7.465  0.00  0.00     0.033 H 
ATOM     16  H   LIG d   1       5.992  -3.694  -8.910  0.00  0.00     0.056 H 
ATOM     17  H   LIG d   1       7.197  -3.798  -7.603  0.00  0.00     0.056 H 
ATOM     18  H   LIG d   1       5.174  -4.157  -4.111  0.00  0.00     0.033 H 
ATOM     19  H   LIG d   1       3.933  -4.019  -5.382  0.00  0.00     0.033 H 
ENDROOT
BRANCH   3  20
ATOM     20  C   LIG d   1       4.826  -0.330  -5.835  0.00  0.00     0.315 C 
ATOM     21  O   LIG d   1       5.780   0.012  -6.493  0.00  0.00    -0.250 OA
BRANCH  20  22
ATOM     22  O   LIG d   1       3.674   0.355  -5.916  0.00  0.00    -0.465 OA
BRANCH  22  23
ATOM     23  C   LIG d   1       2.853   0.109  -7.059  0.00  0.00     0.090 C 
ATOM     24  H   LIG d   1       3.188  -0.800  -7.558  0.00  0.00     0.069 H 
ATOM     25  H   LIG d   1       1.817  -0.011  -6.744  0.00  0.00     0.069 H 
BRANCH  23  26
ATOM     26  C   LIG d   1       2.958   1.291  -8.026  0.00  0.00    -0.031 C 
ATOM     27  H   LIG d   1       3.983   1.663  -8.034  0.00  0.00     0.026 H 
ATOM     28  H   LIG d   1       2.681   0.965  -9.028  0.00  0.00     0.026 H 
ATOM     29  H   LIG d   1       2.286   2.085  -7.702  0.00  0.00     0.026 H 
ENDBRANCH  23  26
ENDBRANCH  22  23
ENDBRANCH  20  22
ENDBRANCH   3  20
BRANCH   1  30
ATOM     30  C   LIG d   1       6.478   0.146  -3.865  0.00  0.00     0.322 C 
ATOM     31  O   LIG d   1       7.587   0.301  -4.318  0.00  0.00    -0.250 OA
BRANCH  30  32
ATOM     32  O   LIG d   1       5.762   1.208  -3.463  0.00  0.00    -0.464 OA
BRANCH  32  33
ATOM     33  C   LIG d   1       5.047   1.080  -2.231  0.00  0.00     0.090 C 
ATOM     34  H   LIG d   1       5.433   1.801  -1.512  0.00  0.00     0.069 H 
ATOM     35  H   LIG d   1       5.177   0.071  -1.840  0.00  0.00     0.069 H 
BRANCH  33  36
ATOM     36  C   LIG d   1       3.561   1.346  -2.475  0.00  0.00    -0.031 C 
ATOM     37  H   LIG d   1       2.984   0.987  -1.623  0.00  0.00     0.026 H 
ATOM     38  H   LIG d   1       3.398   2.417  -2.598  0.00  0.00     0.026 H 
ATOM     39  H   LIG d   1       3.241   0.824  -3.377  0.00  0.00     0.026 H 
ENDBRANCH  33  36
ENDBRANCH  32  33
ENDBRANCH  30  32
ENDBRANCH   1  30
BRANCH   9  40
ATOM     40  C   LIG d   1       7.150  -5.241  -5.600  0.00  0.00    -0.036 C 
ATOM     41  H   LIG d   1       7.542  -4.228  -5.501  0.00  0.00     0.026 H 
ATOM     42  H   LIG d   1       7.281  -5.776  -4.659  0.00  0.00     0.026 H 
ATOM     43  H   LIG d   1       7.687  -5.763  -6.393  0.00  0.00     0.026 H 
ENDBRANCH   9  40
BRANCH   9  44
ATOM     44  C   LIG d   1       4.990  -6.499  -5.559  0.00  0.00    -0.036 C 
ATOM     45  H   LIG d   1       5.357  -7.297  -6.205  0.00  0.00     0.026 H 
ATOM     46  H   LIG d   1       5.225  -6.733  -4.521  0.00  0.00     0.026 H 
ATOM     47  H   LIG d   1       3.910  -6.405  -5.675  0.00  0.00     0.026 H 
ENDBRANCH   9  44
TORSDOF 10
ENDMDL
MODEL 7
REMARK VINA RESULT:      -4.9      1.638      5.695
REMARK  10 active torsions:
REMARK  status: ('A' for Active; 'I' for Inactive)
REMARK    1  A    between atoms: C_1  and  C_2 
REMARK    2  A    between atoms: C_2  and  O_3 
REMARK    3  A    between atoms: O_3  and  C_4 
REMARK    4  A    between atoms: C_4  and  C_6 
REMARK    5  A    between atoms: C_8  and  C_21 
REMARK    6  A    between atoms: C_14  and  C_16 
REMARK    7  A    between atoms: C_14  and  C_17 
REMARK    8  A    between atoms: C_21  and  O_23 
REMARK    9  A    between atoms: O_23  and  C_24 
REMARK   10  A    between atoms: C_24  and  C_25 
ROOT
ATOM      1  C   LIG d   1       6.028  -0.747  -4.913  0.00  0.00     0.169 C 
ATOM      2  H   LIG d   1       6.383  -1.663  -4.441  0.00  0.00     0.054 H 
ATOM      3  C   LIG d   1       6.067  -0.880  -6.455  0.00  0.00     0.119 C 
ATOM      4  H   LIG d   1       6.469  -1.849  -6.752  0.00  0.00     0.047 H 
ATOM      5  C   LIG d   1       7.029   0.257  -6.857  0.00  0.00     0.132 C 
ATOM      6  C   LIG d   1       6.537   0.940  -8.128  0.00  0.00     0.012 C 
ATOM      7  C   LIG d   1       7.540   2.022  -8.540  0.00  0.00     0.052 C 
ATOM      8  O   LIG d   1       8.832   1.433  -8.703  0.00  0.00    -0.374 OA
ATOM      9  C   LIG d   1       9.362   0.844  -7.512  0.00  0.00     0.068 C 
ATOM     10  C   LIG d   1       8.439  -0.291  -7.055  0.00  0.00     0.017 C 
ATOM     11  O   LIG d   1       6.995   1.171  -5.748  0.00  0.00    -0.456 OA
ATOM     12  C   LIG d   1       6.974   0.408  -4.623  0.00  0.00     0.323 C 
ATOM     13  O   LIG d   1       7.582   0.605  -3.597  0.00  0.00    -0.250 OA
ATOM     14  H   LIG d   1       6.448   0.203  -8.926  0.00  0.00     0.033 H 
ATOM     15  H   LIG d   1       5.565   1.397  -7.942  0.00  0.00     0.033 H 
ATOM     16  H   LIG d   1       7.225   2.471  -9.481  0.00  0.00     0.056 H 
ATOM     17  H   LIG d   1       7.585   2.790  -7.767  0.00  0.00     0.056 H 
ATOM     18  H   LIG d   1       8.806  -0.701  -6.113  0.00  0.00     0.033 H 
ATOM     19  H   LIG d   1       8.422  -1.075  -7.812  0.00  0.00     0.033 H 
ENDROOT
BRANCH   3  20
ATOM     20  C   LIG d   1       4.699  -0.664  -7.049  0.00  0.00     0.315 C 
ATOM     21  O   LIG d   1       4.088  -1.596  -7.513  0.00  0.00    -0.250 OA
BRANCH  20  22
ATOM     22  O   LIG d   1       4.161   0.566  -7.062  0.00  0.00    -0.465 OA
BRANCH  22  23
ATOM     23  C   LIG d   1       2.903   0.716  -7.723  0.00  0.00     0.090 C 
ATOM     24  H   LIG d   1       2.738  -0.133  -8.387  0.00  0.00     0.069 H 
ATOM     25  H   LIG d   1       2.105   0.759  -6.983  0.00  0.00     0.069 H 
BRANCH  23  26
ATOM     26  C   LIG d   1       2.908   2.010  -8.542  0.00  0.00    -0.031 C 
ATOM     27  H   LIG d   1       3.624   1.920  -9.359  0.00  0.00     0.026 H 
ATOM     28  H   LIG d   1       1.912   2.185  -8.948  0.00  0.00     0.026 H 
ATOM     29  H   LIG d   1       3.192   2.844  -7.900  0.00  0.00     0.026 H 
ENDBRANCH  23  26
ENDBRANCH  22  23
ENDBRANCH  20  22
ENDBRANCH   3  20
BRANCH   1  30
ATOM     30  C   LIG d   1       4.632  -0.420  -4.446  0.00  0.00     0.322 C 
ATOM     31  O   LIG d   1       3.805  -1.296  -4.358  0.00  0.00    -0.250 OA
BRANCH  30  32
ATOM     32  O   LIG d   1       4.309   0.844  -4.130  0.00  0.00    -0.464 OA
BRANCH  32  33
ATOM     33  C   LIG d   1       3.596   1.044  -2.907  0.00  0.00     0.090 C 
ATOM     34  H   LIG d   1       2.806   0.298  -2.821  0.00  0.00     0.069 H 
ATOM     35  H   LIG d   1       3.155   2.041  -2.903  0.00  0.00     0.069 H 
BRANCH  33  36
ATOM     36  C   LIG d   1       4.559   0.907  -1.726  0.00  0.00    -0.031 C 
ATOM     37  H   LIG d   1       4.053   1.207  -0.809  0.00  0.00     0.026 H 
ATOM     38  H   LIG d   1       4.883  -0.130  -1.640  0.00  0.00     0.026 H 
ATOM     39  H   LIG d   1       5.427   1.547  -1.889  0.00  0.00     0.026 H 
ENDBRANCH  33  36
ENDBRANCH  32  33
ENDBRANCH  30  32
ENDBRANCH   1  30
BRANCH   9  40
ATOM     40  C   LIG d   1       9.451   1.904  -6.413  0.00  0.00    -0.036 C 
ATOM     41  H   LIG d   1      10.154   1.574  -5.647  0.00  0.00     0.026 H 
ATOM     42  H   LIG d   1       9.794   2.844  -6.843  0.00  0.00     0.026 H 
ATOM     43  H   LIG d   1       8.467   2.047  -5.965  0.00  0.00     0.026 H 
ENDBRANCH   9  40
BRANCH   9  44
ATOM     44  C   LIG d   1      10.757   0.283  -7.797  0.00  0.00    -0.036 C 
ATOM     45  H   LIG d   1      10.786  -0.773  -7.528  0.00  0.00     0.026 H 
ATOM     46  H   LIG d   1      10.983   0.395  -8.857  0.00  0.00     0.026 H 
ATOM     47  H   LIG d   1      11.495   0.828  -7.208  0.00  0.00     0.026 H 
ENDBRANCH   9  44
TORSDOF 10
ENDMDL
MODEL 8
REMARK VINA RESULT:      -4.8      2.914      4.914
REMARK  10 active torsions:
REMARK  status: ('A' for Active; 'I' for Inactive)
REMARK    1  A    between atoms: C_1  and  C_2 
REMARK    2  A    between atoms: C_2  and  O_3 
REMARK    3  A    between atoms: O_3  and  C_4 
REMARK    4  A    between atoms: C_4  and  C_6 
REMARK    5  A    between atoms: C_8  and  C_21 
REMARK    6  A    between atoms: C_14  and  C_16 
REMARK    7  A    between atoms: C_14  and  C_17 
REMARK    8  A    between atoms: C_21  and  O_23 
REMARK    9  A    between atoms: O_23  and  C_24 
REMARK   10  A    between atoms: C_24  and  C_25 
ROOT
ATOM      1  C   LIG d   1       5.552  -2.772  -6.198  0.00  0.00     0.169 C 
ATOM      2  H   LIG d   1       6.594  -2.984  -5.958  0.00  0.00     0.054 H 
ATOM      3  C   LIG d   1       5.360  -1.265  -6.499  0.00  0.00     0.119 C 
ATOM      4  H   LIG d   1       6.297  -0.722  -6.382  0.00  0.00     0.047 H 
ATOM      5  C   LIG d   1       4.343  -0.842  -5.419  0.00  0.00     0.132 C 
ATOM      6  C   LIG d   1       3.332   0.139  -6.000  0.00  0.00     0.012 C 
ATOM      7  C   LIG d   1       2.374   0.591  -4.895  0.00  0.00     0.052 C 
ATOM      8  O   LIG d   1       3.125   1.155  -3.818  0.00  0.00    -0.374 OA
ATOM      9  C   LIG d   1       4.035   0.243  -3.197  0.00  0.00     0.068 C 
ATOM     10  C   LIG d   1       5.068  -0.224  -4.228  0.00  0.00     0.017 C 
ATOM     11  O   LIG d   1       3.694  -2.066  -5.033  0.00  0.00    -0.456 OA
ATOM     12  C   LIG d   1       4.663  -3.018  -4.988  0.00  0.00     0.323 C 
ATOM     13  O   LIG d   1       4.794  -3.886  -4.158  0.00  0.00    -0.250 OA
ATOM     14  H   LIG d   1       3.857   1.006  -6.404  0.00  0.00     0.033 H 
ATOM     15  H   LIG d   1       2.767  -0.348  -6.796  0.00  0.00     0.033 H 
ATOM     16  H   LIG d   1       1.688   1.339  -5.290  0.00  0.00     0.056 H 
ATOM     17  H   LIG d   1       1.807  -0.267  -4.532  0.00  0.00     0.056 H 
ATOM     18  H   LIG d   1       5.725  -0.967  -3.774  0.00  0.00     0.033 H 
ATOM     19  H   LIG d   1       5.658   0.629  -4.564  0.00  0.00     0.033 H 
ENDROOT
BRANCH   3  20
ATOM     20  C   LIG d   1       4.793  -1.062  -7.881  0.00  0.00     0.315 C 
ATOM     21  O   LIG d   1       5.488  -0.606  -8.758  0.00  0.00    -0.250 OA
BRANCH  20  22
ATOM     22  O   LIG d   1       3.516  -1.387  -8.137  0.00  0.00    -0.465 OA
BRANCH  22  23
ATOM     23  C   LIG d   1       3.091  -1.320  -9.499  0.00  0.00     0.090 C 
ATOM     24  H   LIG d   1       3.899  -0.926 -10.114  0.00  0.00     0.069 H 
ATOM     25  H   LIG d   1       2.824  -2.318  -9.847  0.00  0.00     0.069 H 
BRANCH  23  26
ATOM     26  C   LIG d   1       1.872  -0.400  -9.608  0.00  0.00    -0.031 C 
ATOM     27  H   LIG d   1       2.161   0.618  -9.344  0.00  0.00     0.026 H 
ATOM     28  H   LIG d   1       1.495  -0.418 -10.630  0.00  0.00     0.026 H 
ATOM     29  H   LIG d   1       1.094  -0.746  -8.927  0.00  0.00     0.026 H 
ENDBRANCH  23  26
ENDBRANCH  22  23
ENDBRANCH  20  22
ENDBRANCH   3  20
BRANCH   1  30
ATOM     30  C   LIG d   1       5.100  -3.608  -7.368  0.00  0.00     0.322 C 
ATOM     31  O   LIG d   1       5.814  -3.727  -8.336  0.00  0.00    -0.250 OA
BRANCH  30  32
ATOM     32  O   LIG d   1       3.906  -4.219  -7.335  0.00  0.00    -0.464 OA
BRANCH  32  33
ATOM     33  C   LIG d   1       3.872  -5.599  -7.707  0.00  0.00     0.090 C 
ATOM     34  H   LIG d   1       4.441  -5.740  -8.626  0.00  0.00     0.069 H 
ATOM     35  H   LIG d   1       2.839  -5.906  -7.867  0.00  0.00     0.069 H 
BRANCH  33  36
ATOM     36  C   LIG d   1       4.488  -6.443  -6.589  0.00  0.00    -0.031 C 
ATOM     37  H   LIG d   1       4.593  -7.473  -6.929  0.00  0.00     0.026 H 
ATOM     38  H   LIG d   1       5.470  -6.044  -6.332  0.00  0.00     0.026 H 
ATOM     39  H   LIG d   1       3.842  -6.412  -5.712  0.00  0.00     0.026 H 
ENDBRANCH  33  36
ENDBRANCH  32  33
ENDBRANCH  30  32
ENDBRANCH   1  30
BRANCH   9  40
ATOM     40  C   LIG d   1       3.263  -0.966  -2.663  0.00  0.00    -0.036 C 
ATOM     41  H   LIG d   1       3.910  -1.549  -2.007  0.00  0.00     0.026 H 
ATOM     42  H   LIG d   1       2.392  -0.623  -2.106  0.00  0.00     0.026 H 
ATOM     43  H   LIG d   1       2.939  -1.587  -3.499  0.00  0.00     0.026 H 
ENDBRANCH   9  40
BRANCH   9  44
ATOM     44  C   LIG d   1       4.750   0.944  -2.039  0.00  0.00    -0.036 C 
ATOM     45  H   LIG d   1       5.710   1.328  -2.386  0.00  0.00     0.026 H 
ATOM     46  H   LIG d   1       4.136   1.769  -1.680  0.00  0.00     0.026 H 
ATOM     47  H   LIG d   1       4.914   0.233  -1.230  0.00  0.00     0.026 H 
ENDBRANCH   9  44
TORSDOF 10
ENDMDL
MODEL 9
REMARK VINA RESULT:      -4.7      2.819      6.090
REMARK  10 active torsions:
REMARK  status: ('A' for Active; 'I' for Inactive)
REMARK    1  A    between atoms: C_1  and  C_2 
REMARK    2  A    between atoms: C_2  and  O_3 
REMARK    3  A    between atoms: O_3  and  C_4 
REMARK    4  A    between atoms: C_4  and  C_6 
REMARK    5  A    between atoms: C_8  and  C_21 
REMARK    6  A    between atoms: C_14  and  C_16 
REMARK    7  A    between atoms: C_14  and  C_17 
REMARK    8  A    between atoms: C_21  and  O_23 
REMARK    9  A    between atoms: O_23  and  C_24 
REMARK   10  A    between atoms: C_24  and  C_25 
ROOT
ATOM      1  C   LIG d   1       4.587  -0.224  -5.348  0.00  0.00     0.169 C 
ATOM      2  H   LIG d   1       5.167   0.659  -5.078  0.00  0.00     0.054 H 
ATOM      3  C   LIG d   1       5.326  -1.052  -6.426  0.00  0.00     0.119 C 
ATOM      4  H   LIG d   1       6.260  -0.569  -6.716  0.00  0.00     0.047 H 
ATOM      5  C   LIG d   1       4.319  -1.041  -7.595  0.00  0.00     0.132 C 
ATOM      6  C   LIG d   1       4.292  -2.401  -8.282  0.00  0.00     0.012 C 
ATOM      7  C   LIG d   1       3.333  -2.346  -9.474  0.00  0.00     0.052 C 
ATOM      8  O   LIG d   1       3.735  -1.297 -10.357  0.00  0.00    -0.374 OA
ATOM      9  C   LIG d   1       3.703   0.007  -9.771  0.00  0.00     0.068 C 
ATOM     10  C   LIG d   1       4.680   0.056  -8.591  0.00  0.00     0.017 C 
ATOM     11  O   LIG d   1       3.050  -0.763  -6.978  0.00  0.00    -0.456 OA
ATOM     12  C   LIG d   1       3.285   0.177  -6.024  0.00  0.00     0.323 C 
ATOM     13  O   LIG d   1       2.600   1.138  -5.764  0.00  0.00    -0.250 OA
ATOM     14  H   LIG d   1       5.294  -2.652  -8.632  0.00  0.00     0.033 H 
ATOM     15  H   LIG d   1       3.953  -3.159  -7.575  0.00  0.00     0.033 H 
ATOM     16  H   LIG d   1       3.357  -3.297 -10.006  0.00  0.00     0.056 H 
ATOM     17  H   LIG d   1       2.320  -2.153  -9.118  0.00  0.00     0.056 H 
ATOM     18  H   LIG d   1       4.613   1.029  -8.103  0.00  0.00     0.033 H 
ATOM     19  H   LIG d   1       5.696  -0.101  -8.953  0.00  0.00     0.033 H 
ENDROOT
BRANCH   3  20
ATOM     20  C   LIG d   1       5.578  -2.458  -5.945  0.00  0.00     0.315 C 
ATOM     21  O   LIG d   1       6.691  -2.794  -5.619  0.00  0.00    -0.250 OA
BRANCH  20  22
ATOM     22  O   LIG d   1       4.565  -3.336  -5.881  0.00  0.00    -0.465 OA
BRANCH  22  23
ATOM     23  C   LIG d   1       4.858  -4.624  -5.337  0.00  0.00     0.090 C 
ATOM     24  H   LIG d   1       5.937  -4.737  -5.229  0.00  0.00     0.069 H 
ATOM     25  H   LIG d   1       4.384  -4.725  -4.361  0.00  0.00     0.069 H 
BRANCH  23  26
ATOM     26  C   LIG d   1       4.324  -5.708  -6.277  0.00  0.00    -0.031 C 
ATOM     27  H   LIG d   1       5.058  -6.510  -6.360  0.00  0.00     0.026 H 
ATOM     28  H   LIG d   1       3.392  -6.107  -5.877  0.00  0.00     0.026 H 
ATOM     29  H   LIG d   1       4.142  -5.277  -7.261  0.00  0.00     0.026 H 
ENDBRANCH  23  26
ENDBRANCH  22  23
ENDBRANCH  20  22
ENDBRANCH   3  20
BRANCH   1  30
ATOM     30  C   LIG d   1       4.313  -1.067  -4.128  0.00  0.00     0.322 C 
ATOM     31  O   LIG d   1       3.280  -1.689  -4.044  0.00  0.00    -0.250 OA
BRANCH  30  32
ATOM     32  O   LIG d   1       5.215  -1.125  -3.137  0.00  0.00    -0.464 OA
BRANCH  32  33
ATOM     33  C   LIG d   1       5.689   0.119  -2.616  0.00  0.00     0.090 C 
ATOM     34  H   LIG d   1       5.943   0.784  -3.441  0.00  0.00     0.069 H 
ATOM     35  H   LIG d   1       6.573  -0.057  -2.004  0.00  0.00     0.069 H 
BRANCH  33  36
ATOM     36  C   LIG d   1       4.596   0.762  -1.760  0.00  0.00    -0.031 C 
ATOM     37  H   LIG d   1       4.768   0.520  -0.711  0.00  0.00     0.026 H 
ATOM     38  H   LIG d   1       4.620   1.844  -1.891  0.00  0.00     0.026 H 
ATOM     39  H   LIG d   1       3.622   0.381  -2.066  0.00  0.00     0.026 H 
ENDBRANCH  33  36
ENDBRANCH  32  33
ENDBRANCH  30  32
ENDBRANCH   1  30
BRANCH   9  40
ATOM     40  C   LIG d   1       2.288   0.311  -9.275  0.00  0.00    -0.036 C 
ATOM     41  H   LIG d   1       1.681  -0.593  -9.336  0.00  0.00     0.026 H 
ATOM     42  H   LIG d   1       2.331   0.652  -8.241  0.00  0.00     0.026 H 
ATOM     43  H   LIG d   1       1.845   1.089  -9.897  0.00  0.00     0.026 H 
ENDBRANCH   9  40
BRANCH   9  44
ATOM     44  C   LIG d   1       4.113   1.047 -10.816  0.00  0.00    -0.036 C 
ATOM     45  H   LIG d   1       5.193   1.194 -10.777  0.00  0.00     0.026 H 
ATOM     46  H   LIG d   1       3.829   0.697 -11.808  0.00  0.00     0.026 H 
ATOM     47  H   LIG d   1       3.610   1.991 -10.606  0.00  0.00     0.026 H 
ENDBRANCH   9  44
TORSDOF 10
ENDMDL
MODEL 10
REMARK VINA RESULT:      -4.6      2.505      4.115
REMARK  10 active torsions:
REMARK  status: ('A' for Active; 'I' for Inactive)
REMARK    1  A    between atoms: C_1  and  C_2 
REMARK    2  A    between atoms: C_2  and  O_3 
REMARK    3  A    between atoms: O_3  and  C_4 
REMARK    4  A    between atoms: C_4  and  C_6 
REMARK    5  A    between atoms: C_8  and  C_21 
REMARK    6  A    between atoms: C_14  and  C_16 
REMARK    7  A    between atoms: C_14  and  C_17 
REMARK    8  A    between atoms: C_21  and  O_23 
REMARK    9  A    between atoms: O_23  and  C_24 
REMARK   10  A    between atoms: C_24  and  C_25 
ROOT
ATOM      1  C   LIG d   1       3.010  -0.043  -7.157  0.00  0.00     0.169 C 
ATOM      2  H   LIG d   1       1.971  -0.359  -7.249  0.00  0.00     0.054 H 
ATOM      3  C   LIG d   1       3.940  -1.270  -7.001  0.00  0.00     0.119 C 
ATOM      4  H   LIG d   1       3.364  -2.196  -6.985  0.00  0.00     0.047 H 
ATOM      5  C   LIG d   1       4.596  -1.012  -5.629  0.00  0.00     0.132 C 
ATOM      6  C   LIG d   1       6.068  -1.407  -5.665  0.00  0.00     0.012 C 
ATOM      7  C   LIG d   1       6.680  -1.199  -4.276  0.00  0.00     0.052 C 
ATOM      8  O   LIG d   1       5.937  -1.950  -3.314  0.00  0.00    -0.374 OA
ATOM      9  C   LIG d   1       4.566  -1.559  -3.197  0.00  0.00     0.068 C 
ATOM     10  C   LIG d   1       3.860  -1.784  -4.539  0.00  0.00     0.017 C 
ATOM     11  O   LIG d   1       4.460   0.405  -5.423  0.00  0.00    -0.456 OA
ATOM     12  C   LIG d   1       3.220   0.740  -5.870  0.00  0.00     0.323 C 
ATOM     13  O   LIG d   1       2.441   1.505  -5.352  0.00  0.00    -0.250 OA
ATOM     14  H   LIG d   1       6.156  -2.456  -5.948  0.00  0.00     0.033 H 
ATOM     15  H   LIG d   1       6.594  -0.787  -6.391  0.00  0.00     0.033 H 
ATOM     16  H   LIG d   1       7.715  -1.539  -4.280  0.00  0.00     0.056 H 
ATOM     17  H   LIG d   1       6.645  -0.140  -4.017  0.00  0.00     0.056 H 
ATOM     18  H   LIG d   1       2.831  -1.429  -4.472  0.00  0.00     0.033 H 
ATOM     19  H   LIG d   1       3.865  -2.847  -4.780  0.00  0.00     0.033 H 
ENDROOT
BRANCH   3  20
ATOM     20  C   LIG d   1       4.975  -1.303  -8.096  0.00  0.00     0.315 C 
ATOM     21  O   LIG d   1       5.879  -0.502  -8.097  0.00  0.00    -0.250 OA
BRANCH  20  22
ATOM     22  O   LIG d   1       4.891  -2.222  -9.071  0.00  0.00    -0.465 OA
BRANCH  22  23
ATOM     23  C   LIG d   1       3.759  -3.094  -9.042  0.00  0.00     0.090 C 
ATOM     24  H   LIG d   1       3.045  -2.740  -8.299  0.00  0.00     0.069 H 
ATOM     25  H   LIG d   1       3.285  -3.108 -10.023  0.00  0.00     0.069 H 
BRANCH  23  26
ATOM     26  C   LIG d   1       4.215  -4.510  -8.677  0.00  0.00    -0.031 C 
ATOM     27  H   LIG d   1       4.495  -4.540  -7.624  0.00  0.00     0.026 H 
ATOM     28  H   LIG d   1       3.400  -5.210  -8.858  0.00  0.00     0.026 H 
ATOM     29  H   LIG d   1       5.073  -4.784  -9.291  0.00  0.00     0.026 H 
ENDBRANCH  23  26
ENDBRANCH  22  23
ENDBRANCH  20  22
ENDBRANCH   3  20
BRANCH   1  30
ATOM     30  C   LIG d   1       3.418   0.782  -8.352  0.00  0.00     0.322 C 
ATOM     31  O   LIG d   1       4.069   1.788  -8.197  0.00  0.00    -0.250 OA
BRANCH  30  32
ATOM     32  O   LIG d   1       3.057   0.399  -9.586  0.00  0.00    -0.464 OA
BRANCH  32  33
ATOM     33  C   LIG d   1       3.691   1.061 -10.682  0.00  0.00     0.090 C 
ATOM     34  H   LIG d   1       4.591   1.564 -10.330  0.00  0.00     0.069 H 
ATOM     35  H   LIG d   1       3.007   1.795 -11.108  0.00  0.00     0.069 H 
BRANCH  33  36
ATOM     36  C   LIG d   1       4.065   0.032 -11.751  0.00  0.00    -0.031 C 
ATOM     37  H   LIG d   1       5.062  -0.359 -11.545  0.00  0.00     0.026 H 
ATOM     38  H   LIG d   1       3.344  -0.785 -11.737  0.00  0.00     0.026 H 
ATOM     39  H   LIG d   1       4.057   0.508 -12.732  0.00  0.00     0.026 H 
ENDBRANCH  33  36
ENDBRANCH  32  33
ENDBRANCH  30  32
ENDBRANCH   1  30
BRANCH   9  40
ATOM     40  C   LIG d   1       4.486  -0.079  -2.819  0.00  0.00    -0.036 C 
ATOM     41  H   LIG d   1       3.450   0.255  -2.878  0.00  0.00     0.026 H 
ATOM     42  H   LIG d   1       4.856   0.057  -1.804  0.00  0.00     0.026 H 
ATOM     43  H   LIG d   1       5.096   0.506  -3.509  0.00  0.00     0.026 H 
ENDBRANCH   9  40
BRANCH   9  44
ATOM     44  C   LIG d   1       3.885  -2.401  -2.116  0.00  0.00    -0.036 C 
ATOM     45  H   LIG d   1       4.435  -3.333  -1.981  0.00  0.00     0.026 H 
ATOM     46  H   LIG d   1       3.874  -1.846  -1.178  0.00  0.00     0.026 H 
ATOM     47  H   LIG d   1       2.862  -2.623  -2.419  0.00  0.00     0.026 H 
ENDBRANCH   9  44
TORSDOF 10
ENDMDL
