MODEL 1
REMARK VINA RESULT:      -6.4      0.000      0.000
REMARK  12 active torsions:
REMARK  status: ('A' for Active; 'I' for Inactive)
REMARK    1  A    between atoms: C_1  and  C_2 
REMARK    2  A    between atoms: C_2  and  C_3 
REMARK    3  A    between atoms: C_3  and  C_4 
REMARK    4  A    between atoms: C_4  and  C_5 
REMARK    5  A    between atoms: C_5  and  C_6 
REMARK    6  A    between atoms: C_6  and  C_7 
REMARK    7  A    between atoms: C_6  and  C_8 
REMARK    8  A    between atoms: C_6  and  O_9 
REMARK    9  A    between atoms: O_9  and  C_10 
REMARK   10  A    between atoms: C_10  and  C_12 
REMARK   11  A    between atoms: C_12  and  C_13 
REMARK   12  A    between atoms: C_12  and  C_17 
ROOT
ATOM      1  C   LIG d   1       4.656  -0.672  -6.810  0.00  0.00     0.108 C 
ENDROOT
BRANCH   1   2
ATOM      2  C   LIG d   1       3.270  -0.393  -7.395  0.00  0.00    -0.013 C 
ATOM      3  H   LIG d   1       2.929   0.590  -7.070  0.00  0.00     0.030 H 
ATOM      4  H   LIG d   1       2.569  -1.153  -7.049  0.00  0.00     0.030 H 
BRANCH   2   5
ATOM      5  C   LIG d   1       3.345  -0.427  -8.923  0.00  0.00    -0.050 C 
ATOM      6  H   LIG d   1       2.920  -1.363  -9.287  0.00  0.00     0.027 H 
ATOM      7  H   LIG d   1       4.387  -0.355  -9.237  0.00  0.00     0.027 H 
BRANCH   5   8
ATOM      8  C   LIG d   1       2.556   0.750  -9.499  0.00  0.00    -0.053 C 
ATOM      9  H   LIG d   1       1.490   0.531  -9.454  0.00  0.00     0.026 H 
ATOM     10  H   LIG d   1       2.851   0.911 -10.537  0.00  0.00     0.026 H 
BRANCH   8  11
ATOM     11  C   LIG d   1       2.854   2.010  -8.684  0.00  0.00    -0.056 C 
ATOM     12  H   LIG d   1       3.073   1.733  -7.653  0.00  0.00     0.026 H 
ATOM     13  H   LIG d   1       1.987   2.670  -8.706  0.00  0.00     0.026 H 
BRANCH  11  14
ATOM     14  C   LIG d   1       4.060   2.734  -9.286  0.00  0.00    -0.065 C 
ATOM     15  H   LIG d   1       4.979   2.294  -8.896  0.00  0.00     0.023 H 
ATOM     16  H   LIG d   1       4.041   2.633 -10.371  0.00  0.00     0.023 H 
ATOM     17  H   LIG d   1       4.021   3.789  -9.018  0.00  0.00     0.023 H 
ENDBRANCH  11  14
ENDBRANCH   8  11
ENDBRANCH   5   8
ENDBRANCH   2   5
ENDBRANCH   1   2
BRANCH   1  18
ATOM     18  C   LIG d   1       4.757  -2.149  -6.422  0.00  0.00    -0.025 C 
ATOM     19  H   LIG d   1       5.546  -2.277  -5.682  0.00  0.00     0.027 H 
ATOM     20  H   LIG d   1       3.807  -2.480  -6.003  0.00  0.00     0.027 H 
ATOM     21  H   LIG d   1       4.990  -2.742  -7.306  0.00  0.00     0.027 H 
ENDBRANCH   1  18
BRANCH   1  22
ATOM     22  C   LIG d   1       5.726  -0.344  -7.852  0.00  0.00    -0.025 C 
ATOM     23  H   LIG d   1       6.506  -1.106  -7.826  0.00  0.00     0.027 H 
ATOM     24  H   LIG d   1       5.272  -0.323  -8.844  0.00  0.00     0.027 H 
ATOM     25  H   LIG d   1       6.161   0.630  -7.633  0.00  0.00     0.027 H 
ENDBRANCH   1  22
BRANCH   1  26
ATOM     26  O   LIG d   1       4.855   0.139  -5.650  0.00  0.00    -0.457 OA
BRANCH  26  27
ATOM     27  C   LIG d   1       4.040  -0.079  -4.607  0.00  0.00     0.343 C 
ATOM     28  O   LIG d   1       2.843  -0.096  -4.769  0.00  0.00    -0.249 OA
BRANCH  27  29
ATOM     29  C   LIG d   1       4.618  -0.305  -3.233  0.00  0.00     0.309 C 
ATOM     30 BR   LIG d   1       6.511  -0.812  -3.393  0.00  0.00    -0.054 Br
BRANCH  29  31
ATOM     31  C   LIG d   1       4.502   0.982  -2.414  0.00  0.00     0.424 C 
ATOM     32  F   LIG d   1       3.230   1.537  -2.596  0.00  0.00    -0.168 F 
ATOM     33  F   LIG d   1       4.694   0.691  -1.059  0.00  0.00    -0.168 F 
ATOM     34  F   LIG d   1       5.474   1.894  -2.838  0.00  0.00    -0.168 F 
ENDBRANCH  29  31
BRANCH  29  35
ATOM     35  C   LIG d   1       3.847  -1.427  -2.534  0.00  0.00     0.424 C 
ATOM     36  F   LIG d   1       2.517  -1.033  -2.347  0.00  0.00    -0.168 F 
ATOM     37  F   LIG d   1       3.884  -2.580  -3.324  0.00  0.00    -0.168 F 
ATOM     38  F   LIG d   1       4.433  -1.692  -1.292  0.00  0.00    -0.168 F 
ENDBRANCH  29  35
ENDBRANCH  27  29
ENDBRANCH  26  27
ENDBRANCH   1  26
TORSDOF 12
ENDMDL
MODEL 2
REMARK VINA RESULT:      -6.2      0.728      1.794
REMARK  12 active torsions:
REMARK  status: ('A' for Active; 'I' for Inactive)
REMARK    1  A    between atoms: C_1  and  C_2 
REMARK    2  A    between atoms: C_2  and  C_3 
REMARK    3  A    between atoms: C_3  and  C_4 
REMARK    4  A    between atoms: C_4  and  C_5 
REMARK    5  A    between atoms: C_5  and  C_6 
REMARK    6  A    between atoms: C_6  and  C_7 
REMARK    7  A    between atoms: C_6  and  C_8 
REMARK    8  A    between atoms: C_6  and  O_9 
REMARK    9  A    between atoms: O_9  and  C_10 
REMARK   10  A    between atoms: C_10  and  C_12 
REMARK   11  A    between atoms: C_12  and  C_13 
REMARK   12  A    between atoms: C_12  and  C_17 
ROOT
ATOM      1  C   LIG d   1       4.607  -0.586  -6.755  0.00  0.00     0.108 C 
ENDROOT
BRANCH   1   2
ATOM      2  C   LIG d   1       3.219  -0.329  -7.343  0.00  0.00    -0.013 C 
ATOM      3  H   LIG d   1       2.490  -0.255  -6.537  0.00  0.00     0.030 H 
ATOM      4  H   LIG d   1       2.946  -1.152  -8.004  0.00  0.00     0.030 H 
BRANCH   2   5
ATOM      5  C   LIG d   1       3.235   0.979  -8.138  0.00  0.00    -0.050 C 
ATOM      6  H   LIG d   1       4.266   1.285  -8.312  0.00  0.00     0.027 H 
ATOM      7  H   LIG d   1       2.715   1.753  -7.573  0.00  0.00     0.027 H 
BRANCH   5   8
ATOM      8  C   LIG d   1       2.532   0.768  -9.481  0.00  0.00    -0.053 C 
ATOM      9  H   LIG d   1       3.266   0.806 -10.286  0.00  0.00     0.026 H 
ATOM     10  H   LIG d   1       1.789   1.552  -9.629  0.00  0.00     0.026 H 
BRANCH   8  11
ATOM     11  C   LIG d   1       1.840  -0.596  -9.486  0.00  0.00    -0.056 C 
ATOM     12  H   LIG d   1       1.008  -0.585  -8.782  0.00  0.00     0.026 H 
ATOM     13  H   LIG d   1       2.553  -1.366  -9.192  0.00  0.00     0.026 H 
BRANCH  11  14
ATOM     14  C   LIG d   1       1.316  -0.897 -10.892  0.00  0.00    -0.065 C 
ATOM     15  H   LIG d   1       2.052  -0.576 -11.629  0.00  0.00     0.023 H 
ATOM     16  H   LIG d   1       1.143  -1.968 -10.993  0.00  0.00     0.023 H 
ATOM     17  H   LIG d   1       0.382  -0.360 -11.053  0.00  0.00     0.023 H 
ENDBRANCH  11  14
ENDBRANCH   8  11
ENDBRANCH   5   8
ENDBRANCH   2   5
ENDBRANCH   1   2
BRANCH   1  18
ATOM     18  C   LIG d   1       4.744  -2.068  -6.398  0.00  0.00    -0.025 C 
ATOM     19  H   LIG d   1       4.198  -2.272  -5.478  0.00  0.00     0.027 H 
ATOM     20  H   LIG d   1       4.334  -2.674  -7.207  0.00  0.00     0.027 H 
ATOM     21  H   LIG d   1       5.796  -2.313  -6.258  0.00  0.00     0.027 H 
ENDBRANCH   1  18
BRANCH   1  22
ATOM     22  C   LIG d   1       5.675  -0.208  -7.783  0.00  0.00    -0.025 C 
ATOM     23  H   LIG d   1       6.617  -0.008  -7.271  0.00  0.00     0.027 H 
ATOM     24  H   LIG d   1       5.810  -1.031  -8.485  0.00  0.00     0.027 H 
ATOM     25  H   LIG d   1       5.359   0.683  -8.324  0.00  0.00     0.027 H 
ENDBRANCH   1  22
BRANCH   1  26
ATOM     26  O   LIG d   1       4.779   0.205  -5.576  0.00  0.00    -0.457 OA
BRANCH  26  27
ATOM     27  C   LIG d   1       3.976  -0.070  -4.537  0.00  0.00     0.343 C 
ATOM     28  O   LIG d   1       2.780  -0.128  -4.696  0.00  0.00    -0.249 OA
BRANCH  27  29
ATOM     29  C   LIG d   1       4.567  -0.308  -3.170  0.00  0.00     0.309 C 
ATOM     30 BR   LIG d   1       6.498  -0.634  -3.340  0.00  0.00    -0.054 Br
BRANCH  29  31
ATOM     31  C   LIG d   1       4.333   0.923  -2.293  0.00  0.00     0.424 C 
ATOM     32  F   LIG d   1       4.887   0.705  -1.026  0.00  0.00    -0.168 F 
ATOM     33  F   LIG d   1       4.941   2.037  -2.881  0.00  0.00    -0.168 F 
ATOM     34  F   LIG d   1       2.959   1.153  -2.168  0.00  0.00    -0.168 F 
ENDBRANCH  29  31
BRANCH  29  35
ATOM     35  C   LIG d   1       3.897  -1.526  -2.531  0.00  0.00     0.424 C 
ATOM     36  F   LIG d   1       4.415  -1.722  -1.246  0.00  0.00    -0.168 F 
ATOM     37  F   LIG d   1       2.518  -1.309  -2.448  0.00  0.00    -0.168 F 
ATOM     38  F   LIG d   1       4.146  -2.659  -3.312  0.00  0.00    -0.168 F 
ENDBRANCH  29  35
ENDBRANCH  27  29
ENDBRANCH  26  27
ENDBRANCH   1  26
TORSDOF 12
ENDMDL
MODEL 3
REMARK VINA RESULT:      -6.0      1.268      2.514
REMARK  12 active torsions:
REMARK  status: ('A' for Active; 'I' for Inactive)
REMARK    1  A    between atoms: C_1  and  C_2 
REMARK    2  A    between atoms: C_2  and  C_3 
REMARK    3  A    between atoms: C_3  and  C_4 
REMARK    4  A    between atoms: C_4  and  C_5 
REMARK    5  A    between atoms: C_5  and  C_6 
REMARK    6  A    between atoms: C_6  and  C_7 
REMARK    7  A    between atoms: C_6  and  C_8 
REMARK    8  A    between atoms: C_6  and  O_9 
REMARK    9  A    between atoms: O_9  and  C_10 
REMARK   10  A    between atoms: C_10  and  C_12 
REMARK   11  A    between atoms: C_12  and  C_13 
REMARK   12  A    between atoms: C_12  and  C_17 
ROOT
ATOM      1  C   LIG d   1       4.765  -0.893  -6.948  0.00  0.00     0.108 C 
ENDROOT
BRANCH   1   2
ATOM      2  C   LIG d   1       3.619  -1.169  -7.924  0.00  0.00    -0.013 C 
ATOM      3  H   LIG d   1       3.200  -2.155  -7.724  0.00  0.00     0.030 H 
ATOM      4  H   LIG d   1       3.996  -1.135  -8.946  0.00  0.00     0.030 H 
BRANCH   2   5
ATOM      5  C   LIG d   1       2.531  -0.107  -7.746  0.00  0.00    -0.050 C 
ATOM      6  H   LIG d   1       2.737   0.478  -6.850  0.00  0.00     0.027 H 
ATOM      7  H   LIG d   1       1.561  -0.596  -7.647  0.00  0.00     0.027 H 
BRANCH   5   8
ATOM      8  C   LIG d   1       2.515   0.816  -8.967  0.00  0.00    -0.053 C 
ATOM      9  H   LIG d   1       1.517   0.822  -9.404  0.00  0.00     0.026 H 
ATOM     10  H   LIG d   1       3.234   0.456  -9.703  0.00  0.00     0.026 H 
BRANCH   8  11
ATOM     11  C   LIG d   1       2.893   2.235  -8.537  0.00  0.00    -0.056 C 
ATOM     12  H   LIG d   1       3.115   2.245  -7.470  0.00  0.00     0.026 H 
ATOM     13  H   LIG d   1       2.063   2.910  -8.742  0.00  0.00     0.026 H 
BRANCH  11  14
ATOM     14  C   LIG d   1       4.127   2.692  -9.319  0.00  0.00    -0.065 C 
ATOM     15  H   LIG d   1       3.858   3.529  -9.964  0.00  0.00     0.023 H 
ATOM     16  H   LIG d   1       4.904   3.004  -8.622  0.00  0.00     0.023 H 
ATOM     17  H   LIG d   1       4.495   1.867  -9.929  0.00  0.00     0.023 H 
ENDBRANCH  11  14
ENDBRANCH   8  11
ENDBRANCH   5   8
ENDBRANCH   2   5
ENDBRANCH   1   2
BRANCH   1  18
ATOM     18  C   LIG d   1       5.289  -2.219  -6.390  0.00  0.00    -0.025 C 
ATOM     19  H   LIG d   1       4.675  -3.038  -6.764  0.00  0.00     0.027 H 
ATOM     20  H   LIG d   1       6.322  -2.363  -6.708  0.00  0.00     0.027 H 
ATOM     21  H   LIG d   1       5.244  -2.198  -5.301  0.00  0.00     0.027 H 
ENDBRANCH   1  18
BRANCH   1  22
ATOM     22  C   LIG d   1       5.894  -0.166  -7.679  0.00  0.00    -0.025 C 
ATOM     23  H   LIG d   1       6.294  -0.811  -8.463  0.00  0.00     0.027 H 
ATOM     24  H   LIG d   1       5.506   0.750  -8.126  0.00  0.00     0.027 H 
ATOM     25  H   LIG d   1       6.685   0.082  -6.973  0.00  0.00     0.027 H 
ENDBRANCH   1  22
BRANCH   1  26
ATOM     26  O   LIG d   1       4.290  -0.079  -5.873  0.00  0.00    -0.457 OA
BRANCH  26  27
ATOM     27  C   LIG d   1       5.071   0.011  -4.786  0.00  0.00     0.343 C 
ATOM     28  O   LIG d   1       6.254   0.223  -4.908  0.00  0.00    -0.249 OA
BRANCH  27  29
ATOM     29  C   LIG d   1       4.472  -0.152  -3.412  0.00  0.00     0.309 C 
ATOM     30 BR   LIG d   1       2.551  -0.536  -3.576  0.00  0.00    -0.054 Br
BRANCH  29  31
ATOM     31  C   LIG d   1       5.164  -1.310  -2.690  0.00  0.00     0.424 C 
ATOM     32  F   LIG d   1       4.541  -1.527  -1.455  0.00  0.00    -0.168 F 
ATOM     33  F   LIG d   1       5.071  -2.468  -3.469  0.00  0.00    -0.168 F 
ATOM     34  F   LIG d   1       6.511  -0.993  -2.483  0.00  0.00    -0.168 F 
ENDBRANCH  29  31
BRANCH  29  35
ATOM     35  C   LIG d   1       4.669   1.138  -2.614  0.00  0.00     0.424 C 
ATOM     36  F   LIG d   1       4.433   0.889  -1.258  0.00  0.00    -0.168 F 
ATOM     37  F   LIG d   1       5.980   1.595  -2.782  0.00  0.00    -0.168 F 
ATOM     38  F   LIG d   1       3.774   2.110  -3.072  0.00  0.00    -0.168 F 
ENDBRANCH  29  35
ENDBRANCH  27  29
ENDBRANCH  26  27
ENDBRANCH   1  26
TORSDOF 12
ENDMDL
MODEL 4
REMARK VINA RESULT:      -5.7      1.280      3.598
REMARK  12 active torsions:
REMARK  status: ('A' for Active; 'I' for Inactive)
REMARK    1  A    between atoms: C_1  and  C_2 
REMARK    2  A    between atoms: C_2  and  C_3 
REMARK    3  A    between atoms: C_3  and  C_4 
REMARK    4  A    between atoms: C_4  and  C_5 
REMARK    5  A    between atoms: C_5  and  C_6 
REMARK    6  A    between atoms: C_6  and  C_7 
REMARK    7  A    between atoms: C_6  and  C_8 
REMARK    8  A    between atoms: C_6  and  O_9 
REMARK    9  A    between atoms: O_9  and  C_10 
REMARK   10  A    between atoms: C_10  and  C_12 
REMARK   11  A    between atoms: C_12  and  C_13 
REMARK   12  A    between atoms: C_12  and  C_17 
ROOT
ATOM      1  C   LIG d   1       4.808  -0.855  -6.831  0.00  0.00     0.108 C 
ENDROOT
BRANCH   1   2
ATOM      2  C   LIG d   1       4.629  -2.285  -6.318  0.00  0.00    -0.013 C 
ATOM      3  H   LIG d   1       3.808  -2.763  -6.852  0.00  0.00     0.030 H 
ATOM      4  H   LIG d   1       4.404  -2.263  -5.251  0.00  0.00     0.030 H 
BRANCH   2   5
ATOM      5  C   LIG d   1       5.918  -3.076  -6.551  0.00  0.00    -0.050 C 
ATOM      6  H   LIG d   1       6.770  -2.395  -6.537  0.00  0.00     0.027 H 
ATOM      7  H   LIG d   1       5.867  -3.575  -7.519  0.00  0.00     0.027 H 
BRANCH   5   8
ATOM      8  C   LIG d   1       6.083  -4.121  -5.445  0.00  0.00    -0.053 C 
ATOM      9  H   LIG d   1       6.321  -3.622  -4.506  0.00  0.00     0.026 H 
ATOM     10  H   LIG d   1       6.891  -4.804  -5.709  0.00  0.00     0.026 H 
BRANCH   8  11
ATOM     11  C   LIG d   1       4.780  -4.908  -5.290  0.00  0.00    -0.056 C 
ATOM     12  H   LIG d   1       3.934  -4.257  -5.509  0.00  0.00     0.026 H 
ATOM     13  H   LIG d   1       4.699  -5.279  -4.269  0.00  0.00     0.026 H 
BRANCH  11  14
ATOM     14  C   LIG d   1       4.780  -6.089  -6.263  0.00  0.00    -0.065 C 
ATOM     15  H   LIG d   1       5.794  -6.262  -6.625  0.00  0.00     0.023 H 
ATOM     16  H   LIG d   1       4.419  -6.981  -5.751  0.00  0.00     0.023 H 
ATOM     17  H   LIG d   1       4.127  -5.865  -7.106  0.00  0.00     0.023 H 
ENDBRANCH  11  14
ENDBRANCH   8  11
ENDBRANCH   5   8
ENDBRANCH   2   5
ENDBRANCH   1   2
BRANCH   1  18
ATOM     18  C   LIG d   1       6.058  -0.782  -7.711  0.00  0.00    -0.025 C 
ATOM     19  H   LIG d   1       6.880  -0.351  -7.140  0.00  0.00     0.027 H 
ATOM     20  H   LIG d   1       6.329  -1.785  -8.040  0.00  0.00     0.027 H 
ATOM     21  H   LIG d   1       5.854  -0.158  -8.581  0.00  0.00     0.027 H 
ENDBRANCH   1  18
BRANCH   1  22
ATOM     22  C   LIG d   1       3.582  -0.450  -7.651  0.00  0.00    -0.025 C 
ATOM     23  H   LIG d   1       3.138  -1.339  -8.102  0.00  0.00     0.027 H 
ATOM     24  H   LIG d   1       2.852   0.030  -6.999  0.00  0.00     0.027 H 
ATOM     25  H   LIG d   1       3.881   0.245  -8.434  0.00  0.00     0.027 H 
ENDBRANCH   1  22
BRANCH   1  26
ATOM     26  O   LIG d   1       4.955   0.034  -5.721  0.00  0.00    -0.457 OA
BRANCH  26  27
ATOM     27  C   LIG d   1       4.125  -0.145  -4.683  0.00  0.00     0.343 C 
ATOM     28  O   LIG d   1       2.930  -0.184  -4.863  0.00  0.00    -0.249 OA
BRANCH  27  29
ATOM     29  C   LIG d   1       4.681  -0.300  -3.290  0.00  0.00     0.309 C 
ATOM     30 BR   LIG d   1       6.549  -0.906  -3.395  0.00  0.00    -0.054 Br
BRANCH  29  31
ATOM     31  C   LIG d   1       4.623   1.047  -2.566  0.00  0.00     0.424 C 
ATOM     32  F   LIG d   1       5.739   1.814  -2.918  0.00  0.00    -0.168 F 
ATOM     33  F   LIG d   1       3.456   1.724  -2.936  0.00  0.00    -0.168 F 
ATOM     34  F   LIG d   1       4.621   0.834  -1.184  0.00  0.00    -0.168 F 
ENDBRANCH  29  31
BRANCH  29  35
ATOM     35  C   LIG d   1       3.852  -1.330  -2.521  0.00  0.00     0.424 C 
ATOM     36  F   LIG d   1       3.803  -2.525  -3.247  0.00  0.00    -0.168 F 
ATOM     37  F   LIG d   1       4.441  -1.566  -1.275  0.00  0.00    -0.168 F 
ATOM     38  F   LIG d   1       2.554  -0.842  -2.339  0.00  0.00    -0.168 F 
ENDBRANCH  29  35
ENDBRANCH  27  29
ENDBRANCH  26  27
ENDBRANCH   1  26
TORSDOF 12
ENDMDL
MODEL 5
REMARK VINA RESULT:      -5.7      1.411      2.029
REMARK  12 active torsions:
REMARK  status: ('A' for Active; 'I' for Inactive)
REMARK    1  A    between atoms: C_1  and  C_2 
REMARK    2  A    between atoms: C_2  and  C_3 
REMARK    3  A    between atoms: C_3  and  C_4 
REMARK    4  A    between atoms: C_4  and  C_5 
REMARK    5  A    between atoms: C_5  and  C_6 
REMARK    6  A    between atoms: C_6  and  C_7 
REMARK    7  A    between atoms: C_6  and  C_8 
REMARK    8  A    between atoms: C_6  and  O_9 
REMARK    9  A    between atoms: O_9  and  C_10 
REMARK   10  A    between atoms: C_10  and  C_12 
REMARK   11  A    between atoms: C_12  and  C_13 
REMARK   12  A    between atoms: C_12  and  C_17 
ROOT
ATOM      1  C   LIG d   1       5.624  -1.049  -6.718  0.00  0.00     0.108 C 
ENDROOT
BRANCH   1   2
ATOM      2  C   LIG d   1       6.216   0.064  -7.584  0.00  0.00    -0.013 C 
ATOM      3  H   LIG d   1       7.110  -0.304  -8.088  0.00  0.00     0.030 H 
ATOM      4  H   LIG d   1       6.479   0.914  -6.954  0.00  0.00     0.030 H 
BRANCH   2   5
ATOM      5  C   LIG d   1       5.186   0.502  -8.627  0.00  0.00    -0.050 C 
ATOM      6  H   LIG d   1       4.182   0.354  -8.231  0.00  0.00     0.027 H 
ATOM      7  H   LIG d   1       5.311  -0.094  -9.532  0.00  0.00     0.027 H 
BRANCH   5   8
ATOM      8  C   LIG d   1       5.392   1.982  -8.957  0.00  0.00    -0.053 C 
ATOM      9  H   LIG d   1       6.095   2.076  -9.785  0.00  0.00     0.026 H 
ATOM     10  H   LIG d   1       5.788   2.497  -8.082  0.00  0.00     0.026 H 
BRANCH   8  11
ATOM     11  C   LIG d   1       4.052   2.606  -9.352  0.00  0.00    -0.056 C 
ATOM     12  H   LIG d   1       3.840   2.382 -10.398  0.00  0.00     0.026 H 
ATOM     13  H   LIG d   1       4.100   3.686  -9.216  0.00  0.00     0.026 H 
BRANCH  11  14
ATOM     14  C   LIG d   1       2.942   2.030  -8.471  0.00  0.00    -0.065 C 
ATOM     15  H   LIG d   1       2.733   1.004  -8.775  0.00  0.00     0.023 H 
ATOM     16  H   LIG d   1       3.261   2.044  -7.429  0.00  0.00     0.023 H 
ATOM     17  H   LIG d   1       2.040   2.632  -8.584  0.00  0.00     0.023 H 
ENDBRANCH  11  14
ENDBRANCH   8  11
ENDBRANCH   5   8
ENDBRANCH   2   5
ENDBRANCH   1   2
BRANCH   1  18
ATOM     18  C   LIG d   1       5.014  -2.126  -7.618  0.00  0.00    -0.025 C 
ATOM     19  H   LIG d   1       4.119  -2.530  -7.146  0.00  0.00     0.027 H 
ATOM     20  H   LIG d   1       4.752  -1.687  -8.581  0.00  0.00     0.027 H 
ATOM     21  H   LIG d   1       5.738  -2.926  -7.770  0.00  0.00     0.027 H 
ENDBRANCH   1  18
BRANCH   1  22
ATOM     22  C   LIG d   1       6.727  -1.668  -5.858  0.00  0.00    -0.025 C 
ATOM     23  H   LIG d   1       6.324  -1.922  -4.877  0.00  0.00     0.027 H 
ATOM     24  H   LIG d   1       7.101  -2.571  -6.342  0.00  0.00     0.027 H 
ATOM     25  H   LIG d   1       7.542  -0.954  -5.742  0.00  0.00     0.027 H 
ENDBRANCH   1  22
BRANCH   1  26
ATOM     26  O   LIG d   1       4.608  -0.505  -5.872  0.00  0.00    -0.457 OA
BRANCH  26  27
ATOM     27  C   LIG d   1       4.290  -1.206  -4.773  0.00  0.00     0.343 C 
ATOM     28  O   LIG d   1       3.966  -2.366  -4.869  0.00  0.00    -0.249 OA
BRANCH  27  29
ATOM     29  C   LIG d   1       4.338  -0.547  -3.418  0.00  0.00     0.309 C 
ATOM     30 BR   LIG d   1       5.728   0.844  -3.415  0.00  0.00    -0.054 Br
BRANCH  29  31
ATOM     31  C   LIG d   1       2.981   0.088  -3.113  0.00  0.00     0.424 C 
ATOM     32  F   LIG d   1       2.456   0.650  -4.282  0.00  0.00    -0.168 F 
ATOM     33  F   LIG d   1       2.105  -0.891  -2.633  0.00  0.00    -0.168 F 
ATOM     34  F   LIG d   1       3.139   1.087  -2.146  0.00  0.00    -0.168 F 
ENDBRANCH  29  31
BRANCH  29  35
ATOM     35  C   LIG d   1       4.663  -1.596  -2.352  0.00  0.00     0.424 C 
ATOM     36  F   LIG d   1       4.579  -1.013  -1.084  0.00  0.00    -0.168 F 
ATOM     37  F   LIG d   1       3.748  -2.649  -2.442  0.00  0.00    -0.168 F 
ATOM     38  F   LIG d   1       5.958  -2.083  -2.558  0.00  0.00    -0.168 F 
ENDBRANCH  29  35
ENDBRANCH  27  29
ENDBRANCH  26  27
ENDBRANCH   1  26
TORSDOF 12
ENDMDL
MODEL 6
REMARK VINA RESULT:      -5.7      2.765      5.119
REMARK  12 active torsions:
REMARK  status: ('A' for Active; 'I' for Inactive)
REMARK    1  A    between atoms: C_1  and  C_2 
REMARK    2  A    between atoms: C_2  and  C_3 
REMARK    3  A    between atoms: C_3  and  C_4 
REMARK    4  A    between atoms: C_4  and  C_5 
REMARK    5  A    between atoms: C_5  and  C_6 
REMARK    6  A    between atoms: C_6  and  C_7 
REMARK    7  A    between atoms: C_6  and  C_8 
REMARK    8  A    between atoms: C_6  and  O_9 
REMARK    9  A    between atoms: O_9  and  C_10 
REMARK   10  A    between atoms: C_10  and  C_12 
REMARK   11  A    between atoms: C_12  and  C_13 
REMARK   12  A    between atoms: C_12  and  C_17 
ROOT
ATOM      1  C   LIG d   1       6.433  -1.835  -5.643  0.00  0.00     0.108 C 
ENDROOT
BRANCH   1   2
ATOM      2  C   LIG d   1       6.883  -2.736  -4.491  0.00  0.00    -0.013 C 
ATOM      3  H   LIG d   1       6.094  -2.788  -3.740  0.00  0.00     0.030 H 
ATOM      4  H   LIG d   1       7.787  -2.325  -4.039  0.00  0.00     0.030 H 
BRANCH   2   5
ATOM      5  C   LIG d   1       7.173  -4.141  -5.024  0.00  0.00    -0.050 C 
ATOM      6  H   LIG d   1       7.318  -4.097  -6.103  0.00  0.00     0.027 H 
ATOM      7  H   LIG d   1       6.330  -4.796  -4.797  0.00  0.00     0.027 H 
BRANCH   5   8
ATOM      8  C   LIG d   1       8.438  -4.688  -4.360  0.00  0.00    -0.053 C 
ATOM      9  H   LIG d   1       9.204  -4.854  -5.117  0.00  0.00     0.026 H 
ATOM     10  H   LIG d   1       8.208  -5.630  -3.862  0.00  0.00     0.026 H 
BRANCH   8  11
ATOM     11  C   LIG d   1       8.949  -3.679  -3.329  0.00  0.00    -0.056 C 
ATOM     12  H   LIG d   1       8.102  -3.201  -2.837  0.00  0.00     0.026 H 
ATOM     13  H   LIG d   1       9.552  -2.923  -3.830  0.00  0.00     0.026 H 
BRANCH  11  14
ATOM     14  C   LIG d   1       9.803  -4.404  -2.287  0.00  0.00    -0.065 C 
ATOM     15  H   LIG d   1      10.796  -3.956  -2.256  0.00  0.00     0.023 H 
ATOM     16  H   LIG d   1       9.334  -4.316  -1.307  0.00  0.00     0.023 H 
ATOM     17  H   LIG d   1       9.888  -5.457  -2.556  0.00  0.00     0.023 H 
ENDBRANCH  11  14
ENDBRANCH   8  11
ENDBRANCH   5   8
ENDBRANCH   2   5
ENDBRANCH   1   2
BRANCH   1  18
ATOM     18  C   LIG d   1       7.609  -1.598  -6.593  0.00  0.00    -0.025 C 
ATOM     19  H   LIG d   1       7.585  -0.570  -6.951  0.00  0.00     0.027 H 
ATOM     20  H   LIG d   1       8.545  -1.778  -6.064  0.00  0.00     0.027 H 
ATOM     21  H   LIG d   1       7.535  -2.280  -7.441  0.00  0.00     0.027 H 
ENDBRANCH   1  18
BRANCH   1  22
ATOM     22  C   LIG d   1       5.291  -2.512  -6.403  0.00  0.00    -0.025 C 
ATOM     23  H   LIG d   1       5.139  -3.518  -6.009  0.00  0.00     0.027 H 
ATOM     24  H   LIG d   1       4.377  -1.931  -6.278  0.00  0.00     0.027 H 
ATOM     25  H   LIG d   1       5.542  -2.570  -7.461  0.00  0.00     0.027 H 
ENDBRANCH   1  22
BRANCH   1  26
ATOM     26  O   LIG d   1       5.983  -0.583  -5.121  0.00  0.00    -0.457 OA
BRANCH  26  27
ATOM     27  C   LIG d   1       5.728  -0.529  -3.805  0.00  0.00     0.343 C 
ATOM     28  O   LIG d   1       6.621  -0.696  -3.008  0.00  0.00    -0.249 OA
BRANCH  27  29
ATOM     29  C   LIG d   1       4.327  -0.256  -3.319  0.00  0.00     0.309 C 
ATOM     30 BR   LIG d   1       3.168   0.149  -4.855  0.00  0.00    -0.054 Br
BRANCH  29  31
ATOM     31  C   LIG d   1       3.792  -1.491  -2.590  0.00  0.00     0.424 C 
ATOM     32  F   LIG d   1       4.456  -1.632  -1.366  0.00  0.00    -0.168 F 
ATOM     33  F   LIG d   1       2.421  -1.339  -2.361  0.00  0.00    -0.168 F 
ATOM     34  F   LIG d   1       4.012  -2.628  -3.373  0.00  0.00    -0.168 F 
ENDBRANCH  29  31
BRANCH  29  35
ATOM     35  C   LIG d   1       4.341   0.937  -2.362  0.00  0.00     0.424 C 
ATOM     36  F   LIG d   1       5.219   1.912  -2.846  0.00  0.00    -0.168 F 
ATOM     37  F   LIG d   1       3.054   1.474  -2.268  0.00  0.00    -0.168 F 
ATOM     38  F   LIG d   1       4.764   0.514  -1.097  0.00  0.00    -0.168 F 
ENDBRANCH  29  35
ENDBRANCH  27  29
ENDBRANCH  26  27
ENDBRANCH   1  26
TORSDOF 12
ENDMDL
MODEL 7
REMARK VINA RESULT:      -5.6      2.562      4.557
REMARK  12 active torsions:
REMARK  status: ('A' for Active; 'I' for Inactive)
REMARK    1  A    between atoms: C_1  and  C_2 
REMARK    2  A    between atoms: C_2  and  C_3 
REMARK    3  A    between atoms: C_3  and  C_4 
REMARK    4  A    between atoms: C_4  and  C_5 
REMARK    5  A    between atoms: C_5  and  C_6 
REMARK    6  A    between atoms: C_6  and  C_7 
REMARK    7  A    between atoms: C_6  and  C_8 
REMARK    8  A    between atoms: C_6  and  O_9 
REMARK    9  A    between atoms: O_9  and  C_10 
REMARK   10  A    between atoms: C_10  and  C_12 
REMARK   11  A    between atoms: C_12  and  C_13 
REMARK   12  A    between atoms: C_12  and  C_17 
ROOT
ATOM      1  C   LIG d   1       5.110  -2.820  -5.862  0.00  0.00     0.108 C 
ENDROOT
BRANCH   1   2
ATOM      2  C   LIG d   1       5.167  -4.192  -5.187  0.00  0.00    -0.013 C 
ATOM      3  H   LIG d   1       4.401  -4.840  -5.614  0.00  0.00     0.030 H 
ATOM      4  H   LIG d   1       4.990  -4.078  -4.117  0.00  0.00     0.030 H 
BRANCH   2   5
ATOM      5  C   LIG d   1       6.546  -4.815  -5.412  0.00  0.00    -0.050 C 
ATOM      6  H   LIG d   1       7.098  -4.825  -4.472  0.00  0.00     0.027 H 
ATOM      7  H   LIG d   1       7.094  -4.226  -6.149  0.00  0.00     0.027 H 
BRANCH   5   8
ATOM      8  C   LIG d   1       6.382  -6.247  -5.923  0.00  0.00    -0.053 C 
ATOM      9  H   LIG d   1       7.094  -6.898  -5.415  0.00  0.00     0.026 H 
ATOM     10  H   LIG d   1       6.568  -6.273  -6.997  0.00  0.00     0.026 H 
BRANCH   8  11
ATOM     11  C   LIG d   1       4.958  -6.729  -5.641  0.00  0.00    -0.056 C 
ATOM     12  H   LIG d   1       4.352  -6.622  -6.541  0.00  0.00     0.026 H 
ATOM     13  H   LIG d   1       4.525  -6.132  -4.839  0.00  0.00     0.026 H 
BRANCH  11  14
ATOM     14  C   LIG d   1       4.991  -8.200  -5.219  0.00  0.00    -0.065 C 
ATOM     15  H   LIG d   1       3.972  -8.569  -5.109  0.00  0.00     0.023 H 
ATOM     16  H   LIG d   1       5.510  -8.784  -5.979  0.00  0.00     0.023 H 
ATOM     17  H   LIG d   1       5.516  -8.293  -4.268  0.00  0.00     0.023 H 
ENDBRANCH  11  14
ENDBRANCH   8  11
ENDBRANCH   5   8
ENDBRANCH   2   5
ENDBRANCH   1   2
BRANCH   1  18
ATOM     18  C   LIG d   1       6.494  -2.170  -5.813  0.00  0.00    -0.025 C 
ATOM     19  H   LIG d   1       6.677  -1.781  -4.812  0.00  0.00     0.027 H 
ATOM     20  H   LIG d   1       7.253  -2.913  -6.059  0.00  0.00     0.027 H 
ATOM     21  H   LIG d   1       6.539  -1.354  -6.533  0.00  0.00     0.027 H 
ENDBRANCH   1  18
BRANCH   1  22
ATOM     22  C   LIG d   1       4.676  -2.986  -7.319  0.00  0.00    -0.025 C 
ATOM     23  H   LIG d   1       4.491  -4.042  -7.525  0.00  0.00     0.027 H 
ATOM     24  H   LIG d   1       3.763  -2.417  -7.493  0.00  0.00     0.027 H 
ATOM     25  H   LIG d   1       5.463  -2.620  -7.977  0.00  0.00     0.027 H 
ENDBRANCH   1  22
BRANCH   1  26
ATOM     26  O   LIG d   1       4.170  -1.990  -5.176  0.00  0.00    -0.457 OA
BRANCH  26  27
ATOM     27  C   LIG d   1       4.579  -0.759  -4.836  0.00  0.00     0.343 C 
ATOM     28  O   LIG d   1       5.022  -0.015  -5.680  0.00  0.00    -0.249 OA
BRANCH  27  29
ATOM     29  C   LIG d   1       4.486  -0.301  -3.403  0.00  0.00     0.309 C 
ATOM     30 BR   LIG d   1       5.862   1.060  -3.059  0.00  0.00    -0.054 Br
BRANCH  29  31
ATOM     31  C   LIG d   1       3.101   0.299  -3.149  0.00  0.00     0.424 C 
ATOM     32  F   LIG d   1       2.205  -0.723  -2.814  0.00  0.00    -0.168 F 
ATOM     33  F   LIG d   1       3.177   1.216  -2.096  0.00  0.00    -0.168 F 
ATOM     34  F   LIG d   1       2.655   0.950  -4.304  0.00  0.00    -0.168 F 
ENDBRANCH  29  31
BRANCH  29  35
ATOM     35  C   LIG d   1       4.704  -1.495  -2.471  0.00  0.00     0.424 C 
ATOM     36  F   LIG d   1       4.552  -1.084  -1.143  0.00  0.00    -0.168 F 
ATOM     37  F   LIG d   1       3.764  -2.489  -2.761  0.00  0.00    -0.168 F 
ATOM     38  F   LIG d   1       5.993  -2.002  -2.658  0.00  0.00    -0.168 F 
ENDBRANCH  29  35
ENDBRANCH  27  29
ENDBRANCH  26  27
ENDBRANCH   1  26
TORSDOF 12
ENDMDL
MODEL 8
REMARK VINA RESULT:      -5.6      1.585      2.380
REMARK  12 active torsions:
REMARK  status: ('A' for Active; 'I' for Inactive)
REMARK    1  A    between atoms: C_1  and  C_2 
REMARK    2  A    between atoms: C_2  and  C_3 
REMARK    3  A    between atoms: C_3  and  C_4 
REMARK    4  A    between atoms: C_4  and  C_5 
REMARK    5  A    between atoms: C_5  and  C_6 
REMARK    6  A    between atoms: C_6  and  C_7 
REMARK    7  A    between atoms: C_6  and  C_8 
REMARK    8  A    between atoms: C_6  and  O_9 
REMARK    9  A    between atoms: O_9  and  C_10 
REMARK   10  A    between atoms: C_10  and  C_12 
REMARK   11  A    between atoms: C_12  and  C_13 
REMARK   12  A    between atoms: C_12  and  C_17 
ROOT
ATOM      1  C   LIG d   1       5.010  -2.888  -5.850  0.00  0.00     0.108 C 
ENDROOT
BRANCH   1   2
ATOM      2  C   LIG d   1       4.531  -3.123  -7.284  0.00  0.00    -0.013 C 
ATOM      3  H   LIG d   1       3.500  -2.782  -7.383  0.00  0.00     0.030 H 
ATOM      4  H   LIG d   1       4.585  -4.187  -7.516  0.00  0.00     0.030 H 
BRANCH   2   5
ATOM      5  C   LIG d   1       5.421  -2.343  -8.254  0.00  0.00    -0.050 C 
ATOM      6  H   LIG d   1       5.756  -3.005  -9.052  0.00  0.00     0.027 H 
ATOM      7  H   LIG d   1       6.288  -1.954  -7.717  0.00  0.00     0.027 H 
BRANCH   5   8
ATOM      8  C   LIG d   1       4.628  -1.181  -8.853  0.00  0.00    -0.053 C 
ATOM      9  H   LIG d   1       4.804  -1.136  -9.928  0.00  0.00     0.026 H 
ATOM     10  H   LIG d   1       4.948  -0.246  -8.392  0.00  0.00     0.026 H 
BRANCH   8  11
ATOM     11  C   LIG d   1       3.136  -1.393  -8.590  0.00  0.00    -0.056 C 
ATOM     12  H   LIG d   1       3.007  -1.986  -7.685  0.00  0.00     0.026 H 
ATOM     13  H   LIG d   1       2.688  -1.916  -9.434  0.00  0.00     0.026 H 
BRANCH  11  14
ATOM     14  C   LIG d   1       2.452  -0.036  -8.411  0.00  0.00    -0.065 C 
ATOM     15  H   LIG d   1       3.208   0.748  -8.361  0.00  0.00     0.023 H 
ATOM     16  H   LIG d   1       1.789   0.152  -9.256  0.00  0.00     0.023 H 
ATOM     17  H   LIG d   1       1.872  -0.040  -7.488  0.00  0.00     0.023 H 
ENDBRANCH  11  14
ENDBRANCH   8  11
ENDBRANCH   5   8
ENDBRANCH   2   5
ENDBRANCH   1   2
BRANCH   1  18
ATOM     18  C   LIG d   1       5.064  -4.224  -5.105  0.00  0.00    -0.025 C 
ATOM     19  H   LIG d   1       4.135  -4.768  -5.268  0.00  0.00     0.027 H 
ATOM     20  H   LIG d   1       5.902  -4.813  -5.479  0.00  0.00     0.027 H 
ATOM     21  H   LIG d   1       5.197  -4.041  -4.039  0.00  0.00     0.027 H 
ENDBRANCH   1  18
BRANCH   1  22
ATOM     22  C   LIG d   1       6.404  -2.260  -5.875  0.00  0.00    -0.025 C 
ATOM     23  H   LIG d   1       6.350  -1.240  -5.489  0.00  0.00     0.027 H 
ATOM     24  H   LIG d   1       7.078  -2.848  -5.253  0.00  0.00     0.027 H 
ATOM     25  H   LIG d   1       6.777  -2.242  -6.898  0.00  0.00     0.027 H 
ENDBRANCH   1  22
BRANCH   1  26
ATOM     26  O   LIG d   1       4.102  -2.008  -5.183  0.00  0.00    -0.457 OA
BRANCH  26  27
ATOM     27  C   LIG d   1       4.567  -0.797  -4.841  0.00  0.00     0.343 C 
ATOM     28  O   LIG d   1       5.060  -0.080  -5.679  0.00  0.00    -0.249 OA
BRANCH  27  29
ATOM     29  C   LIG d   1       4.475  -0.330  -3.410  0.00  0.00     0.309 C 
ATOM     30 BR   LIG d   1       5.859   1.026  -3.074  0.00  0.00    -0.054 Br
BRANCH  29  31
ATOM     31  C   LIG d   1       3.094   0.278  -3.161  0.00  0.00     0.424 C 
ATOM     32  F   LIG d   1       2.656   0.929  -4.320  0.00  0.00    -0.168 F 
ATOM     33  F   LIG d   1       2.191  -0.736  -2.827  0.00  0.00    -0.168 F 
ATOM     34  F   LIG d   1       3.172   1.199  -2.111  0.00  0.00    -0.168 F 
ENDBRANCH  29  31
BRANCH  29  35
ATOM     35  C   LIG d   1       4.686  -1.519  -2.471  0.00  0.00     0.424 C 
ATOM     36  F   LIG d   1       3.720  -2.496  -2.730  0.00  0.00    -0.168 F 
ATOM     37  F   LIG d   1       5.960  -2.057  -2.680  0.00  0.00    -0.168 F 
ATOM     38  F   LIG d   1       4.573  -1.091  -1.144  0.00  0.00    -0.168 F 
ENDBRANCH  29  35
ENDBRANCH  27  29
ENDBRANCH  26  27
ENDBRANCH   1  26
TORSDOF 12
ENDMDL
MODEL 9
REMARK VINA RESULT:      -5.6      1.445      2.996
REMARK  12 active torsions:
REMARK  status: ('A' for Active; 'I' for Inactive)
REMARK    1  A    between atoms: C_1  and  C_2 
REMARK    2  A    between atoms: C_2  and  C_3 
REMARK    3  A    between atoms: C_3  and  C_4 
REMARK    4  A    between atoms: C_4  and  C_5 
REMARK    5  A    between atoms: C_5  and  C_6 
REMARK    6  A    between atoms: C_6  and  C_7 
REMARK    7  A    between atoms: C_6  and  C_8 
REMARK    8  A    between atoms: C_6  and  O_9 
REMARK    9  A    between atoms: O_9  and  C_10 
REMARK   10  A    between atoms: C_10  and  C_12 
REMARK   11  A    between atoms: C_12  and  C_13 
REMARK   12  A    between atoms: C_12  and  C_17 
ROOT
ATOM      1  C   LIG d   1       4.814  -0.748  -6.849  0.00  0.00     0.108 C 
ENDROOT
BRANCH   1   2
ATOM      2  C   LIG d   1       6.025  -0.585  -7.771  0.00  0.00    -0.013 C 
ATOM      3  H   LIG d   1       5.687  -0.314  -8.771  0.00  0.00     0.030 H 
ATOM      4  H   LIG d   1       6.576  -1.525  -7.817  0.00  0.00     0.030 H 
BRANCH   2   5
ATOM      5  C   LIG d   1       6.938   0.515  -7.224  0.00  0.00    -0.050 C 
ATOM      6  H   LIG d   1       6.546   0.873  -6.273  0.00  0.00     0.027 H 
ATOM      7  H   LIG d   1       6.976   1.341  -7.936  0.00  0.00     0.027 H 
BRANCH   5   8
ATOM      8  C   LIG d   1       8.346  -0.046  -7.018  0.00  0.00    -0.053 C 
ATOM      9  H   LIG d   1       8.943   0.131  -7.913  0.00  0.00     0.026 H 
ATOM     10  H   LIG d   1       8.285  -1.118  -6.827  0.00  0.00     0.026 H 
BRANCH   8  11
ATOM     11  C   LIG d   1       9.001   0.648  -5.822  0.00  0.00    -0.056 C 
ATOM     12  H   LIG d   1      10.026   0.917  -6.074  0.00  0.00     0.026 H 
ATOM     13  H   LIG d   1       9.003  -0.026  -4.967  0.00  0.00     0.026 H 
BRANCH  11  14
ATOM     14  C   LIG d   1       8.213   1.912  -5.473  0.00  0.00    -0.065 C 
ATOM     15  H   LIG d   1       7.250   1.633  -5.045  0.00  0.00     0.023 H 
ATOM     16  H   LIG d   1       8.775   2.503  -4.750  0.00  0.00     0.023 H 
ATOM     17  H   LIG d   1       8.052   2.500  -6.376  0.00  0.00     0.023 H 
ENDBRANCH  11  14
ENDBRANCH   8  11
ENDBRANCH   5   8
ENDBRANCH   2   5
ENDBRANCH   1   2
BRANCH   1  18
ATOM     18  C   LIG d   1       3.541  -0.366  -7.608  0.00  0.00    -0.025 C 
ATOM     19  H   LIG d   1       2.961   0.338  -7.013  0.00  0.00     0.027 H 
ATOM     20  H   LIG d   1       3.810   0.096  -8.559  0.00  0.00     0.027 H 
ATOM     21  H   LIG d   1       2.947  -1.260  -7.795  0.00  0.00     0.027 H 
ENDBRANCH   1  18
BRANCH   1  22
ATOM     22  C   LIG d   1       4.716  -2.203  -6.388  0.00  0.00    -0.025 C 
ATOM     23  H   LIG d   1       4.639  -2.235  -5.301  0.00  0.00     0.027 H 
ATOM     24  H   LIG d   1       3.833  -2.665  -6.829  0.00  0.00     0.027 H 
ATOM     25  H   LIG d   1       5.606  -2.745  -6.706  0.00  0.00     0.027 H 
ENDBRANCH   1  22
BRANCH   1  26
ATOM     26  O   LIG d   1       4.964   0.105  -5.712  0.00  0.00    -0.457 OA
BRANCH  26  27
ATOM     27  C   LIG d   1       4.124  -0.097  -4.685  0.00  0.00     0.343 C 
ATOM     28  O   LIG d   1       2.931  -0.133  -4.878  0.00  0.00    -0.249 OA
BRANCH  27  29
ATOM     29  C   LIG d   1       4.667  -0.280  -3.291  0.00  0.00     0.309 C 
ATOM     30 BR   LIG d   1       6.523  -0.921  -3.390  0.00  0.00    -0.054 Br
BRANCH  29  31
ATOM     31  C   LIG d   1       4.629   1.058  -2.550  0.00  0.00     0.424 C 
ATOM     32  F   LIG d   1       4.666   0.828  -1.170  0.00  0.00    -0.168 F 
ATOM     33  F   LIG d   1       5.735   1.829  -2.923  0.00  0.00    -0.168 F 
ATOM     34  F   LIG d   1       3.452   1.740  -2.878  0.00  0.00    -0.168 F 
ENDBRANCH  29  31
BRANCH  29  35
ATOM     35  C   LIG d   1       3.813  -1.304  -2.541  0.00  0.00     0.424 C 
ATOM     36  F   LIG d   1       4.396  -1.578  -1.299  0.00  0.00    -0.168 F 
ATOM     37  F   LIG d   1       2.528  -0.786  -2.347  0.00  0.00    -0.168 F 
ATOM     38  F   LIG d   1       3.733  -2.482  -3.290  0.00  0.00    -0.168 F 
ENDBRANCH  29  35
ENDBRANCH  27  29
ENDBRANCH  26  27
ENDBRANCH   1  26
TORSDOF 12
ENDMDL
