MODEL 1
REMARK VINA RESULT:      -6.8      0.000      0.000
REMARK  15 active torsions:
REMARK  status: ('A' for Active; 'I' for Inactive)
REMARK    1  A    between atoms: C_1  and  C_2 
REMARK    2  A    between atoms: C_2  and  C_4 
REMARK    3  A    between atoms: C_2  and  N_36 
REMARK       I    between atoms: C_4  and  N_6 
REMARK    4  A    between atoms: N_6  and  C_7 
REMARK    5  A    between atoms: C_7  and  C_9 
REMARK    6  A    between atoms: C_7  and  C_10 
REMARK       I    between atoms: C_10  and  N_12 
REMARK    7  A    between atoms: C_16  and  C_18 
REMARK       I    between atoms: C_18  and  N_20 
REMARK    8  A    between atoms: N_20  and  C_21 
REMARK    9  A    between atoms: C_21  and  C_23 
REMARK   10  A    between atoms: C_21  and  C_24 
REMARK       I    between atoms: C_24  and  N_26 
REMARK   11  A    between atoms: N_26  and  C_27 
REMARK   12  A    between atoms: C_30  and  N_33 
REMARK       I    between atoms: N_36  and  C_37 
REMARK   13  A    between atoms: C_37  and  C_39 
REMARK   14  A    between atoms: C_39  and  C_40 
REMARK   15  A    between atoms: C_40  and  C_41 
ROOT
ATOM      1  C   LIG d   1       8.062   0.982  -6.493  0.00  0.00     0.236 C 
ATOM      2  O   LIG d   1       7.834   2.079  -6.028  0.00  0.00    -0.274 OA
ATOM      3  N   LIG d   1       9.168   0.308  -6.120  0.00  0.00    -0.288 N 
ATOM      4  C   LIG d   1       9.626  -0.973  -6.688  0.00  0.00     0.016 C 
ATOM      5  C   LIG d   1      11.151  -1.003  -6.419  0.00  0.00    -0.035 C 
ATOM      6  C   LIG d   1      11.233  -0.335  -5.020  0.00  0.00    -0.024 C 
ATOM      7  C   LIG d   1      10.120   0.732  -5.084  0.00  0.00     0.102 C 
ATOM      8  H   LIG d   1       9.615   0.795  -4.119  0.00  0.00     0.060 H 
ATOM      9  H   LIG d   1       9.136  -1.807  -6.187  0.00  0.00     0.046 H 
ATOM     10  H   LIG d   1       9.429  -1.004  -7.760  0.00  0.00     0.046 H 
ATOM     11  H   LIG d   1      11.522  -2.027  -6.384  0.00  0.00     0.028 H 
ATOM     12  H   LIG d   1      11.692  -0.418  -7.163  0.00  0.00     0.028 H 
ATOM     13  H   LIG d   1      11.032  -1.062  -4.233  0.00  0.00     0.029 H 
ATOM     14  H   LIG d   1      12.207   0.134  -4.874  0.00  0.00     0.029 H 
ENDROOT
BRANCH   1  15
ATOM     15  C   LIG d   1       7.108   0.373  -7.488  0.00  0.00     0.097 C 
ATOM     16  H   LIG d   1       7.329  -0.688  -7.602  0.00  0.00     0.059 H 
BRANCH  15  17
ATOM     17  N   LIG d   1       5.733   0.536  -7.011  0.00  0.00    -0.303 N 
ATOM     18  C   LIG d   1       4.986  -0.548  -6.724  0.00  0.00     0.234 C 
ATOM     19  O   LIG d   1       5.451  -1.659  -6.862  0.00  0.00    -0.274 OA
ATOM     20  H   LIG d   1       5.360   1.425  -6.901  0.00  0.00     0.149 HD
BRANCH  18  21
ATOM     21  C   LIG d   1       3.570  -0.379  -6.233  0.00  0.00     0.097 C 
ATOM     22  H   LIG d   1       3.145  -1.356  -6.007  0.00  0.00     0.059 H 
BRANCH  21  23
ATOM     23  C   LIG d   1       2.733   0.304  -7.316  0.00  0.00    -0.038 C 
ATOM     24  H   LIG d   1       2.299  -0.452  -7.970  0.00  0.00     0.025 H 
ATOM     25  H   LIG d   1       1.934   0.880  -6.848  0.00  0.00     0.025 H 
ATOM     26  H   LIG d   1       3.367   0.970  -7.900  0.00  0.00     0.025 H 
ENDBRANCH  21  23
BRANCH  21  27
ATOM     27  N   LIG d   1       3.570   0.446  -5.022  0.00  0.00    -0.304 N 
ATOM     28  C   LIG d   1       3.351  -0.122  -3.820  0.00  0.00     0.214 C 
ATOM     29  O   LIG d   1       3.156  -1.316  -3.741  0.00  0.00    -0.276 OA
ATOM     30  H   LIG d   1       3.726   1.401  -5.086  0.00  0.00     0.149 HD
BRANCH  28  31
ATOM     31  C   LIG d   1       3.351   0.726  -2.575  0.00  0.00     0.029 C 
ATOM     32  H   LIG d   1       3.279   1.778  -2.851  0.00  0.00     0.036 H 
ATOM     33  H   LIG d   1       2.500   0.455  -1.950  0.00  0.00     0.036 H 
BRANCH  31  34
ATOM     34  C   LIG d   1       4.649   0.492  -1.798  0.00  0.00    -0.005 C 
ATOM     35  H   LIG d   1       4.714   1.205  -0.977  0.00  0.00     0.033 H 
ATOM     36  H   LIG d   1       4.655  -0.522  -1.399  0.00  0.00     0.033 H 
BRANCH  34  37
ATOM     37  C   LIG d   1       5.826   0.677  -2.720  0.00  0.00     0.042 C 
ATOM     38  O   LIG d   1       6.045   1.767  -3.220  0.00  0.00    -0.550 OA
ATOM     39  O   LIG d   1       6.562  -0.264  -2.964  0.00  0.00    -0.550 OA
ENDBRANCH  34  37
ENDBRANCH  31  34
ENDBRANCH  28  31
ENDBRANCH  21  27
ENDBRANCH  18  21
ENDBRANCH  15  17
BRANCH  15  40
ATOM     40  C   LIG d   1       7.265   1.073  -8.840  0.00  0.00    -0.038 C 
ATOM     41  H   LIG d   1       7.128   2.147  -8.711  0.00  0.00     0.025 H 
ATOM     42  H   LIG d   1       8.261   0.878  -9.236  0.00  0.00     0.025 H 
ATOM     43  H   LIG d   1       6.517   0.692  -9.535  0.00  0.00     0.025 H 
ENDBRANCH  15  40
ENDBRANCH   1  15
BRANCH   7  44
ATOM     44  C   LIG d   1      10.710   2.071  -5.446  0.00  0.00     0.234 C 
ATOM     45  O   LIG d   1      11.592   2.141  -6.275  0.00  0.00    -0.274 OA
ATOM     46  N   LIG d   1      10.257   3.190  -4.848  0.00  0.00    -0.303 N 
ATOM     47  H   LIG d   1       9.551   3.134  -4.184  0.00  0.00     0.149 HD
BRANCH  46  48
ATOM     48  C   LIG d   1      10.830   4.492  -5.200  0.00  0.00     0.097 C 
ATOM     49  H   LIG d   1      11.774   4.343  -5.723  0.00  0.00     0.059 H 
BRANCH  48  50
ATOM     50  C   LIG d   1       9.857   5.249  -6.107  0.00  0.00    -0.038 C 
ATOM     51  H   LIG d   1       9.233   5.907  -5.502  0.00  0.00     0.025 H 
ATOM     52  H   LIG d   1      10.420   5.843  -6.827  0.00  0.00     0.025 H 
ATOM     53  H   LIG d   1       9.226   4.536  -6.637  0.00  0.00     0.025 H 
ENDBRANCH  48  50
BRANCH  48  54
ATOM     54  C   LIG d   1      11.071   5.290  -3.945  0.00  0.00     0.237 C 
ATOM     55  O   LIG d   1      12.022   6.038  -3.874  0.00  0.00    -0.273 OA
ATOM     56  N   LIG d   1      10.227   5.174  -2.899  0.00  0.00    -0.284 N 
ATOM     57  H   LIG d   1       9.426   4.632  -2.981  0.00  0.00     0.155 HD
BRANCH  56  58
ATOM     58  C   LIG d   1      10.505   5.835  -1.698  0.00  0.00     0.034 A 
ATOM     59  C   LIG d   1      10.006   7.112  -1.475  0.00  0.00    -0.034 A 
ATOM     60  C   LIG d   1      10.278   7.760  -0.285  0.00  0.00     0.017 A 
ATOM     61  H   LIG d   1       9.403   7.596  -2.229  0.00  0.00     0.064 H 
ATOM     62  C   LIG d   1      11.055   7.142   0.678  0.00  0.00     0.273 A 
ATOM     63  H   LIG d   1       9.886   8.750  -0.108  0.00  0.00     0.069 H 
ATOM     64  C   LIG d   1      11.558   5.873   0.456  0.00  0.00     0.017 A 
ATOM     65  C   LIG d   1      11.286   5.219  -0.729  0.00  0.00    -0.034 A 
ATOM     66  H   LIG d   1      12.164   5.394   1.210  0.00  0.00     0.069 H 
ATOM     67  H   LIG d   1      11.678   4.227  -0.901  0.00  0.00     0.064 H 
BRANCH  62  68
ATOM     68  N   LIG d   1      11.350   7.842   1.948  0.00  0.00     0.080 N 
ATOM     69  O   LIG d   1      11.581   9.029   1.945  0.00  0.00     0.041 OA
ATOM     70  O   LIG d   1      11.360   7.228   2.990  0.00  0.00    -0.576 OA
ENDBRANCH  62  68
ENDBRANCH  56  58
ENDBRANCH  48  54
ENDBRANCH  46  48
ENDBRANCH   7  44
TORSDOF 15
ENDMDL
MODEL 2
REMARK VINA RESULT:      -6.7      4.708     10.496
REMARK  15 active torsions:
REMARK  status: ('A' for Active; 'I' for Inactive)
REMARK    1  A    between atoms: C_1  and  C_2 
REMARK    2  A    between atoms: C_2  and  C_4 
REMARK    3  A    between atoms: C_2  and  N_36 
REMARK       I    between atoms: C_4  and  N_6 
REMARK    4  A    between atoms: N_6  and  C_7 
REMARK    5  A    between atoms: C_7  and  C_9 
REMARK    6  A    between atoms: C_7  and  C_10 
REMARK       I    between atoms: C_10  and  N_12 
REMARK    7  A    between atoms: C_16  and  C_18 
REMARK       I    between atoms: C_18  and  N_20 
REMARK    8  A    between atoms: N_20  and  C_21 
REMARK    9  A    between atoms: C_21  and  C_23 
REMARK   10  A    between atoms: C_21  and  C_24 
REMARK       I    between atoms: C_24  and  N_26 
REMARK   11  A    between atoms: N_26  and  C_27 
REMARK   12  A    between atoms: C_30  and  N_33 
REMARK       I    between atoms: N_36  and  C_37 
REMARK   13  A    between atoms: C_37  and  C_39 
REMARK   14  A    between atoms: C_39  and  C_40 
REMARK   15  A    between atoms: C_40  and  C_41 
ROOT
ATOM      1  C   LIG d   1       4.878  -0.741  -7.456  0.00  0.00     0.236 C 
ATOM      2  O   LIG d   1       4.126  -1.579  -7.007  0.00  0.00    -0.274 OA
ATOM      3  N   LIG d   1       4.418   0.184  -8.322  0.00  0.00    -0.288 N 
ATOM      4  C   LIG d   1       5.240   1.183  -9.029  0.00  0.00     0.016 C 
ATOM      5  C   LIG d   1       4.421   1.548 -10.292  0.00  0.00    -0.035 C 
ATOM      6  C   LIG d   1       2.970   1.518  -9.741  0.00  0.00    -0.024 C 
ATOM      7  C   LIG d   1       3.015   0.361  -8.721  0.00  0.00     0.102 C 
ATOM      8  H   LIG d   1       2.410   0.614  -7.850  0.00  0.00     0.060 H 
ATOM      9  H   LIG d   1       5.387   2.064  -8.405  0.00  0.00     0.046 H 
ATOM     10  H   LIG d   1       6.200   0.752  -9.311  0.00  0.00     0.046 H 
ATOM     11  H   LIG d   1       4.681   2.543 -10.653  0.00  0.00     0.028 H 
ATOM     12  H   LIG d   1       4.556   0.802 -11.076  0.00  0.00     0.028 H 
ATOM     13  H   LIG d   1       2.723   2.460  -9.252  0.00  0.00     0.029 H 
ATOM     14  H   LIG d   1       2.260   1.298 -10.539  0.00  0.00     0.029 H 
ENDROOT
BRANCH   1  15
ATOM     15  C   LIG d   1       6.328  -0.733  -7.045  0.00  0.00     0.097 C 
ATOM     16  H   LIG d   1       6.897  -0.104  -7.729  0.00  0.00     0.059 H 
BRANCH  15  17
ATOM     17  N   LIG d   1       6.447  -0.205  -5.684  0.00  0.00    -0.303 N 
ATOM     18  C   LIG d   1       7.081   0.965  -5.467  0.00  0.00     0.234 C 
ATOM     19  O   LIG d   1       7.553   1.580  -6.400  0.00  0.00    -0.274 OA
ATOM     20  H   LIG d   1       6.070  -0.697  -4.938  0.00  0.00     0.149 HD
BRANCH  18  21
ATOM     21  C   LIG d   1       7.203   1.507  -4.066  0.00  0.00     0.097 C 
ATOM     22  H   LIG d   1       6.797   2.518  -4.030  0.00  0.00     0.059 H 
BRANCH  21  23
ATOM     23  C   LIG d   1       8.677   1.536  -3.657  0.00  0.00    -0.038 C 
ATOM     24  H   LIG d   1       8.910   2.499  -3.202  0.00  0.00     0.025 H 
ATOM     25  H   LIG d   1       8.871   0.738  -2.938  0.00  0.00     0.025 H 
ATOM     26  H   LIG d   1       9.302   1.389  -4.538  0.00  0.00     0.025 H 
ENDBRANCH  21  23
BRANCH  21  27
ATOM     27  N   LIG d   1       6.457   0.648  -3.143  0.00  0.00    -0.304 N 
ATOM     28  C   LIG d   1       5.210   0.990  -2.763  0.00  0.00     0.214 C 
ATOM     29  O   LIG d   1       4.706   2.009  -3.185  0.00  0.00    -0.276 OA
ATOM     30  H   LIG d   1       6.860  -0.167  -2.806  0.00  0.00     0.149 HD
BRANCH  28  31
ATOM     31  C   LIG d   1       4.442   0.106  -1.815  0.00  0.00     0.029 C 
ATOM     32  H   LIG d   1       4.584   0.459  -0.794  0.00  0.00     0.036 H 
ATOM     33  H   LIG d   1       3.382   0.138  -2.066  0.00  0.00     0.036 H 
BRANCH  31  34
ATOM     34  C   LIG d   1       4.951  -1.332  -1.934  0.00  0.00    -0.005 C 
ATOM     35  H   LIG d   1       6.041  -1.333  -1.930  0.00  0.00     0.033 H 
ATOM     36  H   LIG d   1       4.585  -1.917  -1.091  0.00  0.00     0.033 H 
BRANCH  34  37
ATOM     37  C   LIG d   1       4.452  -1.937  -3.220  0.00  0.00     0.042 C 
ATOM     38  O   LIG d   1       5.244  -2.396  -4.026  0.00  0.00    -0.550 OA
ATOM     39  O   LIG d   1       3.256  -1.969  -3.455  0.00  0.00    -0.550 OA
ENDBRANCH  34  37
ENDBRANCH  31  34
ENDBRANCH  28  31
ENDBRANCH  21  27
ENDBRANCH  18  21
ENDBRANCH  15  17
BRANCH  15  40
ATOM     40  C   LIG d   1       6.879  -2.160  -7.088  0.00  0.00    -0.038 C 
ATOM     41  H   LIG d   1       7.969  -2.128  -7.087  0.00  0.00     0.025 H 
ATOM     42  H   LIG d   1       6.531  -2.710  -6.215  0.00  0.00     0.025 H 
ATOM     43  H   LIG d   1       6.531  -2.656  -7.993  0.00  0.00     0.025 H 
ENDBRANCH  15  40
ENDBRANCH   1  15
BRANCH   7  44
ATOM     44  C   LIG d   1       2.499  -0.906  -9.355  0.00  0.00     0.234 C 
ATOM     45  O   LIG d   1       1.305  -1.099  -9.440  0.00  0.00    -0.274 OA
ATOM     46  N   LIG d   1       3.365  -1.824  -9.827  0.00  0.00    -0.303 N 
ATOM     47  H   LIG d   1       4.321  -1.669  -9.760  0.00  0.00     0.149 HD
BRANCH  46  48
ATOM     48  C   LIG d   1       2.864  -3.055 -10.444  0.00  0.00     0.097 C 
ATOM     49  H   LIG d   1       1.790  -2.968 -10.606  0.00  0.00     0.059 H 
BRANCH  48  50
ATOM     50  C   LIG d   1       3.567  -3.276 -11.785  0.00  0.00    -0.038 C 
ATOM     51  H   LIG d   1       2.930  -2.918 -12.593  0.00  0.00     0.025 H 
ATOM     52  H   LIG d   1       4.510  -2.730 -11.796  0.00  0.00     0.025 H 
ATOM     53  H   LIG d   1       3.762  -4.341 -11.921  0.00  0.00     0.025 H 
ENDBRANCH  48  50
BRANCH  48  54
ATOM     54  C   LIG d   1       3.143  -4.222  -9.533  0.00  0.00     0.237 C 
ATOM     55  O   LIG d   1       2.371  -5.156  -9.490  0.00  0.00    -0.273 OA
ATOM     56  N   LIG d   1       4.251  -4.228  -8.764  0.00  0.00    -0.284 N 
ATOM     57  H   LIG d   1       4.904  -3.516  -8.851  0.00  0.00     0.155 HD
BRANCH  56  58
ATOM     58  C   LIG d   1       4.459  -5.260  -7.843  0.00  0.00     0.034 A 
ATOM     59  C   LIG d   1       4.213  -5.047  -6.493  0.00  0.00    -0.034 A 
ATOM     60  C   LIG d   1       4.414  -6.070  -5.586  0.00  0.00     0.017 A 
ATOM     61  H   LIG d   1       3.862  -4.084  -6.152  0.00  0.00     0.064 H 
ATOM     62  C   LIG d   1       4.869  -7.301  -6.021  0.00  0.00     0.273 A 
ATOM     63  H   LIG d   1       4.218  -5.907  -4.537  0.00  0.00     0.069 H 
ATOM     64  C   LIG d   1       5.119  -7.515  -7.364  0.00  0.00     0.017 A 
ATOM     65  C   LIG d   1       4.916  -6.498  -8.275  0.00  0.00    -0.034 A 
ATOM     66  H   LIG d   1       5.474  -8.478  -7.700  0.00  0.00     0.069 H 
ATOM     67  H   LIG d   1       5.111  -6.666  -9.324  0.00  0.00     0.064 H 
BRANCH  62  68
ATOM     68  N   LIG d   1       5.089  -8.393  -5.046  0.00  0.00     0.080 N 
ATOM     69  O   LIG d   1       4.143  -8.939  -4.527  0.00  0.00     0.041 OA
ATOM     70  O   LIG d   1       6.213  -8.739  -4.767  0.00  0.00    -0.576 OA
ENDBRANCH  62  68
ENDBRANCH  56  58
ENDBRANCH  48  54
ENDBRANCH  46  48
ENDBRANCH   7  44
TORSDOF 15
ENDMDL
MODEL 3
REMARK VINA RESULT:      -6.6      3.364      7.204
REMARK  15 active torsions:
REMARK  status: ('A' for Active; 'I' for Inactive)
REMARK    1  A    between atoms: C_1  and  C_2 
REMARK    2  A    between atoms: C_2  and  C_4 
REMARK    3  A    between atoms: C_2  and  N_36 
REMARK       I    between atoms: C_4  and  N_6 
REMARK    4  A    between atoms: N_6  and  C_7 
REMARK    5  A    between atoms: C_7  and  C_9 
REMARK    6  A    between atoms: C_7  and  C_10 
REMARK       I    between atoms: C_10  and  N_12 
REMARK    7  A    between atoms: C_16  and  C_18 
REMARK       I    between atoms: C_18  and  N_20 
REMARK    8  A    between atoms: N_20  and  C_21 
REMARK    9  A    between atoms: C_21  and  C_23 
REMARK   10  A    between atoms: C_21  and  C_24 
REMARK       I    between atoms: C_24  and  N_26 
REMARK   11  A    between atoms: N_26  and  C_27 
REMARK   12  A    between atoms: C_30  and  N_33 
REMARK       I    between atoms: N_36  and  C_37 
REMARK   13  A    between atoms: C_37  and  C_39 
REMARK   14  A    between atoms: C_39  and  C_40 
REMARK   15  A    between atoms: C_40  and  C_41 
ROOT
ATOM      1  C   LIG d   1      10.087   5.648  -2.936  0.00  0.00     0.236 C 
ATOM      2  O   LIG d   1       9.114   6.236  -3.359  0.00  0.00    -0.274 OA
ATOM      3  N   LIG d   1      10.580   5.950  -1.719  0.00  0.00    -0.288 N 
ATOM      4  C   LIG d   1      11.816   5.401  -1.132  0.00  0.00     0.016 C 
ATOM      5  C   LIG d   1      12.264   6.456  -0.090  0.00  0.00    -0.035 C 
ATOM      6  C   LIG d   1      10.899   6.928   0.480  0.00  0.00    -0.024 C 
ATOM      7  C   LIG d   1       9.977   6.885  -0.758  0.00  0.00     0.102 C 
ATOM      8  H   LIG d   1       8.988   6.533  -0.468  0.00  0.00     0.060 H 
ATOM      9  H   LIG d   1      11.614   4.448  -0.644  0.00  0.00     0.046 H 
ATOM     10  H   LIG d   1      12.579   5.280  -1.901  0.00  0.00     0.046 H 
ATOM     11  H   LIG d   1      12.875   6.001   0.690  0.00  0.00     0.028 H 
ATOM     12  H   LIG d   1      12.793   7.279  -0.569  0.00  0.00     0.028 H 
ATOM     13  H   LIG d   1      10.546   6.245   1.253  0.00  0.00     0.029 H 
ATOM     14  H   LIG d   1      10.974   7.945   0.866  0.00  0.00     0.029 H 
ENDROOT
BRANCH   1  15
ATOM     15  C   LIG d   1      10.744   4.581  -3.772  0.00  0.00     0.097 C 
ATOM     16  H   LIG d   1      11.399   3.977  -3.143  0.00  0.00     0.059 H 
BRANCH  15  17
ATOM     17  N   LIG d   1       9.716   3.725  -4.368  0.00  0.00    -0.303 N 
ATOM     18  C   LIG d   1       9.460   2.511  -3.841  0.00  0.00     0.234 C 
ATOM     19  O   LIG d   1      10.080   2.127  -2.873  0.00  0.00    -0.274 OA
ATOM     20  H   LIG d   1       9.220   4.031  -5.144  0.00  0.00     0.149 HD
BRANCH  18  21
ATOM     21  C   LIG d   1       8.401   1.631  -4.456  0.00  0.00     0.097 C 
ATOM     22  H   LIG d   1       8.659   0.585  -4.295  0.00  0.00     0.059 H 
BRANCH  21  23
ATOM     23  C   LIG d   1       8.316   1.909  -5.958  0.00  0.00    -0.038 C 
ATOM     24  H   LIG d   1       8.455   2.975  -6.139  0.00  0.00     0.025 H 
ATOM     25  H   LIG d   1       9.096   1.348  -6.476  0.00  0.00     0.025 H 
ATOM     26  H   LIG d   1       7.339   1.601  -6.330  0.00  0.00     0.025 H 
ENDBRANCH  21  23
BRANCH  21  27
ATOM     27  N   LIG d   1       7.107   1.917  -3.833  0.00  0.00    -0.304 N 
ATOM     28  C   LIG d   1       6.389   0.917  -3.282  0.00  0.00     0.214 C 
ATOM     29  O   LIG d   1       6.815  -0.217  -3.303  0.00  0.00    -0.276 OA
ATOM     30  H   LIG d   1       6.766   2.825  -3.816  0.00  0.00     0.149 HD
BRANCH  28  31
ATOM     31  C   LIG d   1       5.058   1.211  -2.640  0.00  0.00     0.029 C 
ATOM     32  H   LIG d   1       5.170   2.027  -1.927  0.00  0.00     0.036 H 
ATOM     33  H   LIG d   1       4.339   1.497  -3.408  0.00  0.00     0.036 H 
BRANCH  31  34
ATOM     34  C   LIG d   1       4.556  -0.037  -1.912  0.00  0.00    -0.005 C 
ATOM     35  H   LIG d   1       5.380  -0.739  -1.784  0.00  0.00     0.033 H 
ATOM     36  H   LIG d   1       4.164   0.245  -0.935  0.00  0.00     0.033 H 
BRANCH  34  37
ATOM     37  C   LIG d   1       3.464  -0.687  -2.722  0.00  0.00     0.042 C 
ATOM     38  O   LIG d   1       2.774  -0.012  -3.468  0.00  0.00    -0.550 OA
ATOM     39  O   LIG d   1       3.271  -1.887  -2.633  0.00  0.00    -0.550 OA
ENDBRANCH  34  37
ENDBRANCH  31  34
ENDBRANCH  28  31
ENDBRANCH  21  27
ENDBRANCH  18  21
ENDBRANCH  15  17
BRANCH  15  40
ATOM     40  C   LIG d   1      11.569   5.236  -4.882  0.00  0.00    -0.038 C 
ATOM     41  H   LIG d   1      11.063   6.139  -5.225  0.00  0.00     0.025 H 
ATOM     42  H   LIG d   1      12.554   5.496  -4.496  0.00  0.00     0.025 H 
ATOM     43  H   LIG d   1      11.676   4.541  -5.714  0.00  0.00     0.025 H 
ENDBRANCH  15  40
ENDBRANCH   1  15
BRANCH   7  44
ATOM     44  C   LIG d   1       9.876   8.257  -1.373  0.00  0.00     0.234 C 
ATOM     45  O   LIG d   1       8.970   8.998  -1.056  0.00  0.00    -0.274 OA
ATOM     46  N   LIG d   1      10.791   8.660  -2.276  0.00  0.00    -0.303 N 
ATOM     47  H   LIG d   1      11.517   8.067  -2.529  0.00  0.00     0.149 HD
BRANCH  46  48
ATOM     48  C   LIG d   1      10.693   9.994  -2.873  0.00  0.00     0.097 C 
ATOM     49  H   LIG d   1       9.785  10.483  -2.522  0.00  0.00     0.059 H 
BRANCH  48  50
ATOM     50  C   LIG d   1      11.911  10.827  -2.467  0.00  0.00    -0.038 C 
ATOM     51  H   LIG d   1      12.818  10.243  -2.622  0.00  0.00     0.025 H 
ATOM     52  H   LIG d   1      11.951  11.732  -3.074  0.00  0.00     0.025 H 
ATOM     53  H   LIG d   1      11.830  11.099  -1.414  0.00  0.00     0.025 H 
ENDBRANCH  48  50
BRANCH  48  54
ATOM     54  C   LIG d   1      10.649   9.870  -4.374  0.00  0.00     0.237 C 
ATOM     55  O   LIG d   1      10.621  10.866  -5.065  0.00  0.00    -0.273 OA
ATOM     56  N   LIG d   1      10.641   8.650  -4.950  0.00  0.00    -0.284 N 
ATOM     57  H   LIG d   1      10.736   7.855  -4.402  0.00  0.00     0.155 HD
BRANCH  56  58
ATOM     58  C   LIG d   1      10.496   8.531  -6.336  0.00  0.00     0.034 A 
ATOM     59  C   LIG d   1      11.617   8.547  -7.157  0.00  0.00    -0.034 A 
ATOM     60  C   LIG d   1      11.471   8.424  -8.525  0.00  0.00     0.017 A 
ATOM     61  H   LIG d   1      12.602   8.651  -6.725  0.00  0.00     0.064 H 
ATOM     62  C   LIG d   1      10.210   8.297  -9.078  0.00  0.00     0.273 A 
ATOM     63  H   LIG d   1      12.342   8.430  -9.163  0.00  0.00     0.069 H 
ATOM     64  C   LIG d   1       9.092   8.286  -8.265  0.00  0.00     0.017 A 
ATOM     65  C   LIG d   1       9.232   8.405  -6.896  0.00  0.00    -0.034 A 
ATOM     66  H   LIG d   1       8.109   8.187  -8.700  0.00  0.00     0.069 H 
ATOM     67  H   LIG d   1       8.358   8.395  -6.261  0.00  0.00     0.064 H 
BRANCH  62  68
ATOM     68  N   LIG d   1      10.058   8.171 -10.545  0.00  0.00     0.080 N 
ATOM     69  O   LIG d   1      10.297   9.116 -11.260  0.00  0.00     0.041 OA
ATOM     70  O   LIG d   1       9.693   7.125 -11.029  0.00  0.00    -0.576 OA
ENDBRANCH  62  68
ENDBRANCH  56  58
ENDBRANCH  48  54
ENDBRANCH  46  48
ENDBRANCH   7  44
TORSDOF 15
ENDMDL
MODEL 4
REMARK VINA RESULT:      -6.5      6.169     13.394
REMARK  15 active torsions:
REMARK  status: ('A' for Active; 'I' for Inactive)
REMARK    1  A    between atoms: C_1  and  C_2 
REMARK    2  A    between atoms: C_2  and  C_4 
REMARK    3  A    between atoms: C_2  and  N_36 
REMARK       I    between atoms: C_4  and  N_6 
REMARK    4  A    between atoms: N_6  and  C_7 
REMARK    5  A    between atoms: C_7  and  C_9 
REMARK    6  A    between atoms: C_7  and  C_10 
REMARK       I    between atoms: C_10  and  N_12 
REMARK    7  A    between atoms: C_16  and  C_18 
REMARK       I    between atoms: C_18  and  N_20 
REMARK    8  A    between atoms: N_20  and  C_21 
REMARK    9  A    between atoms: C_21  and  C_23 
REMARK   10  A    between atoms: C_21  and  C_24 
REMARK       I    between atoms: C_24  and  N_26 
REMARK   11  A    between atoms: N_26  and  C_27 
REMARK   12  A    between atoms: C_30  and  N_33 
REMARK       I    between atoms: N_36  and  C_37 
REMARK   13  A    between atoms: C_37  and  C_39 
REMARK   14  A    between atoms: C_39  and  C_40 
REMARK   15  A    between atoms: C_40  and  C_41 
ROOT
ATOM      1  C   LIG d   1       4.757  -1.786  -7.936  0.00  0.00     0.236 C 
ATOM      2  O   LIG d   1       4.479  -2.939  -7.686  0.00  0.00    -0.274 OA
ATOM      3  N   LIG d   1       3.895  -1.020  -8.634  0.00  0.00    -0.288 N 
ATOM      4  C   LIG d   1       4.152   0.353  -9.106  0.00  0.00     0.016 C 
ATOM      5  C   LIG d   1       3.201   0.542 -10.314  0.00  0.00    -0.035 C 
ATOM      6  C   LIG d   1       1.942  -0.235  -9.844  0.00  0.00    -0.024 C 
ATOM      7  C   LIG d   1       2.544  -1.418  -9.056  0.00  0.00     0.102 C 
ATOM      8  H   LIG d   1       1.929  -1.629  -8.181  0.00  0.00     0.060 H 
ATOM      9  H   LIG d   1       3.918   1.073  -8.323  0.00  0.00     0.046 H 
ATOM     10  H   LIG d   1       5.190   0.457  -9.420  0.00  0.00     0.046 H 
ATOM     11  H   LIG d   1       2.973   1.596 -10.471  0.00  0.00     0.028 H 
ATOM     12  H   LIG d   1       3.621   0.096 -11.216  0.00  0.00     0.028 H 
ATOM     13  H   LIG d   1       1.323   0.388  -9.199  0.00  0.00     0.029 H 
ATOM     14  H   LIG d   1       1.370  -0.595 -10.699  0.00  0.00     0.029 H 
ENDROOT
BRANCH   1  15
ATOM     15  C   LIG d   1       6.067  -1.208  -7.467  0.00  0.00     0.097 C 
ATOM     16  H   LIG d   1       6.086  -0.137  -7.669  0.00  0.00     0.059 H 
BRANCH  15  17
ATOM     17  N   LIG d   1       6.214  -1.435  -6.027  0.00  0.00    -0.303 N 
ATOM     18  C   LIG d   1       6.940  -0.581  -5.280  0.00  0.00     0.234 C 
ATOM     19  O   LIG d   1       7.474   0.376  -5.800  0.00  0.00    -0.274 OA
ATOM     20  H   LIG d   1       5.787  -2.201  -5.611  0.00  0.00     0.149 HD
BRANCH  18  21
ATOM     21  C   LIG d   1       7.090  -0.815  -3.799  0.00  0.00     0.097 C 
ATOM     22  H   LIG d   1       7.847  -0.142  -3.398  0.00  0.00     0.059 H 
BRANCH  21  23
ATOM     23  C   LIG d   1       7.516  -2.264  -3.552  0.00  0.00    -0.038 C 
ATOM     24  H   LIG d   1       8.130  -2.314  -2.653  0.00  0.00     0.025 H 
ATOM     25  H   LIG d   1       6.629  -2.886  -3.421  0.00  0.00     0.025 H 
ATOM     26  H   LIG d   1       8.089  -2.624  -4.406  0.00  0.00     0.025 H 
ENDBRANCH  21  23
BRANCH  21  27
ATOM     27  N   LIG d   1       5.810  -0.562  -3.133  0.00  0.00    -0.304 N 
ATOM     28  C   LIG d   1       5.464   0.696  -2.795  0.00  0.00     0.214 C 
ATOM     29  O   LIG d   1       6.211   1.617  -3.042  0.00  0.00    -0.276 OA
ATOM     30  H   LIG d   1       5.212  -1.299  -2.935  0.00  0.00     0.149 HD
BRANCH  28  31
ATOM     31  C   LIG d   1       4.147   0.956  -2.110  0.00  0.00     0.029 C 
ATOM     32  H   LIG d   1       4.212   0.650  -1.067  0.00  0.00     0.036 H 
ATOM     33  H   LIG d   1       3.914   2.020  -2.163  0.00  0.00     0.036 H 
BRANCH  31  34
ATOM     34  C   LIG d   1       3.043   0.158  -2.808  0.00  0.00    -0.005 C 
ATOM     35  H   LIG d   1       3.235  -0.908  -2.688  0.00  0.00     0.033 H 
ATOM     36  H   LIG d   1       2.080   0.406  -2.363  0.00  0.00     0.033 H 
BRANCH  34  37
ATOM     37  C   LIG d   1       3.024   0.503  -4.274  0.00  0.00     0.042 C 
ATOM     38  O   LIG d   1       2.659   1.609  -4.636  0.00  0.00    -0.550 OA
ATOM     39  O   LIG d   1       3.374  -0.323  -5.100  0.00  0.00    -0.550 OA
ENDBRANCH  34  37
ENDBRANCH  31  34
ENDBRANCH  28  31
ENDBRANCH  21  27
ENDBRANCH  18  21
ENDBRANCH  15  17
BRANCH  15  40
ATOM     40  C   LIG d   1       7.220  -1.887  -8.210  0.00  0.00    -0.038 C 
ATOM     41  H   LIG d   1       6.952  -2.921  -8.429  0.00  0.00     0.025 H 
ATOM     42  H   LIG d   1       7.413  -1.356  -9.142  0.00  0.00     0.025 H 
ATOM     43  H   LIG d   1       8.115  -1.868  -7.588  0.00  0.00     0.025 H 
ENDBRANCH  15  40
ENDBRANCH   1  15
BRANCH   7  44
ATOM     44  C   LIG d   1       2.621  -2.639  -9.937  0.00  0.00     0.234 C 
ATOM     45  O   LIG d   1       3.034  -2.541 -11.073  0.00  0.00    -0.274 OA
ATOM     46  N   LIG d   1       2.230  -3.838  -9.463  0.00  0.00    -0.303 N 
ATOM     47  H   LIG d   1       1.899  -3.916  -8.554  0.00  0.00     0.149 HD
BRANCH  46  48
ATOM     48  C   LIG d   1       2.305  -5.024 -10.320  0.00  0.00     0.097 C 
ATOM     49  H   LIG d   1       2.884  -4.790 -11.213  0.00  0.00     0.059 H 
BRANCH  48  50
ATOM     50  C   LIG d   1       2.983  -6.163  -9.556  0.00  0.00    -0.038 C 
ATOM     51  H   LIG d   1       3.934  -6.403 -10.030  0.00  0.00     0.025 H 
ATOM     52  H   LIG d   1       3.157  -5.856  -8.524  0.00  0.00     0.025 H 
ATOM     53  H   LIG d   1       2.338  -7.043  -9.569  0.00  0.00     0.025 H 
ENDBRANCH  48  50
BRANCH  48  54
ATOM     54  C   LIG d   1       0.914  -5.444 -10.718  0.00  0.00     0.237 C 
ATOM     55  O   LIG d   1       0.585  -5.427 -11.884  0.00  0.00    -0.273 OA
ATOM     56  N   LIG d   1       0.034  -5.842  -9.776  0.00  0.00    -0.284 N 
ATOM     57  H   LIG d   1       0.319  -5.925  -8.852  0.00  0.00     0.155 HD
BRANCH  56  58
ATOM     58  C   LIG d   1      -1.287  -6.133 -10.130  0.00  0.00     0.034 A 
ATOM     59  C   LIG d   1      -2.228  -5.114 -10.206  0.00  0.00    -0.034 A 
ATOM     60  C   LIG d   1      -3.531  -5.404 -10.562  0.00  0.00     0.017 A 
ATOM     61  H   LIG d   1      -1.940  -4.095  -9.991  0.00  0.00     0.064 H 
ATOM     62  C   LIG d   1      -3.901  -6.709 -10.831  0.00  0.00     0.273 A 
ATOM     63  H   LIG d   1      -4.262  -4.612 -10.626  0.00  0.00     0.069 H 
ATOM     64  C   LIG d   1      -2.968  -7.727 -10.751  0.00  0.00     0.017 A 
ATOM     65  C   LIG d   1      -1.663  -7.442 -10.400  0.00  0.00    -0.034 A 
ATOM     66  H   LIG d   1      -3.260  -8.744 -10.962  0.00  0.00     0.069 H 
ATOM     67  H   LIG d   1      -0.935  -8.237 -10.339  0.00  0.00     0.064 H 
BRANCH  62  68
ATOM     68  N   LIG d   1      -5.299  -7.017 -11.206  0.00  0.00     0.080 N 
ATOM     69  O   LIG d   1      -5.708  -8.153 -11.136  0.00  0.00     0.041 OA
ATOM     70  O   LIG d   1      -6.034  -6.134 -11.582  0.00  0.00    -0.576 OA
ENDBRANCH  62  68
ENDBRANCH  56  58
ENDBRANCH  48  54
ENDBRANCH  46  48
ENDBRANCH   7  44
TORSDOF 15
ENDMDL
MODEL 5
REMARK VINA RESULT:      -6.5      4.353      8.190
REMARK  15 active torsions:
REMARK  status: ('A' for Active; 'I' for Inactive)
REMARK    1  A    between atoms: C_1  and  C_2 
REMARK    2  A    between atoms: C_2  and  C_4 
REMARK    3  A    between atoms: C_2  and  N_36 
REMARK       I    between atoms: C_4  and  N_6 
REMARK    4  A    between atoms: N_6  and  C_7 
REMARK    5  A    between atoms: C_7  and  C_9 
REMARK    6  A    between atoms: C_7  and  C_10 
REMARK       I    between atoms: C_10  and  N_12 
REMARK    7  A    between atoms: C_16  and  C_18 
REMARK       I    between atoms: C_18  and  N_20 
REMARK    8  A    between atoms: N_20  and  C_21 
REMARK    9  A    between atoms: C_21  and  C_23 
REMARK   10  A    between atoms: C_21  and  C_24 
REMARK       I    between atoms: C_24  and  N_26 
REMARK   11  A    between atoms: N_26  and  C_27 
REMARK   12  A    between atoms: C_30  and  N_33 
REMARK       I    between atoms: N_36  and  C_37 
REMARK   13  A    between atoms: C_37  and  C_39 
REMARK   14  A    between atoms: C_39  and  C_40 
REMARK   15  A    between atoms: C_40  and  C_41 
ROOT
ATOM      1  C   LIG d   1       7.720  -0.409  -4.790  0.00  0.00     0.236 C 
ATOM      2  O   LIG d   1       8.042  -1.239  -5.613  0.00  0.00    -0.274 OA
ATOM      3  N   LIG d   1       8.293   0.812  -4.804  0.00  0.00    -0.288 N 
ATOM      4  C   LIG d   1       8.083   1.871  -3.800  0.00  0.00     0.016 C 
ATOM      5  C   LIG d   1       9.350   2.757  -3.887  0.00  0.00    -0.035 C 
ATOM      6  C   LIG d   1       9.639   2.737  -5.412  0.00  0.00    -0.024 C 
ATOM      7  C   LIG d   1       9.234   1.304  -5.820  0.00  0.00     0.102 C 
ATOM      8  H   LIG d   1       8.751   1.322  -6.797  0.00  0.00     0.060 H 
ATOM      9  H   LIG d   1       7.195   2.454  -4.044  0.00  0.00     0.046 H 
ATOM     10  H   LIG d   1       7.991   1.437  -2.805  0.00  0.00     0.046 H 
ATOM     11  H   LIG d   1       9.144   3.770  -3.543  0.00  0.00     0.028 H 
ATOM     12  H   LIG d   1      10.175   2.316  -3.328  0.00  0.00     0.028 H 
ATOM     13  H   LIG d   1       9.030   3.477  -5.931  0.00  0.00     0.029 H 
ATOM     14  H   LIG d   1      10.699   2.905  -5.606  0.00  0.00     0.029 H 
ENDROOT
BRANCH   1  15
ATOM     15  C   LIG d   1       6.680  -0.741  -3.752  0.00  0.00     0.097 C 
ATOM     16  H   LIG d   1       6.713   0.000  -2.953  0.00  0.00     0.059 H 
BRANCH  15  17
ATOM     17  N   LIG d   1       5.352  -0.731  -4.370  0.00  0.00    -0.303 N 
ATOM     18  C   LIG d   1       4.482   0.258  -4.085  0.00  0.00     0.234 C 
ATOM     19  O   LIG d   1       4.799   1.141  -3.315  0.00  0.00    -0.274 OA
ATOM     20  H   LIG d   1       5.098  -1.437  -4.985  0.00  0.00     0.149 HD
BRANCH  18  21
ATOM     21  C   LIG d   1       3.116   0.268  -4.721  0.00  0.00     0.097 C 
ATOM     22  H   LIG d   1       2.761   1.294  -4.808  0.00  0.00     0.059 H 
BRANCH  21  23
ATOM     23  C   LIG d   1       2.144  -0.536  -3.855  0.00  0.00    -0.038 C 
ATOM     24  H   LIG d   1       2.157  -0.146  -2.837  0.00  0.00     0.025 H 
ATOM     25  H   LIG d   1       1.136  -0.450  -4.264  0.00  0.00     0.025 H 
ATOM     26  H   LIG d   1       2.445  -1.583  -3.847  0.00  0.00     0.025 H 
ENDBRANCH  21  23
BRANCH  21  27
ATOM     27  N   LIG d   1       3.195  -0.336  -6.054  0.00  0.00    -0.304 N 
ATOM     28  C   LIG d   1       3.059   0.435  -7.152  0.00  0.00     0.214 C 
ATOM     29  O   LIG d   1       2.872   1.627  -7.035  0.00  0.00    -0.276 OA
ATOM     30  H   LIG d   1       3.345  -1.290  -6.147  0.00  0.00     0.149 HD
BRANCH  28  31
ATOM     31  C   LIG d   1       3.141  -0.185  -8.522  0.00  0.00     0.029 C 
ATOM     32  H   LIG d   1       3.181  -1.270  -8.429  0.00  0.00     0.036 H 
ATOM     33  H   LIG d   1       2.263   0.097  -9.102  0.00  0.00     0.036 H 
BRANCH  31  34
ATOM     34  C   LIG d   1       4.402   0.312  -9.233  0.00  0.00    -0.005 C 
ATOM     35  H   LIG d   1       5.014   0.879  -8.531  0.00  0.00     0.033 H 
ATOM     36  H   LIG d   1       4.970  -0.541  -9.603  0.00  0.00     0.033 H 
BRANCH  34  37
ATOM     37  C   LIG d   1       4.011   1.196 -10.388  0.00  0.00     0.042 C 
ATOM     38  O   LIG d   1       4.072   0.771 -11.530  0.00  0.00    -0.550 OA
ATOM     39  O   LIG d   1       3.633   2.337 -10.182  0.00  0.00    -0.550 OA
ENDBRANCH  34  37
ENDBRANCH  31  34
ENDBRANCH  28  31
ENDBRANCH  21  27
ENDBRANCH  18  21
ENDBRANCH  15  17
BRANCH  15  40
ATOM     40  C   LIG d   1       6.962  -2.128  -3.171  0.00  0.00    -0.038 C 
ATOM     41  H   LIG d   1       6.019  -2.612  -2.912  0.00  0.00     0.025 H 
ATOM     42  H   LIG d   1       7.487  -2.731  -3.911  0.00  0.00     0.025 H 
ATOM     43  H   LIG d   1       7.577  -2.030  -2.278  0.00  0.00     0.025 H 
ENDBRANCH  15  40
ENDBRANCH   1  15
BRANCH   7  44
ATOM     44  C   LIG d   1      10.452   0.417  -5.864  0.00  0.00     0.234 C 
ATOM     45  O   LIG d   1      11.025   0.226  -6.915  0.00  0.00    -0.274 OA
ATOM     46  N   LIG d   1      10.902  -0.165  -4.735  0.00  0.00    -0.303 N 
ATOM     47  H   LIG d   1      10.443  -0.012  -3.894  0.00  0.00     0.149 HD
BRANCH  46  48
ATOM     48  C   LIG d   1      12.086  -1.027  -4.778  0.00  0.00     0.097 C 
ATOM     49  H   LIG d   1      12.409  -1.149  -5.811  0.00  0.00     0.059 H 
BRANCH  48  50
ATOM     50  C   LIG d   1      13.212  -0.389  -3.962  0.00  0.00    -0.038 C 
ATOM     51  H   LIG d   1      13.667   0.417  -4.539  0.00  0.00     0.025 H 
ATOM     52  H   LIG d   1      12.806   0.012  -3.033  0.00  0.00     0.025 H 
ATOM     53  H   LIG d   1      13.966  -1.142  -3.734  0.00  0.00     0.025 H 
ENDBRANCH  48  50
BRANCH  48  54
ATOM     54  C   LIG d   1      11.746  -2.375  -4.195  0.00  0.00     0.237 C 
ATOM     55  O   LIG d   1      12.632  -3.120  -3.835  0.00  0.00    -0.273 OA
ATOM     56  N   LIG d   1      10.457  -2.752  -4.072  0.00  0.00    -0.284 N 
ATOM     57  H   LIG d   1       9.747  -2.128  -4.293  0.00  0.00     0.155 HD
BRANCH  56  58
ATOM     58  C   LIG d   1      10.143  -4.040  -3.629  0.00  0.00     0.034 A 
ATOM     59  C   LIG d   1       9.970  -4.286  -2.272  0.00  0.00    -0.034 A 
ATOM     60  C   LIG d   1       9.655  -5.558  -1.837  0.00  0.00     0.017 A 
ATOM     61  H   LIG d   1      10.078  -3.481  -1.559  0.00  0.00     0.064 H 
ATOM     62  C   LIG d   1       9.523  -6.589  -2.749  0.00  0.00     0.273 A 
ATOM     63  H   LIG d   1       9.515  -5.749  -0.783  0.00  0.00     0.069 H 
ATOM     64  C   LIG d   1       9.700  -6.349  -4.099  0.00  0.00     0.017 A 
ATOM     65  C   LIG d   1      10.011  -5.078  -4.541  0.00  0.00    -0.034 A 
ATOM     66  H   LIG d   1       9.596  -7.156  -4.809  0.00  0.00     0.069 H 
ATOM     67  H   LIG d   1      10.148  -4.891  -5.596  0.00  0.00     0.064 H 
BRANCH  62  68
ATOM     68  N   LIG d   1       9.192  -7.953  -2.278  0.00  0.00     0.080 N 
ATOM     69  O   LIG d   1       9.919  -8.514  -1.493  0.00  0.00     0.041 OA
ATOM     70  O   LIG d   1       8.194  -8.506  -2.679  0.00  0.00    -0.576 OA
ENDBRANCH  62  68
ENDBRANCH  56  58
ENDBRANCH  48  54
ENDBRANCH  46  48
ENDBRANCH   7  44
TORSDOF 15
ENDMDL
MODEL 6
REMARK VINA RESULT:      -6.3      5.487     11.195
REMARK  15 active torsions:
REMARK  status: ('A' for Active; 'I' for Inactive)
REMARK    1  A    between atoms: C_1  and  C_2 
REMARK    2  A    between atoms: C_2  and  C_4 
REMARK    3  A    between atoms: C_2  and  N_36 
REMARK       I    between atoms: C_4  and  N_6 
REMARK    4  A    between atoms: N_6  and  C_7 
REMARK    5  A    between atoms: C_7  and  C_9 
REMARK    6  A    between atoms: C_7  and  C_10 
REMARK       I    between atoms: C_10  and  N_12 
REMARK    7  A    between atoms: C_16  and  C_18 
REMARK       I    between atoms: C_18  and  N_20 
REMARK    8  A    between atoms: N_20  and  C_21 
REMARK    9  A    between atoms: C_21  and  C_23 
REMARK   10  A    between atoms: C_21  and  C_24 
REMARK       I    between atoms: C_24  and  N_26 
REMARK   11  A    between atoms: N_26  and  C_27 
REMARK   12  A    between atoms: C_30  and  N_33 
REMARK       I    between atoms: N_36  and  C_37 
REMARK   13  A    between atoms: C_37  and  C_39 
REMARK   14  A    between atoms: C_39  and  C_40 
REMARK   15  A    between atoms: C_40  and  C_41 
ROOT
ATOM      1  C   LIG d   1       4.685  -1.064  -7.907  0.00  0.00     0.236 C 
ATOM      2  O   LIG d   1       3.898  -1.984  -7.848  0.00  0.00    -0.274 OA
ATOM      3  N   LIG d   1       4.270   0.154  -8.309  0.00  0.00    -0.288 N 
ATOM      4  C   LIG d   1       5.136   1.326  -8.536  0.00  0.00     0.016 C 
ATOM      5  C   LIG d   1       4.350   2.213  -9.533  0.00  0.00    -0.035 C 
ATOM      6  C   LIG d   1       2.890   2.010  -9.045  0.00  0.00    -0.024 C 
ATOM      7  C   LIG d   1       2.880   0.533  -8.599  0.00  0.00     0.102 C 
ATOM      8  H   LIG d   1       2.270   0.423  -7.702  0.00  0.00     0.060 H 
ATOM      9  H   LIG d   1       5.303   1.861  -7.602  0.00  0.00     0.046 H 
ATOM     10  H   LIG d   1       6.086   1.016  -8.972  0.00  0.00     0.046 H 
ATOM     11  H   LIG d   1       4.648   3.257  -9.447  0.00  0.00     0.028 H 
ATOM     12  H   LIG d   1       4.473   1.856 -10.556  0.00  0.00     0.028 H 
ATOM     13  H   LIG d   1       2.668   2.672  -8.208  0.00  0.00     0.029 H 
ATOM     14  H   LIG d   1       2.186   2.169  -9.862  0.00  0.00     0.029 H 
ENDROOT
BRANCH   1  15
ATOM     15  C   LIG d   1       6.128  -1.281  -7.529  0.00  0.00     0.097 C 
ATOM     16  H   LIG d   1       6.713  -0.405  -7.808  0.00  0.00     0.059 H 
BRANCH  15  17
ATOM     17  N   LIG d   1       6.228  -1.494  -6.084  0.00  0.00    -0.303 N 
ATOM     18  C   LIG d   1       6.946  -0.643  -5.325  0.00  0.00     0.234 C 
ATOM     19  O   LIG d   1       7.511   0.299  -5.839  0.00  0.00    -0.274 OA
ATOM     20  H   LIG d   1       5.777  -2.249  -5.672  0.00  0.00     0.149 HD
BRANCH  18  21
ATOM     21  C   LIG d   1       7.049  -0.864  -3.837  0.00  0.00     0.097 C 
ATOM     22  H   LIG d   1       7.831  -0.225  -3.428  0.00  0.00     0.059 H 
BRANCH  21  23
ATOM     23  C   LIG d   1       7.390  -2.329  -3.561  0.00  0.00    -0.038 C 
ATOM     24  H   LIG d   1       8.337  -2.387  -3.024  0.00  0.00     0.025 H 
ATOM     25  H   LIG d   1       6.602  -2.779  -2.955  0.00  0.00     0.025 H 
ATOM     26  H   LIG d   1       7.474  -2.867  -4.505  0.00  0.00     0.025 H 
ENDBRANCH  21  23
BRANCH  21  27
ATOM     27  N   LIG d   1       5.769  -0.533  -3.205  0.00  0.00    -0.304 N 
ATOM     28  C   LIG d   1       5.534   0.722  -2.774  0.00  0.00     0.214 C 
ATOM     29  O   LIG d   1       6.383   1.577  -2.909  0.00  0.00    -0.276 OA
ATOM     30  H   LIG d   1       5.090  -1.218  -3.098  0.00  0.00     0.149 HD
BRANCH  28  31
ATOM     31  C   LIG d   1       4.218   1.062  -2.126  0.00  0.00     0.029 C 
ATOM     32  H   LIG d   1       4.276   0.859  -1.056  0.00  0.00     0.036 H 
ATOM     33  H   LIG d   1       3.996   2.117  -2.284  0.00  0.00     0.036 H 
BRANCH  31  34
ATOM     34  C   LIG d   1       3.108   0.210  -2.746  0.00  0.00    -0.005 C 
ATOM     35  H   LIG d   1       3.329  -0.845  -2.588  0.00  0.00     0.033 H 
ATOM     36  H   LIG d   1       2.156   0.456  -2.277  0.00  0.00     0.033 H 
BRANCH  34  37
ATOM     37  C   LIG d   1       3.028   0.491  -4.225  0.00  0.00     0.042 C 
ATOM     38  O   LIG d   1       2.663   1.586  -4.619  0.00  0.00    -0.550 OA
ATOM     39  O   LIG d   1       3.328  -0.377  -5.027  0.00  0.00    -0.550 OA
ENDBRANCH  34  37
ENDBRANCH  31  34
ENDBRANCH  28  31
ENDBRANCH  21  27
ENDBRANCH  18  21
ENDBRANCH  15  17
BRANCH  15  40
ATOM     40  C   LIG d   1       6.668  -2.509  -8.265  0.00  0.00    -0.038 C 
ATOM     41  H   LIG d   1       7.686  -2.715  -7.929  0.00  0.00     0.025 H 
ATOM     42  H   LIG d   1       6.035  -3.369  -8.049  0.00  0.00     0.025 H 
ATOM     43  H   LIG d   1       6.671  -2.319  -9.337  0.00  0.00     0.025 H 
ENDBRANCH  15  40
ENDBRANCH   1  15
BRANCH   7  44
ATOM     44  C   LIG d   1       2.332  -0.335  -9.703  0.00  0.00     0.234 C 
ATOM     45  O   LIG d   1       1.155  -0.627  -9.718  0.00  0.00    -0.274 OA
ATOM     46  N   LIG d   1       3.151  -0.788 -10.673  0.00  0.00    -0.303 N 
ATOM     47  H   LIG d   1       4.093  -0.555 -10.661  0.00  0.00     0.149 HD
BRANCH  46  48
ATOM     48  C   LIG d   1       2.618  -1.631 -11.746  0.00  0.00     0.097 C 
ATOM     49  H   LIG d   1       1.537  -1.506 -11.804  0.00  0.00     0.059 H 
BRANCH  48  50
ATOM     50  C   LIG d   1       3.252  -1.223 -13.078  0.00  0.00    -0.038 C 
ATOM     51  H   LIG d   1       3.805  -0.293 -12.948  0.00  0.00     0.025 H 
ATOM     52  H   LIG d   1       3.931  -2.007 -13.413  0.00  0.00     0.025 H 
ATOM     53  H   LIG d   1       2.469  -1.079 -13.823  0.00  0.00     0.025 H 
ENDBRANCH  48  50
BRANCH  48  54
ATOM     54  C   LIG d   1       2.942  -3.074 -11.458  0.00  0.00     0.237 C 
ATOM     55  O   LIG d   1       2.313  -3.957 -12.000  0.00  0.00    -0.273 OA
ATOM     56  N   LIG d   1       3.934  -3.384 -10.598  0.00  0.00    -0.284 N 
ATOM     57  H   LIG d   1       4.484  -2.681 -10.220  0.00  0.00     0.155 HD
BRANCH  56  58
ATOM     58  C   LIG d   1       4.168  -4.719 -10.251  0.00  0.00     0.034 A 
ATOM     59  C   LIG d   1       5.062  -5.483 -10.989  0.00  0.00    -0.034 A 
ATOM     60  C   LIG d   1       5.296  -6.799 -10.642  0.00  0.00     0.017 A 
ATOM     61  H   LIG d   1       5.578  -5.047 -11.833  0.00  0.00     0.064 H 
ATOM     62  C   LIG d   1       4.631  -7.359  -9.566  0.00  0.00     0.273 A 
ATOM     63  H   LIG d   1       5.995  -7.393 -11.212  0.00  0.00     0.069 H 
ATOM     64  C   LIG d   1       3.736  -6.603  -8.832  0.00  0.00     0.017 A 
ATOM     65  C   LIG d   1       3.502  -5.285  -9.173  0.00  0.00    -0.034 A 
ATOM     66  H   LIG d   1       3.219  -7.043  -7.993  0.00  0.00     0.069 H 
ATOM     67  H   LIG d   1       2.803  -4.695  -8.598  0.00  0.00     0.064 H 
BRANCH  62  68
ATOM     68  N   LIG d   1       4.879  -8.772  -9.199  0.00  0.00     0.080 N 
ATOM     69  O   LIG d   1       5.825  -9.360  -9.668  0.00  0.00     0.041 OA
ATOM     70  O   LIG d   1       4.135  -9.338  -8.432  0.00  0.00    -0.576 OA
ENDBRANCH  62  68
ENDBRANCH  56  58
ENDBRANCH  48  54
ENDBRANCH  46  48
ENDBRANCH   7  44
TORSDOF 15
ENDMDL
MODEL 7
REMARK VINA RESULT:      -6.3      6.920     11.914
REMARK  15 active torsions:
REMARK  status: ('A' for Active; 'I' for Inactive)
REMARK    1  A    between atoms: C_1  and  C_2 
REMARK    2  A    between atoms: C_2  and  C_4 
REMARK    3  A    between atoms: C_2  and  N_36 
REMARK       I    between atoms: C_4  and  N_6 
REMARK    4  A    between atoms: N_6  and  C_7 
REMARK    5  A    between atoms: C_7  and  C_9 
REMARK    6  A    between atoms: C_7  and  C_10 
REMARK       I    between atoms: C_10  and  N_12 
REMARK    7  A    between atoms: C_16  and  C_18 
REMARK       I    between atoms: C_18  and  N_20 
REMARK    8  A    between atoms: N_20  and  C_21 
REMARK    9  A    between atoms: C_21  and  C_23 
REMARK   10  A    between atoms: C_21  and  C_24 
REMARK       I    between atoms: C_24  and  N_26 
REMARK   11  A    between atoms: N_26  and  C_27 
REMARK   12  A    between atoms: C_30  and  N_33 
REMARK       I    between atoms: N_36  and  C_37 
REMARK   13  A    between atoms: C_37  and  C_39 
REMARK   14  A    between atoms: C_39  and  C_40 
REMARK   15  A    between atoms: C_40  and  C_41 
ROOT
ATOM      1  C   LIG d   1       3.779  -4.544  -7.975  0.00  0.00     0.236 C 
ATOM      2  O   LIG d   1       3.128  -5.222  -7.209  0.00  0.00    -0.274 OA
ATOM      3  N   LIG d   1       3.609  -4.679  -9.306  0.00  0.00    -0.288 N 
ATOM      4  C   LIG d   1       4.409  -4.009 -10.347  0.00  0.00     0.016 C 
ATOM      5  C   LIG d   1       4.272  -4.914 -11.597  0.00  0.00    -0.035 C 
ATOM      6  C   LIG d   1       2.795  -5.379 -11.483  0.00  0.00    -0.024 C 
ATOM      7  C   LIG d   1       2.598  -5.523  -9.959  0.00  0.00     0.102 C 
ATOM      8  H   LIG d   1       1.598  -5.185  -9.684  0.00  0.00     0.060 H 
ATOM      9  H   LIG d   1       4.010  -3.016 -10.552  0.00  0.00     0.046 H 
ATOM     10  H   LIG d   1       5.453  -3.943 -10.039  0.00  0.00     0.046 H 
ATOM     11  H   LIG d   1       4.431  -4.344 -12.512  0.00  0.00     0.028 H 
ATOM     12  H   LIG d   1       4.954  -5.762 -11.542  0.00  0.00     0.028 H 
ATOM     13  H   LIG d   1       2.121  -4.628 -11.894  0.00  0.00     0.029 H 
ATOM     14  H   LIG d   1       2.655  -6.339 -11.980  0.00  0.00     0.029 H 
ENDROOT
BRANCH   1  15
ATOM     15  C   LIG d   1       4.779  -3.552  -7.441  0.00  0.00     0.097 C 
ATOM     16  H   LIG d   1       5.407  -3.192  -8.256  0.00  0.00     0.059 H 
BRANCH  15  17
ATOM     17  N   LIG d   1       4.070  -2.421  -6.836  0.00  0.00    -0.303 N 
ATOM     18  C   LIG d   1       3.965  -1.256  -7.505  0.00  0.00     0.234 C 
ATOM     19  O   LIG d   1       4.458  -1.143  -8.607  0.00  0.00    -0.274 OA
ATOM     20  H   LIG d   1       3.677  -2.512  -5.954  0.00  0.00     0.149 HD
BRANCH  18  21
ATOM     21  C   LIG d   1       3.236  -0.093  -6.882  0.00  0.00     0.097 C 
ATOM     22  H   LIG d   1       2.202  -0.375  -6.686  0.00  0.00     0.059 H 
BRANCH  21  23
ATOM     23  C   LIG d   1       3.267   1.100  -7.839  0.00  0.00    -0.038 C 
ATOM     24  H   LIG d   1       2.923   0.785  -8.824  0.00  0.00     0.025 H 
ATOM     25  H   LIG d   1       2.612   1.887  -7.461  0.00  0.00     0.025 H 
ATOM     26  H   LIG d   1       4.285   1.480  -7.913  0.00  0.00     0.025 H 
ENDBRANCH  21  23
BRANCH  21  27
ATOM     27  N   LIG d   1       3.889   0.274  -5.623  0.00  0.00    -0.304 N 
ATOM     28  C   LIG d   1       3.181   0.288  -4.476  0.00  0.00     0.214 C 
ATOM     29  O   LIG d   1       2.005  -0.004  -4.487  0.00  0.00    -0.276 OA
ATOM     30  H   LIG d   1       4.830   0.508  -5.614  0.00  0.00     0.149 HD
BRANCH  28  31
ATOM     31  C   LIG d   1       3.853   0.665  -3.181  0.00  0.00     0.029 C 
ATOM     32  H   LIG d   1       4.895   0.920  -3.372  0.00  0.00     0.036 H 
ATOM     33  H   LIG d   1       3.343   1.523  -2.743  0.00  0.00     0.036 H 
BRANCH  31  34
ATOM     34  C   LIG d   1       3.788  -0.516  -2.210  0.00  0.00    -0.005 C 
ATOM     35  H   LIG d   1       4.206  -0.219  -1.248  0.00  0.00     0.033 H 
ATOM     36  H   LIG d   1       2.750  -0.820  -2.076  0.00  0.00     0.033 H 
BRANCH  34  37
ATOM     37  C   LIG d   1       4.580  -1.670  -2.769  0.00  0.00     0.042 C 
ATOM     38  O   LIG d   1       4.018  -2.713  -3.057  0.00  0.00    -0.550 OA
ATOM     39  O   LIG d   1       5.783  -1.559  -2.935  0.00  0.00    -0.550 OA
ENDBRANCH  34  37
ENDBRANCH  31  34
ENDBRANCH  28  31
ENDBRANCH  21  27
ENDBRANCH  18  21
ENDBRANCH  15  17
BRANCH  15  40
ATOM     40  C   LIG d   1       5.655  -4.228  -6.384  0.00  0.00    -0.038 C 
ATOM     41  H   LIG d   1       6.502  -4.713  -6.871  0.00  0.00     0.025 H 
ATOM     42  H   LIG d   1       6.019  -3.480  -5.682  0.00  0.00     0.025 H 
ATOM     43  H   LIG d   1       5.069  -4.974  -5.849  0.00  0.00     0.025 H 
ENDBRANCH  15  40
ENDBRANCH   1  15
BRANCH   7  44
ATOM     44  C   LIG d   1       2.787  -6.961  -9.548  0.00  0.00     0.234 C 
ATOM     45  O   LIG d   1       1.850  -7.730  -9.584  0.00  0.00    -0.274 OA
ATOM     46  N   LIG d   1       3.996  -7.391  -9.139  0.00  0.00    -0.303 N 
ATOM     47  H   LIG d   1       4.746  -6.775  -9.110  0.00  0.00     0.149 HD
BRANCH  46  48
ATOM     48  C   LIG d   1       4.180  -8.788  -8.739  0.00  0.00     0.097 C 
ATOM     49  H   LIG d   1       3.247  -9.332  -8.882  0.00  0.00     0.059 H 
BRANCH  48  50
ATOM     50  C   LIG d   1       5.278  -9.424  -9.596  0.00  0.00    -0.038 C 
ATOM     51  H   LIG d   1       5.810  -8.645 -10.142  0.00  0.00     0.025 H 
ATOM     52  H   LIG d   1       5.976  -9.959  -8.953  0.00  0.00     0.025 H 
ATOM     53  H   LIG d   1       4.828 -10.121 -10.304  0.00  0.00     0.025 H 
ENDBRANCH  48  50
BRANCH  48  54
ATOM     54  C   LIG d   1       4.580  -8.847  -7.288  0.00  0.00     0.237 C 
ATOM     55  O   LIG d   1       4.901  -7.833  -6.705  0.00  0.00    -0.273 OA
ATOM     56  N   LIG d   1       4.581 -10.028  -6.636  0.00  0.00    -0.284 N 
ATOM     57  H   LIG d   1       4.256 -10.826  -7.080  0.00  0.00     0.155 HD
BRANCH  56  58
ATOM     58  C   LIG d   1       5.050 -10.100  -5.320  0.00  0.00     0.034 A 
ATOM     59  C   LIG d   1       4.151 -10.119  -4.261  0.00  0.00    -0.034 A 
ATOM     60  C   LIG d   1       4.616 -10.196  -2.963  0.00  0.00     0.017 A 
ATOM     61  H   LIG d   1       3.088 -10.077  -4.453  0.00  0.00     0.064 H 
ATOM     62  C   LIG d   1       5.976 -10.244  -2.717  0.00  0.00     0.273 A 
ATOM     63  H   LIG d   1       3.918 -10.216  -2.139  0.00  0.00     0.069 H 
ATOM     64  C   LIG d   1       6.874 -10.220  -3.769  0.00  0.00     0.017 A 
ATOM     65  C   LIG d   1       6.414 -10.147  -5.069  0.00  0.00    -0.034 A 
ATOM     66  H   LIG d   1       7.935 -10.258  -3.573  0.00  0.00     0.069 H 
ATOM     67  H   LIG d   1       7.116 -10.130  -5.889  0.00  0.00     0.064 H 
BRANCH  62  68
ATOM     68  N   LIG d   1       6.472 -10.321  -1.324  0.00  0.00     0.080 N 
ATOM     69  O   LIG d   1       7.332  -9.560  -0.946  0.00  0.00     0.041 OA
ATOM     70  O   LIG d   1       6.018 -11.144  -0.564  0.00  0.00    -0.576 OA
ENDBRANCH  62  68
ENDBRANCH  56  58
ENDBRANCH  48  54
ENDBRANCH  46  48
ENDBRANCH   7  44
TORSDOF 15
ENDMDL
MODEL 8
REMARK VINA RESULT:      -6.2      6.984     13.394
REMARK  15 active torsions:
REMARK  status: ('A' for Active; 'I' for Inactive)
REMARK    1  A    between atoms: C_1  and  C_2 
REMARK    2  A    between atoms: C_2  and  C_4 
REMARK    3  A    between atoms: C_2  and  N_36 
REMARK       I    between atoms: C_4  and  N_6 
REMARK    4  A    between atoms: N_6  and  C_7 
REMARK    5  A    between atoms: C_7  and  C_9 
REMARK    6  A    between atoms: C_7  and  C_10 
REMARK       I    between atoms: C_10  and  N_12 
REMARK    7  A    between atoms: C_16  and  C_18 
REMARK       I    between atoms: C_18  and  N_20 
REMARK    8  A    between atoms: N_20  and  C_21 
REMARK    9  A    between atoms: C_21  and  C_23 
REMARK   10  A    between atoms: C_21  and  C_24 
REMARK       I    between atoms: C_24  and  N_26 
REMARK   11  A    between atoms: N_26  and  C_27 
REMARK   12  A    between atoms: C_30  and  N_33 
REMARK       I    between atoms: N_36  and  C_37 
REMARK   13  A    between atoms: C_37  and  C_39 
REMARK   14  A    between atoms: C_39  and  C_40 
REMARK   15  A    between atoms: C_40  and  C_41 
ROOT
ATOM      1  C   LIG d   1       3.291  -3.273  -9.759  0.00  0.00     0.236 C 
ATOM      2  O   LIG d   1       2.498  -4.056 -10.238  0.00  0.00    -0.274 OA
ATOM      3  N   LIG d   1       2.978  -1.965  -9.670  0.00  0.00    -0.288 N 
ATOM      4  C   LIG d   1       3.885  -0.893  -9.221  0.00  0.00     0.016 C 
ATOM      5  C   LIG d   1       3.323   0.398  -9.865  0.00  0.00    -0.035 C 
ATOM      6  C   LIG d   1       1.793   0.150  -9.774  0.00  0.00    -0.024 C 
ATOM      7  C   LIG d   1       1.678  -1.371 -10.010  0.00  0.00     0.102 C 
ATOM      8  H   LIG d   1       0.901  -1.785  -9.367  0.00  0.00     0.060 H 
ATOM      9  H   LIG d   1       3.869  -0.813  -8.134  0.00  0.00     0.046 H 
ATOM     10  H   LIG d   1       4.899  -1.082  -9.573  0.00  0.00     0.046 H 
ATOM     11  H   LIG d   1       3.609   1.279  -9.291  0.00  0.00     0.028 H 
ATOM     12  H   LIG d   1       3.642   0.489 -10.903  0.00  0.00     0.028 H 
ATOM     13  H   LIG d   1       1.416   0.422  -8.788  0.00  0.00     0.029 H 
ATOM     14  H   LIG d   1       1.267   0.700 -10.555  0.00  0.00     0.029 H 
ENDROOT
BRANCH   1  15
ATOM     15  C   LIG d   1       4.628  -3.763  -9.264  0.00  0.00     0.097 C 
ATOM     16  H   LIG d   1       5.346  -2.943  -9.283  0.00  0.00     0.059 H 
BRANCH  15  17
ATOM     17  N   LIG d   1       4.489  -4.259  -7.893  0.00  0.00    -0.303 N 
ATOM     18  C   LIG d   1       5.226  -3.719  -6.903  0.00  0.00     0.234 C 
ATOM     19  O   LIG d   1       6.005  -2.822  -7.146  0.00  0.00    -0.274 OA
ATOM     20  H   LIG d   1       3.866  -4.977  -7.698  0.00  0.00     0.149 HD
BRANCH  18  21
ATOM     21  C   LIG d   1       5.083  -4.230  -5.492  0.00  0.00     0.097 C 
ATOM     22  H   LIG d   1       6.052  -4.206  -4.995  0.00  0.00     0.059 H 
BRANCH  21  23
ATOM     23  C   LIG d   1       4.561  -5.669  -5.521  0.00  0.00    -0.038 C 
ATOM     24  H   LIG d   1       3.813  -5.768  -6.307  0.00  0.00     0.025 H 
ATOM     25  H   LIG d   1       5.388  -6.351  -5.718  0.00  0.00     0.025 H 
ATOM     26  H   LIG d   1       4.112  -5.911  -4.558  0.00  0.00     0.025 H 
ENDBRANCH  21  23
BRANCH  21  27
ATOM     27  N   LIG d   1       4.138  -3.383  -4.759  0.00  0.00    -0.304 N 
ATOM     28  C   LIG d   1       4.590  -2.517  -3.831  0.00  0.00     0.214 C 
ATOM     29  O   LIG d   1       5.778  -2.439  -3.602  0.00  0.00    -0.276 OA
ATOM     30  H   LIG d   1       3.188  -3.445  -4.943  0.00  0.00     0.149 HD
BRANCH  28  31
ATOM     31  C   LIG d   1       3.619  -1.645  -3.078  0.00  0.00     0.029 C 
ATOM     32  H   LIG d   1       3.205  -0.895  -3.753  0.00  0.00     0.036 H 
ATOM     33  H   LIG d   1       2.812  -2.259  -2.679  0.00  0.00     0.036 H 
BRANCH  31  34
ATOM     34  C   LIG d   1       4.346  -0.948  -1.926  0.00  0.00    -0.005 C 
ATOM     35  H   LIG d   1       3.776  -1.078  -1.006  0.00  0.00     0.033 H 
ATOM     36  H   LIG d   1       5.336  -1.385  -1.805  0.00  0.00     0.033 H 
BRANCH  34  37
ATOM     37  C   LIG d   1       4.478   0.522  -2.232  0.00  0.00     0.042 C 
ATOM     38  O   LIG d   1       4.709   1.313  -1.333  0.00  0.00    -0.550 OA
ATOM     39  O   LIG d   1       4.357   0.919  -3.378  0.00  0.00    -0.550 OA
ENDBRANCH  34  37
ENDBRANCH  31  34
ENDBRANCH  28  31
ENDBRANCH  21  27
ENDBRANCH  18  21
ENDBRANCH  15  17
BRANCH  15  40
ATOM     40  C   LIG d   1       5.124  -4.894 -10.168  0.00  0.00    -0.038 C 
ATOM     41  H   LIG d   1       6.100  -5.235  -9.821  0.00  0.00     0.025 H 
ATOM     42  H   LIG d   1       4.417  -5.723 -10.133  0.00  0.00     0.025 H 
ATOM     43  H   LIG d   1       5.209  -4.531 -11.191  0.00  0.00     0.025 H 
ENDBRANCH  15  40
ENDBRANCH   1  15
BRANCH   7  44
ATOM     44  C   LIG d   1       1.351  -1.645 -11.456  0.00  0.00     0.234 C 
ATOM     45  O   LIG d   1       2.095  -1.255 -12.330  0.00  0.00    -0.274 OA
ATOM     46  N   LIG d   1       0.231  -2.323 -11.776  0.00  0.00    -0.303 N 
ATOM     47  H   LIG d   1      -0.364  -2.636 -11.076  0.00  0.00     0.149 HD
BRANCH  46  48
ATOM     48  C   LIG d   1      -0.086  -2.590 -13.181  0.00  0.00     0.097 C 
ATOM     49  H   LIG d   1       0.787  -2.377 -13.797  0.00  0.00     0.059 H 
BRANCH  48  50
ATOM     50  C   LIG d   1      -0.481  -4.059 -13.345  0.00  0.00    -0.038 C 
ATOM     51  H   LIG d   1      -0.172  -4.411 -14.330  0.00  0.00     0.025 H 
ATOM     52  H   LIG d   1       0.009  -4.655 -12.575  0.00  0.00     0.025 H 
ATOM     53  H   LIG d   1      -1.563  -4.157 -13.248  0.00  0.00     0.025 H 
ENDBRANCH  48  50
BRANCH  48  54
ATOM     54  C   LIG d   1      -1.232  -1.711 -13.613  0.00  0.00     0.237 C 
ATOM     55  O   LIG d   1      -1.537  -1.644 -14.784  0.00  0.00    -0.273 OA
ATOM     56  N   LIG d   1      -1.919  -1.000 -12.695  0.00  0.00    -0.284 N 
ATOM     57  H   LIG d   1      -1.722  -1.109 -11.752  0.00  0.00     0.155 HD
BRANCH  56  58
ATOM     58  C   LIG d   1      -2.914  -0.107 -13.104  0.00  0.00     0.034 A 
ATOM     59  C   LIG d   1      -2.588   1.211 -13.399  0.00  0.00    -0.034 A 
ATOM     60  C   LIG d   1      -3.571   2.090 -13.808  0.00  0.00     0.017 A 
ATOM     61  H   LIG d   1      -1.564   1.547 -13.312  0.00  0.00     0.064 H 
ATOM     62  C   LIG d   1      -4.882   1.662 -13.913  0.00  0.00     0.273 A 
ATOM     63  H   LIG d   1      -3.318   3.113 -14.042  0.00  0.00     0.069 H 
ATOM     64  C   LIG d   1      -5.211   0.352 -13.616  0.00  0.00     0.017 A 
ATOM     65  C   LIG d   1      -4.231  -0.532 -13.210  0.00  0.00    -0.034 A 
ATOM     66  H   LIG d   1      -6.236   0.021 -13.699  0.00  0.00     0.069 H 
ATOM     67  H   LIG d   1      -4.489  -1.555 -12.979  0.00  0.00     0.064 H 
BRANCH  62  68
ATOM     68  N   LIG d   1      -5.935   2.608 -14.345  0.00  0.00     0.080 N 
ATOM     69  O   LIG d   1      -7.034   2.198 -14.637  0.00  0.00     0.041 OA
ATOM     70  O   LIG d   1      -5.697   3.792 -14.408  0.00  0.00    -0.576 OA
ENDBRANCH  62  68
ENDBRANCH  56  58
ENDBRANCH  48  54
ENDBRANCH  46  48
ENDBRANCH   7  44
TORSDOF 15
ENDMDL
MODEL 9
REMARK VINA RESULT:      -6.2      3.319      9.575
REMARK  15 active torsions:
REMARK  status: ('A' for Active; 'I' for Inactive)
REMARK    1  A    between atoms: C_1  and  C_2 
REMARK    2  A    between atoms: C_2  and  C_4 
REMARK    3  A    between atoms: C_2  and  N_36 
REMARK       I    between atoms: C_4  and  N_6 
REMARK    4  A    between atoms: N_6  and  C_7 
REMARK    5  A    between atoms: C_7  and  C_9 
REMARK    6  A    between atoms: C_7  and  C_10 
REMARK       I    between atoms: C_10  and  N_12 
REMARK    7  A    between atoms: C_16  and  C_18 
REMARK       I    between atoms: C_18  and  N_20 
REMARK    8  A    between atoms: N_20  and  C_21 
REMARK    9  A    between atoms: C_21  and  C_23 
REMARK   10  A    between atoms: C_21  and  C_24 
REMARK       I    between atoms: C_24  and  N_26 
REMARK   11  A    between atoms: N_26  and  C_27 
REMARK   12  A    between atoms: C_30  and  N_33 
REMARK       I    between atoms: N_36  and  C_37 
REMARK   13  A    between atoms: C_37  and  C_39 
REMARK   14  A    between atoms: C_39  and  C_40 
REMARK   15  A    between atoms: C_40  and  C_41 
ROOT
ATOM      1  C   LIG d   1       9.851   7.703  -5.714  0.00  0.00     0.236 C 
ATOM      2  O   LIG d   1       9.199   7.067  -4.913  0.00  0.00    -0.274 OA
ATOM      3  N   LIG d   1      10.153   7.169  -6.914  0.00  0.00    -0.288 N 
ATOM      4  C   LIG d   1      11.029   7.779  -7.931  0.00  0.00     0.016 C 
ATOM      5  C   LIG d   1      11.542   6.588  -8.778  0.00  0.00    -0.035 C 
ATOM      6  C   LIG d   1      10.289   5.674  -8.821  0.00  0.00    -0.024 C 
ATOM      7  C   LIG d   1       9.666   5.879  -7.423  0.00  0.00     0.102 C 
ATOM      8  H   LIG d   1       8.579   5.896  -7.503  0.00  0.00     0.060 H 
ATOM      9  H   LIG d   1      10.462   8.471  -8.554  0.00  0.00     0.046 H 
ATOM     10  H   LIG d   1      11.863   8.293  -7.453  0.00  0.00     0.046 H 
ATOM     11  H   LIG d   1      11.823   6.913  -9.780  0.00  0.00     0.028 H 
ATOM     12  H   LIG d   1      12.374   6.087  -8.284  0.00  0.00     0.028 H 
ATOM     13  H   LIG d   1       9.603   5.996  -9.604  0.00  0.00     0.029 H 
ATOM     14  H   LIG d   1      10.577   4.632  -8.963  0.00  0.00     0.029 H 
ENDROOT
BRANCH   1  15
ATOM     15  C   LIG d   1      10.324   9.091  -5.367  0.00  0.00     0.097 C 
ATOM     16  H   LIG d   1      10.330   9.709  -6.266  0.00  0.00     0.059 H 
BRANCH  15  17
ATOM     17  N   LIG d   1       9.421   9.682  -4.376  0.00  0.00    -0.303 N 
ATOM     18  C   LIG d   1       9.187  11.009  -4.384  0.00  0.00     0.234 C 
ATOM     19  O   LIG d   1       9.724  11.715  -5.211  0.00  0.00    -0.274 OA
ATOM     20  H   LIG d   1       8.992   9.117  -3.714  0.00  0.00     0.149 HD
BRANCH  18  21
ATOM     21  C   LIG d   1       8.257  11.616  -3.363  0.00  0.00     0.097 C 
ATOM     22  H   LIG d   1       7.229  11.536  -3.715  0.00  0.00     0.059 H 
BRANCH  21  23
ATOM     23  C   LIG d   1       8.614  13.090  -3.162  0.00  0.00    -0.038 C 
ATOM     24  H   LIG d   1       9.344  13.181  -2.358  0.00  0.00     0.025 H 
ATOM     25  H   LIG d   1       9.038  13.491  -4.084  0.00  0.00     0.025 H 
ATOM     26  H   LIG d   1       7.715  13.649  -2.903  0.00  0.00     0.025 H 
ENDBRANCH  21  23
BRANCH  21  27
ATOM     27  N   LIG d   1       8.396  10.902  -2.092  0.00  0.00    -0.304 N 
ATOM     28  C   LIG d   1       9.596  10.846  -1.478  0.00  0.00     0.214 C 
ATOM     29  O   LIG d   1      10.558  11.387  -1.979  0.00  0.00    -0.276 OA
ATOM     30  H   LIG d   1       7.626  10.470  -1.691  0.00  0.00     0.149 HD
BRANCH  28  31
ATOM     31  C   LIG d   1       9.738  10.113  -0.170  0.00  0.00     0.029 C 
ATOM     32  H   LIG d   1      10.243  10.753   0.553  0.00  0.00     0.036 H 
ATOM     33  H   LIG d   1       8.751   9.846   0.207  0.00  0.00     0.036 H 
BRANCH  31  34
ATOM     34  C   LIG d   1      10.562   8.841  -0.385  0.00  0.00    -0.005 C 
ATOM     35  H   LIG d   1      11.446   9.077  -0.977  0.00  0.00     0.033 H 
ATOM     36  H   LIG d   1      10.867   8.438   0.580  0.00  0.00     0.033 H 
BRANCH  34  37
ATOM     37  C   LIG d   1       9.727   7.820  -1.114  0.00  0.00     0.042 C 
ATOM     38  O   LIG d   1      10.257   7.036  -1.884  0.00  0.00    -0.550 OA
ATOM     39  O   LIG d   1       8.522   7.776  -0.933  0.00  0.00    -0.550 OA
ENDBRANCH  34  37
ENDBRANCH  31  34
ENDBRANCH  28  31
ENDBRANCH  21  27
ENDBRANCH  18  21
ENDBRANCH  15  17
BRANCH  15  40
ATOM     40  C   LIG d   1      11.739   9.019  -4.789  0.00  0.00    -0.038 C 
ATOM     41  H   LIG d   1      11.799   8.195  -4.077  0.00  0.00     0.025 H 
ATOM     42  H   LIG d   1      12.452   8.855  -5.595  0.00  0.00     0.025 H 
ATOM     43  H   LIG d   1      11.972   9.955  -4.281  0.00  0.00     0.025 H 
ENDBRANCH  15  40
ENDBRANCH   1  15
BRANCH   7  44
ATOM     44  C   LIG d   1      10.097   4.768  -6.500  0.00  0.00     0.234 C 
ATOM     45  O   LIG d   1      11.243   4.374  -6.518  0.00  0.00    -0.274 OA
ATOM     46  N   LIG d   1       9.207   4.212  -5.654  0.00  0.00    -0.303 N 
ATOM     47  H   LIG d   1       8.289   4.528  -5.639  0.00  0.00     0.149 HD
BRANCH  46  48
ATOM     48  C   LIG d   1       9.625   3.133  -4.756  0.00  0.00     0.097 C 
ATOM     49  H   LIG d   1      10.559   2.702  -5.117  0.00  0.00     0.059 H 
BRANCH  48  50
ATOM     50  C   LIG d   1       9.832   3.693  -3.347  0.00  0.00    -0.038 C 
ATOM     51  H   LIG d   1      10.879   3.962  -3.212  0.00  0.00     0.025 H 
ATOM     52  H   LIG d   1       9.208   4.577  -3.212  0.00  0.00     0.025 H 
ATOM     53  H   LIG d   1       9.554   2.936  -2.612  0.00  0.00     0.025 H 
ENDBRANCH  48  50
BRANCH  48  54
ATOM     54  C   LIG d   1       8.560   2.068  -4.722  0.00  0.00     0.237 C 
ATOM     55  O   LIG d   1       7.794   1.945  -5.653  0.00  0.00    -0.273 OA
ATOM     56  N   LIG d   1       8.459   1.249  -3.655  0.00  0.00    -0.284 N 
ATOM     57  H   LIG d   1       9.116   1.299  -2.942  0.00  0.00     0.155 HD
BRANCH  56  58
ATOM     58  C   LIG d   1       7.409   0.329  -3.575  0.00  0.00     0.034 A 
ATOM     59  C   LIG d   1       7.589  -0.973  -4.024  0.00  0.00    -0.034 A 
ATOM     60  C   LIG d   1       6.551  -1.881  -3.939  0.00  0.00     0.017 A 
ATOM     61  H   LIG d   1       8.540  -1.276  -4.436  0.00  0.00     0.064 H 
ATOM     62  C   LIG d   1       5.331  -1.491  -3.417  0.00  0.00     0.273 A 
ATOM     63  H   LIG d   1       6.692  -2.895  -4.283  0.00  0.00     0.069 H 
ATOM     64  C   LIG d   1       5.147  -0.194  -2.974  0.00  0.00     0.017 A 
ATOM     65  C   LIG d   1       6.182   0.717  -3.053  0.00  0.00    -0.034 A 
ATOM     66  H   LIG d   1       4.193   0.107  -2.568  0.00  0.00     0.069 H 
ATOM     67  H   LIG d   1       6.038   1.729  -2.705  0.00  0.00     0.064 H 
BRANCH  62  68
ATOM     68  N   LIG d   1       4.220  -2.465  -3.334  0.00  0.00     0.080 N 
ATOM     69  O   LIG d   1       3.338  -2.308  -2.521  0.00  0.00     0.041 OA
ATOM     70  O   LIG d   1       4.193  -3.419  -4.076  0.00  0.00    -0.576 OA
ENDBRANCH  62  68
ENDBRANCH  56  58
ENDBRANCH  48  54
ENDBRANCH  46  48
ENDBRANCH   7  44
TORSDOF 15
ENDMDL
MODEL 10
REMARK VINA RESULT:      -6.1      5.195     11.704
REMARK  15 active torsions:
REMARK  status: ('A' for Active; 'I' for Inactive)
REMARK    1  A    between atoms: C_1  and  C_2 
REMARK    2  A    between atoms: C_2  and  C_4 
REMARK    3  A    between atoms: C_2  and  N_36 
REMARK       I    between atoms: C_4  and  N_6 
REMARK    4  A    between atoms: N_6  and  C_7 
REMARK    5  A    between atoms: C_7  and  C_9 
REMARK    6  A    between atoms: C_7  and  C_10 
REMARK       I    between atoms: C_10  and  N_12 
REMARK    7  A    between atoms: C_16  and  C_18 
REMARK       I    between atoms: C_18  and  N_20 
REMARK    8  A    between atoms: N_20  and  C_21 
REMARK    9  A    between atoms: C_21  and  C_23 
REMARK   10  A    between atoms: C_21  and  C_24 
REMARK       I    between atoms: C_24  and  N_26 
REMARK   11  A    between atoms: N_26  and  C_27 
REMARK   12  A    between atoms: C_30  and  N_33 
REMARK       I    between atoms: N_36  and  C_37 
REMARK   13  A    between atoms: C_37  and  C_39 
REMARK   14  A    between atoms: C_39  and  C_40 
REMARK   15  A    between atoms: C_40  and  C_41 
ROOT
ATOM      1  C   LIG d   1       7.224   0.074  -4.457  0.00  0.00     0.236 C 
ATOM      2  O   LIG d   1       7.617  -0.876  -5.100  0.00  0.00    -0.274 OA
ATOM      3  N   LIG d   1       6.284  -0.098  -3.505  0.00  0.00    -0.288 N 
ATOM      4  C   LIG d   1       5.636   0.977  -2.733  0.00  0.00     0.016 C 
ATOM      5  C   LIG d   1       4.282   0.378  -2.278  0.00  0.00    -0.035 C 
ATOM      6  C   LIG d   1       4.677  -1.094  -1.984  0.00  0.00    -0.024 C 
ATOM      7  C   LIG d   1       5.733  -1.390  -3.070  0.00  0.00     0.102 C 
ATOM      8  H   LIG d   1       6.526  -2.011  -2.653  0.00  0.00     0.060 H 
ATOM      9  H   LIG d   1       6.243   1.242  -1.868  0.00  0.00     0.046 H 
ATOM     10  H   LIG d   1       5.471   1.850  -3.364  0.00  0.00     0.046 H 
ATOM     11  H   LIG d   1       3.919   0.872  -1.377  0.00  0.00     0.028 H 
ATOM     12  H   LIG d   1       3.542   0.431  -3.076  0.00  0.00     0.028 H 
ATOM     13  H   LIG d   1       5.107  -1.187  -0.987  0.00  0.00     0.029 H 
ATOM     14  H   LIG d   1       3.816  -1.754  -2.097  0.00  0.00     0.029 H 
ENDROOT
BRANCH   1  15
ATOM     15  C   LIG d   1       7.786   1.447  -4.720  0.00  0.00     0.097 C 
ATOM     16  H   LIG d   1       7.157   2.196  -4.238  0.00  0.00     0.059 H 
BRANCH  15  17
ATOM     17  N   LIG d   1       9.145   1.531  -4.181  0.00  0.00    -0.303 N 
ATOM     18  C   LIG d   1       9.734   2.732  -4.020  0.00  0.00     0.234 C 
ATOM     19  O   LIG d   1       9.138   3.745  -4.322  0.00  0.00    -0.274 OA
ATOM     20  H   LIG d   1       9.622   0.721  -3.940  0.00  0.00     0.149 HD
BRANCH  18  21
ATOM     21  C   LIG d   1      11.133   2.817  -3.465  0.00  0.00     0.097 C 
ATOM     22  H   LIG d   1      11.720   3.512  -4.065  0.00  0.00     0.059 H 
BRANCH  21  23
ATOM     23  C   LIG d   1      11.783   1.433  -3.506  0.00  0.00    -0.038 C 
ATOM     24  H   LIG d   1      11.773   0.997  -2.507  0.00  0.00     0.025 H 
ATOM     25  H   LIG d   1      11.225   0.789  -4.188  0.00  0.00     0.025 H 
ATOM     26  H   LIG d   1      12.812   1.525  -3.853  0.00  0.00     0.025 H 
ENDBRANCH  21  23
BRANCH  21  27
ATOM     27  N   LIG d   1      11.080   3.291  -2.080  0.00  0.00    -0.304 N 
ATOM     28  C   LIG d   1      11.475   4.545  -1.781  0.00  0.00     0.214 C 
ATOM     29  O   LIG d   1      11.873   5.280  -2.659  0.00  0.00    -0.276 OA
ATOM     30  H   LIG d   1      10.761   2.703  -1.377  0.00  0.00     0.149 HD
BRANCH  28  31
ATOM     31  C   LIG d   1      11.420   5.033  -0.357  0.00  0.00     0.029 C 
ATOM     32  H   LIG d   1      10.934   4.282   0.266  0.00  0.00     0.036 H 
ATOM     33  H   LIG d   1      12.432   5.207   0.007  0.00  0.00     0.036 H 
BRANCH  31  34
ATOM     34  C   LIG d   1      10.625   6.339  -0.295  0.00  0.00    -0.005 C 
ATOM     35  H   LIG d   1      10.777   6.900  -1.217  0.00  0.00     0.033 H 
ATOM     36  H   LIG d   1       9.565   6.114  -0.178  0.00  0.00     0.033 H 
BRANCH  34  37
ATOM     37  C   LIG d   1      11.097   7.160   0.877  0.00  0.00     0.042 C 
ATOM     38  O   LIG d   1      11.391   6.612   1.926  0.00  0.00    -0.550 OA
ATOM     39  O   LIG d   1      11.187   8.371   0.776  0.00  0.00    -0.550 OA
ENDBRANCH  34  37
ENDBRANCH  31  34
ENDBRANCH  28  31
ENDBRANCH  21  27
ENDBRANCH  18  21
ENDBRANCH  15  17
BRANCH  15  40
ATOM     40  C   LIG d   1       7.818   1.704  -6.228  0.00  0.00    -0.038 C 
ATOM     41  H   LIG d   1       8.577   2.455  -6.452  0.00  0.00     0.025 H 
ATOM     42  H   LIG d   1       8.059   0.778  -6.749  0.00  0.00     0.025 H 
ATOM     43  H   LIG d   1       6.844   2.064  -6.557  0.00  0.00     0.025 H 
ENDBRANCH  15  40
ENDBRANCH   1  15
BRANCH   7  44
ATOM     44  C   LIG d   1       5.089  -2.092  -4.238  0.00  0.00     0.234 C 
ATOM     45  O   LIG d   1       4.085  -1.635  -4.741  0.00  0.00    -0.274 OA
ATOM     46  N   LIG d   1       5.629  -3.228  -4.722  0.00  0.00    -0.303 N 
ATOM     47  H   LIG d   1       6.433  -3.593  -4.319  0.00  0.00     0.149 HD
BRANCH  46  48
ATOM     48  C   LIG d   1       5.004  -3.910  -5.857  0.00  0.00     0.097 C 
ATOM     49  H   LIG d   1       4.006  -3.504  -6.020  0.00  0.00     0.059 H 
BRANCH  48  50
ATOM     50  C   LIG d   1       5.853  -3.696  -7.113  0.00  0.00    -0.038 C 
ATOM     51  H   LIG d   1       5.969  -4.643  -7.639  0.00  0.00     0.025 H 
ATOM     52  H   LIG d   1       5.361  -2.974  -7.765  0.00  0.00     0.025 H 
ATOM     53  H   LIG d   1       6.834  -3.317  -6.826  0.00  0.00     0.025 H 
ENDBRANCH  48  50
BRANCH  48  54
ATOM     54  C   LIG d   1       4.905  -5.385  -5.564  0.00  0.00     0.237 C 
ATOM     55  O   LIG d   1       4.020  -5.803  -4.849  0.00  0.00    -0.273 OA
ATOM     56  N   LIG d   1       5.801  -6.240  -6.098  0.00  0.00    -0.284 N 
ATOM     57  H   LIG d   1       6.465  -5.915  -6.727  0.00  0.00     0.155 HD
BRANCH  56  58
ATOM     58  C   LIG d   1       5.774  -7.593  -5.745  0.00  0.00     0.034 A 
ATOM     59  C   LIG d   1       4.846  -8.445  -6.331  0.00  0.00    -0.034 A 
ATOM     60  C   LIG d   1       4.825  -9.783  -5.984  0.00  0.00     0.017 A 
ATOM     61  H   LIG d   1       4.145  -8.064  -7.059  0.00  0.00     0.064 H 
ATOM     62  C   LIG d   1       5.718 -10.270  -5.048  0.00  0.00     0.273 A 
ATOM     63  H   LIG d   1       4.108 -10.447  -6.443  0.00  0.00     0.069 H 
ATOM     64  C   LIG d   1       6.639  -9.423  -4.460  0.00  0.00     0.017 A 
ATOM     65  C   LIG d   1       6.668  -8.086  -4.805  0.00  0.00    -0.034 A 
ATOM     66  H   LIG d   1       7.335  -9.806  -3.729  0.00  0.00     0.069 H 
ATOM     67  H   LIG d   1       7.388  -7.425  -4.346  0.00  0.00     0.064 H 
BRANCH  62  68
ATOM     68  N   LIG d   1       5.688 -11.702  -4.675  0.00  0.00     0.080 N 
ATOM     69  O   LIG d   1       6.429 -12.118  -3.814  0.00  0.00     0.041 OA
ATOM     70  O   LIG d   1       4.925 -12.457  -5.231  0.00  0.00    -0.576 OA
ENDBRANCH  62  68
ENDBRANCH  56  58
ENDBRANCH  48  54
ENDBRANCH  46  48
ENDBRANCH   7  44
TORSDOF 15
ENDMDL
