MODEL 1
REMARK VINA RESULT:      -6.3      0.000      0.000
REMARK  2 active torsions:
REMARK  status: ('A' for Active; 'I' for Inactive)
REMARK    1  A    between atoms: C_1  and  C_2 
REMARK    2  A    between atoms: C_9  and  C_21 
ROOT
ATOM      1  C   LIG d   1       7.674  -2.750  -4.531  0.00  0.00    -0.070 C 
ATOM      2  C   LIG d   1       6.669  -3.379  -5.087  0.00  0.00    -0.024 C 
ATOM      3  C   LIG d   1       6.719  -4.878  -5.080  0.00  0.00    -0.018 C 
ATOM      4  C   LIG d   1       5.700  -5.566  -5.965  0.00  0.00     0.049 C 
ATOM      5  C   LIG d   1       4.464  -4.728  -6.144  0.00  0.00     0.308 C 
ATOM      6  O   LIG d   1       3.376  -5.267  -6.113  0.00  0.00    -0.251 OA
ATOM      7  O   LIG d   1       4.586  -3.433  -6.394  0.00  0.00    -0.450 OA
ATOM      8  C   LIG d   1       5.546  -2.596  -5.701  0.00  0.00     0.169 C 
ATOM      9  C   LIG d   1       4.767  -1.831  -4.655  0.00  0.00     0.153 C 
ATOM     10  H   LIG d   1       4.005  -2.510  -4.226  0.00  0.00     0.078 H 
ATOM     11  C   LIG d   1       5.592  -1.238  -3.501  0.00  0.00     0.032 C 
ATOM     12  H   LIG d   1       5.865  -1.962  -2.738  0.00  0.00     0.039 H 
ATOM     13  C   LIG d   1       6.784  -0.421  -4.009  0.00  0.00    -0.039 C 
ATOM     14  C   LIG d   1       7.923  -1.310  -4.431  0.00  0.00    -0.031 C 
ATOM     15  C   LIG d   1       4.580  -0.204  -2.979  0.00  0.00     0.036 C 
ATOM     16  C   LIG d   1       4.472   0.264  -1.743  0.00  0.00    -0.088 C 
ATOM     17  C   LIG d   1       3.766   0.141  -4.158  0.00  0.00     0.335 C 
ATOM     18  O   LIG d   1       2.972   1.055  -4.204  0.00  0.00    -0.245 OA
ATOM     19  O   LIG d   1       4.058  -0.677  -5.194  0.00  0.00    -0.453 OA
ATOM     20  H   LIG d   1       6.578  -5.230  -4.058  0.00  0.00     0.032 H 
ATOM     21  H   LIG d   1       7.701  -5.205  -5.437  0.00  0.00     0.032 H 
ATOM     22  H   LIG d   1       5.421  -6.522  -5.516  0.00  0.00     0.038 H 
ATOM     23  H   LIG d   1       6.146  -5.757  -6.944  0.00  0.00     0.038 H 
ATOM     24  H   LIG d   1       7.133   0.229  -3.197  0.00  0.00     0.028 H 
ATOM     25  H   LIG d   1       6.475   0.211  -4.837  0.00  0.00     0.028 H 
ATOM     26  H   LIG d   1       8.312  -0.957  -5.381  0.00  0.00     0.031 H 
ATOM     27  H   LIG d   1       8.727  -1.177  -3.697  0.00  0.00     0.031 H 
ATOM     28  H   LIG d   1       5.144  -0.085  -0.973  0.00  0.00     0.054 H 
ATOM     29  H   LIG d   1       3.712   0.994  -1.507  0.00  0.00     0.054 H 
ENDROOT
BRANCH   1  30
ATOM     30  C   LIG d   1       8.734  -3.602  -3.865  0.00  0.00    -0.043 C 
ATOM     31  H   LIG d   1       8.371  -4.625  -3.767  0.00  0.00     0.027 H 
ATOM     32  H   LIG d   1       9.640  -3.596  -4.472  0.00  0.00     0.027 H 
ATOM     33  H   LIG d   1       8.956  -3.200  -2.877  0.00  0.00     0.027 H 
ENDBRANCH   1  30
BRANCH   8  34
ATOM     34  C   LIG d   1       6.097  -1.636  -6.762  0.00  0.00    -0.017 C 
ATOM     35  H   LIG d   1       6.632  -2.204  -7.523  0.00  0.00     0.027 H 
ATOM     36  H   LIG d   1       5.273  -1.094  -7.225  0.00  0.00     0.027 H 
ATOM     37  H   LIG d   1       6.779  -0.927  -6.291  0.00  0.00     0.027 H 
ENDBRANCH   8  34
TORSDOF 2
ENDMDL
MODEL 2
REMARK VINA RESULT:      -6.2      2.487      4.259
REMARK  2 active torsions:
REMARK  status: ('A' for Active; 'I' for Inactive)
REMARK    1  A    between atoms: C_1  and  C_2 
REMARK    2  A    between atoms: C_9  and  C_21 
ROOT
ATOM      1  C   LIG d   1       4.460  -2.850  -7.415  0.00  0.00    -0.070 C 
ATOM      2  C   LIG d   1       4.163  -1.604  -7.691  0.00  0.00    -0.024 C 
ATOM      3  C   LIG d   1       3.142  -1.375  -8.767  0.00  0.00    -0.018 C 
ATOM      4  C   LIG d   1       3.026   0.055  -9.256  0.00  0.00     0.049 C 
ATOM      5  C   LIG d   1       3.419   1.041  -8.191  0.00  0.00     0.308 C 
ATOM      6  O   LIG d   1       2.760   2.051  -8.051  0.00  0.00    -0.251 OA
ATOM      7  O   LIG d   1       4.508   0.821  -7.470  0.00  0.00    -0.450 OA
ATOM      8  C   LIG d   1       4.844  -0.492  -6.951  0.00  0.00     0.169 C 
ATOM      9  C   LIG d   1       4.460  -0.483  -5.489  0.00  0.00     0.153 C 
ATOM     10  H   LIG d   1       3.513   0.082  -5.384  0.00  0.00     0.078 H 
ATOM     11  C   LIG d   1       4.278  -1.860  -4.831  0.00  0.00     0.032 C 
ATOM     12  H   LIG d   1       3.327  -2.333  -5.057  0.00  0.00     0.039 H 
ATOM     13  C   LIG d   1       5.480  -2.777  -5.081  0.00  0.00    -0.039 C 
ATOM     14  C   LIG d   1       5.440  -3.376  -6.461  0.00  0.00    -0.031 C 
ATOM     15  C   LIG d   1       4.381  -1.445  -3.354  0.00  0.00     0.036 C 
ATOM     16  C   LIG d   1       3.828  -2.045  -2.309  0.00  0.00    -0.088 C 
ATOM     17  C   LIG d   1       5.225  -0.237  -3.370  0.00  0.00     0.335 C 
ATOM     18  O   LIG d   1       5.687   0.293  -2.383  0.00  0.00    -0.245 OA
ATOM     19  O   LIG d   1       5.446   0.173  -4.638  0.00  0.00    -0.453 OA
ATOM     20  H   LIG d   1       2.166  -1.690  -8.399  0.00  0.00     0.032 H 
ATOM     21  H   LIG d   1       3.404  -1.975  -9.643  0.00  0.00     0.032 H 
ATOM     22  H   LIG d   1       1.995   0.248  -9.559  0.00  0.00     0.038 H 
ATOM     23  H   LIG d   1       3.675   0.190 -10.125  0.00  0.00     0.038 H 
ATOM     24  H   LIG d   1       5.455  -3.592  -4.348  0.00  0.00     0.028 H 
ATOM     25  H   LIG d   1       6.405  -2.225  -4.939  0.00  0.00     0.028 H 
ATOM     26  H   LIG d   1       6.429  -3.307  -6.904  0.00  0.00     0.031 H 
ATOM     27  H   LIG d   1       5.226  -4.445  -6.344  0.00  0.00     0.031 H 
ATOM     28  H   LIG d   1       3.227  -2.931  -2.451  0.00  0.00     0.054 H 
ATOM     29  H   LIG d   1       3.980  -1.648  -1.316  0.00  0.00     0.054 H 
ENDROOT
BRANCH   1  30
ATOM     30  C   LIG d   1       3.681  -3.922  -8.146  0.00  0.00    -0.043 C 
ATOM     31  H   LIG d   1       2.850  -4.256  -7.524  0.00  0.00     0.027 H 
ATOM     32  H   LIG d   1       3.293  -3.516  -9.081  0.00  0.00     0.027 H 
ATOM     33  H   LIG d   1       4.336  -4.766  -8.360  0.00  0.00     0.027 H 
ENDBRANCH   1  30
BRANCH   8  34
ATOM     34  C   LIG d   1       6.365  -0.618  -7.102  0.00  0.00    -0.017 C 
ATOM     35  H   LIG d   1       6.855  -0.100  -6.278  0.00  0.00     0.027 H 
ATOM     36  H   LIG d   1       6.645  -1.671  -7.089  0.00  0.00     0.027 H 
ATOM     37  H   LIG d   1       6.673  -0.171  -8.048  0.00  0.00     0.027 H 
ENDBRANCH   8  34
TORSDOF 2
ENDMDL
MODEL 3
REMARK VINA RESULT:      -5.9      2.615      3.500
REMARK  2 active torsions:
REMARK  status: ('A' for Active; 'I' for Inactive)
REMARK    1  A    between atoms: C_1  and  C_2 
REMARK    2  A    between atoms: C_9  and  C_21 
ROOT
ATOM      1  C   LIG d   1       7.470  -2.597  -5.837  0.00  0.00    -0.070 C 
ATOM      2  C   LIG d   1       7.056  -1.557  -6.517  0.00  0.00    -0.024 C 
ATOM      3  C   LIG d   1       6.711  -1.785  -7.959  0.00  0.00    -0.018 C 
ATOM      4  C   LIG d   1       6.509  -0.529  -8.783  0.00  0.00     0.049 C 
ATOM      5  C   LIG d   1       6.041   0.622  -7.937  0.00  0.00     0.308 C 
ATOM      6  O   LIG d   1       5.175   1.357  -8.368  0.00  0.00    -0.251 OA
ATOM      7  O   LIG d   1       6.621   0.850  -6.769  0.00  0.00    -0.450 OA
ATOM      8  C   LIG d   1       6.959  -0.218  -5.848  0.00  0.00     0.169 C 
ATOM      9  C   LIG d   1       5.892  -0.210  -4.776  0.00  0.00     0.153 C 
ATOM     10  H   LIG d   1       4.919   0.006  -5.259  0.00  0.00     0.078 H 
ATOM     11  C   LIG d   1       5.750  -1.503  -3.957  0.00  0.00     0.032 C 
ATOM     12  H   LIG d   1       5.202  -2.289  -4.468  0.00  0.00     0.039 H 
ATOM     13  C   LIG d   1       7.094  -1.976  -3.395  0.00  0.00    -0.039 C 
ATOM     14  C   LIG d   1       7.919  -2.673  -4.444  0.00  0.00    -0.031 C 
ATOM     15  C   LIG d   1       4.974  -0.948  -2.751  0.00  0.00     0.036 C 
ATOM     16  C   LIG d   1       4.135  -1.606  -1.963  0.00  0.00    -0.088 C 
ATOM     17  C   LIG d   1       5.374   0.468  -2.677  0.00  0.00     0.335 C 
ATOM     18  O   LIG d   1       5.116   1.210  -1.753  0.00  0.00    -0.245 OA
ATOM     19  O   LIG d   1       6.103   0.814  -3.761  0.00  0.00    -0.453 OA
ATOM     20  H   LIG d   1       5.799  -2.379  -8.013  0.00  0.00     0.032 H 
ATOM     21  H   LIG d   1       7.525  -2.336  -8.439  0.00  0.00     0.032 H 
ATOM     22  H   LIG d   1       5.769  -0.726  -9.562  0.00  0.00     0.038 H 
ATOM     23  H   LIG d   1       7.454  -0.259  -9.262  0.00  0.00     0.038 H 
ATOM     24  H   LIG d   1       6.902  -2.681  -2.578  0.00  0.00     0.028 H 
ATOM     25  H   LIG d   1       7.644  -1.131  -2.987  0.00  0.00     0.028 H 
ATOM     26  H   LIG d   1       8.941  -2.311  -4.387  0.00  0.00     0.031 H 
ATOM     27  H   LIG d   1       7.949  -3.736  -4.178  0.00  0.00     0.031 H 
ATOM     28  H   LIG d   1       3.934  -2.652  -2.140  0.00  0.00     0.054 H 
ATOM     29  H   LIG d   1       3.652  -1.094  -1.144  0.00  0.00     0.054 H 
ENDROOT
BRANCH   1  30
ATOM     30  C   LIG d   1       7.472  -3.931  -6.553  0.00  0.00    -0.043 C 
ATOM     31  H   LIG d   1       6.480  -4.380  -6.489  0.00  0.00     0.027 H 
ATOM     32  H   LIG d   1       7.735  -3.781  -7.600  0.00  0.00     0.027 H 
ATOM     33  H   LIG d   1       8.201  -4.594  -6.086  0.00  0.00     0.027 H 
ENDBRANCH   1  30
BRANCH   8  34
ATOM     34  C   LIG d   1       8.318   0.167  -5.250  0.00  0.00    -0.017 C 
ATOM     35  H   LIG d   1       8.969   0.541  -6.040  0.00  0.00     0.027 H 
ATOM     36  H   LIG d   1       8.176   0.943  -4.497  0.00  0.00     0.027 H 
ATOM     37  H   LIG d   1       8.772  -0.709  -4.788  0.00  0.00     0.027 H 
ENDBRANCH   8  34
TORSDOF 2
ENDMDL
MODEL 4
REMARK VINA RESULT:      -5.8      2.145      4.641
REMARK  2 active torsions:
REMARK  status: ('A' for Active; 'I' for Inactive)
REMARK    1  A    between atoms: C_1  and  C_2 
REMARK    2  A    between atoms: C_9  and  C_21 
ROOT
ATOM      1  C   LIG d   1       4.906  -0.795  -3.007  0.00  0.00    -0.070 C 
ATOM      2  C   LIG d   1       4.297  -0.453  -4.115  0.00  0.00    -0.024 C 
ATOM      3  C   LIG d   1       3.117   0.465  -3.983  0.00  0.00    -0.018 C 
ATOM      4  C   LIG d   1       2.271   0.617  -5.231  0.00  0.00     0.049 C 
ATOM      5  C   LIG d   1       3.079   0.395  -6.481  0.00  0.00     0.308 C 
ATOM      6  O   LIG d   1       2.901   1.124  -7.435  0.00  0.00    -0.251 OA
ATOM      7  O   LIG d   1       3.920  -0.626  -6.539  0.00  0.00    -0.450 OA
ATOM      8  C   LIG d   1       4.783  -0.986  -5.430  0.00  0.00     0.169 C 
ATOM      9  C   LIG d   1       6.157  -0.455  -5.769  0.00  0.00     0.153 C 
ATOM     10  H   LIG d   1       6.036   0.530  -6.260  0.00  0.00     0.078 H 
ATOM     11  C   LIG d   1       7.127  -0.291  -4.588  0.00  0.00     0.032 C 
ATOM     12  H   LIG d   1       6.951   0.602  -3.995  0.00  0.00     0.039 H 
ATOM     13  C   LIG d   1       7.220  -1.565  -3.742  0.00  0.00    -0.039 C 
ATOM     14  C   LIG d   1       6.040  -1.703  -2.818  0.00  0.00    -0.031 C 
ATOM     15  C   LIG d   1       8.452  -0.217  -5.364  0.00  0.00     0.036 C 
ATOM     16  C   LIG d   1       9.567   0.402  -4.997  0.00  0.00    -0.088 C 
ATOM     17  C   LIG d   1       8.200  -0.983  -6.597  0.00  0.00     0.335 C 
ATOM     18  O   LIG d   1       9.054  -1.310  -7.393  0.00  0.00    -0.245 OA
ATOM     19  O   LIG d   1       6.891  -1.308  -6.696  0.00  0.00    -0.453 OA
ATOM     20  H   LIG d   1       3.471   1.453  -3.688  0.00  0.00     0.032 H 
ATOM     21  H   LIG d   1       2.448   0.079  -3.208  0.00  0.00     0.032 H 
ATOM     22  H   LIG d   1       1.844   1.622  -5.256  0.00  0.00     0.038 H 
ATOM     23  H   LIG d   1       1.455  -0.108  -5.201  0.00  0.00     0.038 H 
ATOM     24  H   LIG d   1       8.133  -1.515  -3.136  0.00  0.00     0.028 H 
ATOM     25  H   LIG d   1       7.294  -2.436  -4.389  0.00  0.00     0.028 H 
ATOM     26  H   LIG d   1       5.678  -2.726  -2.858  0.00  0.00     0.031 H 
ATOM     27  H   LIG d   1       6.408  -1.542  -1.797  0.00  0.00     0.031 H 
ATOM     28  H   LIG d   1       9.606   0.931  -4.057  0.00  0.00     0.054 H 
ATOM     29  H   LIG d   1      10.434   0.377  -5.640  0.00  0.00     0.054 H 
ENDROOT
BRANCH   1  30
ATOM     30  C   LIG d   1       4.410  -0.161  -1.725  0.00  0.00    -0.043 C 
ATOM     31  H   LIG d   1       5.037   0.696  -1.476  0.00  0.00     0.027 H 
ATOM     32  H   LIG d   1       3.380   0.171  -1.858  0.00  0.00     0.027 H 
ATOM     33  H   LIG d   1       4.455  -0.890  -0.916  0.00  0.00     0.027 H 
ENDBRANCH   1  30
BRANCH   8  34
ATOM     34  C   LIG d   1       4.797  -2.519  -5.399  0.00  0.00    -0.017 C 
ATOM     35  H   LIG d   1       5.002  -2.901  -6.399  0.00  0.00     0.027 H 
ATOM     36  H   LIG d   1       5.571  -2.862  -4.712  0.00  0.00     0.027 H 
ATOM     37  H   LIG d   1       3.826  -2.884  -5.062  0.00  0.00     0.027 H 
ENDBRANCH   8  34
TORSDOF 2
ENDMDL
MODEL 5
REMARK VINA RESULT:      -5.5      2.248      4.418
REMARK  2 active torsions:
REMARK  status: ('A' for Active; 'I' for Inactive)
REMARK    1  A    between atoms: C_1  and  C_2 
REMARK    2  A    between atoms: C_9  and  C_21 
ROOT
ATOM      1  C   LIG d   1       5.019  -3.121  -5.558  0.00  0.00    -0.070 C 
ATOM      2  C   LIG d   1       4.750  -2.259  -4.609  0.00  0.00    -0.024 C 
ATOM      3  C   LIG d   1       4.290  -2.818  -3.295  0.00  0.00    -0.018 C 
ATOM      4  C   LIG d   1       3.723  -1.805  -2.322  0.00  0.00     0.049 C 
ATOM      5  C   LIG d   1       4.310  -0.437  -2.539  0.00  0.00     0.308 C 
ATOM      6  O   LIG d   1       4.609   0.236  -1.573  0.00  0.00    -0.251 OA
ATOM      7  O   LIG d   1       4.430   0.031  -3.772  0.00  0.00    -0.450 OA
ATOM      8  C   LIG d   1       4.899  -0.789  -4.872  0.00  0.00     0.169 C 
ATOM      9  C   LIG d   1       6.344  -0.411  -5.101  0.00  0.00     0.153 C 
ATOM     10  H   LIG d   1       6.817  -0.240  -4.114  0.00  0.00     0.078 H 
ATOM     11  C   LIG d   1       7.194  -1.430  -5.876  0.00  0.00     0.032 C 
ATOM     12  H   LIG d   1       7.530  -2.270  -5.275  0.00  0.00     0.039 H 
ATOM     13  C   LIG d   1       6.521  -1.860  -7.184  0.00  0.00    -0.039 C 
ATOM     14  C   LIG d   1       5.436  -2.875  -6.940  0.00  0.00    -0.031 C 
ATOM     15  C   LIG d   1       8.357  -0.517  -6.295  0.00  0.00     0.036 C 
ATOM     16  C   LIG d   1       9.612  -0.871  -6.538  0.00  0.00    -0.088 C 
ATOM     17  C   LIG d   1       7.761   0.829  -6.362  0.00  0.00     0.335 C 
ATOM     18  O   LIG d   1       8.311   1.804  -6.830  0.00  0.00    -0.245 OA
ATOM     19  O   LIG d   1       6.503   0.818  -5.870  0.00  0.00    -0.453 OA
ATOM     20  H   LIG d   1       5.128  -3.323  -2.815  0.00  0.00     0.032 H 
ATOM     21  H   LIG d   1       3.492  -3.545  -3.476  0.00  0.00     0.032 H 
ATOM     22  H   LIG d   1       3.939  -2.128  -1.301  0.00  0.00     0.038 H 
ATOM     23  H   LIG d   1       2.640  -1.752  -2.449  0.00  0.00     0.038 H 
ATOM     24  H   LIG d   1       7.280  -2.312  -7.834  0.00  0.00     0.028 H 
ATOM     25  H   LIG d   1       6.114  -0.992  -7.695  0.00  0.00     0.028 H 
ATOM     26  H   LIG d   1       4.562  -2.604  -7.525  0.00  0.00     0.031 H 
ATOM     27  H   LIG d   1       5.793  -3.832  -7.339  0.00  0.00     0.031 H 
ATOM     28  H   LIG d   1       9.908  -1.905  -6.446  0.00  0.00     0.054 H 
ATOM     29  H   LIG d   1      10.337  -0.125  -6.826  0.00  0.00     0.054 H 
ENDROOT
BRANCH   1  30
ATOM     30  C   LIG d   1       4.921  -4.589  -5.200  0.00  0.00    -0.043 C 
ATOM     31  H   LIG d   1       5.316  -4.747  -4.196  0.00  0.00     0.027 H 
ATOM     32  H   LIG d   1       3.877  -4.903  -5.233  0.00  0.00     0.027 H 
ATOM     33  H   LIG d   1       5.499  -5.176  -5.914  0.00  0.00     0.027 H 
ENDBRANCH   1  30
BRANCH   8  34
ATOM     34  C   LIG d   1       4.044  -0.386  -6.080  0.00  0.00    -0.017 C 
ATOM     35  H   LIG d   1       4.578  -0.628  -6.999  0.00  0.00     0.027 H 
ATOM     36  H   LIG d   1       3.099  -0.928  -6.054  0.00  0.00     0.027 H 
ATOM     37  H   LIG d   1       3.849   0.686  -6.044  0.00  0.00     0.027 H 
ENDBRANCH   8  34
TORSDOF 2
ENDMDL
MODEL 6
REMARK VINA RESULT:      -5.5      3.642      6.192
REMARK  2 active torsions:
REMARK  status: ('A' for Active; 'I' for Inactive)
REMARK    1  A    between atoms: C_1  and  C_2 
REMARK    2  A    between atoms: C_9  and  C_21 
ROOT
ATOM      1  C   LIG d   1       7.482  -8.631  -4.638  0.00  0.00    -0.070 C 
ATOM      2  C   LIG d   1       6.300  -9.090  -4.312  0.00  0.00    -0.024 C 
ATOM      3  C   LIG d   1       6.191  -9.813  -3.001  0.00  0.00    -0.018 C 
ATOM      4  C   LIG d   1       4.896 -10.569  -2.783  0.00  0.00     0.049 C 
ATOM      5  C   LIG d   1       3.756  -9.949  -3.544  0.00  0.00     0.308 C 
ATOM      6  O   LIG d   1       2.671  -9.856  -3.007  0.00  0.00    -0.251 OA
ATOM      7  O   LIG d   1       3.939  -9.577  -4.801  0.00  0.00    -0.450 OA
ATOM      8  C   LIG d   1       5.139  -8.890  -5.241  0.00  0.00     0.169 C 
ATOM      9  C   LIG d   1       4.774  -7.429  -5.365  0.00  0.00     0.153 C 
ATOM     10  H   LIG d   1       4.096  -7.170  -4.528  0.00  0.00     0.078 H 
ATOM     11  C   LIG d   1       5.948  -6.438  -5.361  0.00  0.00     0.032 C 
ATOM     12  H   LIG d   1       6.348  -6.233  -4.372  0.00  0.00     0.039 H 
ATOM     13  C   LIG d   1       7.028  -6.825  -6.376  0.00  0.00    -0.039 C 
ATOM     14  C   LIG d   1       7.901  -7.937  -5.858  0.00  0.00    -0.031 C 
ATOM     15  C   LIG d   1       5.241  -5.212  -5.963  0.00  0.00     0.036 C 
ATOM     16  C   LIG d   1       5.537  -3.934  -5.766  0.00  0.00    -0.088 C 
ATOM     17  C   LIG d   1       4.168  -5.781  -6.798  0.00  0.00     0.335 C 
ATOM     18  O   LIG d   1       3.495  -5.146  -7.581  0.00  0.00    -0.245 OA
ATOM     19  O   LIG d   1       4.068  -7.114  -6.601  0.00  0.00    -0.453 OA
ATOM     20  H   LIG d   1       6.308  -9.093  -2.192  0.00  0.00     0.032 H 
ATOM     21  H   LIG d   1       6.991 -10.556  -2.936  0.00  0.00     0.032 H 
ATOM     22  H   LIG d   1       4.656 -10.569  -1.718  0.00  0.00     0.038 H 
ATOM     23  H   LIG d   1       5.025 -11.602  -3.112  0.00  0.00     0.038 H 
ATOM     24  H   LIG d   1       7.659  -5.948  -6.566  0.00  0.00     0.028 H 
ATOM     25  H   LIG d   1       6.567  -7.117  -7.316  0.00  0.00     0.028 H 
ATOM     26  H   LIG d   1       8.041  -8.671  -6.646  0.00  0.00     0.031 H 
ATOM     27  H   LIG d   1       8.888  -7.506  -5.655  0.00  0.00     0.031 H 
ATOM     28  H   LIG d   1       6.358  -3.664  -5.119  0.00  0.00     0.054 H 
ATOM     29  H   LIG d   1       4.957  -3.165  -6.253  0.00  0.00     0.054 H 
ENDROOT
BRANCH   1  30
ATOM     30  C   LIG d   1       8.591  -8.802  -3.621  0.00  0.00    -0.043 C 
ATOM     31  H   LIG d   1       9.293  -7.972  -3.705  0.00  0.00     0.027 H 
ATOM     32  H   LIG d   1       8.165  -8.815  -2.617  0.00  0.00     0.027 H 
ATOM     33  H   LIG d   1       9.114  -9.740  -3.806  0.00  0.00     0.027 H 
ENDBRANCH   1  30
BRANCH   8  34
ATOM     34  C   LIG d   1       5.467  -9.476  -6.620  0.00  0.00    -0.017 C 
ATOM     35  H   LIG d   1       4.588  -9.985  -7.016  0.00  0.00     0.027 H 
ATOM     36  H   LIG d   1       5.758  -8.672  -7.296  0.00  0.00     0.027 H 
ATOM     37  H   LIG d   1       6.288 -10.187  -6.526  0.00  0.00     0.027 H 
ENDBRANCH   8  34
TORSDOF 2
ENDMDL
MODEL 7
REMARK VINA RESULT:      -5.3      1.924      5.295
REMARK  2 active torsions:
REMARK  status: ('A' for Active; 'I' for Inactive)
REMARK    1  A    between atoms: C_1  and  C_2 
REMARK    2  A    between atoms: C_9  and  C_21 
ROOT
ATOM      1  C   LIG d   1       3.923  -0.597  -6.697  0.00  0.00    -0.070 C 
ATOM      2  C   LIG d   1       4.120  -0.462  -5.409  0.00  0.00    -0.024 C 
ATOM      3  C   LIG d   1       3.081   0.301  -4.640  0.00  0.00    -0.018 C 
ATOM      4  C   LIG d   1       3.469   0.680  -3.226  0.00  0.00     0.049 C 
ATOM      5  C   LIG d   1       4.460  -0.290  -2.642  0.00  0.00     0.308 C 
ATOM      6  O   LIG d   1       4.331  -0.641  -1.487  0.00  0.00    -0.251 OA
ATOM      7  O   LIG d   1       5.486  -0.693  -3.376  0.00  0.00    -0.450 OA
ATOM      8  C   LIG d   1       5.346  -1.049  -4.776  0.00  0.00     0.169 C 
ATOM      9  C   LIG d   1       5.330  -2.560  -4.832  0.00  0.00     0.153 C 
ATOM     10  H   LIG d   1       4.753  -2.932  -3.963  0.00  0.00     0.078 H 
ATOM     11  C   LIG d   1       4.738  -3.181  -6.108  0.00  0.00     0.032 C 
ATOM     12  H   LIG d   1       3.652  -3.188  -6.130  0.00  0.00     0.039 H 
ATOM     13  C   LIG d   1       5.360  -2.588  -7.375  0.00  0.00    -0.039 C 
ATOM     14  C   LIG d   1       4.774  -1.239  -7.700  0.00  0.00    -0.031 C 
ATOM     15  C   LIG d   1       5.323  -4.597  -5.989  0.00  0.00     0.036 C 
ATOM     16  C   LIG d   1       4.812  -5.723  -6.470  0.00  0.00    -0.088 C 
ATOM     17  C   LIG d   1       6.569  -4.417  -5.222  0.00  0.00     0.335 C 
ATOM     18  O   LIG d   1       7.413  -5.273  -5.068  0.00  0.00    -0.245 OA
ATOM     19  O   LIG d   1       6.659  -3.154  -4.750  0.00  0.00    -0.453 OA
ATOM     20  H   LIG d   1       2.169  -0.293  -4.597  0.00  0.00     0.032 H 
ATOM     21  H   LIG d   1       2.871   1.241  -5.160  0.00  0.00     0.032 H 
ATOM     22  H   LIG d   1       2.574   0.696  -2.600  0.00  0.00     0.038 H 
ATOM     23  H   LIG d   1       3.909   1.679  -3.230  0.00  0.00     0.038 H 
ATOM     24  H   LIG d   1       5.158  -3.265  -8.213  0.00  0.00     0.028 H 
ATOM     25  H   LIG d   1       6.438  -2.510  -7.259  0.00  0.00     0.028 H 
ATOM     26  H   LIG d   1       5.580  -0.559  -7.961  0.00  0.00     0.031 H 
ATOM     27  H   LIG d   1       4.164  -1.361  -8.604  0.00  0.00     0.031 H 
ATOM     28  H   LIG d   1       3.881  -5.702  -7.016  0.00  0.00     0.054 H 
ATOM     29  H   LIG d   1       5.328  -6.659  -6.316  0.00  0.00     0.054 H 
ENDROOT
BRANCH   1  30
ATOM     30  C   LIG d   1       2.628  -0.046  -7.256  0.00  0.00    -0.043 C 
ATOM     31  H   LIG d   1       2.664  -0.066  -8.345  0.00  0.00     0.027 H 
ATOM     32  H   LIG d   1       1.793  -0.656  -6.909  0.00  0.00     0.027 H 
ATOM     33  H   LIG d   1       2.493   0.981  -6.916  0.00  0.00     0.027 H 
ENDBRANCH   1  30
BRANCH   8  34
ATOM     34  C   LIG d   1       6.603  -0.504  -5.466  0.00  0.00    -0.017 C 
ATOM     35  H   LIG d   1       6.695  -0.950  -6.456  0.00  0.00     0.027 H 
ATOM     36  H   LIG d   1       6.525   0.579  -5.560  0.00  0.00     0.027 H 
ATOM     37  H   LIG d   1       7.481  -0.755  -4.871  0.00  0.00     0.027 H 
ENDBRANCH   8  34
TORSDOF 2
ENDMDL
MODEL 8
REMARK VINA RESULT:      -5.2      3.268      5.451
REMARK  2 active torsions:
REMARK  status: ('A' for Active; 'I' for Inactive)
REMARK    1  A    between atoms: C_1  and  C_2 
REMARK    2  A    between atoms: C_9  and  C_21 
ROOT
ATOM      1  C   LIG d   1       4.012   1.271  -8.737  0.00  0.00    -0.070 C 
ATOM      2  C   LIG d   1       5.275   0.984  -8.542  0.00  0.00    -0.024 C 
ATOM      3  C   LIG d   1       6.279   2.012  -8.973  0.00  0.00    -0.018 C 
ATOM      4  C   LIG d   1       7.719   1.542  -8.996  0.00  0.00     0.049 C 
ATOM      5  C   LIG d   1       7.961   0.440  -8.001  0.00  0.00     0.308 C 
ATOM      6  O   LIG d   1       8.982   0.451  -7.345  0.00  0.00    -0.251 OA
ATOM      7  O   LIG d   1       7.088  -0.551  -7.905  0.00  0.00    -0.450 OA
ATOM      8  C   LIG d   1       5.655  -0.329  -7.923  0.00  0.00     0.169 C 
ATOM      9  C   LIG d   1       5.191  -0.419  -6.487  0.00  0.00     0.153 C 
ATOM     10  H   LIG d   1       5.957   0.058  -5.845  0.00  0.00     0.078 H 
ATOM     11  C   LIG d   1       3.830   0.224  -6.176  0.00  0.00     0.032 C 
ATOM     12  H   LIG d   1       3.867   1.305  -6.075  0.00  0.00     0.039 H 
ATOM     13  C   LIG d   1       2.738  -0.251  -7.140  0.00  0.00    -0.039 C 
ATOM     14  C   LIG d   1       2.825   0.456  -8.466  0.00  0.00    -0.031 C 
ATOM     15  C   LIG d   1       3.526  -0.472  -4.839  0.00  0.00     0.036 C 
ATOM     16  C   LIG d   1       2.786  -0.008  -3.841  0.00  0.00    -0.088 C 
ATOM     17  C   LIG d   1       4.242  -1.757  -4.923  0.00  0.00     0.335 C 
ATOM     18  O   LIG d   1       4.109  -2.672  -4.138  0.00  0.00    -0.245 OA
ATOM     19  O   LIG d   1       5.033  -1.791  -6.017  0.00  0.00    -0.453 OA
ATOM     20  H   LIG d   1       6.210   2.872  -8.308  0.00  0.00     0.032 H 
ATOM     21  H   LIG d   1       6.047   2.331  -9.994  0.00  0.00     0.032 H 
ATOM     22  H   LIG d   1       8.375   2.384  -8.763  0.00  0.00     0.038 H 
ATOM     23  H   LIG d   1       7.962   1.179  -9.997  0.00  0.00     0.038 H 
ATOM     24  H   LIG d   1       1.760  -0.034  -6.695  0.00  0.00     0.028 H 
ATOM     25  H   LIG d   1       2.811  -1.326  -7.284  0.00  0.00     0.028 H 
ATOM     26  H   LIG d   1       2.715  -0.274  -9.263  0.00  0.00     0.031 H 
ATOM     27  H   LIG d   1       1.959   1.125  -8.534  0.00  0.00     0.031 H 
ATOM     28  H   LIG d   1       2.319   0.962  -3.920  0.00  0.00     0.054 H 
ATOM     29  H   LIG d   1       2.651  -0.602  -2.949  0.00  0.00     0.054 H 
ENDROOT
BRANCH   1  30
ATOM     30  C   LIG d   1       3.698   2.643  -9.295  0.00  0.00    -0.043 C 
ATOM     31  H   LIG d   1       2.696   2.640  -9.726  0.00  0.00     0.027 H 
ATOM     32  H   LIG d   1       3.746   3.382  -8.495  0.00  0.00     0.027 H 
ATOM     33  H   LIG d   1       4.423   2.897 -10.068  0.00  0.00     0.027 H 
ENDBRANCH   1  30
BRANCH   8  34
ATOM     34  C   LIG d   1       5.069  -1.483  -8.745  0.00  0.00    -0.017 C 
ATOM     35  H   LIG d   1       4.987  -1.180  -9.789  0.00  0.00     0.027 H 
ATOM     36  H   LIG d   1       5.723  -2.352  -8.669  0.00  0.00     0.027 H 
ATOM     37  H   LIG d   1       4.081  -1.738  -8.361  0.00  0.00     0.027 H 
ENDBRANCH   8  34
TORSDOF 2
ENDMDL
MODEL 9
REMARK VINA RESULT:      -5.1     17.355     19.670
REMARK  2 active torsions:
REMARK  status: ('A' for Active; 'I' for Inactive)
REMARK    1  A    between atoms: C_1  and  C_2 
REMARK    2  A    between atoms: C_9  and  C_21 
ROOT
ATOM      1  C   LIG d   1      -5.313  10.824  -9.317  0.00  0.00    -0.070 C 
ATOM      2  C   LIG d   1      -4.970  11.946  -9.897  0.00  0.00    -0.024 C 
ATOM      3  C   LIG d   1      -3.613  12.493  -9.564  0.00  0.00    -0.018 C 
ATOM      4  C   LIG d   1      -3.356  13.915 -10.022  0.00  0.00     0.049 C 
ATOM      5  C   LIG d   1      -4.172  14.264 -11.237  0.00  0.00     0.308 C 
ATOM      6  O   LIG d   1      -3.656  14.905 -12.130  0.00  0.00    -0.251 OA
ATOM      7  O   LIG d   1      -5.451  13.921 -11.282  0.00  0.00    -0.450 OA
ATOM      8  C   LIG d   1      -5.924  12.625 -10.835  0.00  0.00     0.169 C 
ATOM      9  C   LIG d   1      -6.155  11.802 -12.082  0.00  0.00     0.153 C 
ATOM     10  H   LIG d   1      -5.346  12.032 -12.803  0.00  0.00     0.078 H 
ATOM     11  C   LIG d   1      -6.207  10.279 -11.884  0.00  0.00     0.032 C 
ATOM     12  H   LIG d   1      -5.230   9.814 -11.783  0.00  0.00     0.039 H 
ATOM     13  C   LIG d   1      -7.180   9.878 -10.771  0.00  0.00    -0.039 C 
ATOM     14  C   LIG d   1      -6.575  10.084  -9.408  0.00  0.00    -0.031 C 
ATOM     15  C   LIG d   1      -6.902   9.882 -13.197  0.00  0.00     0.036 C 
ATOM     16  C   LIG d   1      -6.793   8.733 -13.851  0.00  0.00    -0.088 C 
ATOM     17  C   LIG d   1      -7.708  11.062 -13.558  0.00  0.00     0.335 C 
ATOM     18  O   LIG d   1      -8.542  11.085 -14.437  0.00  0.00    -0.245 OA
ATOM     19  O   LIG d   1      -7.418  12.102 -12.745  0.00  0.00    -0.453 OA
ATOM     20  H   LIG d   1      -2.855  11.849 -10.009  0.00  0.00     0.032 H 
ATOM     21  H   LIG d   1      -3.485  12.496  -8.478  0.00  0.00     0.032 H 
ATOM     22  H   LIG d   1      -2.297  14.031 -10.258  0.00  0.00     0.038 H 
ATOM     23  H   LIG d   1      -3.610  14.603  -9.212  0.00  0.00     0.038 H 
ATOM     24  H   LIG d   1      -7.424   8.816 -10.886  0.00  0.00     0.028 H 
ATOM     25  H   LIG d   1      -8.102  10.447 -10.861  0.00  0.00     0.028 H 
ATOM     26  H   LIG d   1      -7.308  10.565  -8.766  0.00  0.00     0.031 H 
ATOM     27  H   LIG d   1      -6.392   9.090  -8.981  0.00  0.00     0.031 H 
ATOM     28  H   LIG d   1      -6.158   7.950 -13.464  0.00  0.00     0.054 H 
ATOM     29  H   LIG d   1      -7.340   8.581 -14.769  0.00  0.00     0.054 H 
ENDROOT
BRANCH   1  30
ATOM     30  C   LIG d   1      -4.274  10.155  -8.443  0.00  0.00    -0.043 C 
ATOM     31  H   LIG d   1      -3.629  10.914  -7.998  0.00  0.00     0.027 H 
ATOM     32  H   LIG d   1      -4.771   9.593  -7.651  0.00  0.00     0.027 H 
ATOM     33  H   LIG d   1      -3.672   9.477  -9.047  0.00  0.00     0.027 H 
ENDBRANCH   1  30
BRANCH   8  34
ATOM     34  C   LIG d   1      -7.254  12.895 -10.122  0.00  0.00    -0.017 C 
ATOM     35  H   LIG d   1      -7.204  13.858  -9.614  0.00  0.00     0.027 H 
ATOM     36  H   LIG d   1      -8.062  12.911 -10.853  0.00  0.00     0.027 H 
ATOM     37  H   LIG d   1      -7.440  12.108  -9.391  0.00  0.00     0.027 H 
ENDBRANCH   8  34
TORSDOF 2
ENDMDL
