MODEL 1
REMARK VINA RESULT:      -7.1      0.000      0.000
REMARK  6 active torsions:
REMARK  status: ('A' for Active; 'I' for Inactive)
REMARK    1  A    between atoms: C_2  and  C_25 
REMARK    2  A    between atoms: N_5  and  C_6 
REMARK    3  A    between atoms: C_6  and  C_7 
REMARK    4  A    between atoms: C_15  and  C_17 
REMARK       I    between atoms: C_17  and  N_19 
REMARK    5  A    between atoms: C_25  and  C_26 
REMARK    6  A    between atoms: C_26  and  O_27 
ROOT
ATOM      1  C   LIG d   1       3.266  -0.048  -4.366  0.00  0.00    -0.001 C 
ATOM      2  H   LIG d   1       2.421   0.635  -4.280  0.00  0.00     0.087 H 
ATOM      3  C   LIG d   1       3.135  -1.158  -3.319  0.00  0.00    -0.004 C 
ATOM      4  C   LIG d   1       4.358  -1.115  -2.396  0.00  0.00    -0.015 C 
ATOM      5  H   LIG d   1       4.283  -1.894  -1.636  0.00  0.00     0.031 H 
ATOM      6  C   LIG d   1       4.422   0.266  -1.731  0.00  0.00    -0.009 C 
ATOM      7  C   LIG d   1       4.519   1.335  -2.822  0.00  0.00    -0.031 C 
ATOM      8  C   LIG d   1       5.684  -0.192  -4.295  0.00  0.00    -0.020 C 
ATOM      9  C   LIG d   1       5.620  -1.307  -3.246  0.00  0.00     0.079 C 
ATOM     10  H   LIG d   1       6.503  -1.258  -2.607  0.00  0.00     0.045 H 
ATOM     11  H   LIG d   1       2.229  -1.001  -2.733  0.00  0.00     0.032 H 
ATOM     12  H   LIG d   1       3.087  -2.126  -3.817  0.00  0.00     0.032 H 
ATOM     13  H   LIG d   1       3.521   0.428  -1.139  0.00  0.00     0.032 H 
ATOM     14  H   LIG d   1       5.299   0.321  -1.086  0.00  0.00     0.032 H 
ATOM     15  H   LIG d   1       3.665   2.010  -2.747  0.00  0.00     0.081 H 
ATOM     16  H   LIG d   1       5.441   1.902  -2.695  0.00  0.00     0.081 H 
ATOM     17  H   LIG d   1       5.679  -0.630  -5.293  0.00  0.00     0.082 H 
ATOM     18  H   LIG d   1       6.598   0.387  -4.156  0.00  0.00     0.082 H 
ATOM     19  N   LIG d   1       4.520   0.709  -4.161  0.00  0.00     0.239 N 
ATOM     20  H   LIG d   1       4.585   1.446  -4.874  0.00  0.00     0.204 HD
ENDROOT
BRANCH   1  21
ATOM     21  C   LIG d   1       3.283  -0.666  -5.766  0.00  0.00     0.086 C 
ATOM     22  H   LIG d   1       2.431  -1.336  -5.877  0.00  0.00     0.057 H 
ATOM     23  H   LIG d   1       4.207  -1.228  -5.904  0.00  0.00     0.057 H 
BRANCH  21  24
ATOM     24  N   LIG d   1       3.204   0.397  -6.770  0.00  0.00    -0.246 N 
ATOM     25  C   LIG d   1       3.673   0.328  -8.037  0.00  0.00     0.049 A 
ATOM     26  C   LIG d   1       3.389   1.520  -8.611  0.00  0.00     0.085 A 
ATOM     27  H   LIG d   1       4.171  -0.512  -8.499  0.00  0.00     0.085 H 
ATOM     28  N   LIG d   1       2.776   2.255  -7.676  0.00  0.00    -0.134 NA
ATOM     29  N   LIG d   1       2.682   1.560  -6.597  0.00  0.00    -0.065 NA
BRANCH  26  30
ATOM     30  C   LIG d   1       3.706   1.940 -10.023  0.00  0.00     0.016 C 
ATOM     31  H   LIG d   1       2.785   1.984 -10.604  0.00  0.00     0.035 H 
ATOM     32  H   LIG d   1       4.178   2.922 -10.013  0.00  0.00     0.035 H 
BRANCH  30  33
ATOM     33  C   LIG d   1       4.659   0.923 -10.656  0.00  0.00     0.050 C 
ATOM     34  H   LIG d   1       5.662   1.346 -10.704  0.00  0.00     0.056 H 
ATOM     35  H   LIG d   1       4.675   0.016 -10.052  0.00  0.00     0.056 H 
BRANCH  33  36
ATOM     36  O   LIG d   1       4.212   0.609 -11.976  0.00  0.00    -0.395 OA
ATOM     37  H   LIG d   1       4.346   1.321 -12.617  0.00  0.00     0.209 HD
ENDBRANCH  33  36
ENDBRANCH  30  33
ENDBRANCH  26  30
ENDBRANCH  21  24
ENDBRANCH   1  21
BRANCH   9  38
ATOM     38  C   LIG d   1       5.566  -2.646  -3.935  0.00  0.00     0.224 C 
ATOM     39  O   LIG d   1       4.557  -3.316  -3.880  0.00  0.00    -0.275 OA
ATOM     40  N   LIG d   1       6.640  -3.099  -4.613  0.00  0.00    -0.297 N 
ATOM     41  C   LIG d   1       6.610  -4.403  -5.294  0.00  0.00     0.038 C 
ATOM     42  C   LIG d   1       7.874  -2.301  -4.699  0.00  0.00     0.038 C 
ATOM     43  C   LIG d   1       7.851  -5.198  -4.870  0.00  0.00     0.064 C 
ATOM     44  H   LIG d   1       5.711  -4.947  -5.006  0.00  0.00     0.049 H 
ATOM     45  H   LIG d   1       6.621  -4.254  -6.374  0.00  0.00     0.049 H 
ATOM     46  O   LIG d   1       9.017  -4.397  -5.081  0.00  0.00    -0.377 OA
ATOM     47  H   LIG d   1       7.774  -5.458  -3.814  0.00  0.00     0.058 H 
ATOM     48  H   LIG d   1       7.922  -6.108  -5.465  0.00  0.00     0.058 H 
ATOM     49  C   LIG d   1       9.054  -3.201  -4.300  0.00  0.00     0.064 C 
ATOM     50  H   LIG d   1       8.982  -3.453  -3.241  0.00  0.00     0.058 H 
ATOM     51  H   LIG d   1       9.991  -2.674  -4.485  0.00  0.00     0.058 H 
ATOM     52  H   LIG d   1       8.009  -1.944  -5.719  0.00  0.00     0.049 H 
ATOM     53  H   LIG d   1       7.810  -1.453  -4.018  0.00  0.00     0.049 H 
ENDBRANCH   9  38
TORSDOF 6
ENDMDL
MODEL 2
REMARK VINA RESULT:      -6.6      3.156      7.142
REMARK  6 active torsions:
REMARK  status: ('A' for Active; 'I' for Inactive)
REMARK    1  A    between atoms: C_2  and  C_25 
REMARK    2  A    between atoms: N_5  and  C_6 
REMARK    3  A    between atoms: C_6  and  C_7 
REMARK    4  A    between atoms: C_15  and  C_17 
REMARK       I    between atoms: C_17  and  N_19 
REMARK    5  A    between atoms: C_25  and  C_26 
REMARK    6  A    between atoms: C_26  and  O_27 
ROOT
ATOM      1  C   LIG d   1       5.111   0.210  -8.470  0.00  0.00    -0.001 C 
ATOM      2  H   LIG d   1       6.058   0.744  -8.384  0.00  0.00     0.087 H 
ATOM      3  C   LIG d   1       4.933  -0.287  -9.907  0.00  0.00    -0.004 C 
ATOM      4  C   LIG d   1       3.660   0.335 -10.493  0.00  0.00    -0.015 C 
ATOM      5  H   LIG d   1       3.516  -0.000 -11.521  0.00  0.00     0.031 H 
ATOM      6  C   LIG d   1       3.796   1.862 -10.450  0.00  0.00    -0.009 C 
ATOM      7  C   LIG d   1       4.004   2.299  -8.998  0.00  0.00    -0.031 C 
ATOM      8  C   LIG d   1       2.714   0.418  -8.187  0.00  0.00    -0.020 C 
ATOM      9  C   LIG d   1       2.468  -0.074  -9.617  0.00  0.00     0.079 C 
ATOM     10  H   LIG d   1       1.556   0.377 -10.007  0.00  0.00     0.045 H 
ATOM     11  H   LIG d   1       5.794   0.012 -10.506  0.00  0.00     0.032 H 
ATOM     12  H   LIG d   1       4.844  -1.373  -9.910  0.00  0.00     0.032 H 
ATOM     13  H   LIG d   1       4.653   2.169 -11.050  0.00  0.00     0.032 H 
ATOM     14  H   LIG d   1       2.889   2.322 -10.844  0.00  0.00     0.032 H 
ATOM     15  H   LIG d   1       4.959   2.819  -8.908  0.00  0.00     0.081 H 
ATOM     16  H   LIG d   1       3.197   2.969  -8.700  0.00  0.00     0.081 H 
ATOM     17  H   LIG d   1       2.728  -0.433  -7.506  0.00  0.00     0.082 H 
ATOM     18  H   LIG d   1       1.916   1.103  -7.896  0.00  0.00     0.082 H 
ATOM     19  N   LIG d   1       4.009   1.125  -8.100  0.00  0.00     0.239 N 
ATOM     20  H   LIG d   1       4.151   1.444  -7.134  0.00  0.00     0.204 HD
ENDROOT
BRANCH   1  21
ATOM     21  C   LIG d   1       5.107  -0.983  -7.513  0.00  0.00     0.086 C 
ATOM     22  H   LIG d   1       5.943  -1.641  -7.750  0.00  0.00     0.057 H 
ATOM     23  H   LIG d   1       4.171  -1.532  -7.619  0.00  0.00     0.057 H 
BRANCH  21  24
ATOM     24  N   LIG d   1       5.239  -0.505  -6.134  0.00  0.00    -0.246 N 
ATOM     25  C   LIG d   1       4.467  -0.878  -5.088  0.00  0.00     0.049 A 
ATOM     26  C   LIG d   1       4.933  -0.200  -4.014  0.00  0.00     0.085 A 
ATOM     27  H   LIG d   1       3.645  -1.578  -5.106  0.00  0.00     0.085 H 
ATOM     28  N   LIG d   1       5.950   0.552  -4.452  0.00  0.00    -0.134 NA
ATOM     29  N   LIG d   1       6.105   0.349  -5.712  0.00  0.00    -0.065 NA
BRANCH  26  30
ATOM     30  C   LIG d   1       4.408  -0.273  -2.603  0.00  0.00     0.016 C 
ATOM     31  H   LIG d   1       3.475  -0.838  -2.593  0.00  0.00     0.035 H 
ATOM     32  H   LIG d   1       5.141  -0.770  -1.968  0.00  0.00     0.035 H 
BRANCH  30  33
ATOM     33  C   LIG d   1       4.154   1.141  -2.079  0.00  0.00     0.050 C 
ATOM     34  H   LIG d   1       3.344   1.118  -1.350  0.00  0.00     0.056 H 
ATOM     35  H   LIG d   1       5.058   1.521  -1.605  0.00  0.00     0.056 H 
BRANCH  33  36
ATOM     36  O   LIG d   1       3.790   1.994  -3.167  0.00  0.00    -0.395 OA
ATOM     37  H   LIG d   1       4.069   2.914  -3.056  0.00  0.00     0.209 HD
ENDBRANCH  33  36
ENDBRANCH  30  33
ENDBRANCH  26  30
ENDBRANCH  21  24
ENDBRANCH   1  21
BRANCH   9  38
ATOM     38  C   LIG d   1       2.332  -1.575  -9.618  0.00  0.00     0.224 C 
ATOM     39  O   LIG d   1       2.805  -2.226  -8.710  0.00  0.00    -0.275 OA
ATOM     40  N   LIG d   1       1.686  -2.193 -10.626  0.00  0.00    -0.297 N 
ATOM     41  C   LIG d   1       1.541  -3.657 -10.648  0.00  0.00     0.038 C 
ATOM     42  C   LIG d   1       1.100  -1.423 -11.736  0.00  0.00     0.038 C 
ATOM     43  C   LIG d   1       1.997  -4.167 -12.020  0.00  0.00     0.064 C 
ATOM     44  H   LIG d   1       2.161  -4.099  -9.868  0.00  0.00     0.049 H 
ATOM     45  H   LIG d   1       0.497  -3.925 -10.486  0.00  0.00     0.049 H 
ATOM     46  O   LIG d   1       1.308  -3.445 -13.044  0.00  0.00    -0.377 OA
ATOM     47  H   LIG d   1       3.072  -4.014 -12.127  0.00  0.00     0.058 H 
ATOM     48  H   LIG d   1       1.770  -5.230 -12.108  0.00  0.00     0.058 H 
ATOM     49  C   LIG d   1       1.583  -2.043 -13.056  0.00  0.00     0.064 C 
ATOM     50  H   LIG d   1       2.655  -1.881 -13.167  0.00  0.00     0.058 H 
ATOM     51  H   LIG d   1       1.056  -1.576 -13.890  0.00  0.00     0.058 H 
ATOM     52  H   LIG d   1       0.013  -1.469 -11.680  0.00  0.00     0.049 H 
ATOM     53  H   LIG d   1       1.427  -0.385 -11.674  0.00  0.00     0.049 H 
ENDBRANCH   9  38
TORSDOF 6
ENDMDL
MODEL 3
REMARK VINA RESULT:      -6.1      3.329      6.153
REMARK  6 active torsions:
REMARK  status: ('A' for Active; 'I' for Inactive)
REMARK    1  A    between atoms: C_2  and  C_25 
REMARK    2  A    between atoms: N_5  and  C_6 
REMARK    3  A    between atoms: C_6  and  C_7 
REMARK    4  A    between atoms: C_15  and  C_17 
REMARK       I    between atoms: C_17  and  N_19 
REMARK    5  A    between atoms: C_25  and  C_26 
REMARK    6  A    between atoms: C_26  and  O_27 
ROOT
ATOM      1  C   LIG d   1       4.816  -2.914  -4.033  0.00  0.00    -0.001 C 
ATOM      2  H   LIG d   1       4.508  -3.746  -3.400  0.00  0.00     0.087 H 
ATOM      3  C   LIG d   1       6.069  -2.259  -3.444  0.00  0.00    -0.004 C 
ATOM      4  C   LIG d   1       5.759  -0.791  -3.127  0.00  0.00    -0.015 C 
ATOM      5  H   LIG d   1       6.636  -0.306  -2.699  0.00  0.00     0.031 H 
ATOM      6  C   LIG d   1       4.591  -0.742  -2.133  0.00  0.00    -0.009 C 
ATOM      7  C   LIG d   1       3.380  -1.437  -2.759  0.00  0.00    -0.031 C 
ATOM      8  C   LIG d   1       4.094  -0.805  -4.984  0.00  0.00    -0.020 C 
ATOM      9  C   LIG d   1       5.328  -0.091  -4.423  0.00  0.00     0.079 C 
ATOM     10  H   LIG d   1       5.082   0.950  -4.211  0.00  0.00     0.045 H 
ATOM     11  H   LIG d   1       6.357  -2.778  -2.529  0.00  0.00     0.032 H 
ATOM     12  H   LIG d   1       6.883  -2.312  -4.168  0.00  0.00     0.032 H 
ATOM     13  H   LIG d   1       4.872  -1.255  -1.214  0.00  0.00     0.032 H 
ATOM     14  H   LIG d   1       4.343   0.297  -1.912  0.00  0.00     0.032 H 
ATOM     15  H   LIG d   1       3.081  -2.280  -2.134  0.00  0.00     0.081 H 
ATOM     16  H   LIG d   1       2.553  -0.731  -2.834  0.00  0.00     0.081 H 
ATOM     17  H   LIG d   1       4.316  -1.188  -5.980  0.00  0.00     0.082 H 
ATOM     18  H   LIG d   1       3.261  -0.103  -5.041  0.00  0.00     0.082 H 
ATOM     19  N   LIG d   1       3.710  -1.935  -4.111  0.00  0.00     0.239 N 
ATOM     20  H   LIG d   1       2.883  -2.397  -4.508  0.00  0.00     0.204 HD
ENDROOT
BRANCH   1  21
ATOM     21  C   LIG d   1       5.122  -3.429  -5.441  0.00  0.00     0.086 C 
ATOM     22  H   LIG d   1       6.117  -3.100  -5.740  0.00  0.00     0.057 H 
ATOM     23  H   LIG d   1       4.385  -3.036  -6.141  0.00  0.00     0.057 H 
BRANCH  21  24
ATOM     24  N   LIG d   1       5.070  -4.893  -5.448  0.00  0.00    -0.246 N 
ATOM     25  C   LIG d   1       6.092  -5.722  -5.763  0.00  0.00     0.049 A 
ATOM     26  C   LIG d   1       5.610  -6.980  -5.638  0.00  0.00     0.085 A 
ATOM     27  H   LIG d   1       7.092  -5.436  -6.053  0.00  0.00     0.085 H 
ATOM     28  N   LIG d   1       4.330  -6.861  -5.266  0.00  0.00    -0.134 NA
ATOM     29  N   LIG d   1       4.041  -5.612  -5.162  0.00  0.00    -0.065 NA
BRANCH  26  30
ATOM     30  C   LIG d   1       6.364  -8.262  -5.876  0.00  0.00     0.016 C 
ATOM     31  H   LIG d   1       7.320  -8.038  -6.350  0.00  0.00     0.035 H 
ATOM     32  H   LIG d   1       6.539  -8.764  -4.925  0.00  0.00     0.035 H 
BRANCH  30  33
ATOM     33  C   LIG d   1       5.544  -9.174  -6.791  0.00  0.00     0.050 C 
ATOM     34  H   LIG d   1       5.322  -8.651  -7.721  0.00  0.00     0.056 H 
ATOM     35  H   LIG d   1       6.114 -10.077  -7.010  0.00  0.00     0.056 H 
BRANCH  33  36
ATOM     36  O   LIG d   1       4.322  -9.528  -6.140  0.00  0.00    -0.395 OA
ATOM     37  H   LIG d   1       3.865  -8.781  -5.729  0.00  0.00     0.209 HD
ENDBRANCH  33  36
ENDBRANCH  30  33
ENDBRANCH  26  30
ENDBRANCH  21  24
ENDBRANCH   1  21
BRANCH   9  38
ATOM     38  C   LIG d   1       6.449  -0.154  -5.428  0.00  0.00     0.224 C 
ATOM     39  O   LIG d   1       6.440  -1.005  -6.292  0.00  0.00    -0.275 OA
ATOM     40  N   LIG d   1       7.460   0.734  -5.366  0.00  0.00    -0.297 N 
ATOM     41  C   LIG d   1       8.565   0.692  -6.336  0.00  0.00     0.038 C 
ATOM     42  C   LIG d   1       7.490   1.779  -4.329  0.00  0.00     0.038 C 
ATOM     43  C   LIG d   1       9.889   0.711  -5.563  0.00  0.00     0.064 C 
ATOM     44  H   LIG d   1       8.500  -0.221  -6.928  0.00  0.00     0.049 H 
ATOM     45  H   LIG d   1       8.511   1.561  -6.992  0.00  0.00     0.049 H 
ATOM     46  O   LIG d   1       9.886   1.813  -4.652  0.00  0.00    -0.377 OA
ATOM     47  H   LIG d   1      10.000  -0.220  -5.007  0.00  0.00     0.058 H 
ATOM     48  H   LIG d   1      10.718   0.820  -6.262  0.00  0.00     0.058 H 
ATOM     49  C   LIG d   1       8.868   1.741  -3.651  0.00  0.00     0.064 C 
ATOM     50  H   LIG d   1       8.975   0.813  -3.087  0.00  0.00     0.058 H 
ATOM     51  H   LIG d   1       8.962   2.591  -2.974  0.00  0.00     0.058 H 
ATOM     52  H   LIG d   1       7.328   2.754  -4.786  0.00  0.00     0.049 H 
ATOM     53  H   LIG d   1       6.710   1.585  -3.592  0.00  0.00     0.049 H 
ENDBRANCH   9  38
TORSDOF 6
ENDMDL
MODEL 4
REMARK VINA RESULT:      -6.1      1.869      2.180
REMARK  6 active torsions:
REMARK  status: ('A' for Active; 'I' for Inactive)
REMARK    1  A    between atoms: C_2  and  C_25 
REMARK    2  A    between atoms: N_5  and  C_6 
REMARK    3  A    between atoms: C_6  and  C_7 
REMARK    4  A    between atoms: C_15  and  C_17 
REMARK       I    between atoms: C_17  and  N_19 
REMARK    5  A    between atoms: C_25  and  C_26 
REMARK    6  A    between atoms: C_26  and  O_27 
ROOT
ATOM      1  C   LIG d   1       3.969  -0.962  -4.604  0.00  0.00    -0.001 C 
ATOM      2  H   LIG d   1       2.879  -0.937  -4.642  0.00  0.00     0.087 H 
ATOM      3  C   LIG d   1       4.421  -1.996  -3.569  0.00  0.00    -0.004 C 
ATOM      4  C   LIG d   1       5.249  -1.288  -2.490  0.00  0.00    -0.015 C 
ATOM      5  H   LIG d   1       5.577  -2.004  -1.737  0.00  0.00     0.031 H 
ATOM      6  C   LIG d   1       4.381  -0.201  -1.842  0.00  0.00    -0.009 C 
ATOM      7  C   LIG d   1       3.931   0.783  -2.924  0.00  0.00    -0.031 C 
ATOM      8  C   LIG d   1       5.945   0.382  -4.207  0.00  0.00    -0.020 C 
ATOM      9  C   LIG d   1       6.454  -0.615  -3.161  0.00  0.00     0.079 C 
ATOM     10  H   LIG d   1       7.043  -0.088  -2.410  0.00  0.00     0.045 H 
ATOM     11  H   LIG d   1       3.548  -2.462  -3.112  0.00  0.00     0.032 H 
ATOM     12  H   LIG d   1       5.031  -2.757  -4.056  0.00  0.00     0.032 H 
ATOM     13  H   LIG d   1       3.507  -0.660  -1.379  0.00  0.00     0.032 H 
ATOM     14  H   LIG d   1       4.962   0.328  -1.086  0.00  0.00     0.032 H 
ATOM     15  H   LIG d   1       2.842   0.796  -2.974  0.00  0.00     0.081 H 
ATOM     16  H   LIG d   1       4.295   1.782  -2.683  0.00  0.00     0.081 H 
ATOM     17  H   LIG d   1       6.323   0.103  -5.191  0.00  0.00     0.082 H 
ATOM     18  H   LIG d   1       6.293   1.384  -3.955  0.00  0.00     0.082 H 
ATOM     19  N   LIG d   1       4.467   0.382  -4.243  0.00  0.00     0.239 N 
ATOM     20  H   LIG d   1       4.151   1.057  -4.950  0.00  0.00     0.204 HD
ENDROOT
BRANCH   1  21
ATOM     21  C   LIG d   1       4.519  -1.342  -5.980  0.00  0.00     0.086 C 
ATOM     22  H   LIG d   1       4.422  -2.418  -6.126  0.00  0.00     0.057 H 
ATOM     23  H   LIG d   1       5.570  -1.060  -6.042  0.00  0.00     0.057 H 
BRANCH  21  24
ATOM     24  N   LIG d   1       3.764  -0.639  -7.020  0.00  0.00    -0.246 N 
ATOM     25  C   LIG d   1       3.307  -1.181  -8.172  0.00  0.00     0.049 A 
ATOM     26  C   LIG d   1       2.668  -0.186  -8.831  0.00  0.00     0.085 A 
ATOM     27  H   LIG d   1       3.426  -2.204  -8.499  0.00  0.00     0.085 H 
ATOM     28  N   LIG d   1       2.772   0.905  -8.063  0.00  0.00    -0.134 NA
ATOM     29  N   LIG d   1       3.426   0.603  -6.998  0.00  0.00    -0.065 NA
BRANCH  26  30
ATOM     30  C   LIG d   1       1.981  -0.286 -10.168  0.00  0.00     0.016 C 
ATOM     31  H   LIG d   1       1.477  -1.250 -10.246  0.00  0.00     0.035 H 
ATOM     32  H   LIG d   1       1.249   0.515 -10.261  0.00  0.00     0.035 H 
BRANCH  30  33
ATOM     33  C   LIG d   1       3.018  -0.162 -11.286  0.00  0.00     0.050 C 
ATOM     34  H   LIG d   1       3.692  -1.018 -11.252  0.00  0.00     0.056 H 
ATOM     35  H   LIG d   1       2.512  -0.136 -12.250  0.00  0.00     0.056 H 
BRANCH  33  36
ATOM     36  O   LIG d   1       3.768   1.041 -11.108  0.00  0.00    -0.395 OA
ATOM     37  H   LIG d   1       4.431   0.992 -10.405  0.00  0.00     0.209 HD
ENDBRANCH  33  36
ENDBRANCH  30  33
ENDBRANCH  26  30
ENDBRANCH  21  24
ENDBRANCH   1  21
BRANCH   9  38
ATOM     38  C   LIG d   1       7.306  -1.660  -3.833  0.00  0.00     0.224 C 
ATOM     39  O   LIG d   1       7.161  -2.832  -3.554  0.00  0.00    -0.275 OA
ATOM     40  N   LIG d   1       8.230  -1.294  -4.743  0.00  0.00    -0.297 N 
ATOM     41  C   LIG d   1       9.074  -2.296  -5.411  0.00  0.00     0.038 C 
ATOM     42  C   LIG d   1       8.421   0.121  -5.102  0.00  0.00     0.038 C 
ATOM     43  C   LIG d   1      10.537  -1.855  -5.291  0.00  0.00     0.064 C 
ATOM     44  H   LIG d   1       8.943  -3.266  -4.931  0.00  0.00     0.049 H 
ATOM     45  H   LIG d   1       8.798  -2.366  -6.464  0.00  0.00     0.049 H 
ATOM     46  O   LIG d   1      10.662  -0.508  -5.755  0.00  0.00    -0.377 OA
ATOM     47  H   LIG d   1      10.850  -1.910  -4.248  0.00  0.00     0.058 H 
ATOM     48  H   LIG d   1      11.167  -2.508  -5.896  0.00  0.00     0.058 H 
ATOM     49  C   LIG d   1       9.920   0.445  -4.992  0.00  0.00     0.064 C 
ATOM     50  H   LIG d   1      10.230   0.398  -3.948  0.00  0.00     0.058 H 
ATOM     51  H   LIG d   1      10.103   1.447  -5.382  0.00  0.00     0.058 H 
ATOM     52  H   LIG d   1       8.079   0.290  -6.122  0.00  0.00     0.049 H 
ATOM     53  H   LIG d   1       7.856   0.753  -4.416  0.00  0.00     0.049 H 
ENDBRANCH   9  38
TORSDOF 6
ENDMDL
MODEL 5
REMARK VINA RESULT:      -6.1      6.035      8.407
REMARK  6 active torsions:
REMARK  status: ('A' for Active; 'I' for Inactive)
REMARK    1  A    between atoms: C_2  and  C_25 
REMARK    2  A    between atoms: N_5  and  C_6 
REMARK    3  A    between atoms: C_6  and  C_7 
REMARK    4  A    between atoms: C_15  and  C_17 
REMARK       I    between atoms: C_17  and  N_19 
REMARK    5  A    between atoms: C_25  and  C_26 
REMARK    6  A    between atoms: C_26  and  O_27 
ROOT
ATOM      1  C   LIG d   1       8.927   1.778  -4.886  0.00  0.00    -0.001 C 
ATOM      2  H   LIG d   1       8.636   0.933  -5.510  0.00  0.00     0.087 H 
ATOM      3  C   LIG d   1       9.381   2.939  -5.776  0.00  0.00    -0.004 C 
ATOM      4  C   LIG d   1      10.836   3.283  -5.437  0.00  0.00    -0.015 C 
ATOM      5  H   LIG d   1      11.184   4.104  -6.065  0.00  0.00     0.031 H 
ATOM      6  C   LIG d   1      11.701   2.038  -5.671  0.00  0.00    -0.009 C 
ATOM      7  C   LIG d   1      11.183   0.903  -4.784  0.00  0.00    -0.031 C 
ATOM      8  C   LIG d   1      10.421   2.481  -3.113  0.00  0.00    -0.020 C 
ATOM      9  C   LIG d   1      10.916   3.663  -3.953  0.00  0.00     0.079 C 
ATOM     10  H   LIG d   1      11.950   3.890  -3.689  0.00  0.00     0.045 H 
ATOM     11  H   LIG d   1       9.309   2.646  -6.824  0.00  0.00     0.032 H 
ATOM     12  H   LIG d   1       8.748   3.808  -5.594  0.00  0.00     0.032 H 
ATOM     13  H   LIG d   1      11.637   1.740  -6.718  0.00  0.00     0.032 H 
ATOM     14  H   LIG d   1      12.737   2.258  -5.415  0.00  0.00     0.032 H 
ATOM     15  H   LIG d   1      10.877   0.063  -5.408  0.00  0.00     0.081 H 
ATOM     16  H   LIG d   1      11.974   0.582  -4.106  0.00  0.00     0.081 H 
ATOM     17  H   LIG d   1       9.560   2.791  -2.521  0.00  0.00     0.082 H 
ATOM     18  H   LIG d   1      11.218   2.147  -2.448  0.00  0.00     0.082 H 
ATOM     19  N   LIG d   1      10.023   1.358  -3.988  0.00  0.00     0.239 N 
ATOM     20  H   LIG d   1       9.695   0.579  -3.403  0.00  0.00     0.204 HD
ENDROOT
BRANCH   1  21
ATOM     21  C   LIG d   1       7.733   2.221  -4.038  0.00  0.00     0.086 C 
ATOM     22  H   LIG d   1       7.087   2.869  -4.631  0.00  0.00     0.057 H 
ATOM     23  H   LIG d   1       8.090   2.767  -3.164  0.00  0.00     0.057 H 
BRANCH  21  24
ATOM     24  N   LIG d   1       6.978   1.044  -3.604  0.00  0.00    -0.246 N 
ATOM     25  C   LIG d   1       5.815   1.058  -2.912  0.00  0.00     0.049 A 
ATOM     26  C   LIG d   1       5.471  -0.238  -2.725  0.00  0.00     0.085 A 
ATOM     27  H   LIG d   1       5.270   1.928  -2.578  0.00  0.00     0.085 H 
ATOM     28  N   LIG d   1       6.433  -0.972  -3.297  0.00  0.00    -0.134 NA
ATOM     29  N   LIG d   1       7.310  -0.183  -3.808  0.00  0.00    -0.065 NA
BRANCH  26  30
ATOM     30  C   LIG d   1       4.249  -0.752  -2.009  0.00  0.00     0.016 C 
ATOM     31  H   LIG d   1       4.458  -0.825  -0.942  0.00  0.00     0.035 H 
ATOM     32  H   LIG d   1       3.418  -0.066  -2.171  0.00  0.00     0.035 H 
BRANCH  30  33
ATOM     33  C   LIG d   1       3.884  -2.134  -2.553  0.00  0.00     0.050 C 
ATOM     34  H   LIG d   1       4.732  -2.808  -2.432  0.00  0.00     0.056 H 
ATOM     35  H   LIG d   1       3.028  -2.526  -2.004  0.00  0.00     0.056 H 
BRANCH  33  36
ATOM     36  O   LIG d   1       3.553  -2.029  -3.939  0.00  0.00    -0.395 OA
ATOM     37  H   LIG d   1       4.000  -1.303  -4.396  0.00  0.00     0.209 HD
ENDBRANCH  33  36
ENDBRANCH  30  33
ENDBRANCH  26  30
ENDBRANCH  21  24
ENDBRANCH   1  21
BRANCH   9  38
ATOM     38  C   LIG d   1      10.049   4.867  -3.692  0.00  0.00     0.224 C 
ATOM     39  O   LIG d   1       9.235   5.218  -4.519  0.00  0.00    -0.275 OA
ATOM     40  N   LIG d   1      10.178   5.553  -2.539  0.00  0.00    -0.297 N 
ATOM     41  C   LIG d   1       9.342   6.731  -2.262  0.00  0.00     0.038 C 
ATOM     42  C   LIG d   1      11.155   5.141  -1.517  0.00  0.00     0.038 C 
ATOM     43  C   LIG d   1      10.258   7.883  -1.831  0.00  0.00     0.064 C 
ATOM     44  H   LIG d   1       8.796   7.014  -3.161  0.00  0.00     0.049 H 
ATOM     45  H   LIG d   1       8.639   6.503  -1.460  0.00  0.00     0.049 H 
ATOM     46  O   LIG d   1      11.104   7.439  -0.766  0.00  0.00    -0.377 OA
ATOM     47  H   LIG d   1      10.872   8.196  -2.676  0.00  0.00     0.058 H 
ATOM     48  H   LIG d   1       9.653   8.722  -1.489  0.00  0.00     0.058 H 
ATOM     49  C   LIG d   1      11.986   6.374  -1.126  0.00  0.00     0.064 C 
ATOM     50  H   LIG d   1      12.606   6.681  -1.968  0.00  0.00     0.058 H 
ATOM     51  H   LIG d   1      12.623   6.126  -0.276  0.00  0.00     0.058 H 
ATOM     52  H   LIG d   1      10.631   4.755  -0.644  0.00  0.00     0.049 H 
ATOM     53  H   LIG d   1      11.808   4.370  -1.924  0.00  0.00     0.049 H 
ENDBRANCH   9  38
TORSDOF 6
ENDMDL
MODEL 6
REMARK VINA RESULT:      -6.0      5.896      8.334
REMARK  6 active torsions:
REMARK  status: ('A' for Active; 'I' for Inactive)
REMARK    1  A    between atoms: C_2  and  C_25 
REMARK    2  A    between atoms: N_5  and  C_6 
REMARK    3  A    between atoms: C_6  and  C_7 
REMARK    4  A    between atoms: C_15  and  C_17 
REMARK       I    between atoms: C_17  and  N_19 
REMARK    5  A    between atoms: C_25  and  C_26 
REMARK    6  A    between atoms: C_26  and  O_27 
ROOT
ATOM      1  C   LIG d   1       8.926   1.559  -5.013  0.00  0.00    -0.001 C 
ATOM      2  H   LIG d   1       8.513   0.728  -5.584  0.00  0.00     0.087 H 
ATOM      3  C   LIG d   1       9.292   2.701  -5.966  0.00  0.00    -0.004 C 
ATOM      4  C   LIG d   1      10.794   2.985  -5.845  0.00  0.00    -0.015 C 
ATOM      5  H   LIG d   1      11.080   3.791  -6.521  0.00  0.00     0.031 H 
ATOM      6  C   LIG d   1      11.564   1.705  -6.198  0.00  0.00    -0.009 C 
ATOM      7  C   LIG d   1      11.135   0.591  -5.239  0.00  0.00    -0.031 C 
ATOM      8  C   LIG d   1      10.692   2.197  -3.482  0.00  0.00    -0.020 C 
ATOM      9  C   LIG d   1      11.107   3.358  -4.391  0.00  0.00     0.079 C 
ATOM     10  H   LIG d   1      12.176   3.542  -4.282  0.00  0.00     0.045 H 
ATOM     11  H   LIG d   1       9.056   2.413  -6.990  0.00  0.00     0.032 H 
ATOM     12  H   LIG d   1       8.730   3.596  -5.697  0.00  0.00     0.032 H 
ATOM     13  H   LIG d   1      11.335   1.412  -7.222  0.00  0.00     0.032 H 
ATOM     14  H   LIG d   1      12.635   1.882  -6.097  0.00  0.00     0.032 H 
ATOM     15  H   LIG d   1      10.707  -0.234  -5.808  0.00  0.00     0.081 H 
ATOM     16  H   LIG d   1      12.003   0.236  -4.682  0.00  0.00     0.081 H 
ATOM     17  H   LIG d   1       9.940   2.541  -2.771  0.00  0.00     0.082 H 
ATOM     18  H   LIG d   1      11.564   1.829  -2.939  0.00  0.00     0.082 H 
ATOM     19  N   LIG d   1      10.124   1.092  -4.283  0.00  0.00     0.239 N 
ATOM     20  H   LIG d   1       9.854   0.327  -3.653  0.00  0.00     0.204 HD
ENDROOT
BRANCH   1  21
ATOM     21  C   LIG d   1       7.889   2.050  -4.002  0.00  0.00     0.086 C 
ATOM     22  H   LIG d   1       7.265   2.815  -4.464  0.00  0.00     0.057 H 
ATOM     23  H   LIG d   1       8.397   2.472  -3.134  0.00  0.00     0.057 H 
BRANCH  21  24
ATOM     24  N   LIG d   1       7.050   0.927  -3.578  0.00  0.00    -0.246 N 
ATOM     25  C   LIG d   1       5.859   1.022  -2.944  0.00  0.00     0.049 A 
ATOM     26  C   LIG d   1       5.435  -0.248  -2.744  0.00  0.00     0.085 A 
ATOM     27  H   LIG d   1       5.348   1.929  -2.657  0.00  0.00     0.085 H 
ATOM     28  N   LIG d   1       6.380  -1.048  -3.252  0.00  0.00    -0.134 NA
ATOM     29  N   LIG d   1       7.323  -0.321  -3.738  0.00  0.00    -0.065 NA
BRANCH  26  30
ATOM     30  C   LIG d   1       4.154  -0.677  -2.077  0.00  0.00     0.016 C 
ATOM     31  H   LIG d   1       4.280  -0.644  -0.994  0.00  0.00     0.035 H 
ATOM     32  H   LIG d   1       3.348  -0.003  -2.369  0.00  0.00     0.035 H 
BRANCH  30  33
ATOM     33  C   LIG d   1       3.807  -2.103  -2.507  0.00  0.00     0.050 C 
ATOM     34  H   LIG d   1       4.657  -2.758  -2.311  0.00  0.00     0.056 H 
ATOM     35  H   LIG d   1       2.942  -2.453  -1.943  0.00  0.00     0.056 H 
BRANCH  33  36
ATOM     36  O   LIG d   1       3.505  -2.120  -3.903  0.00  0.00    -0.395 OA
ATOM     37  H   LIG d   1       3.082  -1.311  -4.224  0.00  0.00     0.209 HD
ENDBRANCH  33  36
ENDBRANCH  30  33
ENDBRANCH  26  30
ENDBRANCH  21  24
ENDBRANCH   1  21
BRANCH   9  38
ATOM     38  C   LIG d   1      10.338   4.597  -4.011  0.00  0.00     0.224 C 
ATOM     39  O   LIG d   1       9.476   4.537  -3.159  0.00  0.00    -0.275 OA
ATOM     40  N   LIG d   1      10.607   5.770  -4.616  0.00  0.00    -0.297 N 
ATOM     41  C   LIG d   1       9.869   6.993  -4.262  0.00  0.00     0.038 C 
ATOM     42  C   LIG d   1      11.653   5.868  -5.648  0.00  0.00     0.038 C 
ATOM     43  C   LIG d   1       9.357   7.640  -5.554  0.00  0.00     0.064 C 
ATOM     44  H   LIG d   1       9.026   6.739  -3.620  0.00  0.00     0.049 H 
ATOM     45  H   LIG d   1      10.533   7.685  -3.743  0.00  0.00     0.049 H 
ATOM     46  O   LIG d   1      10.447   7.798  -6.465  0.00  0.00    -0.377 OA
ATOM     47  H   LIG d   1       8.596   7.002  -6.004  0.00  0.00     0.058 H 
ATOM     48  H   LIG d   1       8.927   8.616  -5.327  0.00  0.00     0.058 H 
ATOM     49  C   LIG d   1      11.050   6.569  -6.876  0.00  0.00     0.064 C 
ATOM     50  H   LIG d   1      10.295   5.927  -7.331  0.00  0.00     0.058 H 
ATOM     51  H   LIG d   1      11.839   6.774  -7.600  0.00  0.00     0.058 H 
ATOM     52  H   LIG d   1      12.492   6.447  -5.266  0.00  0.00     0.049 H 
ATOM     53  H   LIG d   1      11.991   4.869  -5.923  0.00  0.00     0.049 H 
ENDBRANCH   9  38
TORSDOF 6
ENDMDL
MODEL 7
REMARK VINA RESULT:      -5.9      2.757      6.336
REMARK  6 active torsions:
REMARK  status: ('A' for Active; 'I' for Inactive)
REMARK    1  A    between atoms: C_2  and  C_25 
REMARK    2  A    between atoms: N_5  and  C_6 
REMARK    3  A    between atoms: C_6  and  C_7 
REMARK    4  A    between atoms: C_15  and  C_17 
REMARK       I    between atoms: C_17  and  N_19 
REMARK    5  A    between atoms: C_25  and  C_26 
REMARK    6  A    between atoms: C_26  and  O_27 
ROOT
ATOM      1  C   LIG d   1       5.397  -2.845  -3.856  0.00  0.00    -0.001 C 
ATOM      2  H   LIG d   1       5.437  -3.706  -3.189  0.00  0.00     0.087 H 
ATOM      3  C   LIG d   1       6.328  -1.749  -3.332  0.00  0.00    -0.004 C 
ATOM      4  C   LIG d   1       5.500  -0.490  -3.046  0.00  0.00    -0.015 C 
ATOM      5  H   LIG d   1       6.142   0.303  -2.664  0.00  0.00     0.031 H 
ATOM      6  C   LIG d   1       4.422  -0.839  -2.011  0.00  0.00    -0.009 C 
ATOM      7  C   LIG d   1       3.543  -1.960  -2.573  0.00  0.00    -0.031 C 
ATOM      8  C   LIG d   1       3.918  -1.197  -4.839  0.00  0.00    -0.020 C 
ATOM      9  C   LIG d   1       4.809  -0.053  -4.344  0.00  0.00     0.079 C 
ATOM     10  H   LIG d   1       4.197   0.829  -4.153  0.00  0.00     0.045 H 
ATOM     11  H   LIG d   1       6.810  -2.086  -2.414  0.00  0.00     0.032 H 
ATOM     12  H   LIG d   1       7.086  -1.523  -4.083  0.00  0.00     0.032 H 
ATOM     13  H   LIG d   1       4.896  -1.174  -1.089  0.00  0.00     0.032 H 
ATOM     14  H   LIG d   1       3.809   0.040  -1.811  0.00  0.00     0.032 H 
ATOM     15  H   LIG d   1       3.595  -2.828  -1.914  0.00  0.00     0.081 H 
ATOM     16  H   LIG d   1       2.511  -1.616  -2.638  0.00  0.00     0.081 H 
ATOM     17  H   LIG d   1       4.244  -1.508  -5.832  0.00  0.00     0.082 H 
ATOM     18  H   LIG d   1       2.882  -0.858  -4.886  0.00  0.00     0.082 H 
ATOM     19  N   LIG d   1       4.004  -2.352  -3.922  0.00  0.00     0.239 N 
ATOM     20  H   LIG d   1       3.400  -3.105  -4.275  0.00  0.00     0.204 HD
ENDROOT
BRANCH   1  21
ATOM     21  C   LIG d   1       5.840  -3.265  -5.259  0.00  0.00     0.086 C 
ATOM     22  H   LIG d   1       6.915  -3.449  -5.260  0.00  0.00     0.057 H 
ATOM     23  H   LIG d   1       5.608  -2.470  -5.968  0.00  0.00     0.057 H 
BRANCH  21  24
ATOM     24  N   LIG d   1       5.135  -4.488  -5.650  0.00  0.00    -0.246 N 
ATOM     25  C   LIG d   1       5.659  -5.735  -5.668  0.00  0.00     0.049 A 
ATOM     26  C   LIG d   1       4.668  -6.555  -6.087  0.00  0.00     0.085 A 
ATOM     27  H   LIG d   1       6.666  -6.018  -5.401  0.00  0.00     0.085 H 
ATOM     28  N   LIG d   1       3.601  -5.779  -6.310  0.00  0.00    -0.134 NA
ATOM     29  N   LIG d   1       3.911  -4.560  -6.041  0.00  0.00    -0.065 NA
BRANCH  26  30
ATOM     30  C   LIG d   1       4.751  -8.049  -6.271  0.00  0.00     0.016 C 
ATOM     31  H   LIG d   1       3.789  -8.425  -6.620  0.00  0.00     0.035 H 
ATOM     32  H   LIG d   1       5.521  -8.282  -7.006  0.00  0.00     0.035 H 
BRANCH  30  33
ATOM     33  C   LIG d   1       5.102  -8.709  -4.937  0.00  0.00     0.050 C 
ATOM     34  H   LIG d   1       5.820  -9.512  -5.107  0.00  0.00     0.056 H 
ATOM     35  H   LIG d   1       5.538  -7.967  -4.268  0.00  0.00     0.056 H 
BRANCH  33  36
ATOM     36  O   LIG d   1       3.918  -9.246  -4.345  0.00  0.00    -0.395 OA
ATOM     37  H   LIG d   1       4.086  -9.869  -3.624  0.00  0.00     0.209 HD
ENDBRANCH  33  36
ENDBRANCH  30  33
ENDBRANCH  26  30
ENDBRANCH  21  24
ENDBRANCH   1  21
BRANCH   9  38
ATOM     38  C   LIG d   1       5.848   0.266  -5.387  0.00  0.00     0.224 C 
ATOM     39  O   LIG d   1       6.943   0.664  -5.049  0.00  0.00    -0.275 OA
ATOM     40  N   LIG d   1       5.562   0.108  -6.694  0.00  0.00    -0.297 N 
ATOM     41  C   LIG d   1       6.561   0.414  -7.730  0.00  0.00     0.038 C 
ATOM     42  C   LIG d   1       4.242  -0.379  -7.128  0.00  0.00     0.038 C 
ATOM     43  C   LIG d   1       5.912   1.332  -8.773  0.00  0.00     0.064 C 
ATOM     44  H   LIG d   1       7.415   0.918  -7.279  0.00  0.00     0.049 H 
ATOM     45  H   LIG d   1       6.888  -0.510  -8.208  0.00  0.00     0.049 H 
ATOM     46  O   LIG d   1       4.689   0.742  -9.223  0.00  0.00    -0.377 OA
ATOM     47  H   LIG d   1       5.703   2.303  -8.323  0.00  0.00     0.058 H 
ATOM     48  H   LIG d   1       6.587   1.459  -9.618  0.00  0.00     0.058 H 
ATOM     49  C   LIG d   1       3.705   0.583  -8.199  0.00  0.00     0.064 C 
ATOM     50  H   LIG d   1       3.488   1.552  -7.747  0.00  0.00     0.058 H 
ATOM     51  H   LIG d   1       2.792   0.171  -8.632  0.00  0.00     0.058 H 
ATOM     52  H   LIG d   1       4.340  -1.380  -7.545  0.00  0.00     0.049 H 
ATOM     53  H   LIG d   1       3.561  -0.400  -6.276  0.00  0.00     0.049 H 
ENDBRANCH   9  38
TORSDOF 6
ENDMDL
MODEL 8
REMARK VINA RESULT:      -5.8      9.540     11.522
REMARK  6 active torsions:
REMARK  status: ('A' for Active; 'I' for Inactive)
REMARK    1  A    between atoms: C_2  and  C_25 
REMARK    2  A    between atoms: N_5  and  C_6 
REMARK    3  A    between atoms: C_6  and  C_7 
REMARK    4  A    between atoms: C_15  and  C_17 
REMARK       I    between atoms: C_17  and  N_19 
REMARK    5  A    between atoms: C_25  and  C_26 
REMARK    6  A    between atoms: C_26  and  O_27 
ROOT
ATOM      1  C   LIG d   1       9.978   5.803  -2.688  0.00  0.00    -0.001 C 
ATOM      2  H   LIG d   1       9.259   5.493  -1.929  0.00  0.00     0.087 H 
ATOM      3  C   LIG d   1       9.236   6.444  -3.864  0.00  0.00    -0.004 C 
ATOM      4  C   LIG d   1       9.530   5.638  -5.135  0.00  0.00    -0.015 C 
ATOM      5  H   LIG d   1       9.005   6.073  -5.985  0.00  0.00     0.031 H 
ATOM      6  C   LIG d   1       9.068   4.192  -4.914  0.00  0.00    -0.009 C 
ATOM      7  C   LIG d   1       9.815   3.613  -3.710  0.00  0.00    -0.031 C 
ATOM      8  C   LIG d   1      11.737   5.016  -4.156  0.00  0.00    -0.020 C 
ATOM      9  C   LIG d   1      11.045   5.637  -5.374  0.00  0.00     0.079 C 
ATOM     10  H   LIG d   1      11.274   5.048  -6.263  0.00  0.00     0.045 H 
ATOM     11  H   LIG d   1       8.164   6.438  -3.667  0.00  0.00     0.032 H 
ATOM     12  H   LIG d   1       9.579   7.471  -3.996  0.00  0.00     0.032 H 
ATOM     13  H   LIG d   1       7.995   4.177  -4.720  0.00  0.00     0.032 H 
ATOM     14  H   LIG d   1       9.289   3.598  -5.801  0.00  0.00     0.032 H 
ATOM     15  H   LIG d   1       9.098   3.317  -2.944  0.00  0.00     0.081 H 
ATOM     16  H   LIG d   1      10.391   2.742  -4.023  0.00  0.00     0.081 H 
ATOM     17  H   LIG d   1      12.419   5.743  -3.715  0.00  0.00     0.082 H 
ATOM     18  H   LIG d   1      12.297   4.133  -4.466  0.00  0.00     0.082 H 
ATOM     19  N   LIG d   1      10.738   4.619  -3.142  0.00  0.00     0.239 N 
ATOM     20  H   LIG d   1      11.226   4.206  -2.337  0.00  0.00     0.204 HD
ENDROOT
BRANCH   1  21
ATOM     21  C   LIG d   1      10.952   6.816  -2.085  0.00  0.00     0.086 C 
ATOM     22  H   LIG d   1      11.750   7.023  -2.799  0.00  0.00     0.057 H 
ATOM     23  H   LIG d   1      11.382   6.408  -1.169  0.00  0.00     0.057 H 
BRANCH  21  24
ATOM     24  N   LIG d   1      10.239   8.058  -1.777  0.00  0.00    -0.246 N 
ATOM     25  C   LIG d   1      10.529   9.283  -2.272  0.00  0.00     0.049 A 
ATOM     26  C   LIG d   1       9.626  10.133  -1.730  0.00  0.00     0.085 A 
ATOM     27  H   LIG d   1      11.321   9.532  -2.962  0.00  0.00     0.085 H 
ATOM     28  N   LIG d   1       8.842   9.397  -0.934  0.00  0.00    -0.134 NA
ATOM     29  N   LIG d   1       9.232   8.172  -0.984  0.00  0.00    -0.065 NA
BRANCH  26  30
ATOM     30  C   LIG d   1       9.525  11.617  -1.972  0.00  0.00     0.016 C 
ATOM     31  H   LIG d   1       9.107  12.101  -1.090  0.00  0.00     0.035 H 
ATOM     32  H   LIG d   1      10.518  12.021  -2.172  0.00  0.00     0.035 H 
BRANCH  30  33
ATOM     33  C   LIG d   1       8.617  11.877  -3.175  0.00  0.00     0.050 C 
ATOM     34  H   LIG d   1       8.563  12.949  -3.365  0.00  0.00     0.056 H 
ATOM     35  H   LIG d   1       9.023  11.373  -4.053  0.00  0.00     0.056 H 
BRANCH  33  36
ATOM     36  O   LIG d   1       7.307  11.376  -2.901  0.00  0.00    -0.395 OA
ATOM     37  H   LIG d   1       7.044  10.634  -3.463  0.00  0.00     0.209 HD
ENDBRANCH  33  36
ENDBRANCH  30  33
ENDBRANCH  26  30
ENDBRANCH  21  24
ENDBRANCH   1  21
BRANCH   9  38
ATOM     38  C   LIG d   1      11.528   7.051  -5.563  0.00  0.00     0.224 C 
ATOM     39  O   LIG d   1      12.269   7.553  -4.744  0.00  0.00    -0.275 OA
ATOM     40  N   LIG d   1      11.138   7.759  -6.641  0.00  0.00    -0.297 N 
ATOM     41  C   LIG d   1      11.596   9.142  -6.846  0.00  0.00     0.038 C 
ATOM     42  C   LIG d   1      10.244   7.169  -7.651  0.00  0.00     0.038 C 
ATOM     43  C   LIG d   1      10.372  10.021  -7.129  0.00  0.00     0.064 C 
ATOM     44  H   LIG d   1      12.104   9.497  -5.950  0.00  0.00     0.049 H 
ATOM     45  H   LIG d   1      12.279   9.180  -7.696  0.00  0.00     0.049 H 
ATOM     46  O   LIG d   1       9.611   9.440  -8.190  0.00  0.00    -0.377 OA
ATOM     47  H   LIG d   1       9.756  10.085  -6.232  0.00  0.00     0.058 H 
ATOM     48  H   LIG d   1      10.699  11.019  -7.419  0.00  0.00     0.058 H 
ATOM     49  C   LIG d   1       9.082   8.146  -7.891  0.00  0.00     0.064 C 
ATOM     50  H   LIG d   1       8.460   8.204  -6.997  0.00  0.00     0.058 H 
ATOM     51  H   LIG d   1       8.480   7.795  -8.730  0.00  0.00     0.058 H 
ATOM     52  H   LIG d   1      10.792   7.012  -8.579  0.00  0.00     0.049 H 
ATOM     53  H   LIG d   1       9.857   6.218  -7.287  0.00  0.00     0.049 H 
ENDBRANCH   9  38
TORSDOF 6
ENDMDL
MODEL 9
REMARK VINA RESULT:      -5.8      2.473      3.612
REMARK  6 active torsions:
REMARK  status: ('A' for Active; 'I' for Inactive)
REMARK    1  A    between atoms: C_2  and  C_25 
REMARK    2  A    between atoms: N_5  and  C_6 
REMARK    3  A    between atoms: C_6  and  C_7 
REMARK    4  A    between atoms: C_15  and  C_17 
REMARK       I    between atoms: C_17  and  N_19 
REMARK    5  A    between atoms: C_25  and  C_26 
REMARK    6  A    between atoms: C_26  and  O_27 
ROOT
ATOM      1  C   LIG d   1       4.269  -1.550  -5.796  0.00  0.00    -0.001 C 
ATOM      2  H   LIG d   1       3.778  -2.169  -6.547  0.00  0.00     0.087 H 
ATOM      3  C   LIG d   1       5.735  -1.338  -6.187  0.00  0.00    -0.004 C 
ATOM      4  C   LIG d   1       6.630  -1.900  -5.076  0.00  0.00    -0.015 C 
ATOM      5  H   LIG d   1       7.680  -1.767  -5.337  0.00  0.00     0.031 H 
ATOM      6  C   LIG d   1       6.315  -3.392  -4.903  0.00  0.00    -0.009 C 
ATOM      7  C   LIG d   1       4.834  -3.546  -4.547  0.00  0.00    -0.031 C 
ATOM      8  C   LIG d   1       4.817  -1.392  -3.441  0.00  0.00    -0.020 C 
ATOM      9  C   LIG d   1       6.298  -1.175  -3.766  0.00  0.00     0.079 C 
ATOM     10  H   LIG d   1       6.912  -1.579  -2.960  0.00  0.00     0.045 H 
ATOM     11  H   LIG d   1       5.942  -1.858  -7.123  0.00  0.00     0.032 H 
ATOM     12  H   LIG d   1       5.930  -0.272  -6.308  0.00  0.00     0.032 H 
ATOM     13  H   LIG d   1       6.524  -3.920  -5.833  0.00  0.00     0.032 H 
ATOM     14  H   LIG d   1       6.928  -3.805  -4.101  0.00  0.00     0.032 H 
ATOM     15  H   LIG d   1       4.338  -4.152  -5.306  0.00  0.00     0.081 H 
ATOM     16  H   LIG d   1       4.742  -4.034  -3.576  0.00  0.00     0.081 H 
ATOM     17  H   LIG d   1       4.309  -0.429  -3.396  0.00  0.00     0.082 H 
ATOM     18  H   LIG d   1       4.725  -1.898  -2.480  0.00  0.00     0.082 H 
ATOM     19  N   LIG d   1       4.177  -2.223  -4.483  0.00  0.00     0.239 N 
ATOM     20  H   LIG d   1       3.186  -2.354  -4.244  0.00  0.00     0.204 HD
ENDROOT
BRANCH   1  21
ATOM     21  C   LIG d   1       3.563  -0.195  -5.709  0.00  0.00     0.086 C 
ATOM     22  H   LIG d   1       4.244   0.543  -5.286  0.00  0.00     0.057 H 
ATOM     23  H   LIG d   1       2.682  -0.284  -5.073  0.00  0.00     0.057 H 
BRANCH  21  24
ATOM     24  N   LIG d   1       3.154   0.230  -7.050  0.00  0.00    -0.246 N 
ATOM     25  C   LIG d   1       2.761  -0.585  -8.056  0.00  0.00     0.049 A 
ATOM     26  C   LIG d   1       2.476   0.221  -9.105  0.00  0.00     0.085 A 
ATOM     27  H   LIG d   1       2.688  -1.662  -8.026  0.00  0.00     0.085 H 
ATOM     28  N   LIG d   1       2.714   1.473  -8.698  0.00  0.00    -0.134 NA
ATOM     29  N   LIG d   1       3.114   1.444  -7.476  0.00  0.00    -0.065 NA
BRANCH  26  30
ATOM     30  C   LIG d   1       1.991  -0.209 -10.466  0.00  0.00     0.016 C 
ATOM     31  H   LIG d   1       1.520  -1.189 -10.390  0.00  0.00     0.035 H 
ATOM     32  H   LIG d   1       1.267   0.515 -10.839  0.00  0.00     0.035 H 
BRANCH  30  33
ATOM     33  C   LIG d   1       3.177  -0.286 -11.429  0.00  0.00     0.050 C 
ATOM     34  H   LIG d   1       3.814  -1.128 -11.155  0.00  0.00     0.056 H 
ATOM     35  H   LIG d   1       2.811  -0.423 -12.446  0.00  0.00     0.056 H 
BRANCH  33  36
ATOM     36  O   LIG d   1       3.932   0.925 -11.353  0.00  0.00    -0.395 OA
ATOM     37  H   LIG d   1       3.846   1.391 -10.510  0.00  0.00     0.209 HD
ENDBRANCH  33  36
ENDBRANCH  30  33
ENDBRANCH  26  30
ENDBRANCH  21  24
ENDBRANCH   1  21
BRANCH   9  38
ATOM     38  C   LIG d   1       6.570   0.299  -3.922  0.00  0.00     0.224 C 
ATOM     39  O   LIG d   1       5.689   1.104  -3.704  0.00  0.00    -0.275 OA
ATOM     40  N   LIG d   1       7.791   0.723  -4.303  0.00  0.00    -0.297 N 
ATOM     41  C   LIG d   1       8.080   2.156  -4.462  0.00  0.00     0.038 C 
ATOM     42  C   LIG d   1       8.878  -0.235  -4.567  0.00  0.00     0.038 C 
ATOM     43  C   LIG d   1       8.727   2.371  -5.835  0.00  0.00     0.064 C 
ATOM     44  H   LIG d   1       7.153   2.727  -4.400  0.00  0.00     0.049 H 
ATOM     45  H   LIG d   1       8.765   2.482  -3.679  0.00  0.00     0.049 H 
ATOM     46  O   LIG d   1       9.837   1.479  -5.976  0.00  0.00    -0.377 OA
ATOM     47  H   LIG d   1       7.996   2.167  -6.618  0.00  0.00     0.058 H 
ATOM     48  H   LIG d   1       9.074   3.400  -5.918  0.00  0.00     0.058 H 
ATOM     49  C   LIG d   1       9.483   0.095  -5.940  0.00  0.00     0.064 C 
ATOM     50  H   LIG d   1       8.755  -0.116  -6.724  0.00  0.00     0.058 H 
ATOM     51  H   LIG d   1      10.375  -0.513  -6.099  0.00  0.00     0.058 H 
ATOM     52  H   LIG d   1       9.640  -0.147  -3.795  0.00  0.00     0.049 H 
ATOM     53  H   LIG d   1       8.478  -1.250  -4.575  0.00  0.00     0.049 H 
ENDBRANCH   9  38
TORSDOF 6
ENDMDL
