MODEL 1
REMARK VINA RESULT:      -6.1      0.000      0.000
REMARK  8 active torsions:
REMARK  status: ('A' for Active; 'I' for Inactive)
REMARK    1  A    between atoms: C_1  and  O_2 
REMARK    2  A    between atoms: O_2  and  C_3 
REMARK    3  A    between atoms: C_7  and  C_9 
REMARK       I    between atoms: N_19  and  C_20 
REMARK       I    between atoms: C_20  and  N_22 
REMARK    4  A    between atoms: N_22  and  C_23 
REMARK    5  A    between atoms: C_23  and  C_24 
REMARK    6  A    between atoms: C_24  and  C_25 
REMARK    7  A    between atoms: C_25  and  O_27 
REMARK    8  A    between atoms: O_27  and  C_28 
ROOT
ATOM      1  C   LIG d   1       4.737  -1.060  -6.641  0.00  0.00     0.118 C 
ATOM      2  H   LIG d   1       5.358  -1.067  -5.745  0.00  0.00     0.064 H 
ATOM      3  C   LIG d   1       5.470  -0.379  -7.769  0.00  0.00     0.170 A 
ATOM      4  C   LIG d   1       4.940   0.594  -8.541  0.00  0.00     0.148 A 
ATOM      5  N   LIG d   1       5.866   0.957  -9.434  0.00  0.00    -0.247 N 
ATOM      6  C   LIG d   1       6.949   0.250  -9.245  0.00  0.00     0.243 A 
ATOM      7  N   LIG d   1       6.739  -0.598  -8.210  0.00  0.00    -0.245 N 
ATOM      8  H   LIG d   1       7.373  -1.238  -7.850  0.00  0.00     0.310 HD
ATOM      9  C   LIG d   1       3.545   1.145  -8.378  0.00  0.00     0.029 C 
ATOM     10  C   LIG d   1       2.715   0.154  -7.552  0.00  0.00     0.025 C 
ATOM     11  N   LIG d   1       3.504  -0.290  -6.392  0.00  0.00    -0.271 N 
ATOM     12  C   LIG d   1       3.113  -0.000  -5.135  0.00  0.00     0.303 C 
ATOM     13  O   LIG d   1       2.049   0.556  -4.942  0.00  0.00    -0.253 OA
ATOM     14  N   LIG d   1       3.902  -0.326  -4.090  0.00  0.00    -0.299 N 
ATOM     15  H   LIG d   1       7.859   0.327  -9.819  0.00  0.00     0.158 H 
ATOM     16  H   LIG d   1       3.590   2.104  -7.861  0.00  0.00     0.036 H 
ATOM     17  H   LIG d   1       3.088   1.276  -9.358  0.00  0.00     0.036 H 
ATOM     18  H   LIG d   1       1.804   0.642  -7.206  0.00  0.00     0.047 H 
ATOM     19  H   LIG d   1       2.457  -0.707  -8.167  0.00  0.00     0.047 H 
ATOM     20  H   LIG d   1       4.782  -0.702  -4.247  0.00  0.00     0.150 HD
ATOM     21  H   LIG d   1       5.752   1.638 -10.116  0.00  0.00     0.310 HD
ENDROOT
BRANCH   1  22
ATOM     22  C   LIG d   1       4.389  -2.473  -7.034  0.00  0.00    -0.015 A 
ATOM     23  C   LIG d   1       4.080  -2.768  -8.348  0.00  0.00    -0.056 A 
ATOM     24  C   LIG d   1       3.761  -4.064  -8.711  0.00  0.00    -0.058 A 
ATOM     25  H   LIG d   1       4.089  -1.986  -9.093  0.00  0.00     0.062 H 
ATOM     26  C   LIG d   1       3.750  -5.066  -7.762  0.00  0.00    -0.020 A 
ATOM     27  H   LIG d   1       3.521  -4.292  -9.740  0.00  0.00     0.062 H 
ATOM     28  C   LIG d   1       4.061  -4.773  -6.441  0.00  0.00     0.120 A 
ATOM     29  H   LIG d   1       3.503  -6.078  -8.046  0.00  0.00     0.065 H 
ATOM     30  C   LIG d   1       4.374  -3.471  -6.078  0.00  0.00    -0.015 A 
ATOM     31  H   LIG d   1       4.611  -3.239  -5.050  0.00  0.00     0.066 H 
BRANCH  28  32
ATOM     32  O   LIG d   1       4.050  -5.756  -5.504  0.00  0.00    -0.495 OA
BRANCH  32  33
ATOM     33  C   LIG d   1       5.092  -6.732  -5.577  0.00  0.00     0.079 C 
ATOM     34  H   LIG d   1       5.248  -7.021  -6.616  0.00  0.00     0.066 H 
ATOM     35  H   LIG d   1       6.014  -6.310  -5.176  0.00  0.00     0.066 H 
ATOM     36  H   LIG d   1       4.811  -7.609  -4.994  0.00  0.00     0.066 H 
ENDBRANCH  32  33
ENDBRANCH  28  32
ENDBRANCH   1  22
BRANCH  14  37
ATOM     37  C   LIG d   1       3.428  -0.112  -2.721  0.00  0.00     0.023 C 
ATOM     38  H   LIG d   1       2.591   0.584  -2.730  0.00  0.00     0.047 H 
ATOM     39  H   LIG d   1       3.106  -1.062  -2.295  0.00  0.00     0.047 H 
BRANCH  37  40
ATOM     40  C   LIG d   1       4.564   0.467  -1.874  0.00  0.00     0.060 C 
ATOM     41  H   LIG d   1       4.253   1.425  -1.456  0.00  0.00     0.039 H 
ATOM     42  H   LIG d   1       4.800  -0.222  -1.063  0.00  0.00     0.039 H 
BRANCH  40  43
ATOM     43  C   LIG d   1       5.782   0.667  -2.737  0.00  0.00     0.308 C 
ATOM     44  O   LIG d   1       6.046   1.766  -3.164  0.00  0.00    -0.251 OA
BRANCH  43  45
ATOM     45  O   LIG d   1       6.575  -0.375  -3.031  0.00  0.00    -0.468 OA
BRANCH  45  46
ATOM     46  C   LIG d   1       7.439  -0.235  -4.161  0.00  0.00     0.082 C 
ATOM     47  H   LIG d   1       6.953  -0.647  -5.044  0.00  0.00     0.066 H 
ATOM     48  H   LIG d   1       7.654   0.822  -4.325  0.00  0.00     0.066 H 
ATOM     49  H   LIG d   1       8.370  -0.770  -3.975  0.00  0.00     0.066 H 
ENDBRANCH  45  46
ENDBRANCH  43  45
ENDBRANCH  40  43
ENDBRANCH  37  40
ENDBRANCH  14  37
TORSDOF 8
ENDMDL
MODEL 2
REMARK VINA RESULT:      -6.0      2.289      4.878
REMARK  8 active torsions:
REMARK  status: ('A' for Active; 'I' for Inactive)
REMARK    1  A    between atoms: C_1  and  O_2 
REMARK    2  A    between atoms: O_2  and  C_3 
REMARK    3  A    between atoms: C_7  and  C_9 
REMARK       I    between atoms: N_19  and  C_20 
REMARK       I    between atoms: C_20  and  N_22 
REMARK    4  A    between atoms: N_22  and  C_23 
REMARK    5  A    between atoms: C_23  and  C_24 
REMARK    6  A    between atoms: C_24  and  C_25 
REMARK    7  A    between atoms: C_25  and  O_27 
REMARK    8  A    between atoms: O_27  and  C_28 
ROOT
ATOM      1  C   LIG d   1       3.739  -1.425  -7.808  0.00  0.00     0.118 C 
ATOM      2  H   LIG d   1       2.859  -1.543  -7.174  0.00  0.00     0.064 H 
ATOM      3  C   LIG d   1       3.652  -2.362  -8.987  0.00  0.00     0.170 A 
ATOM      4  C   LIG d   1       4.649  -3.184  -9.378  0.00  0.00     0.148 A 
ATOM      5  N   LIG d   1       4.226  -3.859 -10.451  0.00  0.00    -0.247 N 
ATOM      6  C   LIG d   1       3.005  -3.490 -10.738  0.00  0.00     0.243 A 
ATOM      7  N   LIG d   1       2.612  -2.554  -9.843  0.00  0.00    -0.245 N 
ATOM      8  H   LIG d   1       1.752  -2.106  -9.816  0.00  0.00     0.310 HD
ATOM      9  C   LIG d   1       5.985  -3.291  -8.686  0.00  0.00     0.029 C 
ATOM     10  C   LIG d   1       6.189  -2.050  -7.808  0.00  0.00     0.025 C 
ATOM     11  N   LIG d   1       4.954  -1.783  -7.053  0.00  0.00    -0.271 N 
ATOM     12  C   LIG d   1       4.932  -1.864  -5.708  0.00  0.00     0.303 C 
ATOM     13  O   LIG d   1       5.961  -2.071  -5.095  0.00  0.00    -0.253 OA
ATOM     14  N   LIG d   1       3.769  -1.717  -5.041  0.00  0.00    -0.299 N 
ATOM     15  H   LIG d   1       2.410  -3.867 -11.556  0.00  0.00     0.158 H 
ATOM     16  H   LIG d   1       6.004  -4.185  -8.064  0.00  0.00     0.036 H 
ATOM     17  H   LIG d   1       6.779  -3.344  -9.431  0.00  0.00     0.036 H 
ATOM     18  H   LIG d   1       7.009  -2.226  -7.112  0.00  0.00     0.047 H 
ATOM     19  H   LIG d   1       6.423  -1.192  -8.438  0.00  0.00     0.047 H 
ATOM     20  H   LIG d   1       2.938  -1.627  -5.532  0.00  0.00     0.150 HD
ATOM     21  H   LIG d   1       4.742  -4.519 -10.940  0.00  0.00     0.310 HD
ENDROOT
BRANCH   1  22
ATOM     22  C   LIG d   1       3.835  -0.001  -8.291  0.00  0.00    -0.015 A 
ATOM     23  C   LIG d   1       2.693   0.770  -8.401  0.00  0.00    -0.056 A 
ATOM     24  C   LIG d   1       2.778   2.078  -8.843  0.00  0.00    -0.058 A 
ATOM     25  H   LIG d   1       1.732   0.350  -8.141  0.00  0.00     0.062 H 
ATOM     26  C   LIG d   1       4.005   2.617  -9.176  0.00  0.00    -0.020 A 
ATOM     27  H   LIG d   1       1.884   2.677  -8.928  0.00  0.00     0.062 H 
ATOM     28  C   LIG d   1       5.154   1.846  -9.065  0.00  0.00     0.120 A 
ATOM     29  H   LIG d   1       4.072   3.638  -9.520  0.00  0.00     0.065 H 
ATOM     30  C   LIG d   1       5.065   0.532  -8.627  0.00  0.00    -0.015 A 
ATOM     31  H   LIG d   1       5.956  -0.072  -8.545  0.00  0.00     0.066 H 
BRANCH  28  32
ATOM     32  O   LIG d   1       6.363   2.373  -9.392  0.00  0.00    -0.495 OA
BRANCH  32  33
ATOM     33  C   LIG d   1       7.478   1.987  -8.585  0.00  0.00     0.079 C 
ATOM     34  H   LIG d   1       8.386   2.007  -9.187  0.00  0.00     0.066 H 
ATOM     35  H   LIG d   1       7.580   2.680  -7.751  0.00  0.00     0.066 H 
ATOM     36  H   LIG d   1       7.318   0.979  -8.202  0.00  0.00     0.066 H 
ENDBRANCH  32  33
ENDBRANCH  28  32
ENDBRANCH   1  22
BRANCH  14  37
ATOM     37  C   LIG d   1       3.762  -1.695  -3.577  0.00  0.00     0.023 C 
ATOM     38  H   LIG d   1       3.401  -2.652  -3.201  0.00  0.00     0.047 H 
ATOM     39  H   LIG d   1       4.773  -1.519  -3.211  0.00  0.00     0.047 H 
BRANCH  37  40
ATOM     40  C   LIG d   1       2.842  -0.575  -3.088  0.00  0.00     0.060 C 
ATOM     41  H   LIG d   1       1.812  -0.808  -3.359  0.00  0.00     0.039 H 
ATOM     42  H   LIG d   1       2.920  -0.486  -2.005  0.00  0.00     0.039 H 
BRANCH  40  43
ATOM     43  C   LIG d   1       3.248   0.726  -3.732  0.00  0.00     0.308 C 
ATOM     44  O   LIG d   1       2.843   1.006  -4.835  0.00  0.00    -0.251 OA
BRANCH  43  45
ATOM     45  O   LIG d   1       4.060   1.572  -3.079  0.00  0.00    -0.468 OA
BRANCH  45  46
ATOM     46  C   LIG d   1       4.528   1.161  -1.794  0.00  0.00     0.082 C 
ATOM     47  H   LIG d   1       5.592   1.379  -1.707  0.00  0.00     0.066 H 
ATOM     48  H   LIG d   1       3.983   1.700  -1.019  0.00  0.00     0.066 H 
ATOM     49  H   LIG d   1       4.366   0.089  -1.673  0.00  0.00     0.066 H 
ENDBRANCH  45  46
ENDBRANCH  43  45
ENDBRANCH  40  43
ENDBRANCH  37  40
ENDBRANCH  14  37
TORSDOF 8
ENDMDL
MODEL 3
REMARK VINA RESULT:      -5.8      1.942      4.909
REMARK  8 active torsions:
REMARK  status: ('A' for Active; 'I' for Inactive)
REMARK    1  A    between atoms: C_1  and  O_2 
REMARK    2  A    between atoms: O_2  and  C_3 
REMARK    3  A    between atoms: C_7  and  C_9 
REMARK       I    between atoms: N_19  and  C_20 
REMARK       I    between atoms: C_20  and  N_22 
REMARK    4  A    between atoms: N_22  and  C_23 
REMARK    5  A    between atoms: C_23  and  C_24 
REMARK    6  A    between atoms: C_24  and  C_25 
REMARK    7  A    between atoms: C_25  and  O_27 
REMARK    8  A    between atoms: O_27  and  C_28 
ROOT
ATOM      1  C   LIG d   1       4.691  -1.411  -5.863  0.00  0.00     0.118 C 
ATOM      2  H   LIG d   1       4.039  -0.677  -6.336  0.00  0.00     0.064 H 
ATOM      3  C   LIG d   1       4.407  -1.472  -4.383  0.00  0.00     0.170 A 
ATOM      4  C   LIG d   1       5.356  -1.410  -3.424  0.00  0.00     0.148 A 
ATOM      5  N   LIG d   1       4.746  -1.497  -2.238  0.00  0.00    -0.247 N 
ATOM      6  C   LIG d   1       3.457  -1.607  -2.424  0.00  0.00     0.243 A 
ATOM      7  N   LIG d   1       3.206  -1.594  -3.754  0.00  0.00    -0.245 N 
ATOM      8  H   LIG d   1       2.336  -1.659  -4.178  0.00  0.00     0.310 HD
ATOM      9  C   LIG d   1       6.833  -1.262  -3.697  0.00  0.00     0.029 C 
ATOM     10  C   LIG d   1       7.108  -1.645  -5.156  0.00  0.00     0.025 C 
ATOM     11  N   LIG d   1       6.101  -1.009  -6.022  0.00  0.00    -0.271 N 
ATOM     12  C   LIG d   1       6.456  -0.083  -6.935  0.00  0.00     0.303 C 
ATOM     13  O   LIG d   1       7.631   0.171  -7.117  0.00  0.00    -0.253 OA
ATOM     14  N   LIG d   1       5.509   0.562  -7.645  0.00  0.00    -0.299 N 
ATOM     15  H   LIG d   1       2.715  -1.695  -1.645  0.00  0.00     0.158 H 
ATOM     16  H   LIG d   1       7.133  -0.228  -3.528  0.00  0.00     0.036 H 
ATOM     17  H   LIG d   1       7.394  -1.921  -3.035  0.00  0.00     0.036 H 
ATOM     18  H   LIG d   1       8.101  -1.300  -5.442  0.00  0.00     0.047 H 
ATOM     19  H   LIG d   1       7.051  -2.727  -5.266  0.00  0.00     0.047 H 
ATOM     20  H   LIG d   1       4.571   0.413  -7.449  0.00  0.00     0.150 HD
ATOM     21  H   LIG d   1       5.190  -1.481  -1.375  0.00  0.00     0.310 HD
ENDROOT
BRANCH   1  22
ATOM     22  C   LIG d   1       4.471  -2.767  -6.483  0.00  0.00    -0.015 A 
ATOM     23  C   LIG d   1       4.247  -2.877  -7.842  0.00  0.00    -0.056 A 
ATOM     24  C   LIG d   1       4.045  -4.120  -8.414  0.00  0.00    -0.058 A 
ATOM     25  H   LIG d   1       4.230  -1.990  -8.459  0.00  0.00     0.062 H 
ATOM     26  C   LIG d   1       4.067  -5.255  -7.628  0.00  0.00    -0.020 A 
ATOM     27  H   LIG d   1       3.871  -4.202  -9.477  0.00  0.00     0.062 H 
ATOM     28  C   LIG d   1       4.292  -5.148  -6.263  0.00  0.00     0.120 A 
ATOM     29  H   LIG d   1       3.910  -6.225  -8.075  0.00  0.00     0.065 H 
ATOM     30  C   LIG d   1       4.488  -3.899  -5.690  0.00  0.00    -0.015 A 
ATOM     31  H   LIG d   1       4.659  -3.813  -4.628  0.00  0.00     0.066 H 
BRANCH  28  32
ATOM     32  O   LIG d   1       4.313  -6.263  -5.486  0.00  0.00    -0.495 OA
BRANCH  32  33
ATOM     33  C   LIG d   1       5.231  -7.294  -5.858  0.00  0.00     0.079 C 
ATOM     34  H   LIG d   1       5.876  -7.528  -5.012  0.00  0.00     0.066 H 
ATOM     35  H   LIG d   1       4.676  -8.186  -6.149  0.00  0.00     0.066 H 
ATOM     36  H   LIG d   1       5.839  -6.955  -6.696  0.00  0.00     0.066 H 
ENDBRANCH  32  33
ENDBRANCH  28  32
ENDBRANCH   1  22
BRANCH  14  37
ATOM     37  C   LIG d   1       5.897   1.486  -8.713  0.00  0.00     0.023 C 
ATOM     38  H   LIG d   1       6.538   2.266  -8.304  0.00  0.00     0.047 H 
ATOM     39  H   LIG d   1       6.438   0.941  -9.487  0.00  0.00     0.047 H 
BRANCH  37  40
ATOM     40  C   LIG d   1       4.644   2.121  -9.319  0.00  0.00     0.060 C 
ATOM     41  H   LIG d   1       4.679   3.201  -9.177  0.00  0.00     0.039 H 
ATOM     42  H   LIG d   1       4.602   1.897 -10.385  0.00  0.00     0.039 H 
BRANCH  40  43
ATOM     43  C   LIG d   1       3.420   1.565  -8.638  0.00  0.00     0.308 C 
ATOM     44  O   LIG d   1       2.855   2.212  -7.789  0.00  0.00    -0.251 OA
BRANCH  43  45
ATOM     45  O   LIG d   1       2.958   0.351  -8.975  0.00  0.00    -0.468 OA
BRANCH  45  46
ATOM     46  C   LIG d   1       2.874   0.052 -10.370  0.00  0.00     0.082 C 
ATOM     47  H   LIG d   1       3.872   0.071 -10.807  0.00  0.00     0.066 H 
ATOM     48  H   LIG d   1       2.437  -0.937 -10.504  0.00  0.00     0.066 H 
ATOM     49  H   LIG d   1       2.248   0.796 -10.864  0.00  0.00     0.066 H 
ENDBRANCH  45  46
ENDBRANCH  43  45
ENDBRANCH  40  43
ENDBRANCH  37  40
ENDBRANCH  14  37
TORSDOF 8
ENDMDL
MODEL 4
REMARK VINA RESULT:      -5.7      2.450      4.596
REMARK  8 active torsions:
REMARK  status: ('A' for Active; 'I' for Inactive)
REMARK    1  A    between atoms: C_1  and  O_2 
REMARK    2  A    between atoms: O_2  and  C_3 
REMARK    3  A    between atoms: C_7  and  C_9 
REMARK       I    between atoms: N_19  and  C_20 
REMARK       I    between atoms: C_20  and  N_22 
REMARK    4  A    between atoms: N_22  and  C_23 
REMARK    5  A    between atoms: C_23  and  C_24 
REMARK    6  A    between atoms: C_24  and  C_25 
REMARK    7  A    between atoms: C_25  and  O_27 
REMARK    8  A    between atoms: O_27  and  C_28 
ROOT
ATOM      1  C   LIG d   1       4.710  -1.480  -6.161  0.00  0.00     0.118 C 
ATOM      2  H   LIG d   1       4.120  -1.273  -5.268  0.00  0.00     0.064 H 
ATOM      3  C   LIG d   1       4.785  -2.968  -6.394  0.00  0.00     0.170 A 
ATOM      4  C   LIG d   1       5.930  -3.643  -6.631  0.00  0.00     0.148 A 
ATOM      5  N   LIG d   1       5.619  -4.933  -6.792  0.00  0.00    -0.247 N 
ATOM      6  C   LIG d   1       4.327  -5.084  -6.662  0.00  0.00     0.243 A 
ATOM      7  N   LIG d   1       3.771  -3.876  -6.411  0.00  0.00    -0.245 N 
ATOM      8  H   LIG d   1       2.829  -3.692  -6.269  0.00  0.00     0.310 HD
ATOM      9  C   LIG d   1       7.297  -3.007  -6.686  0.00  0.00     0.029 C 
ATOM     10  C   LIG d   1       7.132  -1.495  -6.887  0.00  0.00     0.025 C 
ATOM     11  N   LIG d   1       6.091  -0.996  -5.974  0.00  0.00    -0.271 N 
ATOM     12  C   LIG d   1       6.390  -0.121  -4.993  0.00  0.00     0.303 C 
ATOM     13  O   LIG d   1       7.512   0.337  -4.909  0.00  0.00    -0.253 OA
ATOM     14  N   LIG d   1       5.444   0.245  -4.104  0.00  0.00    -0.299 N 
ATOM     15  H   LIG d   1       3.792  -6.018  -6.743  0.00  0.00     0.158 H 
ATOM     16  H   LIG d   1       7.826  -3.195  -5.752  0.00  0.00     0.036 H 
ATOM     17  H   LIG d   1       7.861  -3.426  -7.519  0.00  0.00     0.036 H 
ATOM     18  H   LIG d   1       8.075  -0.994  -6.670  0.00  0.00     0.047 H 
ATOM     19  H   LIG d   1       6.840  -1.294  -7.917  0.00  0.00     0.047 H 
ATOM     20  H   LIG d   1       4.570  -0.176  -4.126  0.00  0.00     0.150 HD
ATOM     21  H   LIG d   1       6.252  -5.645  -6.977  0.00  0.00     0.310 HD
ENDROOT
BRANCH   1  22
ATOM     22  C   LIG d   1       4.086  -0.805  -7.355  0.00  0.00    -0.015 A 
ATOM     23  C   LIG d   1       3.284   0.307  -7.179  0.00  0.00    -0.056 A 
ATOM     24  C   LIG d   1       2.711   0.929  -8.274  0.00  0.00    -0.058 A 
ATOM     25  H   LIG d   1       3.105   0.691  -6.186  0.00  0.00     0.062 H 
ATOM     26  C   LIG d   1       2.939   0.441  -9.545  0.00  0.00    -0.020 A 
ATOM     27  H   LIG d   1       2.085   1.798  -8.133  0.00  0.00     0.062 H 
ATOM     28  C   LIG d   1       3.744  -0.675  -9.725  0.00  0.00     0.120 A 
ATOM     29  H   LIG d   1       2.492   0.927 -10.399  0.00  0.00     0.065 H 
ATOM     30  C   LIG d   1       4.313  -1.301  -8.624  0.00  0.00    -0.015 A 
ATOM     31  H   LIG d   1       4.936  -2.172  -8.761  0.00  0.00     0.066 H 
BRANCH  28  32
ATOM     32  O   LIG d   1       3.969  -1.159 -10.974  0.00  0.00    -0.495 OA
BRANCH  32  33
ATOM     33  C   LIG d   1       4.142  -0.199 -12.019  0.00  0.00     0.079 C 
ATOM     34  H   LIG d   1       3.421   0.608 -11.894  0.00  0.00     0.066 H 
ATOM     35  H   LIG d   1       5.153   0.207 -11.976  0.00  0.00     0.066 H 
ATOM     36  H   LIG d   1       3.986  -0.681 -12.984  0.00  0.00     0.066 H 
ENDBRANCH  32  33
ENDBRANCH  28  32
ENDBRANCH   1  22
BRANCH  14  37
ATOM     37  C   LIG d   1       5.736   1.277  -3.107  0.00  0.00     0.023 C 
ATOM     38  H   LIG d   1       6.775   1.193  -2.791  0.00  0.00     0.047 H 
ATOM     39  H   LIG d   1       5.567   2.261  -3.543  0.00  0.00     0.047 H 
BRANCH  37  40
ATOM     40  C   LIG d   1       4.818   1.092  -1.897  0.00  0.00     0.060 C 
ATOM     41  H   LIG d   1       5.422   0.919  -1.007  0.00  0.00     0.039 H 
ATOM     42  H   LIG d   1       4.216   1.989  -1.758  0.00  0.00     0.039 H 
BRANCH  40  43
ATOM     43  C   LIG d   1       3.915  -0.092  -2.128  0.00  0.00     0.308 C 
ATOM     44  O   LIG d   1       2.846   0.061  -2.669  0.00  0.00    -0.251 OA
BRANCH  43  45
ATOM     45  O   LIG d   1       4.298  -1.315  -1.732  0.00  0.00    -0.468 OA
BRANCH  45  46
ATOM     46  C   LIG d   1       3.900  -2.417  -2.550  0.00  0.00     0.082 C 
ATOM     47  H   LIG d   1       2.823  -2.564  -2.464  0.00  0.00     0.066 H 
ATOM     48  H   LIG d   1       4.156  -2.210  -3.589  0.00  0.00     0.066 H 
ATOM     49  H   LIG d   1       4.416  -3.319  -2.221  0.00  0.00     0.066 H 
ENDBRANCH  45  46
ENDBRANCH  43  45
ENDBRANCH  40  43
ENDBRANCH  37  40
ENDBRANCH  14  37
TORSDOF 8
ENDMDL
MODEL 5
REMARK VINA RESULT:      -5.7      2.566      4.570
REMARK  8 active torsions:
REMARK  status: ('A' for Active; 'I' for Inactive)
REMARK    1  A    between atoms: C_1  and  O_2 
REMARK    2  A    between atoms: O_2  and  C_3 
REMARK    3  A    between atoms: C_7  and  C_9 
REMARK       I    between atoms: N_19  and  C_20 
REMARK       I    between atoms: C_20  and  N_22 
REMARK    4  A    between atoms: N_22  and  C_23 
REMARK    5  A    between atoms: C_23  and  C_24 
REMARK    6  A    between atoms: C_24  and  C_25 
REMARK    7  A    between atoms: C_25  and  O_27 
REMARK    8  A    between atoms: O_27  and  C_28 
ROOT
ATOM      1  C   LIG d   1       4.523  -0.477  -7.867  0.00  0.00     0.118 C 
ATOM      2  H   LIG d   1       5.584  -0.728  -7.865  0.00  0.00     0.064 H 
ATOM      3  C   LIG d   1       3.744  -1.547  -8.590  0.00  0.00     0.170 A 
ATOM      4  C   LIG d   1       2.836  -1.302  -9.558  0.00  0.00     0.148 A 
ATOM      5  N   LIG d   1       2.345  -2.477  -9.965  0.00  0.00    -0.247 N 
ATOM      6  C   LIG d   1       2.915  -3.440  -9.290  0.00  0.00     0.243 A 
ATOM      7  N   LIG d   1       3.798  -2.897  -8.419  0.00  0.00    -0.245 N 
ATOM      8  H   LIG d   1       4.362  -3.378  -7.793  0.00  0.00     0.310 HD
ATOM      9  C   LIG d   1       2.480   0.074 -10.062  0.00  0.00     0.029 C 
ATOM     10  C   LIG d   1       2.940   1.113  -9.033  0.00  0.00     0.025 C 
ATOM     11  N   LIG d   1       4.307   0.787  -8.594  0.00  0.00    -0.271 N 
ATOM     12  C   LIG d   1       5.334   1.621  -8.850  0.00  0.00     0.303 C 
ATOM     13  O   LIG d   1       5.126   2.701  -9.369  0.00  0.00    -0.253 OA
ATOM     14  N   LIG d   1       6.593   1.258  -8.532  0.00  0.00    -0.299 N 
ATOM     15  H   LIG d   1       2.713  -4.494  -9.405  0.00  0.00     0.158 H 
ATOM     16  H   LIG d   1       2.980   0.256 -11.013  0.00  0.00     0.036 H 
ATOM     17  H   LIG d   1       1.400   0.146 -10.195  0.00  0.00     0.036 H 
ATOM     18  H   LIG d   1       2.931   2.104  -9.486  0.00  0.00     0.047 H 
ATOM     19  H   LIG d   1       2.269   1.098  -8.174  0.00  0.00     0.047 H 
ATOM     20  H   LIG d   1       6.769   0.369  -8.186  0.00  0.00     0.150 HD
ATOM     21  H   LIG d   1       1.671  -2.597 -10.654  0.00  0.00     0.310 HD
ENDROOT
BRANCH   1  22
ATOM     22  C   LIG d   1       4.024  -0.347  -6.451  0.00  0.00    -0.015 A 
ATOM     23  C   LIG d   1       2.817   0.276  -6.198  0.00  0.00    -0.056 A 
ATOM     24  C   LIG d   1       2.356   0.396  -4.899  0.00  0.00    -0.058 A 
ATOM     25  H   LIG d   1       2.232   0.670  -7.016  0.00  0.00     0.062 H 
ATOM     26  C   LIG d   1       3.102  -0.107  -3.852  0.00  0.00    -0.020 A 
ATOM     27  H   LIG d   1       1.412   0.883  -4.705  0.00  0.00     0.062 H 
ATOM     28  C   LIG d   1       4.315  -0.734  -4.103  0.00  0.00     0.120 A 
ATOM     29  H   LIG d   1       2.742  -0.015  -2.838  0.00  0.00     0.065 H 
ATOM     30  C   LIG d   1       4.778  -0.848  -5.406  0.00  0.00    -0.015 A 
ATOM     31  H   LIG d   1       5.723  -1.330  -5.604  0.00  0.00     0.066 H 
BRANCH  28  32
ATOM     32  O   LIG d   1       5.052  -1.229  -3.074  0.00  0.00    -0.495 OA
BRANCH  32  33
ATOM     33  C   LIG d   1       4.394  -1.364  -1.812  0.00  0.00     0.079 C 
ATOM     34  H   LIG d   1       3.381  -0.969  -1.886  0.00  0.00     0.066 H 
ATOM     35  H   LIG d   1       4.354  -2.417  -1.534  0.00  0.00     0.066 H 
ATOM     36  H   LIG d   1       4.946  -0.809  -1.054  0.00  0.00     0.066 H 
ENDBRANCH  32  33
ENDBRANCH  28  32
ENDBRANCH   1  22
BRANCH  14  37
ATOM     37  C   LIG d   1       7.696   2.207  -8.708  0.00  0.00     0.023 C 
ATOM     38  H   LIG d   1       8.286   1.921  -9.577  0.00  0.00     0.047 H 
ATOM     39  H   LIG d   1       7.293   3.208  -8.856  0.00  0.00     0.047 H 
BRANCH  37  40
ATOM     40  C   LIG d   1       8.583   2.194  -7.462  0.00  0.00     0.060 C 
ATOM     41  H   LIG d   1       9.601   1.921  -7.744  0.00  0.00     0.039 H 
ATOM     42  H   LIG d   1       8.586   3.184  -7.008  0.00  0.00     0.039 H 
BRANCH  40  43
ATOM     43  C   LIG d   1       8.050   1.188  -6.475  0.00  0.00     0.308 C 
ATOM     44  O   LIG d   1       8.354   0.023  -6.576  0.00  0.00    -0.251 OA
BRANCH  43  45
ATOM     45  O   LIG d   1       7.237   1.586  -5.485  0.00  0.00    -0.468 OA
BRANCH  45  46
ATOM     46  C   LIG d   1       7.645   1.286  -4.149  0.00  0.00     0.082 C 
ATOM     47  H   LIG d   1       7.396   0.251  -3.916  0.00  0.00     0.066 H 
ATOM     48  H   LIG d   1       8.722   1.430  -4.057  0.00  0.00     0.066 H 
ATOM     49  H   LIG d   1       7.130   1.949  -3.453  0.00  0.00     0.066 H 
ENDBRANCH  45  46
ENDBRANCH  43  45
ENDBRANCH  40  43
ENDBRANCH  37  40
ENDBRANCH  14  37
TORSDOF 8
ENDMDL
MODEL 6
REMARK VINA RESULT:      -5.6      2.085      5.926
REMARK  8 active torsions:
REMARK  status: ('A' for Active; 'I' for Inactive)
REMARK    1  A    between atoms: C_1  and  O_2 
REMARK    2  A    between atoms: O_2  and  C_3 
REMARK    3  A    between atoms: C_7  and  C_9 
REMARK       I    between atoms: N_19  and  C_20 
REMARK       I    between atoms: C_20  and  N_22 
REMARK    4  A    between atoms: N_22  and  C_23 
REMARK    5  A    between atoms: C_23  and  C_24 
REMARK    6  A    between atoms: C_24  and  C_25 
REMARK    7  A    between atoms: C_25  and  O_27 
REMARK    8  A    between atoms: O_27  and  C_28 
ROOT
ATOM      1  C   LIG d   1       4.753  -1.957  -6.163  0.00  0.00     0.118 C 
ATOM      2  H   LIG d   1       4.220  -2.864  -6.451  0.00  0.00     0.064 H 
ATOM      3  C   LIG d   1       4.237  -0.784  -6.957  0.00  0.00     0.170 A 
ATOM      4  C   LIG d   1       5.025   0.095  -7.613  0.00  0.00     0.148 A 
ATOM      5  N   LIG d   1       4.232   0.998  -8.199  0.00  0.00    -0.247 N 
ATOM      6  C   LIG d   1       2.984   0.712  -7.935  0.00  0.00     0.243 A 
ATOM      7  N   LIG d   1       2.947  -0.398  -7.160  0.00  0.00    -0.245 N 
ATOM      8  H   LIG d   1       2.153  -0.836  -6.815  0.00  0.00     0.310 HD
ATOM      9  C   LIG d   1       6.531   0.022  -7.654  0.00  0.00     0.029 C 
ATOM     10  C   LIG d   1       7.014  -0.879  -6.510  0.00  0.00     0.025 C 
ATOM     11  N   LIG d   1       6.188  -2.097  -6.472  0.00  0.00    -0.271 N 
ATOM     12  C   LIG d   1       6.727  -3.308  -6.713  0.00  0.00     0.303 C 
ATOM     13  O   LIG d   1       7.927  -3.418  -6.876  0.00  0.00    -0.253 OA
ATOM     14  N   LIG d   1       5.937  -4.399  -6.775  0.00  0.00    -0.299 N 
ATOM     15  H   LIG d   1       2.125   1.269  -8.276  0.00  0.00     0.158 H 
ATOM     16  H   LIG d   1       6.851  -0.396  -8.608  0.00  0.00     0.036 H 
ATOM     17  H   LIG d   1       6.948   1.021  -7.531  0.00  0.00     0.036 H 
ATOM     18  H   LIG d   1       8.056  -1.152  -6.676  0.00  0.00     0.047 H 
ATOM     19  H   LIG d   1       6.922  -0.348  -5.564  0.00  0.00     0.047 H 
ATOM     20  H   LIG d   1       4.973  -4.303  -6.718  0.00  0.00     0.150 HD
ATOM     21  H   LIG d   1       4.534   1.747  -8.736  0.00  0.00     0.310 HD
ENDROOT
BRANCH   1  22
ATOM     22  C   LIG d   1       4.567  -1.700  -4.689  0.00  0.00    -0.015 A 
ATOM     23  C   LIG d   1       4.314  -2.753  -3.831  0.00  0.00    -0.056 A 
ATOM     24  C   LIG d   1       4.144  -2.520  -2.478  0.00  0.00    -0.058 A 
ATOM     25  H   LIG d   1       4.250  -3.759  -4.217  0.00  0.00     0.062 H 
ATOM     26  C   LIG d   1       4.226  -1.234  -1.982  0.00  0.00    -0.020 A 
ATOM     27  H   LIG d   1       3.947  -3.345  -1.810  0.00  0.00     0.062 H 
ATOM     28  C   LIG d   1       4.481  -0.174  -2.842  0.00  0.00     0.120 A 
ATOM     29  H   LIG d   1       4.095  -1.052  -0.925  0.00  0.00     0.065 H 
ATOM     30  C   LIG d   1       4.645  -0.410  -4.200  0.00  0.00    -0.015 A 
ATOM     31  H   LIG d   1       4.838   0.413  -4.871  0.00  0.00     0.066 H 
BRANCH  28  32
ATOM     32  O   LIG d   1       4.562   1.092  -2.357  0.00  0.00    -0.495 OA
BRANCH  32  33
ATOM     33  C   LIG d   1       3.587   2.028  -2.824  0.00  0.00     0.079 C 
ATOM     34  H   LIG d   1       2.595   1.704  -2.514  0.00  0.00     0.066 H 
ATOM     35  H   LIG d   1       3.796   3.011  -2.402  0.00  0.00     0.066 H 
ATOM     36  H   LIG d   1       3.629   2.084  -3.911  0.00  0.00     0.066 H 
ENDBRANCH  32  33
ENDBRANCH  28  32
ENDBRANCH   1  22
BRANCH  14  37
ATOM     37  C   LIG d   1       6.533  -5.728  -6.927  0.00  0.00     0.023 C 
ATOM     38  H   LIG d   1       6.076  -6.237  -7.774  0.00  0.00     0.047 H 
ATOM     39  H   LIG d   1       7.604  -5.628  -7.097  0.00  0.00     0.047 H 
BRANCH  37  40
ATOM     40  C   LIG d   1       6.294  -6.543  -5.654  0.00  0.00     0.060 C 
ATOM     41  H   LIG d   1       6.835  -7.487  -5.720  0.00  0.00     0.039 H 
ATOM     42  H   LIG d   1       6.650  -5.981  -4.790  0.00  0.00     0.039 H 
BRANCH  40  43
ATOM     43  C   LIG d   1       4.820  -6.819  -5.503  0.00  0.00     0.308 C 
ATOM     44  O   LIG d   1       4.065  -5.922  -5.209  0.00  0.00    -0.251 OA
BRANCH  43  45
ATOM     45  O   LIG d   1       4.347  -8.060  -5.693  0.00  0.00    -0.468 OA
BRANCH  45  46
ATOM     46  C   LIG d   1       4.853  -9.086  -4.837  0.00  0.00     0.082 C 
ATOM     47  H   LIG d   1       5.935  -8.993  -4.758  0.00  0.00     0.066 H 
ATOM     48  H   LIG d   1       4.406  -8.986  -3.847  0.00  0.00     0.066 H 
ATOM     49  H   LIG d   1       4.602 -10.062  -5.252  0.00  0.00     0.066 H 
ENDBRANCH  45  46
ENDBRANCH  43  45
ENDBRANCH  40  43
ENDBRANCH  37  40
ENDBRANCH  14  37
TORSDOF 8
ENDMDL
MODEL 7
REMARK VINA RESULT:      -5.5      7.175     10.325
REMARK  8 active torsions:
REMARK  status: ('A' for Active; 'I' for Inactive)
REMARK    1  A    between atoms: C_1  and  O_2 
REMARK    2  A    between atoms: O_2  and  C_3 
REMARK    3  A    between atoms: C_7  and  C_9 
REMARK       I    between atoms: N_19  and  C_20 
REMARK       I    between atoms: C_20  and  N_22 
REMARK    4  A    between atoms: N_22  and  C_23 
REMARK    5  A    between atoms: C_23  and  C_24 
REMARK    6  A    between atoms: C_24  and  C_25 
REMARK    7  A    between atoms: C_25  and  O_27 
REMARK    8  A    between atoms: O_27  and  C_28 
ROOT
ATOM      1  C   LIG d   1       9.718   4.366  -3.361  0.00  0.00     0.118 C 
ATOM      2  H   LIG d   1       9.010   4.725  -2.613  0.00  0.00     0.064 H 
ATOM      3  C   LIG d   1       9.360   2.961  -3.775  0.00  0.00     0.170 A 
ATOM      4  C   LIG d   1      10.238   1.937  -3.825  0.00  0.00     0.148 A 
ATOM      5  N   LIG d   1       9.577   0.850  -4.234  0.00  0.00    -0.247 N 
ATOM      6  C   LIG d   1       8.323   1.159  -4.437  0.00  0.00     0.243 A 
ATOM      7  N   LIG d   1       8.148   2.473  -4.159  0.00  0.00    -0.245 N 
ATOM      8  H   LIG d   1       7.319   2.971  -4.221  0.00  0.00     0.310 HD
ATOM      9  C   LIG d   1      11.699   2.050  -3.464  0.00  0.00     0.029 C 
ATOM     10  C   LIG d   1      12.101   3.530  -3.485  0.00  0.00     0.025 C 
ATOM     11  N   LIG d   1      11.075   4.320  -2.786  0.00  0.00    -0.271 N 
ATOM     12  C   LIG d   1      11.367   4.985  -1.650  0.00  0.00     0.303 C 
ATOM     13  O   LIG d   1      12.510   5.012  -1.238  0.00  0.00    -0.253 OA
ATOM     14  N   LIG d   1      10.390   5.618  -0.969  0.00  0.00    -0.299 N 
ATOM     15  H   LIG d   1       7.554   0.480  -4.772  0.00  0.00     0.158 H 
ATOM     16  H   LIG d   1      11.861   1.642  -2.467  0.00  0.00     0.036 H 
ATOM     17  H   LIG d   1      12.297   1.499  -4.189  0.00  0.00     0.036 H 
ATOM     18  H   LIG d   1      13.060   3.654  -2.983  0.00  0.00     0.047 H 
ATOM     19  H   LIG d   1      12.182   3.871  -4.517  0.00  0.00     0.047 H 
ATOM     20  H   LIG d   1       9.467   5.535  -1.256  0.00  0.00     0.150 HD
ATOM     21  H   LIG d   1       9.965  -0.030  -4.361  0.00  0.00     0.310 HD
ENDROOT
BRANCH   1  22
ATOM     22  C   LIG d   1       9.700   5.275  -4.563  0.00  0.00    -0.015 A 
ATOM     23  C   LIG d   1       9.913   4.756  -5.825  0.00  0.00    -0.056 A 
ATOM     24  C   LIG d   1       9.896   5.588  -6.930  0.00  0.00    -0.058 A 
ATOM     25  H   LIG d   1      10.092   3.698  -5.950  0.00  0.00     0.062 H 
ATOM     26  C   LIG d   1       9.666   6.940  -6.774  0.00  0.00    -0.020 A 
ATOM     27  H   LIG d   1      10.062   5.178  -7.916  0.00  0.00     0.062 H 
ATOM     28  C   LIG d   1       9.451   7.465  -5.507  0.00  0.00     0.120 A 
ATOM     29  H   LIG d   1       9.651   7.590  -7.637  0.00  0.00     0.065 H 
ATOM     30  C   LIG d   1       9.474   6.629  -4.399  0.00  0.00    -0.015 A 
ATOM     31  H   LIG d   1       9.313   7.035  -3.413  0.00  0.00     0.066 H 
BRANCH  28  32
ATOM     32  O   LIG d   1       9.225   8.795  -5.350  0.00  0.00    -0.495 OA
BRANCH  32  33
ATOM     33  C   LIG d   1       9.722   9.662  -6.372  0.00  0.00     0.079 C 
ATOM     34  H   LIG d   1      10.138  10.560  -5.916  0.00  0.00     0.066 H 
ATOM     35  H   LIG d   1      10.500   9.149  -6.938  0.00  0.00     0.066 H 
ATOM     36  H   LIG d   1       8.908   9.938  -7.042  0.00  0.00     0.066 H 
ENDBRANCH  32  33
ENDBRANCH  28  32
ENDBRANCH   1  22
BRANCH  14  37
ATOM     37  C   LIG d   1      10.723   6.431   0.203  0.00  0.00     0.023 C 
ATOM     38  H   LIG d   1       9.946   6.317   0.957  0.00  0.00     0.047 H 
ATOM     39  H   LIG d   1      11.678   6.102   0.614  0.00  0.00     0.047 H 
BRANCH  37  40
ATOM     40  C   LIG d   1      10.825   7.901  -0.208  0.00  0.00     0.060 C 
ATOM     41  H   LIG d   1      10.846   8.527   0.685  0.00  0.00     0.039 H 
ATOM     42  H   LIG d   1      11.739   8.056  -0.780  0.00  0.00     0.039 H 
BRANCH  40  43
ATOM     43  C   LIG d   1       9.633   8.270  -1.052  0.00  0.00     0.308 C 
ATOM     44  O   LIG d   1       8.562   7.751  -0.844  0.00  0.00    -0.251 OA
BRANCH  43  45
ATOM     45  O   LIG d   1       9.761   9.175  -2.035  0.00  0.00    -0.468 OA
BRANCH  45  46
ATOM     46  C   LIG d   1      11.090   9.509  -2.440  0.00  0.00     0.082 C 
ATOM     47  H   LIG d   1      11.679   8.598  -2.543  0.00  0.00     0.066 H 
ATOM     48  H   LIG d   1      11.058  10.030  -3.397  0.00  0.00     0.066 H 
ATOM     49  H   LIG d   1      11.548  10.154  -1.690  0.00  0.00     0.066 H 
ENDBRANCH  45  46
ENDBRANCH  43  45
ENDBRANCH  40  43
ENDBRANCH  37  40
ENDBRANCH  14  37
TORSDOF 8
ENDMDL
MODEL 8
REMARK VINA RESULT:      -5.3      2.719      5.525
REMARK  8 active torsions:
REMARK  status: ('A' for Active; 'I' for Inactive)
REMARK    1  A    between atoms: C_1  and  O_2 
REMARK    2  A    between atoms: O_2  and  C_3 
REMARK    3  A    between atoms: C_7  and  C_9 
REMARK       I    between atoms: N_19  and  C_20 
REMARK       I    between atoms: C_20  and  N_22 
REMARK    4  A    between atoms: N_22  and  C_23 
REMARK    5  A    between atoms: C_23  and  C_24 
REMARK    6  A    between atoms: C_24  and  C_25 
REMARK    7  A    between atoms: C_25  and  O_27 
REMARK    8  A    between atoms: O_27  and  C_28 
ROOT
ATOM      1  C   LIG d   1       5.781  -1.420  -5.234  0.00  0.00     0.118 C 
ATOM      2  H   LIG d   1       5.207  -1.504  -6.157  0.00  0.00     0.064 H 
ATOM      3  C   LIG d   1       4.846  -1.321  -4.055  0.00  0.00     0.170 A 
ATOM      4  C   LIG d   1       4.942  -0.385  -3.087  0.00  0.00     0.148 A 
ATOM      5  N   LIG d   1       3.958  -0.604  -2.208  0.00  0.00    -0.247 N 
ATOM      6  C   LIG d   1       3.256  -1.636  -2.595  0.00  0.00     0.243 A 
ATOM      7  N   LIG d   1       3.781  -2.112  -3.749  0.00  0.00    -0.245 N 
ATOM      8  H   LIG d   1       3.460  -2.871  -4.260  0.00  0.00     0.310 HD
ATOM      9  C   LIG d   1       5.988   0.700  -3.052  0.00  0.00     0.029 C 
ATOM     10  C   LIG d   1       7.141   0.306  -3.983  0.00  0.00     0.025 C 
ATOM     11  N   LIG d   1       6.590  -0.187  -5.256  0.00  0.00    -0.271 N 
ATOM     12  C   LIG d   1       6.815   0.471  -6.410  0.00  0.00     0.303 C 
ATOM     13  O   LIG d   1       7.558   1.433  -6.427  0.00  0.00    -0.253 OA
ATOM     14  N   LIG d   1       6.217   0.063  -7.548  0.00  0.00    -0.299 N 
ATOM     15  H   LIG d   1       2.399  -2.043  -2.080  0.00  0.00     0.158 H 
ATOM     16  H   LIG d   1       5.552   1.640  -3.390  0.00  0.00     0.036 H 
ATOM     17  H   LIG d   1       6.363   0.813  -2.035  0.00  0.00     0.036 H 
ATOM     18  H   LIG d   1       7.771   1.175  -4.173  0.00  0.00     0.047 H 
ATOM     19  H   LIG d   1       7.735  -0.479  -3.516  0.00  0.00     0.047 H 
ATOM     20  H   LIG d   1       5.568  -0.658  -7.522  0.00  0.00     0.150 HD
ATOM     21  H   LIG d   1       3.791  -0.079  -1.409  0.00  0.00     0.310 HD
ENDROOT
BRANCH   1  22
ATOM     22  C   LIG d   1       6.679  -2.620  -5.078  0.00  0.00    -0.015 A 
ATOM     23  C   LIG d   1       6.576  -3.680  -5.960  0.00  0.00    -0.056 A 
ATOM     24  C   LIG d   1       7.399  -4.782  -5.819  0.00  0.00    -0.058 A 
ATOM     25  H   LIG d   1       5.851  -3.646  -6.760  0.00  0.00     0.062 H 
ATOM     26  C   LIG d   1       8.327  -4.827  -4.797  0.00  0.00    -0.020 A 
ATOM     27  H   LIG d   1       7.316  -5.608  -6.510  0.00  0.00     0.062 H 
ATOM     28  C   LIG d   1       8.433  -3.764  -3.910  0.00  0.00     0.120 A 
ATOM     29  H   LIG d   1       8.970  -5.687  -4.688  0.00  0.00     0.065 H 
ATOM     30  C   LIG d   1       7.602  -2.662  -4.050  0.00  0.00    -0.015 A 
ATOM     31  H   LIG d   1       7.679  -1.836  -3.359  0.00  0.00     0.066 H 
BRANCH  28  32
ATOM     32  O   LIG d   1       9.344  -3.806  -2.903  0.00  0.00    -0.495 OA
BRANCH  32  33
ATOM     33  C   LIG d   1       9.667  -5.094  -2.374  0.00  0.00     0.079 C 
ATOM     34  H   LIG d   1       8.966  -5.345  -1.578  0.00  0.00     0.066 H 
ATOM     35  H   LIG d   1       9.599  -5.839  -3.166  0.00  0.00     0.066 H 
ATOM     36  H   LIG d   1      10.681  -5.079  -1.975  0.00  0.00     0.066 H 
ENDBRANCH  32  33
ENDBRANCH  28  32
ENDBRANCH   1  22
BRANCH  14  37
ATOM     37  C   LIG d   1       6.547   0.707  -8.821  0.00  0.00     0.023 C 
ATOM     38  H   LIG d   1       7.477   1.264  -8.716  0.00  0.00     0.047 H 
ATOM     39  H   LIG d   1       6.663  -0.053  -9.593  0.00  0.00     0.047 H 
BRANCH  37  40
ATOM     40  C   LIG d   1       5.421   1.665  -9.215  0.00  0.00     0.060 C 
ATOM     41  H   LIG d   1       5.591   2.636  -8.750  0.00  0.00     0.039 H 
ATOM     42  H   LIG d   1       5.404   1.780 -10.298  0.00  0.00     0.039 H 
BRANCH  40  43
ATOM     43  C   LIG d   1       4.101   1.109  -8.746  0.00  0.00     0.308 C 
ATOM     44  O   LIG d   1       3.493   1.662  -7.860  0.00  0.00    -0.251 OA
BRANCH  43  45
ATOM     45  O   LIG d   1       3.602  -0.001  -9.310  0.00  0.00    -0.468 OA
BRANCH  45  46
ATOM     46  C   LIG d   1       2.654  -0.748  -8.546  0.00  0.00     0.082 C 
ATOM     47  H   LIG d   1       2.696  -0.434  -7.504  0.00  0.00     0.066 H 
ATOM     48  H   LIG d   1       1.651  -0.571  -8.938  0.00  0.00     0.066 H 
ATOM     49  H   LIG d   1       2.888  -1.811  -8.615  0.00  0.00     0.066 H 
ENDBRANCH  45  46
ENDBRANCH  43  45
ENDBRANCH  40  43
ENDBRANCH  37  40
ENDBRANCH  14  37
TORSDOF 8
ENDMDL
MODEL 9
REMARK VINA RESULT:      -5.3      2.757      5.971
REMARK  8 active torsions:
REMARK  status: ('A' for Active; 'I' for Inactive)
REMARK    1  A    between atoms: C_1  and  O_2 
REMARK    2  A    between atoms: O_2  and  C_3 
REMARK    3  A    between atoms: C_7  and  C_9 
REMARK       I    between atoms: N_19  and  C_20 
REMARK       I    between atoms: C_20  and  N_22 
REMARK    4  A    between atoms: N_22  and  C_23 
REMARK    5  A    between atoms: C_23  and  C_24 
REMARK    6  A    between atoms: C_24  and  C_25 
REMARK    7  A    between atoms: C_25  and  O_27 
REMARK    8  A    between atoms: O_27  and  C_28 
ROOT
ATOM      1  C   LIG d   1       5.506  -2.869  -6.122  0.00  0.00     0.118 C 
ATOM      2  H   LIG d   1       6.042  -2.111  -6.695  0.00  0.00     0.064 H 
ATOM      3  C   LIG d   1       6.469  -3.920  -5.633  0.00  0.00     0.170 A 
ATOM      4  C   LIG d   1       6.279  -5.249  -5.775  0.00  0.00     0.148 A 
ATOM      5  N   LIG d   1       7.325  -5.874  -5.224  0.00  0.00    -0.247 N 
ATOM      6  C   LIG d   1       8.157  -4.984  -4.750  0.00  0.00     0.243 A 
ATOM      7  N   LIG d   1       7.656  -3.749  -4.988  0.00  0.00    -0.245 N 
ATOM      8  H   LIG d   1       8.065  -2.904  -4.745  0.00  0.00     0.310 HD
ATOM      9  C   LIG d   1       5.082  -5.870  -6.451  0.00  0.00     0.029 C 
ATOM     10  C   LIG d   1       3.960  -4.828  -6.526  0.00  0.00     0.025 C 
ATOM     11  N   LIG d   1       4.519  -3.546  -6.984  0.00  0.00    -0.271 N 
ATOM     12  C   LIG d   1       4.141  -3.004  -8.159  0.00  0.00     0.303 C 
ATOM     13  O   LIG d   1       3.261  -3.527  -8.814  0.00  0.00    -0.253 OA
ATOM     14  N   LIG d   1       4.740  -1.883  -8.609  0.00  0.00    -0.299 N 
ATOM     15  H   LIG d   1       9.089  -5.199  -4.250  0.00  0.00     0.158 H 
ATOM     16  H   LIG d   1       5.354  -6.186  -7.458  0.00  0.00     0.036 H 
ATOM     17  H   LIG d   1       4.743  -6.731  -5.875  0.00  0.00     0.036 H 
ATOM     18  H   LIG d   1       3.197  -5.163  -7.229  0.00  0.00     0.047 H 
ATOM     19  H   LIG d   1       3.515  -4.699  -5.540  0.00  0.00     0.047 H 
ATOM     20  H   LIG d   1       5.492  -1.507  -8.124  0.00  0.00     0.150 HD
ATOM     21  H   LIG d   1       7.448  -6.836  -5.183  0.00  0.00     0.310 HD
ENDROOT
BRANCH   1  22
ATOM     22  C   LIG d   1       4.809  -2.226  -4.950  0.00  0.00    -0.015 A 
ATOM     23  C   LIG d   1       4.608  -2.946  -3.787  0.00  0.00    -0.056 A 
ATOM     24  C   LIG d   1       3.970  -2.359  -2.710  0.00  0.00    -0.058 A 
ATOM     25  H   LIG d   1       4.950  -3.968  -3.720  0.00  0.00     0.062 H 
ATOM     26  C   LIG d   1       3.532  -1.052  -2.793  0.00  0.00    -0.020 A 
ATOM     27  H   LIG d   1       3.815  -2.924  -1.802  0.00  0.00     0.062 H 
ATOM     28  C   LIG d   1       3.733  -0.326  -3.959  0.00  0.00     0.120 A 
ATOM     29  H   LIG d   1       3.035  -0.593  -1.951  0.00  0.00     0.065 H 
ATOM     30  C   LIG d   1       4.368  -0.920  -5.041  0.00  0.00    -0.015 A 
ATOM     31  H   LIG d   1       4.522  -0.360  -5.951  0.00  0.00     0.066 H 
BRANCH  28  32
ATOM     32  O   LIG d   1       3.303   0.959  -4.045  0.00  0.00    -0.495 OA
BRANCH  32  33
ATOM     33  C   LIG d   1       3.628   1.825  -2.955  0.00  0.00     0.079 C 
ATOM     34  H   LIG d   1       4.562   1.500  -2.499  0.00  0.00     0.066 H 
ATOM     35  H   LIG d   1       3.739   2.845  -3.322  0.00  0.00     0.066 H 
ATOM     36  H   LIG d   1       2.830   1.791  -2.214  0.00  0.00     0.066 H 
ENDBRANCH  32  33
ENDBRANCH  28  32
ENDBRANCH   1  22
BRANCH  14  37
ATOM     37  C   LIG d   1       4.256  -1.233  -9.829  0.00  0.00     0.023 C 
ATOM     38  H   LIG d   1       4.347  -1.922 -10.668  0.00  0.00     0.047 H 
ATOM     39  H   LIG d   1       3.212  -0.952  -9.701  0.00  0.00     0.047 H 
BRANCH  37  40
ATOM     40  C   LIG d   1       5.091   0.019 -10.105  0.00  0.00     0.060 C 
ATOM     41  H   LIG d   1       6.150  -0.232 -10.053  0.00  0.00     0.039 H 
ATOM     42  H   LIG d   1       4.857   0.399 -11.100  0.00  0.00     0.039 H 
BRANCH  40  43
ATOM     43  C   LIG d   1       4.773   1.072  -9.075  0.00  0.00     0.308 C 
ATOM     44  O   LIG d   1       5.335   1.059  -8.006  0.00  0.00    -0.251 OA
BRANCH  43  45
ATOM     45  O   LIG d   1       3.866   2.023  -9.346  0.00  0.00    -0.468 OA
BRANCH  45  46
ATOM     46  C   LIG d   1       2.822   2.215  -8.389  0.00  0.00     0.082 C 
ATOM     47  H   LIG d   1       2.692   3.280  -8.201  0.00  0.00     0.066 H 
ATOM     48  H   LIG d   1       1.893   1.799  -8.778  0.00  0.00     0.066 H 
ATOM     49  H   LIG d   1       3.085   1.712  -7.458  0.00  0.00     0.066 H 
ENDBRANCH  45  46
ENDBRANCH  43  45
ENDBRANCH  40  43
ENDBRANCH  37  40
ENDBRANCH  14  37
TORSDOF 8
ENDMDL
