MODEL 1
REMARK VINA RESULT:      -5.1      0.000      0.000
REMARK  17 active torsions:
REMARK  status: ('A' for Active; 'I' for Inactive)
REMARK    1  A    between atoms: C_1  and  C_2 
REMARK    2  A    between atoms: C_2  and  C_3 
REMARK    3  A    between atoms: C_3  and  C_4 
REMARK    4  A    between atoms: C_4  and  C_5 
REMARK    5  A    between atoms: C_5  and  C_6 
REMARK    6  A    between atoms: C_8  and  C_11 
REMARK    7  A    between atoms: C_11  and  C_12 
REMARK    8  A    between atoms: C_13  and  C_14 
REMARK    9  A    between atoms: C_14  and  C_15 
REMARK   10  A    between atoms: C_15  and  C_16 
REMARK   11  A    between atoms: C_16  and  C_17 
REMARK   12  A    between atoms: C_17  and  C_18 
REMARK   13  A    between atoms: C_18  and  C_19 
REMARK   14  A    between atoms: C_19  and  C_20 
REMARK   15  A    between atoms: C_20  and  C_21 
REMARK   16  A    between atoms: C_21  and  C_22 
REMARK   17  A    between atoms: C_22  and  C_23 
ROOT
ATOM      1  C   LIG d   1       2.801   0.095  -6.091  0.00  0.00    -0.035 C 
ATOM      2  H   LIG d   1       2.284  -0.720  -6.595  0.00  0.00     0.031 H 
ATOM      3  H   LIG d   1       2.462   1.048  -6.499  0.00  0.00     0.031 H 
ENDROOT
BRANCH   1   4
ATOM      4  C   LIG d   1       4.287  -0.043  -6.306  0.00  0.00    -0.088 C 
ATOM      5  C   LIG d   1       4.755  -1.040  -7.014  0.00  0.00    -0.085 C 
ATOM      6  H   LIG d   1       5.821  -1.210  -7.067  0.00  0.00     0.057 H 
ATOM      7  H   LIG d   1       4.964   0.680  -5.877  0.00  0.00     0.057 H 
BRANCH   5   8
ATOM      8  C   LIG d   1       3.809  -1.950  -7.754  0.00  0.00    -0.006 C 
ATOM      9  H   LIG d   1       3.910  -2.966  -7.371  0.00  0.00     0.033 H 
ATOM     10  H   LIG d   1       2.785  -1.606  -7.607  0.00  0.00     0.033 H 
BRANCH   8  11
ATOM     11  C   LIG d   1       4.145  -1.932  -9.246  0.00  0.00     0.089 A 
ATOM     12  C   LIG d   1       3.219  -1.145 -10.175  0.00  0.00     0.086 A 
ATOM     13  H   LIG d   1       2.364  -0.637  -9.730  0.00  0.00     0.062 H 
ATOM     14  O   LIG d   1       3.237  -2.576 -10.141  0.00  0.00    -0.368 OA
ATOM     15  H   LIG d   1       5.207  -1.960  -9.491  0.00  0.00     0.062 H 
BRANCH  12  16
ATOM     16  C   LIG d   1       3.846  -0.453 -11.388  0.00  0.00    -0.024 C 
ATOM     17  H   LIG d   1       4.865  -0.814 -11.525  0.00  0.00     0.029 H 
ATOM     18  H   LIG d   1       3.258  -0.679 -12.278  0.00  0.00     0.029 H 
BRANCH  16  19
ATOM     19  C   LIG d   1       3.865   1.059 -11.160  0.00  0.00    -0.051 C 
ATOM     20  H   LIG d   1       4.137   1.563 -12.088  0.00  0.00     0.027 H 
ATOM     21  H   LIG d   1       2.876   1.391 -10.843  0.00  0.00     0.027 H 
BRANCH  19  22
ATOM     22  C   LIG d   1       4.888   1.398 -10.075  0.00  0.00    -0.053 C 
ATOM     23  H   LIG d   1       5.068   0.518  -9.458  0.00  0.00     0.026 H 
ATOM     24  H   LIG d   1       5.822   1.712 -10.542  0.00  0.00     0.026 H 
BRANCH  22  25
ATOM     25  C   LIG d   1       4.350   2.533  -9.201  0.00  0.00    -0.056 C 
ATOM     26  H   LIG d   1       4.904   2.563  -8.264  0.00  0.00     0.026 H 
ATOM     27  H   LIG d   1       4.468   3.481  -9.725  0.00  0.00     0.026 H 
BRANCH  25  28
ATOM     28  C   LIG d   1       2.867   2.293  -8.910  0.00  0.00    -0.065 C 
ATOM     29  H   LIG d   1       2.312   2.261  -9.848  0.00  0.00     0.023 H 
ATOM     30  H   LIG d   1       2.750   1.343  -8.387  0.00  0.00     0.023 H 
ATOM     31  H   LIG d   1       2.484   3.100  -8.286  0.00  0.00     0.023 H 
ENDBRANCH  25  28
ENDBRANCH  22  25
ENDBRANCH  19  22
ENDBRANCH  16  19
ENDBRANCH  12  16
ENDBRANCH   8  11
ENDBRANCH   5   8
ENDBRANCH   1   4
BRANCH   1  32
ATOM     32  C   LIG d   1       2.496   0.044  -4.592  0.00  0.00    -0.050 C 
ATOM     33  H   LIG d   1       2.735  -0.946  -4.207  0.00  0.00     0.027 H 
ATOM     34  H   LIG d   1       1.438   0.252  -4.430  0.00  0.00     0.027 H 
BRANCH  32  35
ATOM     35  C   LIG d   1       3.339   1.093  -3.864  0.00  0.00    -0.053 C 
ATOM     36  H   LIG d   1       2.891   2.078  -4.000  0.00  0.00     0.026 H 
ATOM     37  H   LIG d   1       4.350   1.094  -4.273  0.00  0.00     0.026 H 
BRANCH  35  38
ATOM     38  C   LIG d   1       3.393   0.759  -2.373  0.00  0.00    -0.053 C 
ATOM     39  H   LIG d   1       2.832  -0.158  -2.186  0.00  0.00     0.026 H 
ATOM     40  H   LIG d   1       2.954   1.577  -1.801  0.00  0.00     0.026 H 
BRANCH  38  41
ATOM     41  C   LIG d   1       4.849   0.562  -1.946  0.00  0.00    -0.053 C 
ATOM     42  H   LIG d   1       5.033  -0.496  -1.761  0.00  0.00     0.026 H 
ATOM     43  H   LIG d   1       5.040   1.129  -1.035  0.00  0.00     0.026 H 
BRANCH  41  44
ATOM     44  C   LIG d   1       5.777   1.054  -3.058  0.00  0.00    -0.053 C 
ATOM     45  H   LIG d   1       5.184   1.338  -3.928  0.00  0.00     0.026 H 
ATOM     46  H   LIG d   1       6.341   1.916  -2.705  0.00  0.00     0.026 H 
BRANCH  44  47
ATOM     47  C   LIG d   1       6.745  -0.065  -3.446  0.00  0.00    -0.053 C 
ATOM     48  H   LIG d   1       6.814  -0.126  -4.532  0.00  0.00     0.026 H 
ATOM     49  H   LIG d   1       7.731   0.147  -3.031  0.00  0.00     0.026 H 
BRANCH  47  50
ATOM     50  C   LIG d   1       6.235  -1.397  -2.891  0.00  0.00    -0.048 C 
ATOM     51  H   LIG d   1       6.954  -1.792  -2.174  0.00  0.00     0.027 H 
ATOM     52  H   LIG d   1       5.277  -1.239  -2.395  0.00  0.00     0.027 H 
BRANCH  50  53
ATOM     53  C   LIG d   1       6.058  -2.394  -4.039  0.00  0.00    -0.013 C 
ATOM     54  H   LIG d   1       6.148  -1.871  -4.991  0.00  0.00     0.033 H 
ATOM     55  H   LIG d   1       6.827  -3.163  -3.972  0.00  0.00     0.033 H 
BRANCH  53  56
ATOM     56  C   LIG d   1       4.697  -3.033  -3.944  0.00  0.00     0.042 C 
ATOM     57  O   LIG d   1       3.957  -2.746  -3.032  0.00  0.00    -0.550 OA
ATOM     58  O   LIG d   1       4.307  -3.922  -4.870  0.00  0.00    -0.550 OA
ENDBRANCH  53  56
ENDBRANCH  50  53
ENDBRANCH  47  50
ENDBRANCH  44  47
ENDBRANCH  41  44
ENDBRANCH  38  41
ENDBRANCH  35  38
ENDBRANCH  32  35
ENDBRANCH   1  32
TORSDOF 17
ENDMDL
MODEL 2
REMARK VINA RESULT:      -5.1      3.582      6.681
REMARK  17 active torsions:
REMARK  status: ('A' for Active; 'I' for Inactive)
REMARK    1  A    between atoms: C_1  and  C_2 
REMARK    2  A    between atoms: C_2  and  C_3 
REMARK    3  A    between atoms: C_3  and  C_4 
REMARK    4  A    between atoms: C_4  and  C_5 
REMARK    5  A    between atoms: C_5  and  C_6 
REMARK    6  A    between atoms: C_8  and  C_11 
REMARK    7  A    between atoms: C_11  and  C_12 
REMARK    8  A    between atoms: C_13  and  C_14 
REMARK    9  A    between atoms: C_14  and  C_15 
REMARK   10  A    between atoms: C_15  and  C_16 
REMARK   11  A    between atoms: C_16  and  C_17 
REMARK   12  A    between atoms: C_17  and  C_18 
REMARK   13  A    between atoms: C_18  and  C_19 
REMARK   14  A    between atoms: C_19  and  C_20 
REMARK   15  A    between atoms: C_20  and  C_21 
REMARK   16  A    between atoms: C_21  and  C_22 
REMARK   17  A    between atoms: C_22  and  C_23 
ROOT
ATOM      1  C   LIG d   1       5.928  -2.375  -3.675  0.00  0.00    -0.035 C 
ATOM      2  H   LIG d   1       6.100  -1.550  -2.984  0.00  0.00     0.031 H 
ATOM      3  H   LIG d   1       6.512  -3.240  -3.361  0.00  0.00     0.031 H 
ENDROOT
BRANCH   1   4
ATOM      4  C   LIG d   1       6.347  -1.963  -5.063  0.00  0.00    -0.088 C 
ATOM      5  C   LIG d   1       6.929  -0.805  -5.254  0.00  0.00    -0.085 C 
ATOM      6  H   LIG d   1       7.118  -0.456  -6.259  0.00  0.00     0.057 H 
ATOM      7  H   LIG d   1       6.168  -2.622  -5.899  0.00  0.00     0.057 H 
BRANCH   5   8
ATOM      8  C   LIG d   1       7.333   0.040  -4.074  0.00  0.00    -0.006 C 
ATOM      9  H   LIG d   1       6.459   0.566  -3.688  0.00  0.00     0.033 H 
ATOM     10  H   LIG d   1       7.747  -0.599  -3.294  0.00  0.00     0.033 H 
BRANCH   8  11
ATOM     11  C   LIG d   1       8.387   1.058  -4.512  0.00  0.00     0.089 A 
ATOM     12  C   LIG d   1       8.514   2.347  -3.698  0.00  0.00     0.086 A 
ATOM     13  H   LIG d   1       7.847   2.479  -2.847  0.00  0.00     0.062 H 
ATOM     14  O   LIG d   1       7.931   2.319  -5.006  0.00  0.00    -0.368 OA
ATOM     15  H   LIG d   1       9.295   0.640  -4.947  0.00  0.00     0.062 H 
BRANCH  12  16
ATOM     16  C   LIG d   1       9.907   2.965  -3.553  0.00  0.00    -0.024 C 
ATOM     17  H   LIG d   1      10.499   2.366  -2.860  0.00  0.00     0.029 H 
ATOM     18  H   LIG d   1      10.398   2.986  -4.526  0.00  0.00     0.029 H 
BRANCH  16  19
ATOM     19  C   LIG d   1       9.780   4.390  -3.015  0.00  0.00    -0.051 C 
ATOM     20  H   LIG d   1       9.846   5.099  -3.841  0.00  0.00     0.027 H 
ATOM     21  H   LIG d   1       8.818   4.506  -2.515  0.00  0.00     0.027 H 
BRANCH  19  22
ATOM     22  C   LIG d   1      10.907   4.662  -2.018  0.00  0.00    -0.053 C 
ATOM     23  H   LIG d   1      11.092   3.767  -1.425  0.00  0.00     0.026 H 
ATOM     24  H   LIG d   1      11.814   4.933  -2.559  0.00  0.00     0.026 H 
BRANCH  22  25
ATOM     25  C   LIG d   1      10.504   5.812  -1.092  0.00  0.00    -0.056 C 
ATOM     26  H   LIG d   1       9.927   5.419  -0.256  0.00  0.00     0.026 H 
ATOM     27  H   LIG d   1      11.400   6.305  -0.716  0.00  0.00     0.026 H 
BRANCH  25  28
ATOM     28  C   LIG d   1       9.655   6.820  -1.869  0.00  0.00    -0.065 C 
ATOM     29  H   LIG d   1       9.346   7.625  -1.203  0.00  0.00     0.023 H 
ATOM     30  H   LIG d   1      10.244   7.233  -2.689  0.00  0.00     0.023 H 
ATOM     31  H   LIG d   1       8.774   6.320  -2.271  0.00  0.00     0.023 H 
ENDBRANCH  25  28
ENDBRANCH  22  25
ENDBRANCH  19  22
ENDBRANCH  16  19
ENDBRANCH  12  16
ENDBRANCH   8  11
ENDBRANCH   5   8
ENDBRANCH   1   4
BRANCH   1  32
ATOM     32  C   LIG d   1       4.441  -2.737  -3.678  0.00  0.00    -0.050 C 
ATOM     33  H   LIG d   1       4.331  -3.820  -3.619  0.00  0.00     0.027 H 
ATOM     34  H   LIG d   1       3.981  -2.375  -4.597  0.00  0.00     0.027 H 
BRANCH  32  35
ATOM     35  C   LIG d   1       3.756  -2.088  -2.474  0.00  0.00    -0.053 C 
ATOM     36  H   LIG d   1       3.341  -2.864  -1.830  0.00  0.00     0.026 H 
ATOM     37  H   LIG d   1       2.955  -1.435  -2.820  0.00  0.00     0.026 H 
BRANCH  35  38
ATOM     38  C   LIG d   1       4.779  -1.267  -1.687  0.00  0.00    -0.053 C 
ATOM     39  H   LIG d   1       5.776  -1.442  -2.093  0.00  0.00     0.026 H 
ATOM     40  H   LIG d   1       4.757  -1.566  -0.638  0.00  0.00     0.026 H 
BRANCH  38  41
ATOM     41  C   LIG d   1       4.436   0.220  -1.800  0.00  0.00    -0.053 C 
ATOM     42  H   LIG d   1       5.225   0.734  -2.348  0.00  0.00     0.026 H 
ATOM     43  H   LIG d   1       4.347   0.649  -0.802  0.00  0.00     0.026 H 
BRANCH  41  44
ATOM     44  C   LIG d   1       3.109   0.381  -2.545  0.00  0.00    -0.053 C 
ATOM     45  H   LIG d   1       2.680  -0.602  -2.740  0.00  0.00     0.026 H 
ATOM     46  H   LIG d   1       2.419   0.964  -1.936  0.00  0.00     0.026 H 
BRANCH  44  47
ATOM     47  C   LIG d   1       3.354   1.102  -3.872  0.00  0.00    -0.053 C 
ATOM     48  H   LIG d   1       3.106   2.158  -3.762  0.00  0.00     0.026 H 
ATOM     49  H   LIG d   1       4.403   1.003  -4.152  0.00  0.00     0.026 H 
BRANCH  47  50
ATOM     50  C   LIG d   1       2.476   0.482  -4.960  0.00  0.00    -0.048 C 
ATOM     51  H   LIG d   1       1.888  -0.331  -4.534  0.00  0.00     0.027 H 
ATOM     52  H   LIG d   1       1.806   1.242  -5.363  0.00  0.00     0.027 H 
BRANCH  50  53
ATOM     53  C   LIG d   1       3.362  -0.064  -6.082  0.00  0.00    -0.013 C 
ATOM     54  H   LIG d   1       4.396   0.235  -5.906  0.00  0.00     0.033 H 
ATOM     55  H   LIG d   1       3.296  -1.151  -6.100  0.00  0.00     0.033 H 
BRANCH  53  56
ATOM     56  C   LIG d   1       2.897   0.490  -7.404  0.00  0.00     0.042 C 
ATOM     57  O   LIG d   1       3.112   1.647  -7.683  0.00  0.00    -0.550 OA
ATOM     58  O   LIG d   1       2.246  -0.299  -8.271  0.00  0.00    -0.550 OA
ENDBRANCH  53  56
ENDBRANCH  50  53
ENDBRANCH  47  50
ENDBRANCH  44  47
ENDBRANCH  41  44
ENDBRANCH  38  41
ENDBRANCH  35  38
ENDBRANCH  32  35
ENDBRANCH   1  32
TORSDOF 17
ENDMDL
MODEL 3
REMARK VINA RESULT:      -4.9      3.115      6.503
REMARK  17 active torsions:
REMARK  status: ('A' for Active; 'I' for Inactive)
REMARK    1  A    between atoms: C_1  and  C_2 
REMARK    2  A    between atoms: C_2  and  C_3 
REMARK    3  A    between atoms: C_3  and  C_4 
REMARK    4  A    between atoms: C_4  and  C_5 
REMARK    5  A    between atoms: C_5  and  C_6 
REMARK    6  A    between atoms: C_8  and  C_11 
REMARK    7  A    between atoms: C_11  and  C_12 
REMARK    8  A    between atoms: C_13  and  C_14 
REMARK    9  A    between atoms: C_14  and  C_15 
REMARK   10  A    between atoms: C_15  and  C_16 
REMARK   11  A    between atoms: C_16  and  C_17 
REMARK   12  A    between atoms: C_17  and  C_18 
REMARK   13  A    between atoms: C_18  and  C_19 
REMARK   14  A    between atoms: C_19  and  C_20 
REMARK   15  A    between atoms: C_20  and  C_21 
REMARK   16  A    between atoms: C_21  and  C_22 
REMARK   17  A    between atoms: C_22  and  C_23 
ROOT
ATOM      1  C   LIG d   1       4.298  -1.762  -2.182  0.00  0.00    -0.035 C 
ATOM      2  H   LIG d   1       5.032  -1.072  -1.769  0.00  0.00     0.031 H 
ATOM      3  H   LIG d   1       4.032  -2.505  -1.429  0.00  0.00     0.031 H 
ENDROOT
BRANCH   1   4
ATOM      4  C   LIG d   1       4.881  -2.456  -3.387  0.00  0.00    -0.088 C 
ATOM      5  C   LIG d   1       6.000  -2.023  -3.913  0.00  0.00    -0.085 C 
ATOM      6  H   LIG d   1       6.354  -2.439  -4.845  0.00  0.00     0.057 H 
ATOM      7  H   LIG d   1       4.378  -3.310  -3.815  0.00  0.00     0.057 H 
BRANCH   5   8
ATOM      8  C   LIG d   1       6.791  -0.944  -3.220  0.00  0.00    -0.006 C 
ATOM      9  H   LIG d   1       6.367  -0.761  -2.232  0.00  0.00     0.033 H 
ATOM     10  H   LIG d   1       7.828  -1.263  -3.117  0.00  0.00     0.033 H 
BRANCH   8  11
ATOM     11  C   LIG d   1       6.733   0.342  -4.046  0.00  0.00     0.089 A 
ATOM     12  C   LIG d   1       7.875   1.347  -3.883  0.00  0.00     0.086 A 
ATOM     13  H   LIG d   1       8.674   1.098  -3.186  0.00  0.00     0.062 H 
ATOM     14  O   LIG d   1       6.568   1.577  -3.347  0.00  0.00    -0.368 OA
ATOM     15  H   LIG d   1       6.273   0.251  -5.031  0.00  0.00     0.062 H 
BRANCH  12  16
ATOM     16  C   LIG d   1       8.293   2.157  -5.112  0.00  0.00    -0.024 C 
ATOM     17  H   LIG d   1       8.484   1.480  -5.945  0.00  0.00     0.029 H 
ATOM     18  H   LIG d   1       7.494   2.848  -5.381  0.00  0.00     0.029 H 
BRANCH  16  19
ATOM     19  C   LIG d   1       9.564   2.946  -4.795  0.00  0.00    -0.051 C 
ATOM     20  H   LIG d   1      10.406   2.515  -5.339  0.00  0.00     0.027 H 
ATOM     21  H   LIG d   1       9.432   3.985  -5.097  0.00  0.00     0.027 H 
BRANCH  19  22
ATOM     22  C   LIG d   1       9.842   2.884  -3.293  0.00  0.00    -0.053 C 
ATOM     23  H   LIG d   1       9.022   2.369  -2.793  0.00  0.00     0.026 H 
ATOM     24  H   LIG d   1      10.772   2.342  -3.117  0.00  0.00     0.026 H 
BRANCH  22  25
ATOM     25  C   LIG d   1       9.968   4.304  -2.737  0.00  0.00    -0.056 C 
ATOM     26  H   LIG d   1       9.082   4.878  -3.005  0.00  0.00     0.026 H 
ATOM     27  H   LIG d   1      10.059   4.262  -1.652  0.00  0.00     0.026 H 
BRANCH  25  28
ATOM     28  C   LIG d   1      11.209   4.975  -3.327  0.00  0.00    -0.065 C 
ATOM     29  H   LIG d   1      11.769   4.250  -3.917  0.00  0.00     0.023 H 
ATOM     30  H   LIG d   1      10.903   5.804  -3.967  0.00  0.00     0.023 H 
ATOM     31  H   LIG d   1      11.837   5.352  -2.520  0.00  0.00     0.023 H 
ENDBRANCH  25  28
ENDBRANCH  22  25
ENDBRANCH  19  22
ENDBRANCH  16  19
ENDBRANCH  12  16
ENDBRANCH   8  11
ENDBRANCH   5   8
ENDBRANCH   1   4
BRANCH   1  32
ATOM     32  C   LIG d   1       3.046  -0.986  -2.598  0.00  0.00    -0.050 C 
ATOM     33  H   LIG d   1       2.219  -1.252  -1.940  0.00  0.00     0.027 H 
ATOM     34  H   LIG d   1       2.787  -1.238  -3.627  0.00  0.00     0.027 H 
BRANCH  32  35
ATOM     35  C   LIG d   1       3.319   0.515  -2.493  0.00  0.00    -0.053 C 
ATOM     36  H   LIG d   1       4.353   0.676  -2.185  0.00  0.00     0.026 H 
ATOM     37  H   LIG d   1       2.647   0.956  -1.756  0.00  0.00     0.026 H 
BRANCH  35  38
ATOM     38  C   LIG d   1       3.085   1.173  -3.854  0.00  0.00    -0.053 C 
ATOM     39  H   LIG d   1       4.045   1.402  -4.317  0.00  0.00     0.026 H 
ATOM     40  H   LIG d   1       2.516   2.093  -3.721  0.00  0.00     0.026 H 
BRANCH  38  41
ATOM     41  C   LIG d   1       2.301   0.216  -4.755  0.00  0.00    -0.053 C 
ATOM     42  H   LIG d   1       1.238   0.444  -4.689  0.00  0.00     0.026 H 
ATOM     43  H   LIG d   1       2.473  -0.811  -4.431  0.00  0.00     0.026 H 
BRANCH  41  44
ATOM     44  C   LIG d   1       2.770   0.379  -6.202  0.00  0.00    -0.053 C 
ATOM     45  H   LIG d   1       1.969   0.080  -6.879  0.00  0.00     0.026 H 
ATOM     46  H   LIG d   1       3.030   1.421  -6.384  0.00  0.00     0.026 H 
BRANCH  44  47
ATOM     47  C   LIG d   1       3.997  -0.503  -6.443  0.00  0.00    -0.053 C 
ATOM     48  H   LIG d   1       4.658  -0.450  -5.578  0.00  0.00     0.026 H 
ATOM     49  H   LIG d   1       3.679  -1.534  -6.595  0.00  0.00     0.026 H 
BRANCH  47  50
ATOM     50  C   LIG d   1       4.742  -0.011  -7.685  0.00  0.00    -0.048 C 
ATOM     51  H   LIG d   1       5.612   0.571  -7.382  0.00  0.00     0.027 H 
ATOM     52  H   LIG d   1       5.067  -0.868  -8.276  0.00  0.00     0.027 H 
BRANCH  50  53
ATOM     53  C   LIG d   1       3.810   0.865  -8.527  0.00  0.00    -0.013 C 
ATOM     54  H   LIG d   1       3.293   0.245  -9.259  0.00  0.00     0.033 H 
ATOM     55  H   LIG d   1       3.080   1.346  -7.877  0.00  0.00     0.033 H 
BRANCH  53  56
ATOM     56  C   LIG d   1       4.618   1.917  -9.241  0.00  0.00     0.042 C 
ATOM     57  O   LIG d   1       5.631   1.607  -9.825  0.00  0.00    -0.550 OA
ATOM     58  O   LIG d   1       4.215   3.196  -9.229  0.00  0.00    -0.550 OA
ENDBRANCH  53  56
ENDBRANCH  50  53
ENDBRANCH  47  50
ENDBRANCH  44  47
ENDBRANCH  41  44
ENDBRANCH  38  41
ENDBRANCH  35  38
ENDBRANCH  32  35
ENDBRANCH   1  32
TORSDOF 17
ENDMDL
MODEL 4
REMARK VINA RESULT:      -4.9      2.418      6.586
REMARK  17 active torsions:
REMARK  status: ('A' for Active; 'I' for Inactive)
REMARK    1  A    between atoms: C_1  and  C_2 
REMARK    2  A    between atoms: C_2  and  C_3 
REMARK    3  A    between atoms: C_3  and  C_4 
REMARK    4  A    between atoms: C_4  and  C_5 
REMARK    5  A    between atoms: C_5  and  C_6 
REMARK    6  A    between atoms: C_8  and  C_11 
REMARK    7  A    between atoms: C_11  and  C_12 
REMARK    8  A    between atoms: C_13  and  C_14 
REMARK    9  A    between atoms: C_14  and  C_15 
REMARK   10  A    between atoms: C_15  and  C_16 
REMARK   11  A    between atoms: C_16  and  C_17 
REMARK   12  A    between atoms: C_17  and  C_18 
REMARK   13  A    between atoms: C_18  and  C_19 
REMARK   14  A    between atoms: C_19  and  C_20 
REMARK   15  A    between atoms: C_20  and  C_21 
REMARK   16  A    between atoms: C_21  and  C_22 
REMARK   17  A    between atoms: C_22  and  C_23 
ROOT
ATOM      1  C   LIG d   1       3.961  -2.030  -2.353  0.00  0.00    -0.035 C 
ATOM      2  H   LIG d   1       3.499  -2.608  -1.554  0.00  0.00     0.031 H 
ATOM      3  H   LIG d   1       4.882  -1.575  -1.988  0.00  0.00     0.031 H 
ENDROOT
BRANCH   1   4
ATOM      4  C   LIG d   1       3.011  -0.949  -2.805  0.00  0.00    -0.088 C 
ATOM      5  C   LIG d   1       3.322   0.311  -2.627  0.00  0.00    -0.085 C 
ATOM      6  H   LIG d   1       2.594   1.080  -2.837  0.00  0.00     0.057 H 
ATOM      7  H   LIG d   1       2.076  -1.214  -3.274  0.00  0.00     0.057 H 
BRANCH   5   8
ATOM      8  C   LIG d   1       4.694   0.686  -2.131  0.00  0.00    -0.006 C 
ATOM      9  H   LIG d   1       4.608   1.497  -1.407  0.00  0.00     0.033 H 
ATOM     10  H   LIG d   1       5.158  -0.178  -1.655  0.00  0.00     0.033 H 
BRANCH   8  11
ATOM     11  C   LIG d   1       5.555   1.144  -3.309  0.00  0.00     0.089 A 
ATOM     12  C   LIG d   1       6.943   0.517  -3.463  0.00  0.00     0.086 A 
ATOM     13  H   LIG d   1       7.250  -0.223  -2.726  0.00  0.00     0.062 H 
ATOM     14  O   LIG d   1       6.754   1.865  -3.017  0.00  0.00    -0.368 OA
ATOM     15  H   LIG d   1       5.013   1.407  -4.217  0.00  0.00     0.062 H 
BRANCH  12  16
ATOM     16  C   LIG d   1       7.475   0.305  -4.882  0.00  0.00    -0.024 C 
ATOM     17  H   LIG d   1       6.637   0.202  -5.572  0.00  0.00     0.029 H 
ATOM     18  H   LIG d   1       8.084   1.161  -5.174  0.00  0.00     0.029 H 
BRANCH  16  19
ATOM     19  C   LIG d   1       8.327  -0.964  -4.922  0.00  0.00    -0.051 C 
ATOM     20  H   LIG d   1       9.367  -0.711  -4.713  0.00  0.00     0.027 H 
ATOM     21  H   LIG d   1       7.968  -1.668  -4.171  0.00  0.00     0.027 H 
BRANCH  19  22
ATOM     22  C   LIG d   1       8.228  -1.603  -6.308  0.00  0.00    -0.053 C 
ATOM     23  H   LIG d   1       7.311  -1.271  -6.795  0.00  0.00     0.026 H 
ATOM     24  H   LIG d   1       9.087  -1.305  -6.909  0.00  0.00     0.026 H 
BRANCH  22  25
ATOM     25  C   LIG d   1       8.209  -3.127  -6.169  0.00  0.00    -0.056 C 
ATOM     26  H   LIG d   1       7.298  -3.521  -6.620  0.00  0.00     0.026 H 
ATOM     27  H   LIG d   1       9.077  -3.548  -6.675  0.00  0.00     0.026 H 
BRANCH  25  28
ATOM     28  C   LIG d   1       8.249  -3.504  -4.687  0.00  0.00    -0.065 C 
ATOM     29  H   LIG d   1       7.272  -3.320  -4.238  0.00  0.00     0.023 H 
ATOM     30  H   LIG d   1       8.499  -4.561  -4.589  0.00  0.00     0.023 H 
ATOM     31  H   LIG d   1       9.003  -2.904  -4.179  0.00  0.00     0.023 H 
ENDBRANCH  25  28
ENDBRANCH  22  25
ENDBRANCH  19  22
ENDBRANCH  16  19
ENDBRANCH  12  16
ENDBRANCH   8  11
ENDBRANCH   5   8
ENDBRANCH   1   4
BRANCH   1  32
ATOM     32  C   LIG d   1       4.280  -2.953  -3.531  0.00  0.00    -0.050 C 
ATOM     33  H   LIG d   1       3.373  -3.469  -3.844  0.00  0.00     0.027 H 
ATOM     34  H   LIG d   1       5.028  -3.685  -3.227  0.00  0.00     0.027 H 
BRANCH  32  35
ATOM     35  C   LIG d   1       4.823  -2.123  -4.696  0.00  0.00    -0.053 C 
ATOM     36  H   LIG d   1       5.896  -1.978  -4.571  0.00  0.00     0.026 H 
ATOM     37  H   LIG d   1       4.325  -1.153  -4.715  0.00  0.00     0.026 H 
BRANCH  35  38
ATOM     38  C   LIG d   1       4.558  -2.857  -6.012  0.00  0.00    -0.053 C 
ATOM     39  H   LIG d   1       3.687  -3.503  -5.899  0.00  0.00     0.026 H 
ATOM     40  H   LIG d   1       5.427  -3.462  -6.272  0.00  0.00     0.026 H 
BRANCH  38  41
ATOM     41  C   LIG d   1       4.297  -1.837  -7.122  0.00  0.00    -0.053 C 
ATOM     42  H   LIG d   1       3.330  -2.040  -7.582  0.00  0.00     0.026 H 
ATOM     43  H   LIG d   1       5.081  -1.911  -7.876  0.00  0.00     0.026 H 
BRANCH  41  44
ATOM     44  C   LIG d   1       4.292  -0.427  -6.527  0.00  0.00    -0.053 C 
ATOM     45  H   LIG d   1       4.480  -0.484  -5.455  0.00  0.00     0.026 H 
ATOM     46  H   LIG d   1       5.071   0.169  -7.001  0.00  0.00     0.026 H 
BRANCH  44  47
ATOM     47  C   LIG d   1       2.930   0.225  -6.772  0.00  0.00    -0.053 C 
ATOM     48  H   LIG d   1       2.140  -0.442  -6.426  0.00  0.00     0.026 H 
ATOM     49  H   LIG d   1       2.875   1.168  -6.227  0.00  0.00     0.026 H 
BRANCH  47  50
ATOM     50  C   LIG d   1       2.754   0.491  -8.269  0.00  0.00    -0.048 C 
ATOM     51  H   LIG d   1       3.479  -0.098  -8.831  0.00  0.00     0.027 H 
ATOM     52  H   LIG d   1       1.745   0.210  -8.571  0.00  0.00     0.027 H 
BRANCH  50  53
ATOM     53  C   LIG d   1       2.976   1.979  -8.553  0.00  0.00    -0.013 C 
ATOM     54  H   LIG d   1       2.047   2.423  -8.910  0.00  0.00     0.033 H 
ATOM     55  H   LIG d   1       3.289   2.480  -7.637  0.00  0.00     0.033 H 
BRANCH  53  56
ATOM     56  C   LIG d   1       4.045   2.136  -9.603  0.00  0.00     0.042 C 
ATOM     57  O   LIG d   1       5.077   2.705  -9.334  0.00  0.00    -0.550 OA
ATOM     58  O   LIG d   1       3.850   1.646 -10.837  0.00  0.00    -0.550 OA
ENDBRANCH  53  56
ENDBRANCH  50  53
ENDBRANCH  47  50
ENDBRANCH  44  47
ENDBRANCH  41  44
ENDBRANCH  38  41
ENDBRANCH  35  38
ENDBRANCH  32  35
ENDBRANCH   1  32
TORSDOF 17
ENDMDL
MODEL 5
REMARK VINA RESULT:      -4.9      2.558      4.314
REMARK  17 active torsions:
REMARK  status: ('A' for Active; 'I' for Inactive)
REMARK    1  A    between atoms: C_1  and  C_2 
REMARK    2  A    between atoms: C_2  and  C_3 
REMARK    3  A    between atoms: C_3  and  C_4 
REMARK    4  A    between atoms: C_4  and  C_5 
REMARK    5  A    between atoms: C_5  and  C_6 
REMARK    6  A    between atoms: C_8  and  C_11 
REMARK    7  A    between atoms: C_11  and  C_12 
REMARK    8  A    between atoms: C_13  and  C_14 
REMARK    9  A    between atoms: C_14  and  C_15 
REMARK   10  A    between atoms: C_15  and  C_16 
REMARK   11  A    between atoms: C_16  and  C_17 
REMARK   12  A    between atoms: C_17  and  C_18 
REMARK   13  A    between atoms: C_18  and  C_19 
REMARK   14  A    between atoms: C_19  and  C_20 
REMARK   15  A    between atoms: C_20  and  C_21 
REMARK   16  A    between atoms: C_21  and  C_22 
REMARK   17  A    between atoms: C_22  and  C_23 
ROOT
ATOM      1  C   LIG d   1       3.126   0.238  -6.447  0.00  0.00    -0.035 C 
ATOM      2  H   LIG d   1       2.417  -0.003  -5.655  0.00  0.00     0.031 H 
ATOM      3  H   LIG d   1       3.231   1.320  -6.523  0.00  0.00     0.031 H 
ENDROOT
BRANCH   1   4
ATOM      4  C   LIG d   1       2.622  -0.312  -7.757  0.00  0.00    -0.088 C 
ATOM      5  C   LIG d   1       2.575   0.459  -8.815  0.00  0.00    -0.085 C 
ATOM      6  H   LIG d   1       2.102   0.105  -9.719  0.00  0.00     0.057 H 
ATOM      7  H   LIG d   1       2.302  -1.340  -7.823  0.00  0.00     0.057 H 
BRANCH   5   8
ATOM      8  C   LIG d   1       3.178   1.839  -8.770  0.00  0.00    -0.006 C 
ATOM      9  H   LIG d   1       2.482   2.554  -9.211  0.00  0.00     0.033 H 
ATOM     10  H   LIG d   1       3.376   2.116  -7.734  0.00  0.00     0.033 H 
BRANCH   8  11
ATOM     11  C   LIG d   1       4.488   1.849  -9.560  0.00  0.00     0.089 A 
ATOM     12  C   LIG d   1       5.792   1.669  -8.781  0.00  0.00     0.086 A 
ATOM     13  H   LIG d   1       5.725   1.545  -7.701  0.00  0.00     0.062 H 
ATOM     14  O   LIG d   1       5.395   2.929  -9.333  0.00  0.00    -0.368 OA
ATOM     15  H   LIG d   1       4.436   1.432 -10.566  0.00  0.00     0.062 H 
BRANCH  12  16
ATOM     16  C   LIG d   1       6.936   0.919  -9.467  0.00  0.00    -0.024 C 
ATOM     17  H   LIG d   1       6.527   0.248 -10.223  0.00  0.00     0.029 H 
ATOM     18  H   LIG d   1       7.607   1.636  -9.942  0.00  0.00     0.029 H 
BRANCH  16  19
ATOM     19  C   LIG d   1       7.710   0.107  -8.428  0.00  0.00    -0.051 C 
ATOM     20  H   LIG d   1       7.229  -0.862  -8.292  0.00  0.00     0.027 H 
ATOM     21  H   LIG d   1       8.734  -0.042  -8.772  0.00  0.00     0.027 H 
BRANCH  19  22
ATOM     22  C   LIG d   1       7.724   0.861  -7.098  0.00  0.00    -0.053 C 
ATOM     23  H   LIG d   1       8.299   1.779  -7.207  0.00  0.00     0.026 H 
ATOM     24  H   LIG d   1       6.702   1.105  -6.807  0.00  0.00     0.026 H 
BRANCH  22  25
ATOM     25  C   LIG d   1       8.363  -0.017  -6.020  0.00  0.00    -0.056 C 
ATOM     26  H   LIG d   1       7.647  -0.770  -5.693  0.00  0.00     0.026 H 
ATOM     27  H   LIG d   1       9.246  -0.508  -6.429  0.00  0.00     0.026 H 
BRANCH  25  28
ATOM     28  C   LIG d   1       8.769   0.852  -4.828  0.00  0.00    -0.065 C 
ATOM     29  H   LIG d   1       8.674   1.905  -5.096  0.00  0.00     0.023 H 
ATOM     30  H   LIG d   1       8.118   0.634  -3.981  0.00  0.00     0.023 H 
ATOM     31  H   LIG d   1       9.802   0.637  -4.556  0.00  0.00     0.023 H 
ENDBRANCH  25  28
ENDBRANCH  22  25
ENDBRANCH  19  22
ENDBRANCH  16  19
ENDBRANCH  12  16
ENDBRANCH   8  11
ENDBRANCH   5   8
ENDBRANCH   1   4
BRANCH   1  32
ATOM     32  C   LIG d   1       4.485  -0.385  -6.121  0.00  0.00    -0.050 C 
ATOM     33  H   LIG d   1       4.711  -0.233  -5.066  0.00  0.00     0.027 H 
ATOM     34  H   LIG d   1       5.257   0.087  -6.729  0.00  0.00     0.027 H 
BRANCH  32  35
ATOM     35  C   LIG d   1       4.444  -1.885  -6.422  0.00  0.00    -0.053 C 
ATOM     36  H   LIG d   1       5.180  -2.121  -7.191  0.00  0.00     0.026 H 
ATOM     37  H   LIG d   1       3.449  -2.157  -6.775  0.00  0.00     0.026 H 
BRANCH  35  38
ATOM     38  C   LIG d   1       4.767  -2.670  -5.150  0.00  0.00    -0.053 C 
ATOM     39  H   LIG d   1       5.207  -3.630  -5.418  0.00  0.00     0.026 H 
ATOM     40  H   LIG d   1       3.850  -2.836  -4.583  0.00  0.00     0.026 H 
BRANCH  38  41
ATOM     41  C   LIG d   1       5.757  -1.875  -4.297  0.00  0.00    -0.053 C 
ATOM     42  H   LIG d   1       5.776  -0.839  -4.634  0.00  0.00     0.026 H 
ATOM     43  H   LIG d   1       6.752  -2.308  -4.397  0.00  0.00     0.026 H 
BRANCH  41  44
ATOM     44  C   LIG d   1       5.323  -1.926  -2.831  0.00  0.00    -0.053 C 
ATOM     45  H   LIG d   1       5.745  -2.812  -2.357  0.00  0.00     0.026 H 
ATOM     46  H   LIG d   1       5.678  -1.034  -2.315  0.00  0.00     0.026 H 
BRANCH  44  47
ATOM     47  C   LIG d   1       3.796  -1.986  -2.753  0.00  0.00    -0.053 C 
ATOM     48  H   LIG d   1       3.403  -2.429  -3.668  0.00  0.00     0.026 H 
ATOM     49  H   LIG d   1       3.499  -2.593  -1.898  0.00  0.00     0.026 H 
BRANCH  47  50
ATOM     50  C   LIG d   1       3.238  -0.570  -2.591  0.00  0.00    -0.048 C 
ATOM     51  H   LIG d   1       3.014  -0.152  -3.572  0.00  0.00     0.027 H 
ATOM     52  H   LIG d   1       2.325  -0.606  -1.995  0.00  0.00     0.027 H 
BRANCH  50  53
ATOM     53  C   LIG d   1       4.273   0.309  -1.885  0.00  0.00    -0.013 C 
ATOM     54  H   LIG d   1       3.845   0.706  -0.964  0.00  0.00     0.033 H 
ATOM     55  H   LIG d   1       5.154  -0.286  -1.649  0.00  0.00     0.033 H 
BRANCH  53  56
ATOM     56  C   LIG d   1       4.663   1.449  -2.789  0.00  0.00     0.042 C 
ATOM     57  O   LIG d   1       5.831   1.676  -3.006  0.00  0.00    -0.550 OA
ATOM     58  O   LIG d   1       3.716   2.214  -3.353  0.00  0.00    -0.550 OA
ENDBRANCH  53  56
ENDBRANCH  50  53
ENDBRANCH  47  50
ENDBRANCH  44  47
ENDBRANCH  41  44
ENDBRANCH  38  41
ENDBRANCH  35  38
ENDBRANCH  32  35
ENDBRANCH   1  32
TORSDOF 17
ENDMDL
MODEL 6
REMARK VINA RESULT:      -4.9      2.478      3.820
REMARK  17 active torsions:
REMARK  status: ('A' for Active; 'I' for Inactive)
REMARK    1  A    between atoms: C_1  and  C_2 
REMARK    2  A    between atoms: C_2  and  C_3 
REMARK    3  A    between atoms: C_3  and  C_4 
REMARK    4  A    between atoms: C_4  and  C_5 
REMARK    5  A    between atoms: C_5  and  C_6 
REMARK    6  A    between atoms: C_8  and  C_11 
REMARK    7  A    between atoms: C_11  and  C_12 
REMARK    8  A    between atoms: C_13  and  C_14 
REMARK    9  A    between atoms: C_14  and  C_15 
REMARK   10  A    between atoms: C_15  and  C_16 
REMARK   11  A    between atoms: C_16  and  C_17 
REMARK   12  A    between atoms: C_17  and  C_18 
REMARK   13  A    between atoms: C_18  and  C_19 
REMARK   14  A    between atoms: C_19  and  C_20 
REMARK   15  A    between atoms: C_20  and  C_21 
REMARK   16  A    between atoms: C_21  and  C_22 
REMARK   17  A    between atoms: C_22  and  C_23 
ROOT
ATOM      1  C   LIG d   1       6.251  -2.116  -5.290  0.00  0.00    -0.035 C 
ATOM      2  H   LIG d   1       6.166  -1.030  -5.298  0.00  0.00     0.031 H 
ATOM      3  H   LIG d   1       7.247  -2.406  -5.625  0.00  0.00     0.031 H 
ENDROOT
BRANCH   1   4
ATOM      4  C   LIG d   1       5.218  -2.707  -6.216  0.00  0.00    -0.088 C 
ATOM      5  C   LIG d   1       4.328  -1.932  -6.784  0.00  0.00    -0.085 C 
ATOM      6  H   LIG d   1       3.516  -2.367  -7.348  0.00  0.00     0.057 H 
ATOM      7  H   LIG d   1       5.213  -3.769  -6.411  0.00  0.00     0.057 H 
BRANCH   5   8
ATOM      8  C   LIG d   1       4.437  -0.435  -6.650  0.00  0.00    -0.006 C 
ATOM      9  H   LIG d   1       4.298  -0.154  -5.606  0.00  0.00     0.033 H 
ATOM     10  H   LIG d   1       5.421  -0.111  -6.987  0.00  0.00     0.033 H 
BRANCH   8  11
ATOM     11  C   LIG d   1       3.359   0.233  -7.506  0.00  0.00     0.089 A 
ATOM     12  C   LIG d   1       3.811   1.252  -8.554  0.00  0.00     0.086 A 
ATOM     13  H   LIG d   1       4.878   1.453  -8.639  0.00  0.00     0.062 H 
ATOM     14  O   LIG d   1       3.154   1.637  -7.342  0.00  0.00    -0.368 OA
ATOM     15  H   LIG d   1       2.491  -0.384  -7.738  0.00  0.00     0.062 H 
BRANCH  12  16
ATOM     16  C   LIG d   1       3.012   1.338  -9.856  0.00  0.00    -0.024 C 
ATOM     17  H   LIG d   1       2.035   0.875  -9.714  0.00  0.00     0.029 H 
ATOM     18  H   LIG d   1       2.882   2.384 -10.134  0.00  0.00     0.029 H 
BRANCH  16  19
ATOM     19  C   LIG d   1       3.766   0.605 -10.967  0.00  0.00    -0.051 C 
ATOM     20  H   LIG d   1       4.044   1.315 -11.747  0.00  0.00     0.027 H 
ATOM     21  H   LIG d   1       4.666   0.149 -10.556  0.00  0.00     0.027 H 
BRANCH  19  22
ATOM     22  C   LIG d   1       2.870  -0.481 -11.562  0.00  0.00    -0.053 C 
ATOM     23  H   LIG d   1       2.472  -0.141 -12.518  0.00  0.00     0.026 H 
ATOM     24  H   LIG d   1       3.452  -1.390 -11.713  0.00  0.00     0.026 H 
BRANCH  22  25
ATOM     25  C   LIG d   1       1.713  -0.772 -10.603  0.00  0.00    -0.056 C 
ATOM     26  H   LIG d   1       1.690  -0.012  -9.822  0.00  0.00     0.026 H 
ATOM     27  H   LIG d   1       0.773  -0.756 -11.154  0.00  0.00     0.026 H 
BRANCH  25  28
ATOM     28  C   LIG d   1       1.910  -2.150  -9.968  0.00  0.00    -0.065 C 
ATOM     29  H   LIG d   1       1.157  -2.304  -9.195  0.00  0.00     0.023 H 
ATOM     30  H   LIG d   1       1.806  -2.919 -10.734  0.00  0.00     0.023 H 
ATOM     31  H   LIG d   1       2.904  -2.208  -9.527  0.00  0.00     0.023 H 
ENDBRANCH  25  28
ENDBRANCH  22  25
ENDBRANCH  19  22
ENDBRANCH  16  19
ENDBRANCH  12  16
ENDBRANCH   8  11
ENDBRANCH   5   8
ENDBRANCH   1   4
BRANCH   1  32
ATOM     32  C   LIG d   1       6.019  -2.635  -3.870  0.00  0.00    -0.050 C 
ATOM     33  H   LIG d   1       6.377  -1.899  -3.151  0.00  0.00     0.027 H 
ATOM     34  H   LIG d   1       6.560  -3.571  -3.732  0.00  0.00     0.027 H 
BRANCH  32  35
ATOM     35  C   LIG d   1       4.523  -2.874  -3.652  0.00  0.00    -0.053 C 
ATOM     36  H   LIG d   1       4.352  -3.928  -3.431  0.00  0.00     0.026 H 
ATOM     37  H   LIG d   1       3.977  -2.598  -4.554  0.00  0.00     0.026 H 
BRANCH  35  38
ATOM     38  C   LIG d   1       4.036  -2.022  -2.479  0.00  0.00    -0.053 C 
ATOM     39  H   LIG d   1       4.843  -1.369  -2.145  0.00  0.00     0.026 H 
ATOM     40  H   LIG d   1       3.731  -2.672  -1.659  0.00  0.00     0.026 H 
BRANCH  38  41
ATOM     41  C   LIG d   1       2.845  -1.172  -2.926  0.00  0.00    -0.053 C 
ATOM     42  H   LIG d   1       1.997  -1.362  -2.269  0.00  0.00     0.026 H 
ATOM     43  H   LIG d   1       2.577  -1.433  -3.950  0.00  0.00     0.026 H 
BRANCH  41  44
ATOM     44  C   LIG d   1       3.221   0.309  -2.859  0.00  0.00    -0.053 C 
ATOM     45  H   LIG d   1       3.416   0.681  -3.865  0.00  0.00     0.026 H 
ATOM     46  H   LIG d   1       2.400   0.873  -2.416  0.00  0.00     0.026 H 
BRANCH  44  47
ATOM     47  C   LIG d   1       4.477   0.478  -2.000  0.00  0.00    -0.053 C 
ATOM     48  H   LIG d   1       4.198   0.867  -1.021  0.00  0.00     0.026 H 
ATOM     49  H   LIG d   1       4.968  -0.489  -1.881  0.00  0.00     0.026 H 
BRANCH  47  50
ATOM     50  C   LIG d   1       5.435   1.454  -2.684  0.00  0.00    -0.048 C 
ATOM     51  H   LIG d   1       4.927   1.939  -3.519  0.00  0.00     0.027 H 
ATOM     52  H   LIG d   1       5.756   2.210  -1.967  0.00  0.00     0.027 H 
BRANCH  50  53
ATOM     53  C   LIG d   1       6.657   0.692  -3.204  0.00  0.00    -0.013 C 
ATOM     54  H   LIG d   1       7.204   0.268  -2.362  0.00  0.00     0.033 H 
ATOM     55  H   LIG d   1       6.330  -0.109  -3.866  0.00  0.00     0.033 H 
BRANCH  53  56
ATOM     56  C   LIG d   1       7.554   1.637  -3.961  0.00  0.00     0.042 C 
ATOM     57  O   LIG d   1       8.392   2.278  -3.370  0.00  0.00    -0.550 OA
ATOM     58  O   LIG d   1       7.422   1.767  -5.289  0.00  0.00    -0.550 OA
ENDBRANCH  53  56
ENDBRANCH  50  53
ENDBRANCH  47  50
ENDBRANCH  44  47
ENDBRANCH  41  44
ENDBRANCH  38  41
ENDBRANCH  35  38
ENDBRANCH  32  35
ENDBRANCH   1  32
TORSDOF 17
ENDMDL
MODEL 7
REMARK VINA RESULT:      -4.9      1.756      3.480
REMARK  17 active torsions:
REMARK  status: ('A' for Active; 'I' for Inactive)
REMARK    1  A    between atoms: C_1  and  C_2 
REMARK    2  A    between atoms: C_2  and  C_3 
REMARK    3  A    between atoms: C_3  and  C_4 
REMARK    4  A    between atoms: C_4  and  C_5 
REMARK    5  A    between atoms: C_5  and  C_6 
REMARK    6  A    between atoms: C_8  and  C_11 
REMARK    7  A    between atoms: C_11  and  C_12 
REMARK    8  A    between atoms: C_13  and  C_14 
REMARK    9  A    between atoms: C_14  and  C_15 
REMARK   10  A    between atoms: C_15  and  C_16 
REMARK   11  A    between atoms: C_16  and  C_17 
REMARK   12  A    between atoms: C_17  and  C_18 
REMARK   13  A    between atoms: C_18  and  C_19 
REMARK   14  A    between atoms: C_19  and  C_20 
REMARK   15  A    between atoms: C_20  and  C_21 
REMARK   16  A    between atoms: C_21  and  C_22 
REMARK   17  A    between atoms: C_22  and  C_23 
ROOT
ATOM      1  C   LIG d   1       3.500   0.910  -2.310  0.00  0.00    -0.035 C 
ATOM      2  H   LIG d   1       2.970   1.244  -1.419  0.00  0.00     0.031 H 
ATOM      3  H   LIG d   1       3.423   1.672  -3.086  0.00  0.00     0.031 H 
ENDROOT
BRANCH   1   4
ATOM      4  C   LIG d   1       2.890  -0.376  -2.807  0.00  0.00    -0.088 C 
ATOM      5  C   LIG d   1       2.434  -0.453  -4.033  0.00  0.00    -0.085 C 
ATOM      6  H   LIG d   1       1.887  -1.328  -4.351  0.00  0.00     0.057 H 
ATOM      7  H   LIG d   1       2.829  -1.232  -2.153  0.00  0.00     0.057 H 
BRANCH   5   8
ATOM      8  C   LIG d   1       2.670   0.680  -4.997  0.00  0.00    -0.006 C 
ATOM      9  H   LIG d   1       1.861   1.406  -4.909  0.00  0.00     0.033 H 
ATOM     10  H   LIG d   1       3.619   1.163  -4.766  0.00  0.00     0.033 H 
BRANCH   8  11
ATOM     11  C   LIG d   1       2.710   0.134  -6.426  0.00  0.00     0.089 A 
ATOM     12  C   LIG d   1       4.080  -0.029  -7.088  0.00  0.00     0.086 A 
ATOM     13  H   LIG d   1       4.960   0.253  -6.512  0.00  0.00     0.062 H 
ATOM     14  O   LIG d   1       3.165   1.007  -7.461  0.00  0.00    -0.368 OA
ATOM     15  H   LIG d   1       1.935  -0.591  -6.676  0.00  0.00     0.062 H 
BRANCH  12  16
ATOM     16  C   LIG d   1       4.268  -1.197  -8.060  0.00  0.00    -0.024 C 
ATOM     17  H   LIG d   1       5.022  -1.879  -7.666  0.00  0.00     0.029 H 
ATOM     18  H   LIG d   1       3.323  -1.728  -8.176  0.00  0.00     0.029 H 
BRANCH  16  19
ATOM     19  C   LIG d   1       4.723  -0.662  -9.418  0.00  0.00    -0.051 C 
ATOM     20  H   LIG d   1       4.732   0.428  -9.395  0.00  0.00     0.027 H 
ATOM     21  H   LIG d   1       5.726  -1.028  -9.635  0.00  0.00     0.027 H 
BRANCH  19  22
ATOM     22  C   LIG d   1       3.759  -1.141 -10.504  0.00  0.00    -0.053 C 
ATOM     23  H   LIG d   1       4.259  -1.876 -11.134  0.00  0.00     0.026 H 
ATOM     24  H   LIG d   1       2.884  -1.595 -10.040  0.00  0.00     0.026 H 
BRANCH  22  25
ATOM     25  C   LIG d   1       3.320   0.049 -11.360  0.00  0.00    -0.056 C 
ATOM     26  H   LIG d   1       3.650  -0.100 -12.387  0.00  0.00     0.026 H 
ATOM     27  H   LIG d   1       2.234   0.133 -11.335  0.00  0.00     0.026 H 
BRANCH  25  28
ATOM     28  C   LIG d   1       3.943   1.333 -10.806  0.00  0.00    -0.065 C 
ATOM     29  H   LIG d   1       4.642   1.742 -11.535  0.00  0.00     0.023 H 
ATOM     30  H   LIG d   1       3.156   2.062 -10.610  0.00  0.00     0.023 H 
ATOM     31  H   LIG d   1       4.471   1.111  -9.879  0.00  0.00     0.023 H 
ENDBRANCH  25  28
ENDBRANCH  22  25
ENDBRANCH  19  22
ENDBRANCH  16  19
ENDBRANCH  12  16
ENDBRANCH   8  11
ENDBRANCH   5   8
ENDBRANCH   1   4
BRANCH   1  32
ATOM     32  C   LIG d   1       4.974   0.676  -1.969  0.00  0.00    -0.050 C 
ATOM     33  H   LIG d   1       5.162  -0.394  -1.887  0.00  0.00     0.027 H 
ATOM     34  H   LIG d   1       5.209   1.161  -1.021  0.00  0.00     0.027 H 
BRANCH  32  35
ATOM     35  C   LIG d   1       5.852   1.265  -3.075  0.00  0.00    -0.053 C 
ATOM     36  H   LIG d   1       6.226   2.240  -2.761  0.00  0.00     0.026 H 
ATOM     37  H   LIG d   1       5.264   1.377  -3.985  0.00  0.00     0.026 H 
BRANCH  35  38
ATOM     38  C   LIG d   1       7.032   0.329  -3.341  0.00  0.00    -0.053 C 
ATOM     39  H   LIG d   1       7.811   0.507  -2.599  0.00  0.00     0.026 H 
ATOM     40  H   LIG d   1       7.430   0.520  -4.339  0.00  0.00     0.026 H 
BRANCH  38  41
ATOM     41  C   LIG d   1       6.562  -1.124  -3.249  0.00  0.00    -0.053 C 
ATOM     42  H   LIG d   1       5.688  -1.182  -2.600  0.00  0.00     0.026 H 
ATOM     43  H   LIG d   1       7.362  -1.740  -2.838  0.00  0.00     0.026 H 
BRANCH  41  44
ATOM     44  C   LIG d   1       6.194  -1.630  -4.646  0.00  0.00    -0.053 C 
ATOM     45  H   LIG d   1       5.646  -0.854  -5.181  0.00  0.00     0.026 H 
ATOM     46  H   LIG d   1       7.103  -1.876  -5.194  0.00  0.00     0.026 H 
BRANCH  44  47
ATOM     47  C   LIG d   1       5.320  -2.879  -4.521  0.00  0.00    -0.053 C 
ATOM     48  H   LIG d   1       5.666  -3.483  -3.682  0.00  0.00     0.026 H 
ATOM     49  H   LIG d   1       4.284  -2.583  -4.354  0.00  0.00     0.026 H 
BRANCH  47  50
ATOM     50  C   LIG d   1       5.413  -3.697  -5.811  0.00  0.00    -0.048 C 
ATOM     51  H   LIG d   1       4.465  -3.642  -6.346  0.00  0.00     0.027 H 
ATOM     52  H   LIG d   1       6.208  -3.296  -6.439  0.00  0.00     0.027 H 
BRANCH  50  53
ATOM     53  C   LIG d   1       5.721  -5.157  -5.468  0.00  0.00    -0.013 C 
ATOM     54  H   LIG d   1       6.533  -5.515  -6.101  0.00  0.00     0.033 H 
ATOM     55  H   LIG d   1       6.017  -5.229  -4.422  0.00  0.00     0.033 H 
BRANCH  53  56
ATOM     56  C   LIG d   1       4.494  -5.998  -5.703  0.00  0.00     0.042 C 
ATOM     57  O   LIG d   1       3.468  -5.480  -6.078  0.00  0.00    -0.550 OA
ATOM     58  O   LIG d   1       4.538  -7.323  -5.496  0.00  0.00    -0.550 OA
ENDBRANCH  53  56
ENDBRANCH  50  53
ENDBRANCH  47  50
ENDBRANCH  44  47
ENDBRANCH  41  44
ENDBRANCH  38  41
ENDBRANCH  35  38
ENDBRANCH  32  35
ENDBRANCH   1  32
TORSDOF 17
ENDMDL
MODEL 8
REMARK VINA RESULT:      -4.8      2.487      3.813
REMARK  17 active torsions:
REMARK  status: ('A' for Active; 'I' for Inactive)
REMARK    1  A    between atoms: C_1  and  C_2 
REMARK    2  A    between atoms: C_2  and  C_3 
REMARK    3  A    between atoms: C_3  and  C_4 
REMARK    4  A    between atoms: C_4  and  C_5 
REMARK    5  A    between atoms: C_5  and  C_6 
REMARK    6  A    between atoms: C_8  and  C_11 
REMARK    7  A    between atoms: C_11  and  C_12 
REMARK    8  A    between atoms: C_13  and  C_14 
REMARK    9  A    between atoms: C_14  and  C_15 
REMARK   10  A    between atoms: C_15  and  C_16 
REMARK   11  A    between atoms: C_16  and  C_17 
REMARK   12  A    between atoms: C_17  and  C_18 
REMARK   13  A    between atoms: C_18  and  C_19 
REMARK   14  A    between atoms: C_19  and  C_20 
REMARK   15  A    between atoms: C_20  and  C_21 
REMARK   16  A    between atoms: C_21  and  C_22 
REMARK   17  A    between atoms: C_22  and  C_23 
ROOT
ATOM      1  C   LIG d   1       3.274   0.269  -6.427  0.00  0.00    -0.035 C 
ATOM      2  H   LIG d   1       3.720   1.254  -6.555  0.00  0.00     0.031 H 
ATOM      3  H   LIG d   1       4.053  -0.454  -6.184  0.00  0.00     0.031 H 
ENDROOT
BRANCH   1   4
ATOM      4  C   LIG d   1       2.588  -0.143  -7.705  0.00  0.00    -0.088 C 
ATOM      5  C   LIG d   1       2.545   0.684  -8.720  0.00  0.00    -0.085 C 
ATOM      6  H   LIG d   1       1.951   0.441  -9.588  0.00  0.00     0.057 H 
ATOM      7  H   LIG d   1       2.133  -1.118  -7.783  0.00  0.00     0.057 H 
BRANCH   5   8
ATOM      8  C   LIG d   1       3.323   1.974  -8.675  0.00  0.00    -0.006 C 
ATOM      9  H   LIG d   1       2.690   2.791  -9.023  0.00  0.00     0.033 H 
ATOM     10  H   LIG d   1       3.641   2.171  -7.652  0.00  0.00     0.033 H 
BRANCH   8  11
ATOM     11  C   LIG d   1       4.551   1.860  -9.579  0.00  0.00     0.089 A 
ATOM     12  C   LIG d   1       5.844   1.325  -8.961  0.00  0.00     0.086 A 
ATOM     13  H   LIG d   1       5.828   1.053  -7.906  0.00  0.00     0.062 H 
ATOM     14  O   LIG d   1       5.667   2.706  -9.296  0.00  0.00    -0.368 OA
ATOM     15  H   LIG d   1       4.349   1.618 -10.623  0.00  0.00     0.062 H 
BRANCH  12  16
ATOM     16  C   LIG d   1       6.768   0.489  -9.850  0.00  0.00    -0.024 C 
ATOM     17  H   LIG d   1       6.548   0.697 -10.897  0.00  0.00     0.029 H 
ATOM     18  H   LIG d   1       7.806   0.746  -9.638  0.00  0.00     0.029 H 
BRANCH  16  19
ATOM     19  C   LIG d   1       6.541  -0.996  -9.566  0.00  0.00    -0.051 C 
ATOM     20  H   LIG d   1       5.689  -1.352 -10.147  0.00  0.00     0.027 H 
ATOM     21  H   LIG d   1       7.431  -1.560  -9.847  0.00  0.00     0.027 H 
BRANCH  19  22
ATOM     22  C   LIG d   1       6.261  -1.195  -8.076  0.00  0.00    -0.053 C 
ATOM     23  H   LIG d   1       7.055  -0.729  -7.493  0.00  0.00     0.026 H 
ATOM     24  H   LIG d   1       5.306  -0.736  -7.821  0.00  0.00     0.026 H 
BRANCH  22  25
ATOM     25  C   LIG d   1       6.209  -2.691  -7.761  0.00  0.00    -0.056 C 
ATOM     26  H   LIG d   1       6.415  -3.260  -8.666  0.00  0.00     0.026 H 
ATOM     27  H   LIG d   1       6.956  -2.929  -7.004  0.00  0.00     0.026 H 
BRANCH  25  28
ATOM     28  C   LIG d   1       4.818  -3.054  -7.236  0.00  0.00    -0.065 C 
ATOM     29  H   LIG d   1       4.088  -2.950  -8.039  0.00  0.00     0.023 H 
ATOM     30  H   LIG d   1       4.822  -4.084  -6.880  0.00  0.00     0.023 H 
ATOM     31  H   LIG d   1       4.554  -2.388  -6.415  0.00  0.00     0.023 H 
ENDBRANCH  25  28
ENDBRANCH  22  25
ENDBRANCH  19  22
ENDBRANCH  16  19
ENDBRANCH  12  16
ENDBRANCH   8  11
ENDBRANCH   5   8
ENDBRANCH   1   4
BRANCH   1  32
ATOM     32  C   LIG d   1       2.250   0.316  -5.291  0.00  0.00    -0.050 C 
ATOM     33  H   LIG d   1       1.668  -0.604  -5.288  0.00  0.00     0.027 H 
ATOM     34  H   LIG d   1       1.585   1.167  -5.436  0.00  0.00     0.027 H 
BRANCH  32  35
ATOM     35  C   LIG d   1       2.979   0.462  -3.954  0.00  0.00    -0.053 C 
ATOM     36  H   LIG d   1       2.687   1.400  -3.480  0.00  0.00     0.026 H 
ATOM     37  H   LIG d   1       4.056   0.462  -4.125  0.00  0.00     0.026 H 
BRANCH  35  38
ATOM     38  C   LIG d   1       2.608  -0.707  -3.040  0.00  0.00    -0.053 C 
ATOM     39  H   LIG d   1       2.054  -1.453  -3.612  0.00  0.00     0.026 H 
ATOM     40  H   LIG d   1       1.988  -0.345  -2.219  0.00  0.00     0.026 H 
BRANCH  38  41
ATOM     41  C   LIG d   1       3.882  -1.339  -2.476  0.00  0.00    -0.053 C 
ATOM     42  H   LIG d   1       3.667  -1.787  -1.507  0.00  0.00     0.026 H 
ATOM     43  H   LIG d   1       4.648  -0.572  -2.361  0.00  0.00     0.026 H 
BRANCH  41  44
ATOM     44  C   LIG d   1       4.383  -2.420  -3.437  0.00  0.00    -0.053 C 
ATOM     45  H   LIG d   1       4.164  -3.404  -3.023  0.00  0.00     0.026 H 
ATOM     46  H   LIG d   1       3.884  -2.310  -4.399  0.00  0.00     0.026 H 
BRANCH  44  47
ATOM     47  C   LIG d   1       5.894  -2.271  -3.627  0.00  0.00    -0.053 C 
ATOM     48  H   LIG d   1       6.379  -2.218  -2.653  0.00  0.00     0.026 H 
ATOM     49  H   LIG d   1       6.277  -3.131  -4.178  0.00  0.00     0.026 H 
BRANCH  47  50
ATOM     50  C   LIG d   1       6.186  -0.991  -4.413  0.00  0.00    -0.048 C 
ATOM     51  H   LIG d   1       6.540  -1.250  -5.411  0.00  0.00     0.027 H 
ATOM     52  H   LIG d   1       5.274  -0.399  -4.494  0.00  0.00     0.027 H 
BRANCH  50  53
ATOM     53  C   LIG d   1       7.259  -0.178  -3.686  0.00  0.00    -0.013 C 
ATOM     54  H   LIG d   1       7.354  -0.537  -2.661  0.00  0.00     0.033 H 
ATOM     55  H   LIG d   1       8.212  -0.294  -4.201  0.00  0.00     0.033 H 
BRANCH  53  56
ATOM     56  C   LIG d   1       6.866   1.276  -3.674  0.00  0.00     0.042 C 
ATOM     57  O   LIG d   1       5.990   1.659  -2.934  0.00  0.00    -0.550 OA
ATOM     58  O   LIG d   1       7.488   2.146  -4.484  0.00  0.00    -0.550 OA
ENDBRANCH  53  56
ENDBRANCH  50  53
ENDBRANCH  47  50
ENDBRANCH  44  47
ENDBRANCH  41  44
ENDBRANCH  38  41
ENDBRANCH  35  38
ENDBRANCH  32  35
ENDBRANCH   1  32
TORSDOF 17
ENDMDL
MODEL 9
REMARK VINA RESULT:      -4.8      2.570      4.459
REMARK  17 active torsions:
REMARK  status: ('A' for Active; 'I' for Inactive)
REMARK    1  A    between atoms: C_1  and  C_2 
REMARK    2  A    between atoms: C_2  and  C_3 
REMARK    3  A    between atoms: C_3  and  C_4 
REMARK    4  A    between atoms: C_4  and  C_5 
REMARK    5  A    between atoms: C_5  and  C_6 
REMARK    6  A    between atoms: C_8  and  C_11 
REMARK    7  A    between atoms: C_11  and  C_12 
REMARK    8  A    between atoms: C_13  and  C_14 
REMARK    9  A    between atoms: C_14  and  C_15 
REMARK   10  A    between atoms: C_15  and  C_16 
REMARK   11  A    between atoms: C_16  and  C_17 
REMARK   12  A    between atoms: C_17  and  C_18 
REMARK   13  A    between atoms: C_18  and  C_19 
REMARK   14  A    between atoms: C_19  and  C_20 
REMARK   15  A    between atoms: C_20  and  C_21 
REMARK   16  A    between atoms: C_21  and  C_22 
REMARK   17  A    between atoms: C_22  and  C_23 
ROOT
ATOM      1  C   LIG d   1       2.787   1.493  -7.730  0.00  0.00    -0.035 C 
ATOM      2  H   LIG d   1       1.916   1.957  -7.267  0.00  0.00     0.031 H 
ATOM      3  H   LIG d   1       3.693   1.989  -7.378  0.00  0.00     0.031 H 
ENDROOT
BRANCH   1   4
ATOM      4  C   LIG d   1       2.692   1.626  -9.228  0.00  0.00    -0.088 C 
ATOM      5  C   LIG d   1       3.708   2.092  -9.910  0.00  0.00    -0.085 C 
ATOM      6  H   LIG d   1       3.600   2.302 -10.964  0.00  0.00     0.057 H 
ATOM      7  H   LIG d   1       1.786   1.336  -9.739  0.00  0.00     0.057 H 
BRANCH   5   8
ATOM      8  C   LIG d   1       5.027   2.336  -9.225  0.00  0.00    -0.006 C 
ATOM      9  H   LIG d   1       5.491   3.232  -9.639  0.00  0.00     0.033 H 
ATOM     10  H   LIG d   1       4.862   2.473  -8.156  0.00  0.00     0.033 H 
BRANCH   8  11
ATOM     11  C   LIG d   1       5.949   1.136  -9.449  0.00  0.00     0.089 A 
ATOM     12  C   LIG d   1       6.478   0.403  -8.215  0.00  0.00     0.086 A 
ATOM     13  H   LIG d   1       6.174   0.772  -7.236  0.00  0.00     0.062 H 
ATOM     14  O   LIG d   1       7.307   1.248  -9.020  0.00  0.00    -0.368 OA
ATOM     15  H   LIG d   1       5.746   0.545 -10.343  0.00  0.00     0.062 H 
BRANCH  12  16
ATOM     16  C   LIG d   1       6.689  -1.110  -8.319  0.00  0.00    -0.024 C 
ATOM     17  H   LIG d   1       5.720  -1.609  -8.355  0.00  0.00     0.029 H 
ATOM     18  H   LIG d   1       7.248  -1.336  -9.227  0.00  0.00     0.029 H 
BRANCH  16  19
ATOM     19  C   LIG d   1       7.472  -1.601  -7.101  0.00  0.00    -0.051 C 
ATOM     20  H   LIG d   1       7.944  -2.556  -7.333  0.00  0.00     0.027 H 
ATOM     21  H   LIG d   1       8.240  -0.871  -6.844  0.00  0.00     0.027 H 
BRANCH  19  22
ATOM     22  C   LIG d   1       6.519  -1.777  -5.918  0.00  0.00    -0.053 C 
ATOM     23  H   LIG d   1       6.965  -1.341  -5.025  0.00  0.00     0.026 H 
ATOM     24  H   LIG d   1       5.575  -1.277  -6.134  0.00  0.00     0.026 H 
BRANCH  22  25
ATOM     25  C   LIG d   1       6.264  -3.267  -5.685  0.00  0.00    -0.056 C 
ATOM     26  H   LIG d   1       7.035  -3.851  -6.187  0.00  0.00     0.026 H 
ATOM     27  H   LIG d   1       6.289  -3.477  -4.616  0.00  0.00     0.026 H 
BRANCH  25  28
ATOM     28  C   LIG d   1       4.892  -3.645  -6.247  0.00  0.00    -0.065 C 
ATOM     29  H   LIG d   1       4.627  -2.959  -7.052  0.00  0.00     0.023 H 
ATOM     30  H   LIG d   1       4.927  -4.663  -6.636  0.00  0.00     0.023 H 
ATOM     31  H   LIG d   1       4.145  -3.584  -5.456  0.00  0.00     0.023 H 
ENDBRANCH  25  28
ENDBRANCH  22  25
ENDBRANCH  19  22
ENDBRANCH  16  19
ENDBRANCH  12  16
ENDBRANCH   8  11
ENDBRANCH   5   8
ENDBRANCH   1   4
BRANCH   1  32
ATOM     32  C   LIG d   1       2.838   0.012  -7.350  0.00  0.00    -0.050 C 
ATOM     33  H   LIG d   1       3.491  -0.518  -8.043  0.00  0.00     0.027 H 
ATOM     34  H   LIG d   1       1.834  -0.411  -7.402  0.00  0.00     0.027 H 
BRANCH  32  35
ATOM     35  C   LIG d   1       3.379  -0.132  -5.927  0.00  0.00    -0.053 C 
ATOM     36  H   LIG d   1       4.323   0.406  -5.841  0.00  0.00     0.026 H 
ATOM     37  H   LIG d   1       3.540  -1.187  -5.704  0.00  0.00     0.026 H 
BRANCH  35  38
ATOM     38  C   LIG d   1       2.369   0.450  -4.936  0.00  0.00    -0.053 C 
ATOM     39  H   LIG d   1       1.399   0.552  -5.424  0.00  0.00     0.026 H 
ATOM     40  H   LIG d   1       2.711   1.429  -4.600  0.00  0.00     0.026 H 
BRANCH  38  41
ATOM     41  C   LIG d   1       2.238  -0.485  -3.732  0.00  0.00    -0.053 C 
ATOM     42  H   LIG d   1       1.282  -1.004  -3.777  0.00  0.00     0.026 H 
ATOM     43  H   LIG d   1       2.293   0.097  -2.812  0.00  0.00     0.026 H 
BRANCH  41  44
ATOM     44  C   LIG d   1       3.376  -1.509  -3.756  0.00  0.00    -0.053 C 
ATOM     45  H   LIG d   1       3.020  -2.437  -4.204  0.00  0.00     0.026 H 
ATOM     46  H   LIG d   1       4.205  -1.116  -4.344  0.00  0.00     0.026 H 
BRANCH  44  47
ATOM     47  C   LIG d   1       3.847  -1.780  -2.326  0.00  0.00    -0.053 C 
ATOM     48  H   LIG d   1       2.984  -1.970  -1.689  0.00  0.00     0.026 H 
ATOM     49  H   LIG d   1       4.504  -2.651  -2.319  0.00  0.00     0.026 H 
BRANCH  47  50
ATOM     50  C   LIG d   1       4.611  -0.563  -1.802  0.00  0.00    -0.048 C 
ATOM     51  H   LIG d   1       3.944   0.299  -1.767  0.00  0.00     0.027 H 
ATOM     52  H   LIG d   1       4.985  -0.773  -0.799  0.00  0.00     0.027 H 
BRANCH  50  53
ATOM     53  C   LIG d   1       5.789  -0.259  -2.731  0.00  0.00    -0.013 C 
ATOM     54  H   LIG d   1       6.722  -0.516  -2.231  0.00  0.00     0.033 H 
ATOM     55  H   LIG d   1       5.692  -0.847  -3.643  0.00  0.00     0.033 H 
BRANCH  53  56
ATOM     56  C   LIG d   1       5.792   1.207  -3.076  0.00  0.00     0.042 C 
ATOM     57  O   LIG d   1       6.817   1.743  -3.430  0.00  0.00    -0.550 OA
ATOM     58  O   LIG d   1       4.658   1.920  -2.990  0.00  0.00    -0.550 OA
ENDBRANCH  53  56
ENDBRANCH  50  53
ENDBRANCH  47  50
ENDBRANCH  44  47
ENDBRANCH  41  44
ENDBRANCH  38  41
ENDBRANCH  35  38
ENDBRANCH  32  35
ENDBRANCH   1  32
TORSDOF 17
ENDMDL
MODEL 10
REMARK VINA RESULT:      -4.8      3.161      4.429
REMARK  17 active torsions:
REMARK  status: ('A' for Active; 'I' for Inactive)
REMARK    1  A    between atoms: C_1  and  C_2 
REMARK    2  A    between atoms: C_2  and  C_3 
REMARK    3  A    between atoms: C_3  and  C_4 
REMARK    4  A    between atoms: C_4  and  C_5 
REMARK    5  A    between atoms: C_5  and  C_6 
REMARK    6  A    between atoms: C_8  and  C_11 
REMARK    7  A    between atoms: C_11  and  C_12 
REMARK    8  A    between atoms: C_13  and  C_14 
REMARK    9  A    between atoms: C_14  and  C_15 
REMARK   10  A    between atoms: C_15  and  C_16 
REMARK   11  A    between atoms: C_16  and  C_17 
REMARK   12  A    between atoms: C_17  and  C_18 
REMARK   13  A    between atoms: C_18  and  C_19 
REMARK   14  A    between atoms: C_19  and  C_20 
REMARK   15  A    between atoms: C_20  and  C_21 
REMARK   16  A    between atoms: C_21  and  C_22 
REMARK   17  A    between atoms: C_22  and  C_23 
ROOT
ATOM      1  C   LIG d   1       3.022  -1.087  -2.512  0.00  0.00    -0.035 C 
ATOM      2  H   LIG d   1       2.458  -1.443  -3.373  0.00  0.00     0.031 H 
ATOM      3  H   LIG d   1       2.415  -1.189  -1.612  0.00  0.00     0.031 H 
ENDROOT
BRANCH   1   4
ATOM      4  C   LIG d   1       3.384   0.363  -2.713  0.00  0.00    -0.088 C 
ATOM      5  C   LIG d   1       3.120   0.951  -3.853  0.00  0.00    -0.085 C 
ATOM      6  H   LIG d   1       3.487   1.949  -4.042  0.00  0.00     0.057 H 
ATOM      7  H   LIG d   1       3.860   0.915  -1.917  0.00  0.00     0.057 H 
BRANCH   5   8
ATOM      8  C   LIG d   1       2.306   0.236  -4.900  0.00  0.00    -0.006 C 
ATOM      9  H   LIG d   1       2.496  -0.836  -4.837  0.00  0.00     0.033 H 
ATOM     10  H   LIG d   1       1.247   0.429  -4.731  0.00  0.00     0.033 H 
BRANCH   8  11
ATOM     11  C   LIG d   1       2.702   0.743  -6.288  0.00  0.00     0.089 A 
ATOM     12  C   LIG d   1       2.832  -0.287  -7.412  0.00  0.00     0.086 A 
ATOM     13  H   LIG d   1       2.638  -1.331  -7.169  0.00  0.00     0.062 H 
ATOM     14  O   LIG d   1       3.970   0.338  -6.808  0.00  0.00    -0.368 OA
ATOM     15  H   LIG d   1       2.340   1.737  -6.549  0.00  0.00     0.062 H 
BRANCH  12  16
ATOM     16  C   LIG d   1       2.447   0.150  -8.827  0.00  0.00    -0.024 C 
ATOM     17  H   LIG d   1       1.849  -0.631  -9.297  0.00  0.00     0.029 H 
ATOM     18  H   LIG d   1       1.867   1.072  -8.777  0.00  0.00     0.029 H 
BRANCH  16  19
ATOM     19  C   LIG d   1       3.713   0.388  -9.650  0.00  0.00    -0.051 C 
ATOM     20  H   LIG d   1       4.591   0.237  -9.020  0.00  0.00     0.027 H 
ATOM     21  H   LIG d   1       3.742  -0.314 -10.484  0.00  0.00     0.027 H 
BRANCH  19  22
ATOM     22  C   LIG d   1       3.712   1.819 -10.188  0.00  0.00    -0.053 C 
ATOM     23  H   LIG d   1       4.118   1.827 -11.199  0.00  0.00     0.026 H 
ATOM     24  H   LIG d   1       2.691   2.201 -10.203  0.00  0.00     0.026 H 
BRANCH  22  25
ATOM     25  C   LIG d   1       4.573   2.705  -9.285  0.00  0.00    -0.056 C 
ATOM     26  H   LIG d   1       4.766   3.654  -9.785  0.00  0.00     0.026 H 
ATOM     27  H   LIG d   1       4.046   2.888  -8.349  0.00  0.00     0.026 H 
BRANCH  25  28
ATOM     28  C   LIG d   1       5.900   2.002  -8.995  0.00  0.00    -0.065 C 
ATOM     29  H   LIG d   1       6.092   2.016  -7.922  0.00  0.00     0.023 H 
ATOM     30  H   LIG d   1       5.846   0.969  -9.340  0.00  0.00     0.023 H 
ATOM     31  H   LIG d   1       6.706   2.517  -9.516  0.00  0.00     0.023 H 
ENDBRANCH  25  28
ENDBRANCH  22  25
ENDBRANCH  19  22
ENDBRANCH  16  19
ENDBRANCH  12  16
ENDBRANCH   8  11
ENDBRANCH   5   8
ENDBRANCH   1   4
BRANCH   1  32
ATOM     32  C   LIG d   1       4.300  -1.916  -2.362  0.00  0.00    -0.050 C 
ATOM     33  H   LIG d   1       4.200  -2.586  -1.509  0.00  0.00     0.027 H 
ATOM     34  H   LIG d   1       5.148  -1.250  -2.203  0.00  0.00     0.027 H 
BRANCH  32  35
ATOM     35  C   LIG d   1       4.527  -2.736  -3.633  0.00  0.00    -0.053 C 
ATOM     36  H   LIG d   1       3.813  -2.429  -4.397  0.00  0.00     0.026 H 
ATOM     37  H   LIG d   1       4.389  -3.795  -3.411  0.00  0.00     0.026 H 
BRANCH  35  38
ATOM     38  C   LIG d   1       5.950  -2.503  -4.143  0.00  0.00    -0.053 C 
ATOM     39  H   LIG d   1       5.915  -2.198  -5.189  0.00  0.00     0.026 H 
ATOM     40  H   LIG d   1       6.525  -3.425  -4.053  0.00  0.00     0.026 H 
BRANCH  38  41
ATOM     41  C   LIG d   1       6.616  -1.404  -3.313  0.00  0.00    -0.053 C 
ATOM     42  H   LIG d   1       7.485  -1.813  -2.799  0.00  0.00     0.026 H 
ATOM     43  H   LIG d   1       5.906  -1.022  -2.580  0.00  0.00     0.026 H 
BRANCH  41  44
ATOM     44  C   LIG d   1       7.058  -0.266  -4.235  0.00  0.00    -0.053 C 
ATOM     45  H   LIG d   1       8.102  -0.411  -4.517  0.00  0.00     0.026 H 
ATOM     46  H   LIG d   1       6.437  -0.261  -5.130  0.00  0.00     0.026 H 
BRANCH  44  47
ATOM     47  C   LIG d   1       6.909   1.070  -3.504  0.00  0.00    -0.053 C 
ATOM     48  H   LIG d   1       5.944   1.513  -3.750  0.00  0.00     0.026 H 
ATOM     49  H   LIG d   1       6.970   0.904  -2.428  0.00  0.00     0.026 H 
BRANCH  47  50
ATOM     50  C   LIG d   1       8.030   2.017  -3.938  0.00  0.00    -0.048 C 
ATOM     51  H   LIG d   1       7.642   3.033  -4.005  0.00  0.00     0.027 H 
ATOM     52  H   LIG d   1       8.837   1.984  -3.206  0.00  0.00     0.027 H 
BRANCH  50  53
ATOM     53  C   LIG d   1       8.564   1.583  -5.306  0.00  0.00    -0.013 C 
ATOM     54  H   LIG d   1       9.409   0.908  -5.168  0.00  0.00     0.033 H 
ATOM     55  H   LIG d   1       7.776   1.072  -5.857  0.00  0.00     0.033 H 
BRANCH  53  56
ATOM     56  C   LIG d   1       9.013   2.797  -6.078  0.00  0.00     0.042 C 
ATOM     57  O   LIG d   1       9.055   2.763  -7.285  0.00  0.00    -0.550 OA
ATOM     58  O   LIG d   1       9.368   3.914  -5.425  0.00  0.00    -0.550 OA
ENDBRANCH  53  56
ENDBRANCH  50  53
ENDBRANCH  47  50
ENDBRANCH  44  47
ENDBRANCH  41  44
ENDBRANCH  38  41
ENDBRANCH  35  38
ENDBRANCH  32  35
ENDBRANCH   1  32
TORSDOF 17
ENDMDL
