MODEL 1
REMARK VINA RESULT:      -6.5      0.000      0.000
REMARK  11 active torsions:
REMARK  status: ('A' for Active; 'I' for Inactive)
REMARK    1  A    between atoms: C_1  and  O_2 
REMARK    2  A    between atoms: O_2  and  C_3 
REMARK    3  A    between atoms: C_3  and  C_5 
REMARK    4  A    between atoms: C_5  and  O_6 
REMARK    5  A    between atoms: O_6  and  C_7 
REMARK    6  A    between atoms: C_14  and  C_16 
REMARK    7  A    between atoms: C_22  and  O_24 
REMARK    8  A    between atoms: O_24  and  C_25 
REMARK    9  A    between atoms: C_25  and  C_26 
REMARK   10  A    between atoms: C_26  and  O_28 
REMARK   11  A    between atoms: O_28  and  C_29 
ROOT
ATOM      1  C   LIG d   1      10.308   4.430  -3.982  0.00  0.00     0.128 A 
ATOM      2  C   LIG d   1       9.381   3.627  -3.337  0.00  0.00     0.023 A 
ATOM      3  C   LIG d   1       8.694   2.654  -4.046  0.00  0.00     0.146 A 
ATOM      4  C   LIG d   1       8.942   2.496  -5.421  0.00  0.00     0.106 A 
ATOM      5  C   LIG d   1       8.194   1.461  -6.155  0.00  0.00     0.197 A 
ATOM      6  O   LIG d   1       8.373   1.277  -7.348  0.00  0.00    -0.287 OA
ATOM      7  C   LIG d   1       7.261   0.688  -5.422  0.00  0.00     0.029 A 
ATOM      8  C   LIG d   1       7.092   0.924  -4.095  0.00  0.00     0.139 A 
ATOM      9  O   LIG d   1       7.787   1.863  -3.434  0.00  0.00    -0.454 OA
ATOM     10  C   LIG d   1       9.884   3.308  -6.065  0.00  0.00     0.139 A 
ATOM     11  C   LIG d   1      10.560   4.272  -5.341  0.00  0.00     0.023 A 
ATOM     12  H   LIG d   1       9.194   3.759  -2.281  0.00  0.00     0.069 H 
ATOM     13  H   LIG d   1       6.687  -0.083  -5.915  0.00  0.00     0.069 H 
ATOM     14  H   LIG d   1      11.285   4.905  -5.831  0.00  0.00     0.069 H 
ENDROOT
BRANCH   1  15
ATOM     15  O   LIG d   1      10.978   5.380  -3.280  0.00  0.00    -0.481 OA
BRANCH  15  16
ATOM     16  C   LIG d   1      10.956   5.270  -1.856  0.00  0.00     0.186 C 
ATOM     17  H   LIG d   1      10.527   4.309  -1.572  0.00  0.00     0.082 H 
ATOM     18  H   LIG d   1      11.973   5.342  -1.470  0.00  0.00     0.082 H 
BRANCH  16  19
ATOM     19  C   LIG d   1      10.119   6.383  -1.279  0.00  0.00     0.345 C 
ATOM     20  O   LIG d   1       9.305   6.948  -1.972  0.00  0.00    -0.247 OA
BRANCH  19  21
ATOM     21  O   LIG d   1      10.279   6.748   0.003  0.00  0.00    -0.466 OA
BRANCH  21  22
ATOM     22  C   LIG d   1      11.097   5.885   0.835  0.00  0.00     0.082 C 
ATOM     23  H   LIG d   1      10.493   5.490   1.653  0.00  0.00     0.066 H 
ATOM     24  H   LIG d   1      11.481   5.060   0.236  0.00  0.00     0.066 H 
ATOM     25  H   LIG d   1      11.931   6.457   1.243  0.00  0.00     0.066 H 
ENDBRANCH  21  22
ENDBRANCH  19  21
ENDBRANCH  16  19
ENDBRANCH  15  16
ENDBRANCH   1  15
BRANCH  10  26
ATOM     26  O   LIG d   1      10.128   3.153  -7.391  0.00  0.00    -0.480 OA
BRANCH  26  27
ATOM     27  C   LIG d   1      10.025   4.318  -8.211  0.00  0.00     0.186 C 
ATOM     28  H   LIG d   1       9.665   5.154  -7.611  0.00  0.00     0.082 H 
ATOM     29  H   LIG d   1      11.006   4.560  -8.621  0.00  0.00     0.082 H 
BRANCH  27  30
ATOM     30  C   LIG d   1       9.059   4.056  -9.337  0.00  0.00     0.345 C 
ATOM     31  O   LIG d   1       9.119   3.020  -9.956  0.00  0.00    -0.247 OA
BRANCH  30  32
ATOM     32  O   LIG d   1       8.133   4.974  -9.654  0.00  0.00    -0.466 OA
BRANCH  32  33
ATOM     33  C   LIG d   1       8.579   6.351  -9.765  0.00  0.00     0.082 C 
ATOM     34  H   LIG d   1       8.904   6.548 -10.786  0.00  0.00     0.066 H 
ATOM     35  H   LIG d   1       7.757   7.020  -9.510  0.00  0.00     0.066 H 
ATOM     36  H   LIG d   1       9.411   6.520  -9.080  0.00  0.00     0.066 H 
ENDBRANCH  32  33
ENDBRANCH  30  32
ENDBRANCH  27  30
ENDBRANCH  26  27
ENDBRANCH  10  26
BRANCH   8  37
ATOM     37  C   LIG d   1       6.114   0.107  -3.347  0.00  0.00     0.017 A 
ATOM     38  C   LIG d   1       6.034  -1.269  -3.570  0.00  0.00    -0.051 A 
ATOM     39  C   LIG d   1       5.119  -2.026  -2.867  0.00  0.00    -0.061 A 
ATOM     40  H   LIG d   1       6.686  -1.740  -4.291  0.00  0.00     0.062 H 
ATOM     41  C   LIG d   1       4.283  -1.424  -1.944  0.00  0.00    -0.062 A 
ATOM     42  H   LIG d   1       5.056  -3.089  -3.039  0.00  0.00     0.062 H 
ATOM     43  C   LIG d   1       4.357  -0.061  -1.718  0.00  0.00    -0.061 A 
ATOM     44  H   LIG d   1       3.568  -2.021  -1.397  0.00  0.00     0.062 H 
ATOM     45  C   LIG d   1       5.271   0.707  -2.409  0.00  0.00    -0.051 A 
ATOM     46  H   LIG d   1       3.701   0.402  -0.996  0.00  0.00     0.062 H 
ATOM     47  H   LIG d   1       5.331   1.770  -2.229  0.00  0.00     0.062 H 
ENDBRANCH   8  37
TORSDOF 11
ENDMDL
MODEL 2
REMARK VINA RESULT:      -6.0      7.249     11.348
REMARK  11 active torsions:
REMARK  status: ('A' for Active; 'I' for Inactive)
REMARK    1  A    between atoms: C_1  and  O_2 
REMARK    2  A    between atoms: O_2  and  C_3 
REMARK    3  A    between atoms: C_3  and  C_5 
REMARK    4  A    between atoms: C_5  and  O_6 
REMARK    5  A    between atoms: O_6  and  C_7 
REMARK    6  A    between atoms: C_14  and  C_16 
REMARK    7  A    between atoms: C_22  and  O_24 
REMARK    8  A    between atoms: O_24  and  C_25 
REMARK    9  A    between atoms: C_25  and  C_26 
REMARK   10  A    between atoms: C_26  and  O_28 
REMARK   11  A    between atoms: O_28  and  C_29 
ROOT
ATOM      1  C   LIG d   1       4.633  -7.560  -6.318  0.00  0.00     0.128 A 
ATOM      2  C   LIG d   1       4.703  -6.558  -5.362  0.00  0.00     0.023 A 
ATOM      3  C   LIG d   1       4.614  -5.229  -5.742  0.00  0.00     0.146 A 
ATOM      4  C   LIG d   1       4.461  -4.908  -7.102  0.00  0.00     0.106 A 
ATOM      5  C   LIG d   1       4.377  -3.488  -7.484  0.00  0.00     0.197 A 
ATOM      6  O   LIG d   1       4.239  -3.151  -8.649  0.00  0.00    -0.287 OA
ATOM      7  C   LIG d   1       4.463  -2.528  -6.446  0.00  0.00     0.029 A 
ATOM      8  C   LIG d   1       4.617  -2.943  -5.161  0.00  0.00     0.139 A 
ATOM      9  O   LIG d   1       4.681  -4.242  -4.824  0.00  0.00    -0.454 OA
ATOM     10  C   LIG d   1       4.386  -5.925  -8.062  0.00  0.00     0.139 A 
ATOM     11  C   LIG d   1       4.475  -7.246  -7.664  0.00  0.00     0.023 A 
ATOM     12  H   LIG d   1       4.826  -6.815  -4.320  0.00  0.00     0.069 H 
ATOM     13  H   LIG d   1       4.407  -1.474  -6.673  0.00  0.00     0.069 H 
ATOM     14  H   LIG d   1       4.423  -8.035  -8.398  0.00  0.00     0.069 H 
ENDROOT
BRANCH   1  15
ATOM     15  O   LIG d   1       4.719  -8.860  -5.937  0.00  0.00    -0.481 OA
BRANCH  15  16
ATOM     16  C   LIG d   1       5.304  -9.125  -4.661  0.00  0.00     0.186 C 
ATOM     17  H   LIG d   1       6.236  -9.675  -4.795  0.00  0.00     0.082 H 
ATOM     18  H   LIG d   1       5.509  -8.183  -4.153  0.00  0.00     0.082 H 
BRANCH  16  19
ATOM     19  C   LIG d   1       4.350  -9.947  -3.832  0.00  0.00     0.345 C 
ATOM     20  O   LIG d   1       3.228  -9.549  -3.630  0.00  0.00    -0.247 OA
BRANCH  19  21
ATOM     21  O   LIG d   1       4.749 -11.121  -3.318  0.00  0.00    -0.466 OA
BRANCH  21  22
ATOM     22  C   LIG d   1       5.703 -11.071  -2.225  0.00  0.00     0.082 C 
ATOM     23  H   LIG d   1       6.440 -10.292  -2.422  0.00  0.00     0.066 H 
ATOM     24  H   LIG d   1       5.180 -10.848  -1.296  0.00  0.00     0.066 H 
ATOM     25  H   LIG d   1       6.207 -12.034  -2.137  0.00  0.00     0.066 H 
ENDBRANCH  21  22
ENDBRANCH  19  21
ENDBRANCH  16  19
ENDBRANCH  15  16
ENDBRANCH   1  15
BRANCH  10  26
ATOM     26  O   LIG d   1       4.232  -5.616  -9.375  0.00  0.00    -0.480 OA
BRANCH  26  27
ATOM     27  C   LIG d   1       3.331  -6.427 -10.131  0.00  0.00     0.186 C 
ATOM     28  H   LIG d   1       3.635  -6.428 -11.178  0.00  0.00     0.082 H 
ATOM     29  H   LIG d   1       3.350  -7.446  -9.746  0.00  0.00     0.082 H 
BRANCH  27  30
ATOM     30  C   LIG d   1       1.936  -5.871 -10.013  0.00  0.00     0.345 C 
ATOM     31  O   LIG d   1       1.732  -4.698 -10.222  0.00  0.00    -0.247 OA
BRANCH  30  32
ATOM     32  O   LIG d   1       0.918  -6.678  -9.676  0.00  0.00    -0.466 OA
BRANCH  32  33
ATOM     33  C   LIG d   1      -0.408  -6.290 -10.125  0.00  0.00     0.082 C 
ATOM     34  H   LIG d   1      -0.349  -5.343 -10.660  0.00  0.00     0.066 H 
ATOM     35  H   LIG d   1      -0.805  -7.059 -10.788  0.00  0.00     0.066 H 
ATOM     36  H   LIG d   1      -1.066  -6.180  -9.262  0.00  0.00     0.066 H 
ENDBRANCH  32  33
ENDBRANCH  30  32
ENDBRANCH  27  30
ENDBRANCH  26  27
ENDBRANCH  10  26
BRANCH   8  37
ATOM     37  C   LIG d   1       4.703  -1.928  -4.092  0.00  0.00     0.017 A 
ATOM     38  C   LIG d   1       5.333  -0.705  -4.335  0.00  0.00    -0.051 A 
ATOM     39  C   LIG d   1       5.409   0.239  -3.332  0.00  0.00    -0.061 A 
ATOM     40  H   LIG d   1       5.759  -0.499  -5.306  0.00  0.00     0.062 H 
ATOM     41  C   LIG d   1       4.865  -0.024  -2.088  0.00  0.00    -0.062 A 
ATOM     42  H   LIG d   1       5.896   1.184  -3.519  0.00  0.00     0.062 H 
ATOM     43  C   LIG d   1       4.240  -1.233  -1.839  0.00  0.00    -0.061 A 
ATOM     44  H   LIG d   1       4.928   0.719  -1.306  0.00  0.00     0.062 H 
ATOM     45  C   LIG d   1       4.151  -2.184  -2.835  0.00  0.00    -0.051 A 
ATOM     46  H   LIG d   1       3.817  -1.432  -0.866  0.00  0.00     0.062 H 
ATOM     47  H   LIG d   1       3.659  -3.126  -2.642  0.00  0.00     0.062 H 
ENDBRANCH   8  37
TORSDOF 11
ENDMDL
MODEL 3
REMARK VINA RESULT:      -5.9      1.515      2.319
REMARK  11 active torsions:
REMARK  status: ('A' for Active; 'I' for Inactive)
REMARK    1  A    between atoms: C_1  and  O_2 
REMARK    2  A    between atoms: O_2  and  C_3 
REMARK    3  A    between atoms: C_3  and  C_5 
REMARK    4  A    between atoms: C_5  and  O_6 
REMARK    5  A    between atoms: O_6  and  C_7 
REMARK    6  A    between atoms: C_14  and  C_16 
REMARK    7  A    between atoms: C_22  and  O_24 
REMARK    8  A    between atoms: O_24  and  C_25 
REMARK    9  A    between atoms: C_25  and  C_26 
REMARK   10  A    between atoms: C_26  and  O_28 
REMARK   11  A    between atoms: O_28  and  C_29 
ROOT
ATOM      1  C   LIG d   1      10.443   4.620  -4.285  0.00  0.00     0.128 A 
ATOM      2  C   LIG d   1       9.497   3.885  -3.587  0.00  0.00     0.023 A 
ATOM      3  C   LIG d   1       8.825   2.848  -4.214  0.00  0.00     0.146 A 
ATOM      4  C   LIG d   1       9.107   2.555  -5.560  0.00  0.00     0.106 A 
ATOM      5  C   LIG d   1       8.375   1.454  -6.208  0.00  0.00     0.197 A 
ATOM      6  O   LIG d   1       8.582   1.153  -7.372  0.00  0.00    -0.287 OA
ATOM      7  C   LIG d   1       7.421   0.757  -5.426  0.00  0.00     0.029 A 
ATOM      8  C   LIG d   1       7.219   1.123  -4.133  0.00  0.00     0.139 A 
ATOM      9  O   LIG d   1       7.901   2.122  -3.550  0.00  0.00    -0.454 OA
ATOM     10  C   LIG d   1      10.067   3.299  -6.257  0.00  0.00     0.139 A 
ATOM     11  C   LIG d   1      10.729   4.330  -5.615  0.00  0.00     0.023 A 
ATOM     12  H   LIG d   1       9.284   4.121  -2.555  0.00  0.00     0.069 H 
ATOM     13  H   LIG d   1       6.857  -0.058  -5.854  0.00  0.00     0.069 H 
ATOM     14  H   LIG d   1      11.467   4.910  -6.146  0.00  0.00     0.069 H 
ENDROOT
BRANCH   1  15
ATOM     15  O   LIG d   1      11.099   5.635  -3.663  0.00  0.00    -0.481 OA
BRANCH  15  16
ATOM     16  C   LIG d   1      10.300   6.584  -2.953  0.00  0.00     0.186 C 
ATOM     17  H   LIG d   1       9.288   6.194  -2.840  0.00  0.00     0.082 H 
ATOM     18  H   LIG d   1      10.734   6.760  -1.969  0.00  0.00     0.082 H 
BRANCH  16  19
ATOM     19  C   LIG d   1      10.256   7.878  -3.724  0.00  0.00     0.345 C 
ATOM     20  O   LIG d   1      10.749   8.877  -3.255  0.00  0.00    -0.247 OA
BRANCH  19  21
ATOM     21  O   LIG d   1       9.668   7.922  -4.930  0.00  0.00    -0.466 OA
BRANCH  21  22
ATOM     22  C   LIG d   1       9.495   9.231  -5.531  0.00  0.00     0.082 C 
ATOM     23  H   LIG d   1      10.345   9.864  -5.274  0.00  0.00     0.066 H 
ATOM     24  H   LIG d   1       9.433   9.129  -6.614  0.00  0.00     0.066 H 
ATOM     25  H   LIG d   1       8.578   9.685  -5.156  0.00  0.00     0.066 H 
ENDBRANCH  21  22
ENDBRANCH  19  21
ENDBRANCH  16  19
ENDBRANCH  15  16
ENDBRANCH   1  15
BRANCH  10  26
ATOM     26  O   LIG d   1      10.344   3.014  -7.555  0.00  0.00    -0.480 OA
BRANCH  26  27
ATOM     27  C   LIG d   1      10.240   4.087  -8.492  0.00  0.00     0.186 C 
ATOM     28  H   LIG d   1       9.948   4.998  -7.970  0.00  0.00     0.082 H 
ATOM     29  H   LIG d   1      11.204   4.239  -8.978  0.00  0.00     0.082 H 
BRANCH  27  30
ATOM     30  C   LIG d   1       9.201   3.749  -9.530  0.00  0.00     0.345 C 
ATOM     31  O   LIG d   1       8.027   3.852  -9.266  0.00  0.00    -0.247 OA
BRANCH  30  32
ATOM     32  O   LIG d   1       9.581   3.332 -10.748  0.00  0.00    -0.466 OA
BRANCH  32  33
ATOM     33  C   LIG d   1       9.902   1.924 -10.893  0.00  0.00     0.082 C 
ATOM     34  H   LIG d   1      10.256   1.733 -11.906  0.00  0.00     0.066 H 
ATOM     35  H   LIG d   1      10.680   1.654 -10.179  0.00  0.00     0.066 H 
ATOM     36  H   LIG d   1       9.011   1.326 -10.701  0.00  0.00     0.066 H 
ENDBRANCH  32  33
ENDBRANCH  30  32
ENDBRANCH  27  30
ENDBRANCH  26  27
ENDBRANCH  10  26
BRANCH   8  37
ATOM     37  C   LIG d   1       6.221   0.384  -3.333  0.00  0.00     0.017 A 
ATOM     38  C   LIG d   1       5.353   1.074  -2.484  0.00  0.00    -0.051 A 
ATOM     39  C   LIG d   1       4.423   0.377  -1.741  0.00  0.00    -0.061 A 
ATOM     40  H   LIG d   1       5.411   2.150  -2.408  0.00  0.00     0.062 H 
ATOM     41  C   LIG d   1       4.348  -1.001  -1.836  0.00  0.00    -0.062 A 
ATOM     42  H   LIG d   1       3.752   0.909  -1.083  0.00  0.00     0.062 H 
ATOM     43  C   LIG d   1       5.205  -1.691  -2.676  0.00  0.00    -0.061 A 
ATOM     44  H   LIG d   1       3.618  -1.542  -1.252  0.00  0.00     0.062 H 
ATOM     45  C   LIG d   1       6.137  -1.006  -3.429  0.00  0.00    -0.051 A 
ATOM     46  H   LIG d   1       5.142  -2.766  -2.745  0.00  0.00     0.062 H 
ATOM     47  H   LIG d   1       6.802  -1.545  -4.087  0.00  0.00     0.062 H 
ENDBRANCH   8  37
TORSDOF 11
ENDMDL
MODEL 4
REMARK VINA RESULT:      -5.8      5.227      8.735
REMARK  11 active torsions:
REMARK  status: ('A' for Active; 'I' for Inactive)
REMARK    1  A    between atoms: C_1  and  O_2 
REMARK    2  A    between atoms: O_2  and  C_3 
REMARK    3  A    between atoms: C_3  and  C_5 
REMARK    4  A    between atoms: C_5  and  O_6 
REMARK    5  A    between atoms: O_6  and  C_7 
REMARK    6  A    between atoms: C_14  and  C_16 
REMARK    7  A    between atoms: C_22  and  O_24 
REMARK    8  A    between atoms: O_24  and  C_25 
REMARK    9  A    between atoms: C_25  and  C_26 
REMARK   10  A    between atoms: C_26  and  O_28 
REMARK   11  A    between atoms: O_28  and  C_29 
ROOT
ATOM      1  C   LIG d   1      10.172  10.203  -1.315  0.00  0.00     0.128 A 
ATOM      2  C   LIG d   1      10.039  10.014  -2.682  0.00  0.00     0.023 A 
ATOM      3  C   LIG d   1       9.937   8.732  -3.198  0.00  0.00     0.146 A 
ATOM      4  C   LIG d   1       9.978   7.630  -2.326  0.00  0.00     0.106 A 
ATOM      5  C   LIG d   1       9.877   6.277  -2.898  0.00  0.00     0.197 A 
ATOM      6  O   LIG d   1       9.902   5.285  -2.188  0.00  0.00    -0.287 OA
ATOM      7  C   LIG d   1       9.750   6.172  -4.305  0.00  0.00     0.029 A 
ATOM      8  C   LIG d   1       9.725   7.301  -5.061  0.00  0.00     0.139 A 
ATOM      9  O   LIG d   1       9.807   8.530  -4.526  0.00  0.00    -0.454 OA
ATOM     10  C   LIG d   1      10.108   7.828  -0.945  0.00  0.00     0.139 A 
ATOM     11  C   LIG d   1      10.207   9.115  -0.448  0.00  0.00     0.023 A 
ATOM     12  H   LIG d   1      10.013  10.867  -3.344  0.00  0.00     0.069 H 
ATOM     13  H   LIG d   1       9.672   5.202  -4.773  0.00  0.00     0.069 H 
ATOM     14  H   LIG d   1      10.311   9.276   0.614  0.00  0.00     0.069 H 
ENDROOT
BRANCH   1  15
ATOM     15  O   LIG d   1      10.269  11.462  -0.816  0.00  0.00    -0.481 OA
BRANCH  15  16
ATOM     16  C   LIG d   1      11.521  11.835  -0.237  0.00  0.00     0.186 C 
ATOM     17  H   LIG d   1      12.156  10.954  -0.145  0.00  0.00     0.082 H 
ATOM     18  H   LIG d   1      12.011  12.572  -0.874  0.00  0.00     0.082 H 
BRANCH  16  19
ATOM     19  C   LIG d   1      11.285  12.428   1.129  0.00  0.00     0.345 C 
ATOM     20  O   LIG d   1      10.470  13.309   1.273  0.00  0.00    -0.247 OA
BRANCH  19  21
ATOM     21  O   LIG d   1      11.981  11.977   2.185  0.00  0.00    -0.466 OA
BRANCH  21  22
ATOM     22  C   LIG d   1      12.369  10.579   2.169  0.00  0.00     0.082 C 
ATOM     23  H   LIG d   1      12.810  10.335   1.203  0.00  0.00     0.066 H 
ATOM     24  H   LIG d   1      13.098  10.395   2.958  0.00  0.00     0.066 H 
ATOM     25  H   LIG d   1      11.490   9.956   2.335  0.00  0.00     0.066 H 
ENDBRANCH  21  22
ENDBRANCH  19  21
ENDBRANCH  16  19
ENDBRANCH  15  16
ENDBRANCH   1  15
BRANCH  10  26
ATOM     26  O   LIG d   1      10.142   6.766  -0.102  0.00  0.00    -0.480 OA
BRANCH  26  27
ATOM     27  C   LIG d   1      11.359   6.543   0.613  0.00  0.00     0.186 C 
ATOM     28  H   LIG d   1      11.909   5.725   0.149  0.00  0.00     0.082 H 
ATOM     29  H   LIG d   1      11.965   7.449   0.588  0.00  0.00     0.082 H 
BRANCH  27  30
ATOM     30  C   LIG d   1      11.044   6.189   2.043  0.00  0.00     0.345 C 
ATOM     31  O   LIG d   1      10.540   5.123   2.305  0.00  0.00    -0.247 OA
BRANCH  30  32
ATOM     32  O   LIG d   1      11.322   7.059   3.027  0.00  0.00    -0.466 OA
BRANCH  32  33
ATOM     33  C   LIG d   1      11.054   6.625   4.386  0.00  0.00     0.082 C 
ATOM     34  H   LIG d   1      10.183   5.971   4.395  0.00  0.00     0.066 H 
ATOM     35  H   LIG d   1      11.919   6.084   4.771  0.00  0.00     0.066 H 
ATOM     36  H   LIG d   1      10.862   7.495   5.015  0.00  0.00     0.066 H 
ENDBRANCH  32  33
ENDBRANCH  30  32
ENDBRANCH  27  30
ENDBRANCH  26  27
ENDBRANCH  10  26
BRANCH   8  37
ATOM     37  C   LIG d   1       9.591   7.172  -6.526  0.00  0.00     0.017 A 
ATOM     38  C   LIG d   1       9.225   8.277  -7.297  0.00  0.00    -0.051 A 
ATOM     39  C   LIG d   1       9.102   8.149  -8.665  0.00  0.00    -0.061 A 
ATOM     40  H   LIG d   1       9.039   9.230  -6.823  0.00  0.00     0.062 H 
ATOM     41  C   LIG d   1       9.340   6.929  -9.273  0.00  0.00    -0.062 A 
ATOM     42  H   LIG d   1       8.819   9.003  -9.262  0.00  0.00     0.062 H 
ATOM     43  C   LIG d   1       9.702   5.829  -8.515  0.00  0.00    -0.061 A 
ATOM     44  H   LIG d   1       9.242   6.834 -10.344  0.00  0.00     0.062 H 
ATOM     45  C   LIG d   1       9.835   5.945  -7.147  0.00  0.00    -0.051 A 
ATOM     46  H   LIG d   1       9.886   4.880  -8.996  0.00  0.00     0.062 H 
ATOM     47  H   LIG d   1      10.122   5.087  -6.556  0.00  0.00     0.062 H 
ENDBRANCH   8  37
TORSDOF 11
ENDMDL
MODEL 5
REMARK VINA RESULT:      -5.8      1.756      2.646
REMARK  11 active torsions:
REMARK  status: ('A' for Active; 'I' for Inactive)
REMARK    1  A    between atoms: C_1  and  O_2 
REMARK    2  A    between atoms: O_2  and  C_3 
REMARK    3  A    between atoms: C_3  and  C_5 
REMARK    4  A    between atoms: C_5  and  O_6 
REMARK    5  A    between atoms: O_6  and  C_7 
REMARK    6  A    between atoms: C_14  and  C_16 
REMARK    7  A    between atoms: C_22  and  O_24 
REMARK    8  A    between atoms: O_24  and  C_25 
REMARK    9  A    between atoms: C_25  and  C_26 
REMARK   10  A    between atoms: C_26  and  O_28 
REMARK   11  A    between atoms: O_28  and  C_29 
ROOT
ATOM      1  C   LIG d   1      10.617   4.664  -3.741  0.00  0.00     0.128 A 
ATOM      2  C   LIG d   1       9.617   3.910  -3.146  0.00  0.00     0.023 A 
ATOM      3  C   LIG d   1       8.984   2.909  -3.863  0.00  0.00     0.146 A 
ATOM      4  C   LIG d   1       9.359   2.670  -5.197  0.00  0.00     0.106 A 
ATOM      5  C   LIG d   1       8.667   1.606  -5.943  0.00  0.00     0.197 A 
ATOM      6  O   LIG d   1       8.955   1.352  -7.101  0.00  0.00    -0.287 OA
ATOM      7  C   LIG d   1       7.653   0.887  -5.263  0.00  0.00     0.029 A 
ATOM      8  C   LIG d   1       7.362   1.200  -3.973  0.00  0.00     0.139 A 
ATOM      9  O   LIG d   1       8.008   2.166  -3.300  0.00  0.00    -0.454 OA
ATOM     10  C   LIG d   1      10.374   3.432  -5.791  0.00  0.00     0.139 A 
ATOM     11  C   LIG d   1      10.995   4.427  -5.058  0.00  0.00     0.023 A 
ATOM     12  H   LIG d   1       9.332   4.105  -2.122  0.00  0.00     0.069 H 
ATOM     13  H   LIG d   1       7.115   0.097  -5.765  0.00  0.00     0.069 H 
ATOM     14  H   LIG d   1      11.775   5.021  -5.510  0.00  0.00     0.069 H 
ENDROOT
BRANCH   1  15
ATOM     15  O   LIG d   1      11.234   5.643  -3.031  0.00  0.00    -0.481 OA
BRANCH  15  16
ATOM     16  C   LIG d   1      10.452   6.791  -2.694  0.00  0.00     0.186 C 
ATOM     17  H   LIG d   1      10.766   7.636  -3.307  0.00  0.00     0.082 H 
ATOM     18  H   LIG d   1       9.399   6.579  -2.878  0.00  0.00     0.082 H 
BRANCH  16  19
ATOM     19  C   LIG d   1      10.651   7.124  -1.238  0.00  0.00     0.345 C 
ATOM     20  O   LIG d   1      11.224   8.141  -0.924  0.00  0.00    -0.247 OA
BRANCH  19  21
ATOM     21  O   LIG d   1      10.194   6.290  -0.290  0.00  0.00    -0.466 OA
BRANCH  21  22
ATOM     22  C   LIG d   1      11.147   5.846   0.711  0.00  0.00     0.082 C 
ATOM     23  H   LIG d   1      11.665   4.958   0.349  0.00  0.00     0.066 H 
ATOM     24  H   LIG d   1      11.871   6.638   0.900  0.00  0.00     0.066 H 
ATOM     25  H   LIG d   1      10.619   5.607   1.634  0.00  0.00     0.066 H 
ENDBRANCH  21  22
ENDBRANCH  19  21
ENDBRANCH  16  19
ENDBRANCH  15  16
ENDBRANCH   1  15
BRANCH  10  26
ATOM     26  O   LIG d   1      10.741   3.199  -7.076  0.00  0.00    -0.480 OA
BRANCH  26  27
ATOM     27  C   LIG d   1      12.134   3.004  -7.328  0.00  0.00     0.186 C 
ATOM     28  H   LIG d   1      12.336   3.155  -8.388  0.00  0.00     0.082 H 
ATOM     29  H   LIG d   1      12.712   3.718  -6.741  0.00  0.00     0.082 H 
BRANCH  27  30
ATOM     30  C   LIG d   1      12.523   1.601  -6.938  0.00  0.00     0.345 C 
ATOM     31  O   LIG d   1      12.190   0.667  -7.628  0.00  0.00    -0.247 OA
BRANCH  30  32
ATOM     32  O   LIG d   1      13.239   1.389  -5.823  0.00  0.00    -0.466 OA
BRANCH  32  33
ATOM     33  C   LIG d   1      14.267   0.365  -5.883  0.00  0.00     0.082 C 
ATOM     34  H   LIG d   1      14.179  -0.184  -6.820  0.00  0.00     0.066 H 
ATOM     35  H   LIG d   1      15.249   0.834  -5.827  0.00  0.00     0.066 H 
ATOM     36  H   LIG d   1      14.145  -0.323  -5.046  0.00  0.00     0.066 H 
ENDBRANCH  32  33
ENDBRANCH  30  32
ENDBRANCH  27  30
ENDBRANCH  26  27
ENDBRANCH  10  26
BRANCH   8  37
ATOM     37  C   LIG d   1       6.302   0.439  -3.280  0.00  0.00     0.017 A 
ATOM     38  C   LIG d   1       6.259  -0.953  -3.379  0.00  0.00    -0.051 A 
ATOM     39  C   LIG d   1       5.266  -1.657  -2.728  0.00  0.00    -0.061 A 
ATOM     40  H   LIG d   1       7.000  -1.477  -3.964  0.00  0.00     0.062 H 
ATOM     41  C   LIG d   1       4.316  -0.986  -1.979  0.00  0.00    -0.062 A 
ATOM     42  H   LIG d   1       5.231  -2.733  -2.805  0.00  0.00     0.062 H 
ATOM     43  C   LIG d   1       4.353   0.394  -1.876  0.00  0.00    -0.061 A 
ATOM     44  H   LIG d   1       3.541  -1.542  -1.472  0.00  0.00     0.062 H 
ATOM     45  C   LIG d   1       5.343   1.109  -2.517  0.00  0.00    -0.051 A 
ATOM     46  H   LIG d   1       3.608   0.910  -1.290  0.00  0.00     0.062 H 
ATOM     47  H   LIG d   1       5.374   2.186  -2.433  0.00  0.00     0.062 H 
ENDBRANCH   8  37
TORSDOF 11
ENDMDL
MODEL 6
REMARK VINA RESULT:      -5.8      6.499     10.939
REMARK  11 active torsions:
REMARK  status: ('A' for Active; 'I' for Inactive)
REMARK    1  A    between atoms: C_1  and  O_2 
REMARK    2  A    between atoms: O_2  and  C_3 
REMARK    3  A    between atoms: C_3  and  C_5 
REMARK    4  A    between atoms: C_5  and  O_6 
REMARK    5  A    between atoms: O_6  and  C_7 
REMARK    6  A    between atoms: C_14  and  C_16 
REMARK    7  A    between atoms: C_22  and  O_24 
REMARK    8  A    between atoms: O_24  and  C_25 
REMARK    9  A    between atoms: C_25  and  C_26 
REMARK   10  A    between atoms: C_26  and  O_28 
REMARK   11  A    between atoms: O_28  and  C_29 
ROOT
ATOM      1  C   LIG d   1       5.839  -6.366  -6.014  0.00  0.00     0.128 A 
ATOM      2  C   LIG d   1       5.165  -5.264  -5.510  0.00  0.00     0.023 A 
ATOM      3  C   LIG d   1       5.871  -4.239  -4.899  0.00  0.00     0.146 A 
ATOM      4  C   LIG d   1       7.269  -4.332  -4.790  0.00  0.00     0.106 A 
ATOM      5  C   LIG d   1       7.997  -3.236  -4.129  0.00  0.00     0.197 A 
ATOM      6  O   LIG d   1       9.211  -3.261  -4.011  0.00  0.00    -0.287 OA
ATOM      7  C   LIG d   1       7.232  -2.150  -3.637  0.00  0.00     0.029 A 
ATOM      8  C   LIG d   1       5.882  -2.158  -3.789  0.00  0.00     0.139 A 
ATOM      9  O   LIG d   1       5.231  -3.160  -4.404  0.00  0.00    -0.454 OA
ATOM     10  C   LIG d   1       7.944  -5.446  -5.305  0.00  0.00     0.139 A 
ATOM     11  C   LIG d   1       7.224  -6.458  -5.912  0.00  0.00     0.023 A 
ATOM     12  H   LIG d   1       4.090  -5.204  -5.595  0.00  0.00     0.069 H 
ATOM     13  H   LIG d   1       7.718  -1.321  -3.145  0.00  0.00     0.069 H 
ATOM     14  H   LIG d   1       7.736  -7.322  -6.308  0.00  0.00     0.069 H 
ENDROOT
BRANCH   1  15
ATOM     15  O   LIG d   1       5.141  -7.365  -6.612  0.00  0.00    -0.481 OA
BRANCH  15  16
ATOM     16  C   LIG d   1       5.683  -8.683  -6.514  0.00  0.00     0.186 C 
ATOM     17  H   LIG d   1       5.663  -9.158  -7.495  0.00  0.00     0.082 H 
ATOM     18  H   LIG d   1       6.712  -8.628  -6.159  0.00  0.00     0.082 H 
BRANCH  16  19
ATOM     19  C   LIG d   1       4.859  -9.494  -5.546  0.00  0.00     0.345 C 
ATOM     20  O   LIG d   1       4.144  -8.937  -4.747  0.00  0.00    -0.247 OA
BRANCH  19  21
ATOM     21  O   LIG d   1       4.922 -10.835  -5.571  0.00  0.00    -0.466 OA
BRANCH  21  22
ATOM     22  C   LIG d   1       4.979 -11.515  -4.290  0.00  0.00     0.082 C 
ATOM     23  H   LIG d   1       4.278 -11.046  -3.599  0.00  0.00     0.066 H 
ATOM     24  H   LIG d   1       4.711 -12.563  -4.423  0.00  0.00     0.066 H 
ATOM     25  H   LIG d   1       5.989 -11.446  -3.886  0.00  0.00     0.066 H 
ENDBRANCH  21  22
ENDBRANCH  19  21
ENDBRANCH  16  19
ENDBRANCH  15  16
ENDBRANCH   1  15
BRANCH  10  26
ATOM     26  O   LIG d   1       9.295  -5.535  -5.205  0.00  0.00    -0.480 OA
BRANCH  26  27
ATOM     27  C   LIG d   1       9.827  -6.744  -4.662  0.00  0.00     0.186 C 
ATOM     28  H   LIG d   1       9.274  -7.595  -5.058  0.00  0.00     0.082 H 
ATOM     29  H   LIG d   1      10.878  -6.834  -4.939  0.00  0.00     0.082 H 
BRANCH  27  30
ATOM     30  C   LIG d   1       9.703  -6.719  -3.161  0.00  0.00     0.345 C 
ATOM     31  O   LIG d   1      10.375  -5.954  -2.511  0.00  0.00    -0.247 OA
BRANCH  30  32
ATOM     32  O   LIG d   1       8.846  -7.547  -2.544  0.00  0.00    -0.466 OA
BRANCH  32  33
ATOM     33  C   LIG d   1       8.914  -8.953  -2.902  0.00  0.00     0.082 C 
ATOM     34  H   LIG d   1       9.601  -9.083  -3.738  0.00  0.00     0.066 H 
ATOM     35  H   LIG d   1       9.269  -9.528  -2.047  0.00  0.00     0.066 H 
ATOM     36  H   LIG d   1       7.922  -9.304  -3.189  0.00  0.00     0.066 H 
ENDBRANCH  32  33
ENDBRANCH  30  32
ENDBRANCH  27  30
ENDBRANCH  26  27
ENDBRANCH  10  26
BRANCH   8  37
ATOM     37  C   LIG d   1       5.101  -1.017  -3.271  0.00  0.00     0.017 A 
ATOM     38  C   LIG d   1       5.753   0.138  -2.833  0.00  0.00    -0.051 A 
ATOM     39  C   LIG d   1       5.018   1.200  -2.350  0.00  0.00    -0.061 A 
ATOM     40  H   LIG d   1       6.831   0.198  -2.871  0.00  0.00     0.062 H 
ATOM     41  C   LIG d   1       3.637   1.124  -2.300  0.00  0.00    -0.062 A 
ATOM     42  H   LIG d   1       5.521   2.093  -2.010  0.00  0.00     0.062 H 
ATOM     43  C   LIG d   1       2.984  -0.017  -2.733  0.00  0.00    -0.061 A 
ATOM     44  H   LIG d   1       3.066   1.959  -1.922  0.00  0.00     0.062 H 
ATOM     45  C   LIG d   1       3.707  -1.085  -3.223  0.00  0.00    -0.051 A 
ATOM     46  H   LIG d   1       1.907  -0.070  -2.691  0.00  0.00     0.062 H 
ATOM     47  H   LIG d   1       3.196  -1.973  -3.565  0.00  0.00     0.062 H 
ENDBRANCH   8  37
TORSDOF 11
ENDMDL
MODEL 7
REMARK VINA RESULT:      -5.8      2.452      3.615
REMARK  11 active torsions:
REMARK  status: ('A' for Active; 'I' for Inactive)
REMARK    1  A    between atoms: C_1  and  O_2 
REMARK    2  A    between atoms: O_2  and  C_3 
REMARK    3  A    between atoms: C_3  and  C_5 
REMARK    4  A    between atoms: C_5  and  O_6 
REMARK    5  A    between atoms: O_6  and  C_7 
REMARK    6  A    between atoms: C_14  and  C_16 
REMARK    7  A    between atoms: C_22  and  O_24 
REMARK    8  A    between atoms: O_24  and  C_25 
REMARK    9  A    between atoms: C_25  and  C_26 
REMARK   10  A    between atoms: C_26  and  O_28 
REMARK   11  A    between atoms: O_28  and  C_29 
ROOT
ATOM      1  C   LIG d   1      10.600   4.181  -3.739  0.00  0.00     0.128 A 
ATOM      2  C   LIG d   1       9.421   3.622  -3.272  0.00  0.00     0.023 A 
ATOM      3  C   LIG d   1       9.006   2.386  -3.741  0.00  0.00     0.146 A 
ATOM      4  C   LIG d   1       9.788   1.711  -4.695  0.00  0.00     0.106 A 
ATOM      5  C   LIG d   1       9.323   0.402  -5.185  0.00  0.00     0.197 A 
ATOM      6  O   LIG d   1       9.964  -0.230  -6.009  0.00  0.00    -0.287 OA
ATOM      7  C   LIG d   1       8.104  -0.095  -4.661  0.00  0.00     0.029 A 
ATOM      8  C   LIG d   1       7.421   0.640  -3.745  0.00  0.00     0.139 A 
ATOM      9  O   LIG d   1       7.861   1.827  -3.298  0.00  0.00    -0.454 OA
ATOM     10  C   LIG d   1      10.981   2.279  -5.159  0.00  0.00     0.139 A 
ATOM     11  C   LIG d   1      11.379   3.513  -4.678  0.00  0.00     0.023 A 
ATOM     12  H   LIG d   1       8.825   4.151  -2.543  0.00  0.00     0.069 H 
ATOM     13  H   LIG d   1       7.721  -1.049  -4.988  0.00  0.00     0.069 H 
ATOM     14  H   LIG d   1      12.295   3.960  -5.033  0.00  0.00     0.069 H 
ENDROOT
BRANCH   1  15
ATOM     15  O   LIG d   1      11.001   5.392  -3.273  0.00  0.00    -0.481 OA
BRANCH  15  16
ATOM     16  C   LIG d   1      11.413   5.458  -1.907  0.00  0.00     0.186 C 
ATOM     17  H   LIG d   1      11.493   4.449  -1.503  0.00  0.00     0.082 H 
ATOM     18  H   LIG d   1      12.382   5.953  -1.843  0.00  0.00     0.082 H 
BRANCH  16  19
ATOM     19  C   LIG d   1      10.396   6.238  -1.113  0.00  0.00     0.345 C 
ATOM     20  O   LIG d   1      10.335   6.105   0.087  0.00  0.00    -0.247 OA
BRANCH  19  21
ATOM     21  O   LIG d   1       9.557   7.078  -1.740  0.00  0.00    -0.466 OA
BRANCH  21  22
ATOM     22  C   LIG d   1       9.206   8.301  -1.040  0.00  0.00     0.082 C 
ATOM     23  H   LIG d   1       8.244   8.171  -0.544  0.00  0.00     0.066 H 
ATOM     24  H   LIG d   1       9.971   8.527  -0.298  0.00  0.00     0.066 H 
ATOM     25  H   LIG d   1       9.138   9.121  -1.755  0.00  0.00     0.066 H 
ENDBRANCH  21  22
ENDBRANCH  19  21
ENDBRANCH  16  19
ENDBRANCH  15  16
ENDBRANCH   1  15
BRANCH  10  26
ATOM     26  O   LIG d   1      11.739   1.626  -6.076  0.00  0.00    -0.480 OA
BRANCH  26  27
ATOM     27  C   LIG d   1      13.114   1.416  -5.750  0.00  0.00     0.186 C 
ATOM     28  H   LIG d   1      13.711   1.439  -6.662  0.00  0.00     0.082 H 
ATOM     29  H   LIG d   1      13.451   2.204  -5.076  0.00  0.00     0.082 H 
BRANCH  27  30
ATOM     30  C   LIG d   1      13.273   0.077  -5.079  0.00  0.00     0.345 C 
ATOM     31  O   LIG d   1      12.895  -0.078  -3.942  0.00  0.00    -0.247 OA
BRANCH  30  32
ATOM     32  O   LIG d   1      13.834  -0.945  -5.744  0.00  0.00    -0.466 OA
BRANCH  32  33
ATOM     33  C   LIG d   1      13.317  -1.233  -7.070  0.00  0.00     0.082 C 
ATOM     34  H   LIG d   1      14.120  -1.145  -7.801  0.00  0.00     0.066 H 
ATOM     35  H   LIG d   1      12.916  -2.246  -7.090  0.00  0.00     0.066 H 
ATOM     36  H   LIG d   1      12.524  -0.524  -7.313  0.00  0.00     0.066 H 
ENDBRANCH  32  33
ENDBRANCH  30  32
ENDBRANCH  27  30
ENDBRANCH  26  27
ENDBRANCH  10  26
BRANCH   8  37
ATOM     37  C   LIG d   1       6.152   0.105  -3.210  0.00  0.00     0.017 A 
ATOM     38  C   LIG d   1       5.209   0.968  -2.648  0.00  0.00    -0.051 A 
ATOM     39  C   LIG d   1       4.026   0.461  -2.151  0.00  0.00    -0.061 A 
ATOM     40  H   LIG d   1       5.405   2.029  -2.602  0.00  0.00     0.062 H 
ATOM     41  C   LIG d   1       3.773  -0.898  -2.208  0.00  0.00    -0.062 A 
ATOM     42  H   LIG d   1       3.296   1.128  -1.715  0.00  0.00     0.062 H 
ATOM     43  C   LIG d   1       4.704  -1.759  -2.763  0.00  0.00    -0.061 A 
ATOM     44  H   LIG d   1       2.845  -1.289  -1.817  0.00  0.00     0.062 H 
ATOM     45  C   LIG d   1       5.888  -1.265  -3.269  0.00  0.00    -0.051 A 
ATOM     46  H   LIG d   1       4.500  -2.818  -2.805  0.00  0.00     0.062 H 
ATOM     47  H   LIG d   1       6.612  -1.937  -3.707  0.00  0.00     0.062 H 
ENDBRANCH   8  37
TORSDOF 11
ENDMDL
MODEL 8
REMARK VINA RESULT:      -5.7      6.407     10.109
REMARK  11 active torsions:
REMARK  status: ('A' for Active; 'I' for Inactive)
REMARK    1  A    between atoms: C_1  and  O_2 
REMARK    2  A    between atoms: O_2  and  C_3 
REMARK    3  A    between atoms: C_3  and  C_5 
REMARK    4  A    between atoms: C_5  and  O_6 
REMARK    5  A    between atoms: O_6  and  C_7 
REMARK    6  A    between atoms: C_14  and  C_16 
REMARK    7  A    between atoms: C_22  and  O_24 
REMARK    8  A    between atoms: O_24  and  C_25 
REMARK    9  A    between atoms: C_25  and  C_26 
REMARK   10  A    between atoms: C_26  and  O_28 
REMARK   11  A    between atoms: O_28  and  C_29 
ROOT
ATOM      1  C   LIG d   1       8.972  -5.347  -5.216  0.00  0.00     0.128 A 
ATOM      2  C   LIG d   1       8.505  -4.191  -4.610  0.00  0.00     0.023 A 
ATOM      3  C   LIG d   1       7.154  -3.886  -4.648  0.00  0.00     0.146 A 
ATOM      4  C   LIG d   1       6.268  -4.753  -5.312  0.00  0.00     0.106 A 
ATOM      5  C   LIG d   1       4.837  -4.404  -5.347  0.00  0.00     0.197 A 
ATOM      6  O   LIG d   1       4.023  -5.122  -5.904  0.00  0.00    -0.287 OA
ATOM      7  C   LIG d   1       4.444  -3.202  -4.708  0.00  0.00     0.029 A 
ATOM      8  C   LIG d   1       5.382  -2.430  -4.098  0.00  0.00     0.139 A 
ATOM      9  O   LIG d   1       6.682  -2.765  -4.064  0.00  0.00    -0.454 OA
ATOM     10  C   LIG d   1       6.746  -5.921  -5.918  0.00  0.00     0.139 A 
ATOM     11  C   LIG d   1       8.098  -6.210  -5.869  0.00  0.00     0.023 A 
ATOM     12  H   LIG d   1       9.195  -3.529  -4.107  0.00  0.00     0.069 H 
ATOM     13  H   LIG d   1       3.407  -2.902  -4.705  0.00  0.00     0.069 H 
ATOM     14  H   LIG d   1       8.475  -7.106  -6.337  0.00  0.00     0.069 H 
ENDROOT
BRANCH   1  15
ATOM     15  O   LIG d   1      10.298  -5.640  -5.174  0.00  0.00    -0.481 OA
BRANCH  15  16
ATOM     16  C   LIG d   1      10.653  -6.999  -4.914  0.00  0.00     0.186 C 
ATOM     17  H   LIG d   1       9.821  -7.650  -5.184  0.00  0.00     0.082 H 
ATOM     18  H   LIG d   1      11.529  -7.265  -5.506  0.00  0.00     0.082 H 
BRANCH  16  19
ATOM     19  C   LIG d   1      10.966  -7.165  -3.449  0.00  0.00     0.345 C 
ATOM     20  O   LIG d   1      12.113  -7.268  -3.084  0.00  0.00    -0.247 OA
BRANCH  19  21
ATOM     21  O   LIG d   1       9.968  -7.200  -2.550  0.00  0.00    -0.466 OA
BRANCH  21  22
ATOM     22  C   LIG d   1       9.898  -6.103  -1.603  0.00  0.00     0.082 C 
ATOM     23  H   LIG d   1      10.907  -5.785  -1.340  0.00  0.00     0.066 H 
ATOM     24  H   LIG d   1       9.360  -5.269  -2.052  0.00  0.00     0.066 H 
ATOM     25  H   LIG d   1       9.375  -6.432  -0.704  0.00  0.00     0.066 H 
ENDBRANCH  21  22
ENDBRANCH  19  21
ENDBRANCH  16  19
ENDBRANCH  15  16
ENDBRANCH   1  15
BRANCH  10  26
ATOM     26  O   LIG d   1       5.891  -6.761  -6.554  0.00  0.00    -0.480 OA
BRANCH  26  27
ATOM     27  C   LIG d   1       6.098  -8.163  -6.366  0.00  0.00     0.186 C 
ATOM     28  H   LIG d   1       6.356  -8.623  -7.320  0.00  0.00     0.082 H 
ATOM     29  H   LIG d   1       6.911  -8.317  -5.656  0.00  0.00     0.082 H 
BRANCH  27  30
ATOM     30  C   LIG d   1       4.837  -8.789  -5.831  0.00  0.00     0.345 C 
ATOM     31  O   LIG d   1       4.299  -8.326  -4.853  0.00  0.00    -0.247 OA
BRANCH  30  32
ATOM     32  O   LIG d   1       4.311  -9.863  -6.440  0.00  0.00    -0.466 OA
BRANCH  32  33
ATOM     33  C   LIG d   1       4.279 -11.102  -5.682  0.00  0.00     0.082 C 
ATOM     34  H   LIG d   1       4.578 -11.930  -6.325  0.00  0.00     0.066 H 
ATOM     35  H   LIG d   1       4.966 -11.029  -4.839  0.00  0.00     0.066 H 
ATOM     36  H   LIG d   1       3.268 -11.276  -5.312  0.00  0.00     0.066 H 
ENDBRANCH  32  33
ENDBRANCH  30  32
ENDBRANCH  27  30
ENDBRANCH  26  27
ENDBRANCH  10  26
BRANCH   8  37
ATOM     37  C   LIG d   1       4.953  -1.182  -3.436  0.00  0.00     0.017 A 
ATOM     38  C   LIG d   1       5.885  -0.181  -3.154  0.00  0.00    -0.051 A 
ATOM     39  C   LIG d   1       5.476   0.983  -2.536  0.00  0.00    -0.061 A 
ATOM     40  H   LIG d   1       6.923  -0.319  -3.418  0.00  0.00     0.062 H 
ATOM     41  C   LIG d   1       4.147   1.160  -2.197  0.00  0.00    -0.062 A 
ATOM     42  H   LIG d   1       6.196   1.757  -2.317  0.00  0.00     0.062 H 
ATOM     43  C   LIG d   1       3.217   0.173  -2.474  0.00  0.00    -0.061 A 
ATOM     44  H   LIG d   1       3.832   2.074  -1.714  0.00  0.00     0.062 H 
ATOM     45  C   LIG d   1       3.611  -0.994  -3.097  0.00  0.00    -0.051 A 
ATOM     46  H   LIG d   1       2.182   0.318  -2.207  0.00  0.00     0.062 H 
ATOM     47  H   LIG d   1       2.884  -1.762  -3.317  0.00  0.00     0.062 H 
ENDBRANCH   8  37
TORSDOF 11
ENDMDL
MODEL 9
REMARK VINA RESULT:      -5.5      1.793      8.190
REMARK  11 active torsions:
REMARK  status: ('A' for Active; 'I' for Inactive)
REMARK    1  A    between atoms: C_1  and  O_2 
REMARK    2  A    between atoms: O_2  and  C_3 
REMARK    3  A    between atoms: C_3  and  C_5 
REMARK    4  A    between atoms: C_5  and  O_6 
REMARK    5  A    between atoms: O_6  and  C_7 
REMARK    6  A    between atoms: C_14  and  C_16 
REMARK    7  A    between atoms: C_22  and  O_24 
REMARK    8  A    between atoms: O_24  and  C_25 
REMARK    9  A    between atoms: C_25  and  C_26 
REMARK   10  A    between atoms: C_26  and  O_28 
REMARK   11  A    between atoms: O_28  and  C_29 
ROOT
ATOM      1  C   LIG d   1       9.441   2.987  -4.646  0.00  0.00     0.128 A 
ATOM      2  C   LIG d   1       9.460   3.366  -5.979  0.00  0.00     0.023 A 
ATOM      3  C   LIG d   1       9.574   4.705  -6.318  0.00  0.00     0.146 A 
ATOM      4  C   LIG d   1       9.662   5.671  -5.299  0.00  0.00     0.106 A 
ATOM      5  C   LIG d   1       9.774   7.088  -5.683  0.00  0.00     0.197 A 
ATOM      6  O   LIG d   1       9.859   7.968  -4.841  0.00  0.00    -0.287 OA
ATOM      7  C   LIG d   1       9.780   7.390  -7.067  0.00  0.00     0.029 A 
ATOM      8  C   LIG d   1       9.684   6.382  -7.973  0.00  0.00     0.139 A 
ATOM      9  O   LIG d   1       9.593   5.092  -7.610  0.00  0.00    -0.454 OA
ATOM     10  C   LIG d   1       9.647   5.280  -3.955  0.00  0.00     0.139 A 
ATOM     11  C   LIG d   1       9.535   3.939  -3.636  0.00  0.00     0.023 A 
ATOM     12  H   LIG d   1       9.386   2.617  -6.754  0.00  0.00     0.069 H 
ATOM     13  H   LIG d   1       9.859   8.414  -7.400  0.00  0.00     0.069 H 
ATOM     14  H   LIG d   1       9.518   3.631  -2.602  0.00  0.00     0.069 H 
ENDROOT
BRANCH   1  15
ATOM     15  O   LIG d   1       9.331   1.673  -4.322  0.00  0.00    -0.481 OA
BRANCH  15  16
ATOM     16  C   LIG d   1       8.219   0.962  -4.869  0.00  0.00     0.186 C 
ATOM     17  H   LIG d   1       7.746   1.567  -5.642  0.00  0.00     0.082 H 
ATOM     18  H   LIG d   1       8.566   0.024  -5.303  0.00  0.00     0.082 H 
BRANCH  16  19
ATOM     19  C   LIG d   1       7.222   0.672  -3.776  0.00  0.00     0.345 C 
ATOM     20  O   LIG d   1       7.118  -0.447  -3.334  0.00  0.00    -0.247 OA
BRANCH  19  21
ATOM     21  O   LIG d   1       6.449   1.659  -3.295  0.00  0.00    -0.466 OA
BRANCH  21  22
ATOM     22  C   LIG d   1       5.181   1.273  -2.703  0.00  0.00     0.082 C 
ATOM     23  H   LIG d   1       5.203   0.211  -2.460  0.00  0.00     0.066 H 
ATOM     24  H   LIG d   1       5.014   1.850  -1.794  0.00  0.00     0.066 H 
ATOM     25  H   LIG d   1       4.375   1.467  -3.411  0.00  0.00     0.066 H 
ENDBRANCH  21  22
ENDBRANCH  19  21
ENDBRANCH  16  19
ENDBRANCH  15  16
ENDBRANCH   1  15
BRANCH  10  26
ATOM     26  O   LIG d   1       9.738   6.211  -2.971  0.00  0.00    -0.480 OA
BRANCH  26  27
ATOM     27  C   LIG d   1      10.397   5.819  -1.765  0.00  0.00     0.186 C 
ATOM     28  H   LIG d   1      10.114   4.798  -1.512  0.00  0.00     0.082 H 
ATOM     29  H   LIG d   1      11.477   5.872  -1.909  0.00  0.00     0.082 H 
BRANCH  27  30
ATOM     30  C   LIG d   1       9.993   6.745  -0.648  0.00  0.00     0.345 C 
ATOM     31  O   LIG d   1       9.167   7.605  -0.844  0.00  0.00    -0.247 OA
BRANCH  30  32
ATOM     32  O   LIG d   1      10.550   6.616   0.566  0.00  0.00    -0.466 OA
BRANCH  32  33
ATOM     33  C   LIG d   1      11.338   7.734   1.053  0.00  0.00     0.082 C 
ATOM     34  H   LIG d   1      11.531   8.427   0.235  0.00  0.00     0.066 H 
ATOM     35  H   LIG d   1      10.790   8.247   1.843  0.00  0.00     0.066 H 
ATOM     36  H   LIG d   1      12.286   7.366   1.448  0.00  0.00     0.066 H 
ENDBRANCH  32  33
ENDBRANCH  30  32
ENDBRANCH  27  30
ENDBRANCH  26  27
ENDBRANCH  10  26
BRANCH   8  37
ATOM     37  C   LIG d   1       9.692   6.716  -9.411  0.00  0.00     0.017 A 
ATOM     38  C   LIG d   1       9.057   5.878 -10.330  0.00  0.00    -0.051 A 
ATOM     39  C   LIG d   1       9.069   6.198 -11.672  0.00  0.00    -0.061 A 
ATOM     40  H   LIG d   1       8.559   4.982  -9.991  0.00  0.00     0.062 H 
ATOM     41  C   LIG d   1       9.707   7.345 -12.108  0.00  0.00    -0.062 A 
ATOM     42  H   LIG d   1       8.579   5.550 -12.383  0.00  0.00     0.062 H 
ATOM     43  C   LIG d   1      10.339   8.180 -11.203  0.00  0.00    -0.061 A 
ATOM     44  H   LIG d   1       9.713   7.590 -13.160  0.00  0.00     0.062 H 
ATOM     45  C   LIG d   1      10.330   7.876  -9.857  0.00  0.00    -0.051 A 
ATOM     46  H   LIG d   1      10.835   9.073 -11.550  0.00  0.00     0.062 H 
ATOM     47  H   LIG d   1      10.819   8.531  -9.151  0.00  0.00     0.062 H 
ENDBRANCH   8  37
TORSDOF 11
ENDMDL
MODEL 10
REMARK VINA RESULT:      -5.5      6.818     10.288
REMARK  11 active torsions:
REMARK  status: ('A' for Active; 'I' for Inactive)
REMARK    1  A    between atoms: C_1  and  O_2 
REMARK    2  A    between atoms: O_2  and  C_3 
REMARK    3  A    between atoms: C_3  and  C_5 
REMARK    4  A    between atoms: C_5  and  O_6 
REMARK    5  A    between atoms: O_6  and  C_7 
REMARK    6  A    between atoms: C_14  and  C_16 
REMARK    7  A    between atoms: C_22  and  O_24 
REMARK    8  A    between atoms: O_24  and  C_25 
REMARK    9  A    between atoms: C_25  and  C_26 
REMARK   10  A    between atoms: C_26  and  O_28 
REMARK   11  A    between atoms: O_28  and  C_29 
ROOT
ATOM      1  C   LIG d   1       4.601  -3.892  -9.117  0.00  0.00     0.128 A 
ATOM      2  C   LIG d   1       4.727  -3.485  -7.798  0.00  0.00     0.023 A 
ATOM      3  C   LIG d   1       4.197  -2.271  -7.393  0.00  0.00     0.146 A 
ATOM      4  C   LIG d   1       3.540  -1.455  -8.332  0.00  0.00     0.106 A 
ATOM      5  C   LIG d   1       2.993  -0.165  -7.881  0.00  0.00     0.197 A 
ATOM      6  O   LIG d   1       2.409   0.580  -8.651  0.00  0.00    -0.287 OA
ATOM      7  C   LIG d   1       3.170   0.177  -6.518  0.00  0.00     0.029 A 
ATOM      8  C   LIG d   1       3.826  -0.680  -5.692  0.00  0.00     0.139 A 
ATOM      9  O   LIG d   1       4.311  -1.859  -6.113  0.00  0.00    -0.454 OA
ATOM     10  C   LIG d   1       3.413  -1.875  -9.662  0.00  0.00     0.139 A 
ATOM     11  C   LIG d   1       3.946  -3.091 -10.047  0.00  0.00     0.023 A 
ATOM     12  H   LIG d   1       5.238  -4.116  -7.085  0.00  0.00     0.069 H 
ATOM     13  H   LIG d   1       2.787   1.113  -6.137  0.00  0.00     0.069 H 
ATOM     14  H   LIG d   1       3.856  -3.419 -11.071  0.00  0.00     0.069 H 
ENDROOT
BRANCH   1  15
ATOM     15  O   LIG d   1       5.121  -5.085  -9.506  0.00  0.00    -0.481 OA
BRANCH  15  16
ATOM     16  C   LIG d   1       4.252  -5.972 -10.212  0.00  0.00     0.186 C 
ATOM     17  H   LIG d   1       3.759  -5.431 -11.020  0.00  0.00     0.082 H 
ATOM     18  H   LIG d   1       4.832  -6.796 -10.626  0.00  0.00     0.082 H 
BRANCH  16  19
ATOM     19  C   LIG d   1       3.212  -6.515  -9.265  0.00  0.00     0.345 C 
ATOM     20  O   LIG d   1       3.541  -7.245  -8.360  0.00  0.00    -0.247 OA
BRANCH  19  21
ATOM     21  O   LIG d   1       1.920  -6.188  -9.428  0.00  0.00    -0.466 OA
BRANCH  21  22
ATOM     22  C   LIG d   1       1.204  -6.853 -10.501  0.00  0.00     0.082 C 
ATOM     23  H   LIG d   1       1.196  -7.928 -10.321  0.00  0.00     0.066 H 
ATOM     24  H   LIG d   1       0.179  -6.483 -10.538  0.00  0.00     0.066 H 
ATOM     25  H   LIG d   1       1.699  -6.647 -11.451  0.00  0.00     0.066 H 
ENDBRANCH  21  22
ENDBRANCH  19  21
ENDBRANCH  16  19
ENDBRANCH  15  16
ENDBRANCH   1  15
BRANCH  10  26
ATOM     26  O   LIG d   1       2.774  -1.092 -10.568  0.00  0.00    -0.480 OA
BRANCH  26  27
ATOM     27  C   LIG d   1       2.725  -1.565 -11.915  0.00  0.00     0.186 C 
ATOM     28  H   LIG d   1       3.145  -0.811 -12.580  0.00  0.00     0.082 H 
ATOM     29  H   LIG d   1       3.304  -2.485 -11.997  0.00  0.00     0.082 H 
BRANCH  27  30
ATOM     30  C   LIG d   1       1.294  -1.834 -12.301  0.00  0.00     0.345 C 
ATOM     31  O   LIG d   1       0.428  -1.046 -12.003  0.00  0.00    -0.247 OA
BRANCH  30  32
ATOM     32  O   LIG d   1       0.979  -2.952 -12.975  0.00  0.00    -0.466 OA
BRANCH  32  33
ATOM     33  C   LIG d   1       1.994  -3.988 -13.043  0.00  0.00     0.082 C 
ATOM     34  H   LIG d   1       2.595  -3.970 -12.135  0.00  0.00     0.066 H 
ATOM     35  H   LIG d   1       1.512  -4.961 -13.140  0.00  0.00     0.066 H 
ATOM     36  H   LIG d   1       2.636  -3.813 -13.907  0.00  0.00     0.066 H 
ENDBRANCH  32  33
ENDBRANCH  30  32
ENDBRANCH  27  30
ENDBRANCH  26  27
ENDBRANCH  10  26
BRANCH   8  37
ATOM     37  C   LIG d   1       4.000  -0.306  -4.274  0.00  0.00     0.017 A 
ATOM     38  C   LIG d   1       3.519   0.919  -3.807  0.00  0.00    -0.051 A 
ATOM     39  C   LIG d   1       3.685   1.262  -2.481  0.00  0.00    -0.061 A 
ATOM     40  H   LIG d   1       3.020   1.598  -4.483  0.00  0.00     0.062 H 
ATOM     41  C   LIG d   1       4.325   0.394  -1.614  0.00  0.00    -0.062 A 
ATOM     42  H   LIG d   1       3.315   2.209  -2.119  0.00  0.00     0.062 H 
ATOM     43  C   LIG d   1       4.804  -0.822  -2.070  0.00  0.00    -0.061 A 
ATOM     44  H   LIG d   1       4.453   0.667  -0.577  0.00  0.00     0.062 H 
ATOM     45  C   LIG d   1       4.640  -1.179  -3.392  0.00  0.00    -0.051 A 
ATOM     46  H   LIG d   1       5.303  -1.494  -1.388  0.00  0.00     0.062 H 
ATOM     47  H   LIG d   1       5.010  -2.131  -3.746  0.00  0.00     0.062 H 
ENDBRANCH   8  37
TORSDOF 11
ENDMDL
