MODEL 1
REMARK VINA RESULT:      -7.0      0.000      0.000
REMARK  2 active torsions:
REMARK  status: ('A' for Active; 'I' for Inactive)
REMARK    1  A    between atoms: C_1  and  N_2 
REMARK    2  A    between atoms: C_17  and  O_20 
ROOT
ATOM      1  N   LIG d   1       3.428  -1.781  -7.946  0.00  0.00     0.239 N 
ATOM      2  C   LIG d   1       3.009  -0.427  -8.310  0.00  0.00    -0.028 C 
ATOM      3  C   LIG d   1       2.420   0.297  -7.112  0.00  0.00     0.013 C 
ATOM      4  C   LIG d   1       3.172   0.001  -5.845  0.00  0.00    -0.030 A 
ATOM      5  C   LIG d   1       2.834   0.711  -4.699  0.00  0.00    -0.012 A 
ATOM      6  C   LIG d   1       3.509   0.503  -3.510  0.00  0.00     0.167 A 
ATOM      7  C   LIG d   1       4.535  -0.435  -3.455  0.00  0.00     0.174 A 
ATOM      8  C   LIG d   1       4.860  -1.165  -4.596  0.00  0.00     0.037 A 
ATOM      9  C   LIG d   1       4.180  -0.939  -5.796  0.00  0.00     0.015 A 
ATOM     10  C   LIG d   1       4.573  -1.713  -7.027  0.00  0.00     0.010 C 
ATOM     11  H   LIG d   1       5.404  -1.209  -7.521  0.00  0.00     0.091 H 
ATOM     12  C   LIG d   1       4.996  -3.135  -6.665  0.00  0.00     0.021 C 
ATOM     13  C   LIG d   1       6.029  -3.123  -5.572  0.00  0.00    -0.034 A 
ATOM     14  C   LIG d   1       5.948  -2.171  -4.558  0.00  0.00    -0.007 A 
ATOM     15  C   LIG d   1       6.883  -2.166  -3.528  0.00  0.00    -0.012 A 
ATOM     16  C   LIG d   1       7.901  -3.107  -3.525  0.00  0.00     0.117 A 
ATOM     17  C   LIG d   1       7.986  -4.043  -4.546  0.00  0.00    -0.020 A 
ATOM     18  C   LIG d   1       7.052  -4.050  -5.564  0.00  0.00    -0.054 A 
ATOM     19  O   LIG d   1       5.049  -0.448  -2.192  0.00  0.00    -0.452 OA
ATOM     20  C   LIG d   1       4.595   0.773  -1.578  0.00  0.00     0.233 C 
ATOM     21  O   LIG d   1       3.370   1.069  -2.276  0.00  0.00    -0.453 OA
ATOM     22  H   LIG d   1       3.873   0.128  -8.676  0.00  0.00     0.082 H 
ATOM     23  H   LIG d   1       2.261  -0.484  -9.099  0.00  0.00     0.082 H 
ATOM     24  H   LIG d   1       2.449   1.371  -7.297  0.00  0.00     0.036 H 
ATOM     25  H   LIG d   1       1.381  -0.010  -6.987  0.00  0.00     0.036 H 
ATOM     26  H   LIG d   1       2.034   1.435  -4.738  0.00  0.00     0.066 H 
ATOM     27  H   LIG d   1       4.123  -3.695  -6.328  0.00  0.00     0.037 H 
ATOM     28  H   LIG d   1       5.414  -3.621  -7.548  0.00  0.00     0.037 H 
ATOM     29  H   LIG d   1       6.815  -1.435  -2.737  0.00  0.00     0.066 H 
ATOM     30  H   LIG d   1       8.785  -4.770  -4.543  0.00  0.00     0.065 H 
ATOM     31  H   LIG d   1       7.121  -4.783  -6.356  0.00  0.00     0.062 H 
ATOM     32  H   LIG d   1       4.403   0.621  -0.516  0.00  0.00     0.117 H 
ATOM     33  H   LIG d   1       5.323   1.571  -1.727  0.00  0.00     0.117 H 
ATOM     34  H   LIG d   1       2.662  -2.259  -7.494  0.00  0.00     0.204 HD
ENDROOT
BRANCH   1  35
ATOM     35  C   LIG d   1       3.816  -2.516  -9.157  0.00  0.00    -0.043 C 
ATOM     36  H   LIG d   1       3.007  -2.466  -9.887  0.00  0.00     0.078 H 
ATOM     37  H   LIG d   1       4.715  -2.070  -9.581  0.00  0.00     0.078 H 
ATOM     38  H   LIG d   1       4.011  -3.558  -8.903  0.00  0.00     0.078 H 
ENDBRANCH   1  35
BRANCH  16  39
ATOM     39  O   LIG d   1       8.818  -3.110  -2.521  0.00  0.00    -0.507 OA
ATOM     40  H   LIG d   1       8.863  -3.943  -2.033  0.00  0.00     0.292 HD
ENDBRANCH  16  39
TORSDOF 2
ENDMDL
MODEL 2
REMARK VINA RESULT:      -6.7      2.274      4.573
REMARK  2 active torsions:
REMARK  status: ('A' for Active; 'I' for Inactive)
REMARK    1  A    between atoms: C_1  and  N_2 
REMARK    2  A    between atoms: C_17  and  O_20 
ROOT
ATOM      1  N   LIG d   1       5.571  -4.496  -6.589  0.00  0.00     0.239 N 
ATOM      2  C   LIG d   1       6.352  -4.320  -7.813  0.00  0.00    -0.028 C 
ATOM      3  C   LIG d   1       5.606  -3.448  -8.810  0.00  0.00     0.013 C 
ATOM      4  C   LIG d   1       4.891  -2.307  -8.140  0.00  0.00    -0.030 A 
ATOM      5  C   LIG d   1       4.292  -1.346  -8.944  0.00  0.00    -0.012 A 
ATOM      6  C   LIG d   1       3.644  -0.258  -8.387  0.00  0.00     0.167 A 
ATOM      7  C   LIG d   1       3.582  -0.128  -7.003  0.00  0.00     0.174 A 
ATOM      8  C   LIG d   1       4.163  -1.102  -6.195  0.00  0.00     0.037 A 
ATOM      9  C   LIG d   1       4.825  -2.191  -6.768  0.00  0.00     0.015 A 
ATOM     10  C   LIG d   1       5.478  -3.214  -5.875  0.00  0.00     0.010 C 
ATOM     11  H   LIG d   1       6.479  -2.875  -5.608  0.00  0.00     0.091 H 
ATOM     12  C   LIG d   1       4.664  -3.422  -4.599  0.00  0.00     0.021 C 
ATOM     13  C   LIG d   1       4.365  -2.106  -3.935  0.00  0.00    -0.034 A 
ATOM     14  C   LIG d   1       4.106  -0.983  -4.719  0.00  0.00    -0.007 A 
ATOM     15  C   LIG d   1       3.803   0.233  -4.116  0.00  0.00    -0.012 A 
ATOM     16  C   LIG d   1       3.774   0.323  -2.733  0.00  0.00     0.117 A 
ATOM     17  C   LIG d   1       4.048  -0.795  -1.958  0.00  0.00    -0.020 A 
ATOM     18  C   LIG d   1       4.342  -2.005  -2.560  0.00  0.00    -0.054 A 
ATOM     19  O   LIG d   1       2.910   1.020  -6.702  0.00  0.00    -0.452 OA
ATOM     20  C   LIG d   1       2.907   1.796  -7.916  0.00  0.00     0.233 C 
ATOM     21  O   LIG d   1       2.997   0.802  -8.954  0.00  0.00    -0.453 OA
ATOM     22  H   LIG d   1       7.303  -3.849  -7.566  0.00  0.00     0.082 H 
ATOM     23  H   LIG d   1       6.541  -5.294  -8.261  0.00  0.00     0.082 H 
ATOM     24  H   LIG d   1       6.318  -3.044  -9.530  0.00  0.00     0.036 H 
ATOM     25  H   LIG d   1       4.877  -4.059  -9.341  0.00  0.00     0.036 H 
ATOM     26  H   LIG d   1       4.333  -1.448 -10.018  0.00  0.00     0.066 H 
ATOM     27  H   LIG d   1       3.727  -3.920  -4.848  0.00  0.00     0.037 H 
ATOM     28  H   LIG d   1       5.231  -4.050  -3.911  0.00  0.00     0.037 H 
ATOM     29  H   LIG d   1       3.592   1.102  -4.722  0.00  0.00     0.066 H 
ATOM     30  H   LIG d   1       4.031  -0.720  -0.881  0.00  0.00     0.065 H 
ATOM     31  H   LIG d   1       4.553  -2.873  -1.951  0.00  0.00     0.062 H 
ATOM     32  H   LIG d   1       1.979   2.361  -8.007  0.00  0.00     0.117 H 
ATOM     33  H   LIG d   1       3.768   2.462  -7.947  0.00  0.00     0.117 H 
ATOM     34  H   LIG d   1       4.644  -4.816  -6.826  0.00  0.00     0.204 HD
ENDROOT
BRANCH   1  35
ATOM     35  C   LIG d   1       6.227  -5.489  -5.728  0.00  0.00    -0.043 C 
ATOM     36  H   LIG d   1       6.113  -6.481  -6.167  0.00  0.00     0.078 H 
ATOM     37  H   LIG d   1       7.287  -5.250  -5.640  0.00  0.00     0.078 H 
ATOM     38  H   LIG d   1       5.767  -5.473  -4.740  0.00  0.00     0.078 H 
ENDBRANCH   1  35
BRANCH  16  39
ATOM     39  O   LIG d   1       3.477   1.508  -2.136  0.00  0.00    -0.507 OA
ATOM     40  H   LIG d   1       4.108   1.773  -1.453  0.00  0.00     0.292 HD
ENDBRANCH  16  39
TORSDOF 2
ENDMDL
MODEL 3
REMARK VINA RESULT:      -6.5      9.159     10.490
REMARK  2 active torsions:
REMARK  status: ('A' for Active; 'I' for Inactive)
REMARK    1  A    between atoms: C_1  and  N_2 
REMARK    2  A    between atoms: C_17  and  O_20 
ROOT
ATOM      1  N   LIG d   1       9.467   9.309  -4.981  0.00  0.00     0.239 N 
ATOM      2  C   LIG d   1      10.334  10.428  -4.610  0.00  0.00    -0.028 C 
ATOM      3  C   LIG d   1      10.343  10.627  -3.103  0.00  0.00     0.013 C 
ATOM      4  C   LIG d   1      10.351   9.321  -2.359  0.00  0.00    -0.030 A 
ATOM      5  C   LIG d   1      10.509   9.352  -0.979  0.00  0.00    -0.012 A 
ATOM      6  C   LIG d   1      10.554   8.182  -0.243  0.00  0.00     0.167 A 
ATOM      7  C   LIG d   1      10.430   6.957  -0.889  0.00  0.00     0.174 A 
ATOM      8  C   LIG d   1      10.248   6.924  -2.270  0.00  0.00     0.037 A 
ATOM      9  C   LIG d   1      10.216   8.111  -3.006  0.00  0.00     0.015 A 
ATOM     10  C   LIG d   1      10.056   8.050  -4.502  0.00  0.00     0.010 C 
ATOM     11  H   LIG d   1      11.033   7.907  -4.965  0.00  0.00     0.091 H 
ATOM     12  C   LIG d   1       9.139   6.896  -4.906  0.00  0.00     0.021 C 
ATOM     13  C   LIG d   1       9.587   5.610  -4.267  0.00  0.00    -0.034 A 
ATOM     14  C   LIG d   1      10.111   5.628  -2.976  0.00  0.00    -0.007 A 
ATOM     15  C   LIG d   1      10.504   4.442  -2.367  0.00  0.00    -0.012 A 
ATOM     16  C   LIG d   1      10.383   3.245  -3.056  0.00  0.00     0.117 A 
ATOM     17  C   LIG d   1       9.874   3.235  -4.347  0.00  0.00    -0.020 A 
ATOM     18  C   LIG d   1       9.478   4.415  -4.949  0.00  0.00    -0.054 A 
ATOM     19  O   LIG d   1      10.517   5.962   0.040  0.00  0.00    -0.452 OA
ATOM     20  C   LIG d   1      11.094   6.575   1.209  0.00  0.00     0.233 C 
ATOM     21  O   LIG d   1      10.705   7.956   1.095  0.00  0.00    -0.453 OA
ATOM     22  H   LIG d   1      11.348  10.224  -4.951  0.00  0.00     0.082 H 
ATOM     23  H   LIG d   1       9.971  11.336  -5.089  0.00  0.00     0.082 H 
ATOM     24  H   LIG d   1      11.230  11.197  -2.827  0.00  0.00     0.036 H 
ATOM     25  H   LIG d   1       9.457  11.193  -2.815  0.00  0.00     0.036 H 
ATOM     26  H   LIG d   1      10.600  10.303  -0.475  0.00  0.00     0.066 H 
ATOM     27  H   LIG d   1       8.121   7.119  -4.589  0.00  0.00     0.037 H 
ATOM     28  H   LIG d   1       9.160   6.785  -5.991  0.00  0.00     0.037 H 
ATOM     29  H   LIG d   1      10.901   4.453  -1.363  0.00  0.00     0.066 H 
ATOM     30  H   LIG d   1       9.787   2.302  -4.883  0.00  0.00     0.065 H 
ATOM     31  H   LIG d   1       9.081   4.401  -5.954  0.00  0.00     0.062 H 
ATOM     32  H   LIG d   1      10.681   6.134   2.116  0.00  0.00     0.117 H 
ATOM     33  H   LIG d   1      12.179   6.479   1.195  0.00  0.00     0.117 H 
ATOM     34  H   LIG d   1       8.558   9.435  -4.563  0.00  0.00     0.204 HD
ENDROOT
BRANCH   1  35
ATOM     35  C   LIG d   1       9.331   9.260  -6.443  0.00  0.00    -0.043 C 
ATOM     36  H   LIG d   1       8.290   9.067  -6.704  0.00  0.00     0.078 H 
ATOM     37  H   LIG d   1       9.640  10.215  -6.869  0.00  0.00     0.078 H 
ATOM     38  H   LIG d   1       9.960   8.464  -6.840  0.00  0.00     0.078 H 
ENDBRANCH   1  35
BRANCH  16  39
ATOM     39  O   LIG d   1      10.763   2.080  -2.466  0.00  0.00    -0.507 OA
ATOM     40  H   LIG d   1      11.589   2.144  -1.968  0.00  0.00     0.292 HD
ENDBRANCH  16  39
TORSDOF 2
ENDMDL
MODEL 4
REMARK VINA RESULT:      -6.4      9.336     11.076
REMARK  2 active torsions:
REMARK  status: ('A' for Active; 'I' for Inactive)
REMARK    1  A    between atoms: C_1  and  N_2 
REMARK    2  A    between atoms: C_17  and  O_20 
ROOT
ATOM      1  N   LIG d   1      10.545   9.922  -4.438  0.00  0.00     0.239 N 
ATOM      2  C   LIG d   1       9.464   9.864  -5.422  0.00  0.00    -0.028 C 
ATOM      3  C   LIG d   1       9.391   8.488  -6.065  0.00  0.00     0.013 C 
ATOM      4  C   LIG d   1       9.636   7.386  -5.072  0.00  0.00    -0.030 A 
ATOM      5  C   LIG d   1       9.454   6.074  -5.490  0.00  0.00    -0.012 A 
ATOM      6  C   LIG d   1       9.636   5.018  -4.615  0.00  0.00     0.167 A 
ATOM      7  C   LIG d   1      10.017   5.271  -3.301  0.00  0.00     0.174 A 
ATOM      8  C   LIG d   1      10.223   6.584  -2.886  0.00  0.00     0.037 A 
ATOM      9  C   LIG d   1      10.025   7.645  -3.774  0.00  0.00     0.015 A 
ATOM     10  C   LIG d   1      10.217   9.059  -3.294  0.00  0.00     0.010 C 
ATOM     11  H   LIG d   1       9.297   9.411  -2.827  0.00  0.00     0.091 H 
ATOM     12  C   LIG d   1      11.355   9.140  -2.278  0.00  0.00     0.021 C 
ATOM     13  C   LIG d   1      11.169   8.123  -1.185  0.00  0.00    -0.034 A 
ATOM     14  C   LIG d   1      10.632   6.874  -1.491  0.00  0.00    -0.007 A 
ATOM     15  C   LIG d   1      10.478   5.918  -0.493  0.00  0.00    -0.012 A 
ATOM     16  C   LIG d   1      10.851   6.220   0.808  0.00  0.00     0.117 A 
ATOM     17  C   LIG d   1      11.371   7.471   1.108  0.00  0.00    -0.020 A 
ATOM     18  C   LIG d   1      11.529   8.418   0.114  0.00  0.00    -0.054 A 
ATOM     19  O   LIG d   1      10.119   4.083  -2.639  0.00  0.00    -0.452 OA
ATOM     20  C   LIG d   1       9.412   3.126  -3.451  0.00  0.00     0.233 C 
ATOM     21  O   LIG d   1       9.514   3.669  -4.781  0.00  0.00    -0.453 OA
ATOM     22  H   LIG d   1       8.517  10.079  -4.927  0.00  0.00     0.082 H 
ATOM     23  H   LIG d   1       9.641  10.611  -6.194  0.00  0.00     0.082 H 
ATOM     24  H   LIG d   1       8.402   8.355  -6.504  0.00  0.00     0.036 H 
ATOM     25  H   LIG d   1      10.139   8.426  -6.855  0.00  0.00     0.036 H 
ATOM     26  H   LIG d   1       9.164   5.876  -6.511  0.00  0.00     0.066 H 
ATOM     27  H   LIG d   1      12.302   8.953  -2.784  0.00  0.00     0.037 H 
ATOM     28  H   LIG d   1      11.374  10.139  -1.840  0.00  0.00     0.037 H 
ATOM     29  H   LIG d   1      10.072   4.946  -0.730  0.00  0.00     0.066 H 
ATOM     30  H   LIG d   1      11.654   7.705   2.124  0.00  0.00     0.065 H 
ATOM     31  H   LIG d   1      11.936   9.390   0.354  0.00  0.00     0.062 H 
ATOM     32  H   LIG d   1       9.892   2.149  -3.399  0.00  0.00     0.117 H 
ATOM     33  H   LIG d   1       8.369   3.059  -3.143  0.00  0.00     0.117 H 
ATOM     34  H   LIG d   1      11.403   9.604  -4.863  0.00  0.00     0.204 HD
ENDROOT
BRANCH   1  35
ATOM     35  C   LIG d   1      10.711  11.306  -3.975  0.00  0.00    -0.043 C 
ATOM     36  H   LIG d   1      11.711  11.657  -4.232  0.00  0.00     0.078 H 
ATOM     37  H   LIG d   1       9.969  11.942  -4.457  0.00  0.00     0.078 H 
ATOM     38  H   LIG d   1      10.579  11.346  -2.894  0.00  0.00     0.078 H 
ENDBRANCH   1  35
BRANCH  16  39
ATOM     39  O   LIG d   1      10.706   5.289   1.788  0.00  0.00    -0.507 OA
ATOM     40  H   LIG d   1      11.318   5.400   2.528  0.00  0.00     0.292 HD
ENDBRANCH  16  39
TORSDOF 2
ENDMDL
MODEL 5
REMARK VINA RESULT:      -6.4      3.109      5.296
REMARK  2 active torsions:
REMARK  status: ('A' for Active; 'I' for Inactive)
REMARK    1  A    between atoms: C_1  and  N_2 
REMARK    2  A    between atoms: C_17  and  O_20 
ROOT
ATOM      1  N   LIG d   1       8.110  -4.149  -5.454  0.00  0.00     0.239 N 
ATOM      2  C   LIG d   1       9.572  -4.147  -5.404  0.00  0.00    -0.028 C 
ATOM      3  C   LIG d   1      10.130  -2.836  -5.934  0.00  0.00     0.013 C 
ATOM      4  C   LIG d   1       9.308  -1.655  -5.499  0.00  0.00    -0.030 A 
ATOM      5  C   LIG d   1       9.785  -0.382  -5.788  0.00  0.00    -0.012 A 
ATOM      6  C   LIG d   1       9.088   0.744  -5.389  0.00  0.00     0.167 A 
ATOM      7  C   LIG d   1       7.888   0.603  -4.698  0.00  0.00     0.174 A 
ATOM      8  C   LIG d   1       7.397  -0.671  -4.429  0.00  0.00     0.037 A 
ATOM      9  C   LIG d   1       8.114  -1.803  -4.825  0.00  0.00     0.015 A 
ATOM     10  C   LIG d   1       7.582  -3.172  -4.490  0.00  0.00     0.010 C 
ATOM     11  H   LIG d   1       7.900  -3.447  -3.484  0.00  0.00     0.091 H 
ATOM     12  C   LIG d   1       6.056  -3.195  -4.555  0.00  0.00     0.021 C 
ATOM     13  C   LIG d   1       5.470  -2.074  -3.741  0.00  0.00    -0.034 A 
ATOM     14  C   LIG d   1       6.120  -0.842  -3.696  0.00  0.00    -0.007 A 
ATOM     15  C   LIG d   1       5.573   0.208  -2.967  0.00  0.00    -0.012 A 
ATOM     16  C   LIG d   1       4.387   0.017  -2.276  0.00  0.00     0.117 A 
ATOM     17  C   LIG d   1       3.753  -1.217  -2.312  0.00  0.00    -0.020 A 
ATOM     18  C   LIG d   1       4.294  -2.258  -3.043  0.00  0.00    -0.054 A 
ATOM     19  O   LIG d   1       7.404   1.845  -4.407  0.00  0.00    -0.452 OA
ATOM     20  C   LIG d   1       8.516   2.743  -4.577  0.00  0.00     0.233 C 
ATOM     21  O   LIG d   1       9.348   2.075  -5.544  0.00  0.00    -0.453 OA
ATOM     22  H   LIG d   1       9.895  -4.283  -4.372  0.00  0.00     0.082 H 
ATOM     23  H   LIG d   1       9.952  -4.969  -6.008  0.00  0.00     0.082 H 
ATOM     24  H   LIG d   1      11.149  -2.712  -5.568  0.00  0.00     0.036 H 
ATOM     25  H   LIG d   1      10.148  -2.873  -7.023  0.00  0.00     0.036 H 
ATOM     26  H   LIG d   1      10.713  -0.271  -6.329  0.00  0.00     0.066 H 
ATOM     27  H   LIG d   1       5.740  -3.088  -5.593  0.00  0.00     0.037 H 
ATOM     28  H   LIG d   1       5.695  -4.148  -4.167  0.00  0.00     0.037 H 
ATOM     29  H   LIG d   1       6.070   1.166  -2.940  0.00  0.00     0.066 H 
ATOM     30  H   LIG d   1       2.832  -1.364  -1.766  0.00  0.00     0.065 H 
ATOM     31  H   LIG d   1       3.795  -3.216  -3.068  0.00  0.00     0.062 H 
ATOM     32  H   LIG d   1       8.177   3.704  -4.963  0.00  0.00     0.117 H 
ATOM     33  H   LIG d   1       9.050   2.874  -3.636  0.00  0.00     0.117 H 
ATOM     34  H   LIG d   1       7.806  -3.901  -6.384  0.00  0.00     0.204 HD
ENDROOT
BRANCH   1  35
ATOM     35  C   LIG d   1       7.610  -5.488  -5.116  0.00  0.00    -0.043 C 
ATOM     36  H   LIG d   1       8.095  -5.837  -4.204  0.00  0.00     0.078 H 
ATOM     37  H   LIG d   1       6.532  -5.446  -4.960  0.00  0.00     0.078 H 
ATOM     38  H   LIG d   1       7.833  -6.175  -5.932  0.00  0.00     0.078 H 
ENDBRANCH   1  35
BRANCH  16  39
ATOM     39  O   LIG d   1       3.845   1.040  -1.562  0.00  0.00    -0.507 OA
ATOM     40  H   LIG d   1       3.221   1.581  -2.063  0.00  0.00     0.292 HD
ENDBRANCH  16  39
TORSDOF 2
ENDMDL
MODEL 6
REMARK VINA RESULT:      -6.1     10.147     11.273
REMARK  2 active torsions:
REMARK  status: ('A' for Active; 'I' for Inactive)
REMARK    1  A    between atoms: C_1  and  N_2 
REMARK    2  A    between atoms: C_17  and  O_20 
ROOT
ATOM      1  N   LIG d   1       9.226   9.295  -6.568  0.00  0.00     0.239 N 
ATOM      2  C   LIG d   1       9.912  10.575  -6.747  0.00  0.00    -0.028 C 
ATOM      3  C   LIG d   1       9.729  11.463  -5.527  0.00  0.00     0.013 C 
ATOM      4  C   LIG d   1       9.802  10.683  -4.244  0.00  0.00    -0.030 A 
ATOM      5  C   LIG d   1       9.800  11.387  -3.047  0.00  0.00    -0.012 A 
ATOM      6  C   LIG d   1       9.894  10.728  -1.834  0.00  0.00     0.167 A 
ATOM      7  C   LIG d   1       9.983   9.339  -1.811  0.00  0.00     0.174 A 
ATOM      8  C   LIG d   1       9.962   8.630  -3.009  0.00  0.00     0.037 A 
ATOM      9  C   LIG d   1       9.879   9.306  -4.229  0.00  0.00     0.015 A 
ATOM     10  C   LIG d   1       9.896   8.520  -5.513  0.00  0.00     0.010 C 
ATOM     11  H   LIG d   1      10.928   8.328  -5.807  0.00  0.00     0.091 H 
ATOM     12  C   LIG d   1       9.168   7.188  -5.348  0.00  0.00     0.021 C 
ATOM     13  C   LIG d   1       9.684   6.443  -4.147  0.00  0.00    -0.034 A 
ATOM     14  C   LIG d   1      10.054   7.151  -3.005  0.00  0.00    -0.007 A 
ATOM     15  C   LIG d   1      10.508   6.470  -1.880  0.00  0.00    -0.012 A 
ATOM     16  C   LIG d   1      10.602   5.087  -1.908  0.00  0.00     0.117 A 
ATOM     17  C   LIG d   1      10.246   4.390  -3.054  0.00  0.00    -0.020 A 
ATOM     18  C   LIG d   1       9.788   5.067  -4.169  0.00  0.00    -0.054 A 
ATOM     19  O   LIG d   1      10.078   8.930  -0.513  0.00  0.00    -0.452 OA
ATOM     20  C   LIG d   1      10.446  10.103   0.236  0.00  0.00     0.233 C 
ATOM     21  O   LIG d   1       9.918  11.188  -0.549  0.00  0.00    -0.453 OA
ATOM     22  H   LIG d   1      10.975  10.393  -6.902  0.00  0.00     0.082 H 
ATOM     23  H   LIG d   1       9.505  11.080  -7.622  0.00  0.00     0.082 H 
ATOM     24  H   LIG d   1      10.508  12.224  -5.523  0.00  0.00     0.036 H 
ATOM     25  H   LIG d   1       8.758  11.953  -5.588  0.00  0.00     0.036 H 
ATOM     26  H   LIG d   1       9.724  12.465  -3.063  0.00  0.00     0.066 H 
ATOM     27  H   LIG d   1       8.101   7.375  -5.223  0.00  0.00     0.037 H 
ATOM     28  H   LIG d   1       9.323   6.581  -6.241  0.00  0.00     0.037 H 
ATOM     29  H   LIG d   1      10.786   7.016  -0.991  0.00  0.00     0.066 H 
ATOM     30  H   LIG d   1      10.327   3.313  -3.074  0.00  0.00     0.065 H 
ATOM     31  H   LIG d   1       9.511   4.519  -5.057  0.00  0.00     0.062 H 
ATOM     32  H   LIG d   1       9.986  10.087   1.224  0.00  0.00     0.117 H 
ATOM     33  H   LIG d   1      11.530  10.181   0.318  0.00  0.00     0.117 H 
ATOM     34  H   LIG d   1       8.267   9.463  -6.303  0.00  0.00     0.204 HD
ENDROOT
BRANCH   1  35
ATOM     35  C   LIG d   1       9.261   8.541  -7.828  0.00  0.00    -0.043 C 
ATOM     36  H   LIG d   1       8.411   7.858  -7.866  0.00  0.00     0.078 H 
ATOM     37  H   LIG d   1       9.207   9.233  -8.668  0.00  0.00     0.078 H 
ATOM     38  H   LIG d   1      10.188   7.971  -7.884  0.00  0.00     0.078 H 
ENDBRANCH   1  35
BRANCH  16  39
ATOM     39  O   LIG d   1      11.044   4.415  -0.812  0.00  0.00    -0.507 OA
ATOM     40  H   LIG d   1      11.129   3.461  -0.944  0.00  0.00     0.292 HD
ENDBRANCH  16  39
TORSDOF 2
ENDMDL
MODEL 7
REMARK VINA RESULT:      -6.1      2.931      4.879
REMARK  2 active torsions:
REMARK  status: ('A' for Active; 'I' for Inactive)
REMARK    1  A    between atoms: C_1  and  N_2 
REMARK    2  A    between atoms: C_17  and  O_20 
ROOT
ATOM      1  N   LIG d   1       6.587  -4.671  -6.225  0.00  0.00     0.239 N 
ATOM      2  C   LIG d   1       7.961  -4.918  -6.664  0.00  0.00    -0.028 C 
ATOM      3  C   LIG d   1       8.518  -3.712  -7.401  0.00  0.00     0.013 C 
ATOM      4  C   LIG d   1       8.097  -2.416  -6.767  0.00  0.00    -0.030 A 
ATOM      5  C   LIG d   1       8.654  -1.238  -7.248  0.00  0.00    -0.012 A 
ATOM      6  C   LIG d   1       8.328  -0.017  -6.687  0.00  0.00     0.167 A 
ATOM      7  C   LIG d   1       7.422   0.036  -5.632  0.00  0.00     0.174 A 
ATOM      8  C   LIG d   1       6.845  -1.142  -5.163  0.00  0.00     0.037 A 
ATOM      9  C   LIG d   1       7.190  -2.371  -5.729  0.00  0.00     0.015 A 
ATOM     10  C   LIG d   1       6.582  -3.635  -5.181  0.00  0.00     0.010 C 
ATOM     11  H   LIG d   1       7.167  -3.979  -4.328  0.00  0.00     0.091 H 
ATOM     12  C   LIG d   1       5.140  -3.398  -4.735  0.00  0.00     0.021 C 
ATOM     13  C   LIG d   1       5.054  -2.209  -3.818  0.00  0.00    -0.034 A 
ATOM     14  C   LIG d   1       5.876  -1.106  -4.042  0.00  0.00    -0.007 A 
ATOM     15  C   LIG d   1       5.787   0.009  -3.215  0.00  0.00    -0.012 A 
ATOM     16  C   LIG d   1       4.886   0.010  -2.162  0.00  0.00     0.117 A 
ATOM     17  C   LIG d   1       4.081  -1.097  -1.935  0.00  0.00    -0.020 A 
ATOM     18  C   LIG d   1       4.166  -2.202  -2.762  0.00  0.00    -0.054 A 
ATOM     19  O   LIG d   1       7.276   1.336  -5.246  0.00  0.00    -0.452 OA
ATOM     20  C   LIG d   1       8.400   2.036  -5.812  0.00  0.00     0.233 C 
ATOM     21  O   LIG d   1       8.738   1.253  -6.973  0.00  0.00    -0.453 OA
ATOM     22  H   LIG d   1       8.583  -5.125  -5.793  0.00  0.00     0.082 H 
ATOM     23  H   LIG d   1       7.975  -5.782  -7.327  0.00  0.00     0.082 H 
ATOM     24  H   LIG d   1       9.607  -3.769  -7.400  0.00  0.00     0.036 H 
ATOM     25  H   LIG d   1       8.166  -3.733  -8.432  0.00  0.00     0.036 H 
ATOM     26  H   LIG d   1       9.353  -1.277  -8.071  0.00  0.00     0.066 H 
ATOM     27  H   LIG d   1       4.517  -3.221  -5.612  0.00  0.00     0.037 H 
ATOM     28  H   LIG d   1       4.777  -4.283  -4.211  0.00  0.00     0.037 H 
ATOM     29  H   LIG d   1       6.417   0.868  -3.393  0.00  0.00     0.066 H 
ATOM     30  H   LIG d   1       3.384  -1.096  -1.109  0.00  0.00     0.065 H 
ATOM     31  H   LIG d   1       3.535  -3.061  -2.582  0.00  0.00     0.062 H 
ATOM     32  H   LIG d   1       8.116   3.047  -6.102  0.00  0.00     0.117 H 
ATOM     33  H   LIG d   1       9.232   2.057  -5.108  0.00  0.00     0.117 H 
ATOM     34  H   LIG d   1       6.035  -4.359  -7.010  0.00  0.00     0.204 HD
ENDROOT
BRANCH   1  35
ATOM     35  C   LIG d   1       6.014  -5.912  -5.687  0.00  0.00    -0.043 C 
ATOM     36  H   LIG d   1       5.220  -6.262  -6.347  0.00  0.00     0.078 H 
ATOM     37  H   LIG d   1       6.792  -6.672  -5.620  0.00  0.00     0.078 H 
ATOM     38  H   LIG d   1       5.605  -5.722  -4.695  0.00  0.00     0.078 H 
ENDBRANCH   1  35
BRANCH  16  39
ATOM     39  O   LIG d   1       4.792   1.097  -1.350  0.00  0.00    -0.507 OA
ATOM     40  H   LIG d   1       4.614   0.882  -0.425  0.00  0.00     0.292 HD
ENDBRANCH  16  39
TORSDOF 2
ENDMDL
MODEL 8
REMARK VINA RESULT:      -6.0     10.228     11.706
REMARK  2 active torsions:
REMARK  status: ('A' for Active; 'I' for Inactive)
REMARK    1  A    between atoms: C_1  and  N_2 
REMARK    2  A    between atoms: C_17  and  O_20 
ROOT
ATOM      1  N   LIG d   1       9.426   6.295  -4.993  0.00  0.00     0.239 N 
ATOM      2  C   LIG d   1       9.880   6.958  -6.216  0.00  0.00    -0.028 C 
ATOM      3  C   LIG d   1       9.501   8.430  -6.205  0.00  0.00     0.013 C 
ATOM      4  C   LIG d   1       9.669   9.047  -4.845  0.00  0.00    -0.030 A 
ATOM      5  C   LIG d   1       9.501  10.421  -4.723  0.00  0.00    -0.012 A 
ATOM      6  C   LIG d   1       9.669  11.051  -3.503  0.00  0.00     0.167 A 
ATOM      7  C   LIG d   1      10.002  10.300  -2.380  0.00  0.00     0.174 A 
ATOM      8  C   LIG d   1      10.148   8.920  -2.496  0.00  0.00     0.037 A 
ATOM      9  C   LIG d   1       9.987   8.294  -3.735  0.00  0.00     0.015 A 
ATOM     10  C   LIG d   1      10.187   6.806  -3.844  0.00  0.00     0.010 C 
ATOM     11  H   LIG d   1      11.246   6.592  -3.987  0.00  0.00     0.091 H 
ATOM     12  C   LIG d   1       9.701   6.096  -2.581  0.00  0.00     0.021 C 
ATOM     13  C   LIG d   1      10.300   6.723  -1.352  0.00  0.00    -0.034 A 
ATOM     14  C   LIG d   1      10.500   8.102  -1.311  0.00  0.00    -0.007 A 
ATOM     15  C   LIG d   1      11.029   8.695  -0.170  0.00  0.00    -0.012 A 
ATOM     16  C   LIG d   1      11.368   7.906   0.918  0.00  0.00     0.117 A 
ATOM     17  C   LIG d   1      11.180   6.532   0.865  0.00  0.00    -0.020 A 
ATOM     18  C   LIG d   1      10.647   5.945  -0.268  0.00  0.00    -0.054 A 
ATOM     19  O   LIG d   1      10.125  11.140  -1.313  0.00  0.00    -0.452 OA
ATOM     20  C   LIG d   1      10.253  12.461  -1.873  0.00  0.00     0.233 C 
ATOM     21  O   LIG d   1       9.568  12.362  -3.136  0.00  0.00    -0.453 OA
ATOM     22  H   LIG d   1      10.963   6.867  -6.292  0.00  0.00     0.082 H 
ATOM     23  H   LIG d   1       9.420   6.476  -7.077  0.00  0.00     0.082 H 
ATOM     24  H   LIG d   1      10.133   8.963  -6.915  0.00  0.00     0.036 H 
ATOM     25  H   LIG d   1       8.461   8.531  -6.514  0.00  0.00     0.036 H 
ATOM     26  H   LIG d   1       9.236  11.005  -5.592  0.00  0.00     0.066 H 
ATOM     27  H   LIG d   1       8.614   6.165  -2.526  0.00  0.00     0.037 H 
ATOM     28  H   LIG d   1       9.991   5.046  -2.626  0.00  0.00     0.037 H 
ATOM     29  H   LIG d   1      11.176   9.765  -0.132  0.00  0.00     0.066 H 
ATOM     30  H   LIG d   1      11.451   5.919   1.712  0.00  0.00     0.065 H 
ATOM     31  H   LIG d   1      10.502   4.875  -0.303  0.00  0.00     0.062 H 
ATOM     32  H   LIG d   1       9.771  13.198  -1.233  0.00  0.00     0.117 H 
ATOM     33  H   LIG d   1      11.303  12.711  -2.025  0.00  0.00     0.117 H 
ATOM     34  H   LIG d   1       8.444   6.481  -4.856  0.00  0.00     0.204 HD
ENDROOT
BRANCH   1  35
ATOM     35  C   LIG d   1       9.636   4.846  -5.116  0.00  0.00    -0.043 C 
ATOM     36  H   LIG d   1      10.108   4.627  -6.074  0.00  0.00     0.078 H 
ATOM     37  H   LIG d   1      10.282   4.503  -4.307  0.00  0.00     0.078 H 
ATOM     38  H   LIG d   1       8.676   4.334  -5.057  0.00  0.00     0.078 H 
ENDBRANCH   1  35
BRANCH  16  39
ATOM     39  O   LIG d   1      11.884   8.479   2.038  0.00  0.00    -0.507 OA
ATOM     40  H   LIG d   1      11.286   8.467   2.797  0.00  0.00     0.292 HD
ENDBRANCH  16  39
TORSDOF 2
ENDMDL
MODEL 9
REMARK VINA RESULT:      -6.0      3.000      4.185
REMARK  2 active torsions:
REMARK  status: ('A' for Active; 'I' for Inactive)
REMARK    1  A    between atoms: C_1  and  N_2 
REMARK    2  A    between atoms: C_17  and  O_20 
ROOT
ATOM      1  N   LIG d   1       7.335  -3.806  -5.391  0.00  0.00     0.239 N 
ATOM      2  C   LIG d   1       5.981  -4.281  -5.677  0.00  0.00    -0.028 C 
ATOM      3  C   LIG d   1       5.024  -3.891  -4.563  0.00  0.00     0.013 C 
ATOM      4  C   LIG d   1       5.298  -2.509  -4.039  0.00  0.00    -0.030 A 
ATOM      5  C   LIG d   1       4.408  -1.966  -3.121  0.00  0.00    -0.012 A 
ATOM      6  C   LIG d   1       4.591  -0.688  -2.625  0.00  0.00     0.167 A 
ATOM      7  C   LIG d   1       5.686   0.063  -3.041  0.00  0.00     0.174 A 
ATOM      8  C   LIG d   1       6.592  -0.488  -3.944  0.00  0.00     0.037 A 
ATOM      9  C   LIG d   1       6.392  -1.776  -4.448  0.00  0.00     0.015 A 
ATOM     10  C   LIG d   1       7.365  -2.337  -5.452  0.00  0.00     0.010 C 
ATOM     11  H   LIG d   1       7.082  -2.010  -6.452  0.00  0.00     0.091 H 
ATOM     12  C   LIG d   1       8.787  -1.864  -5.156  0.00  0.00     0.021 C 
ATOM     13  C   LIG d   1       8.832  -0.369  -5.004  0.00  0.00    -0.034 A 
ATOM     14  C   LIG d   1       7.766   0.294  -4.398  0.00  0.00    -0.007 A 
ATOM     15  C   LIG d   1       7.808   1.674  -4.229  0.00  0.00    -0.012 A 
ATOM     16  C   LIG d   1       8.910   2.385  -4.679  0.00  0.00     0.117 A 
ATOM     17  C   LIG d   1       9.961   1.721  -5.296  0.00  0.00    -0.020 A 
ATOM     18  C   LIG d   1       9.920   0.349  -5.456  0.00  0.00    -0.054 A 
ATOM     19  O   LIG d   1       5.640   1.280  -2.428  0.00  0.00    -0.452 OA
ATOM     20  C   LIG d   1       4.293   1.415  -1.937  0.00  0.00     0.233 C 
ATOM     21  O   LIG d   1       3.866   0.055  -1.738  0.00  0.00    -0.453 OA
ATOM     22  H   LIG d   1       5.638  -3.842  -6.614  0.00  0.00     0.082 H 
ATOM     23  H   LIG d   1       5.995  -5.365  -5.775  0.00  0.00     0.082 H 
ATOM     24  H   LIG d   1       4.003  -3.928  -4.943  0.00  0.00     0.036 H 
ATOM     25  H   LIG d   1       5.122  -4.605  -3.745  0.00  0.00     0.036 H 
ATOM     26  H   LIG d   1       3.560  -2.549  -2.792  0.00  0.00     0.066 H 
ATOM     27  H   LIG d   1       9.136  -2.330  -4.234  0.00  0.00     0.037 H 
ATOM     28  H   LIG d   1       9.442  -2.162  -5.976  0.00  0.00     0.037 H 
ATOM     29  H   LIG d   1       6.988   2.188  -3.751  0.00  0.00     0.066 H 
ATOM     30  H   LIG d   1      10.815   2.279  -5.651  0.00  0.00     0.065 H 
ATOM     31  H   LIG d   1      10.743  -0.163  -5.936  0.00  0.00     0.062 H 
ATOM     32  H   LIG d   1       4.281   1.962  -0.995  0.00  0.00     0.117 H 
ATOM     33  H   LIG d   1       3.664   1.910  -2.677  0.00  0.00     0.117 H 
ATOM     34  H   LIG d   1       7.609  -4.110  -4.468  0.00  0.00     0.204 HD
ENDROOT
BRANCH   1  35
ATOM     35  C   LIG d   1       8.267  -4.356  -6.384  0.00  0.00    -0.043 C 
ATOM     36  H   LIG d   1       8.783  -3.540  -6.889  0.00  0.00     0.078 H 
ATOM     37  H   LIG d   1       8.996  -4.993  -5.884  0.00  0.00     0.078 H 
ATOM     38  H   LIG d   1       7.712  -4.944  -7.116  0.00  0.00     0.078 H 
ENDBRANCH   1  35
BRANCH  16  39
ATOM     39  O   LIG d   1       8.960   3.734  -4.517  0.00  0.00    -0.507 OA
ATOM     40  H   LIG d   1       8.198   4.102  -4.049  0.00  0.00     0.292 HD
ENDBRANCH  16  39
TORSDOF 2
ENDMDL
MODEL 10
REMARK VINA RESULT:      -5.9      2.162      5.047
REMARK  2 active torsions:
REMARK  status: ('A' for Active; 'I' for Inactive)
REMARK    1  A    between atoms: C_1  and  N_2 
REMARK    2  A    between atoms: C_17  and  O_20 
ROOT
ATOM      1  N   LIG d   1       4.444  -5.180  -7.828  0.00  0.00     0.239 N 
ATOM      2  C   LIG d   1       4.439  -5.991  -6.610  0.00  0.00    -0.028 C 
ATOM      3  C   LIG d   1       5.436  -5.451  -5.598  0.00  0.00     0.013 C 
ATOM      4  C   LIG d   1       5.452  -3.948  -5.565  0.00  0.00    -0.030 A 
ATOM      5  C   LIG d   1       6.208  -3.321  -4.583  0.00  0.00    -0.012 A 
ATOM      6  C   LIG d   1       6.240  -1.942  -4.484  0.00  0.00     0.167 A 
ATOM      7  C   LIG d   1       5.513  -1.170  -5.384  0.00  0.00     0.174 A 
ATOM      8  C   LIG d   1       4.773  -1.796  -6.384  0.00  0.00     0.037 A 
ATOM      9  C   LIG d   1       4.738  -3.190  -6.468  0.00  0.00     0.015 A 
ATOM     10  C   LIG d   1       3.900  -3.846  -7.535  0.00  0.00     0.010 C 
ATOM     11  H   LIG d   1       2.874  -3.943  -7.180  0.00  0.00     0.091 H 
ATOM     12  C   LIG d   1       3.909  -3.021  -8.820  0.00  0.00     0.021 C 
ATOM     13  C   LIG d   1       3.556  -1.586  -8.536  0.00  0.00    -0.034 A 
ATOM     14  C   LIG d   1       3.994  -0.991  -7.354  0.00  0.00    -0.007 A 
ATOM     15  C   LIG d   1       3.694   0.342  -7.093  0.00  0.00    -0.012 A 
ATOM     16  C   LIG d   1       2.948   1.068  -8.008  0.00  0.00     0.117 A 
ATOM     17  C   LIG d   1       2.503   0.465  -9.176  0.00  0.00    -0.020 A 
ATOM     18  C   LIG d   1       2.806  -0.858  -9.437  0.00  0.00    -0.054 A 
ATOM     19  O   LIG d   1       5.693   0.147  -5.076  0.00  0.00    -0.452 OA
ATOM     20  C   LIG d   1       6.218   0.161  -3.735  0.00  0.00     0.233 C 
ATOM     21  O   LIG d   1       6.888  -1.108  -3.619  0.00  0.00    -0.453 OA
ATOM     22  H   LIG d   1       3.441  -5.975  -6.173  0.00  0.00     0.082 H 
ATOM     23  H   LIG d   1       4.704  -7.017  -6.862  0.00  0.00     0.082 H 
ATOM     24  H   LIG d   1       5.173  -5.823  -4.608  0.00  0.00     0.036 H 
ATOM     25  H   LIG d   1       6.433  -5.810  -5.856  0.00  0.00     0.036 H 
ATOM     26  H   LIG d   1       6.778  -3.919  -3.887  0.00  0.00     0.066 H 
ATOM     27  H   LIG d   1       4.902  -3.064  -9.268  0.00  0.00     0.037 H 
ATOM     28  H   LIG d   1       3.182  -3.438  -9.519  0.00  0.00     0.037 H 
ATOM     29  H   LIG d   1       4.041   0.808  -6.183  0.00  0.00     0.066 H 
ATOM     30  H   LIG d   1       1.916   1.032  -9.884  0.00  0.00     0.065 H 
ATOM     31  H   LIG d   1       2.458  -1.322 -10.349  0.00  0.00     0.062 H 
ATOM     32  H   LIG d   1       6.926   0.980  -3.609  0.00  0.00     0.117 H 
ATOM     33  H   LIG d   1       5.410   0.236  -3.008  0.00  0.00     0.117 H 
ATOM     34  H   LIG d   1       5.389  -5.091  -8.168  0.00  0.00     0.204 HD
ENDROOT
BRANCH   1  35
ATOM     35  C   LIG d   1       3.615  -5.832  -8.852  0.00  0.00    -0.043 C 
ATOM     36  H   LIG d   1       2.595  -5.452  -8.789  0.00  0.00     0.078 H 
ATOM     37  H   LIG d   1       4.023  -5.617  -9.840  0.00  0.00     0.078 H 
ATOM     38  H   LIG d   1       3.614  -6.909  -8.686  0.00  0.00     0.078 H 
ENDBRANCH   1  35
BRANCH  16  39
ATOM     39  O   LIG d   1       2.653   2.372  -7.761  0.00  0.00    -0.507 OA
ATOM     40  H   LIG d   1       3.127   2.746  -7.006  0.00  0.00     0.292 HD
ENDBRANCH  16  39
TORSDOF 2
ENDMDL
