MODEL 1
REMARK VINA RESULT:      -6.9      0.000      0.000
REMARK  7 active torsions:
REMARK  status: ('A' for Active; 'I' for Inactive)
REMARK    1  A    between atoms: C_1  and  C_2 
REMARK    2  A    between atoms: C_2  and  O_3 
REMARK    3  A    between atoms: O_3  and  C_4 
REMARK       I    between atoms: C_4  and  N_6 
REMARK    4  A    between atoms: N_9  and  C_12 
REMARK    5  A    between atoms: C_12  and  C_13 
REMARK    6  A    between atoms: C_19  and  C_32 
REMARK    7  A    between atoms: C_24  and  C_31 
ROOT
ATOM      1  C   LIG d   1       8.423   1.149  -5.532  0.00  0.00     0.079 C 
ATOM      2  H   LIG d   1       9.473   1.174  -5.858  0.00  0.00     0.043 H 
ATOM      3  C   LIG d   1       8.051  -0.136  -4.736  0.00  0.00     0.029 C 
ATOM      4  H   LIG d   1       8.858  -0.677  -4.222  0.00  0.00     0.039 H 
ATOM      5  C   LIG d   1       7.073   0.269  -3.675  0.00  0.00    -0.077 C 
ATOM      6  C   LIG d   1       5.890  -0.234  -3.506  0.00  0.00    -0.064 C 
ATOM      7  C   LIG d   1       5.021   0.336  -2.399  0.00  0.00    -0.022 C 
ATOM      8  H   LIG d   1       5.630   0.988  -1.755  0.00  0.00     0.034 H 
ATOM      9  C   LIG d   1       4.443  -0.818  -1.578  0.00  0.00    -0.047 C 
ATOM     10  C   LIG d   1       3.702  -1.776  -2.512  0.00  0.00    -0.052 C 
ATOM     11  C   LIG d   1       4.701  -2.412  -3.481  0.00  0.00    -0.044 C 
ATOM     12  C   LIG d   1       5.326  -1.329  -4.365  0.00  0.00    -0.007 C 
ATOM     13  C   LIG d   1       6.386  -1.961  -5.257  0.00  0.00    -0.006 C 
ATOM     14  C   LIG d   1       7.332  -0.939  -5.842  0.00  0.00     0.111 C 
ATOM     15  H   LIG d   1       7.991  -1.518  -6.506  0.00  0.00     0.074 H 
ATOM     16  O   LIG d   1       6.636   0.091  -6.608  0.00  0.00    -0.461 OA
ATOM     17  C   LIG d   1       7.468   1.149  -6.710  0.00  0.00     0.312 C 
ATOM     18  O   LIG d   1       7.454   1.966  -7.599  0.00  0.00    -0.251 OA
ATOM     19  H   LIG d   1       7.433   1.064  -3.004  0.00  0.00     0.058 H 
ATOM     20  H   LIG d   1       5.260  -1.354  -1.071  0.00  0.00     0.027 H 
ATOM     21  H   LIG d   1       3.744  -0.420  -0.826  0.00  0.00     0.027 H 
ATOM     22  H   LIG d   1       3.213  -2.563  -1.919  0.00  0.00     0.027 H 
ATOM     23  H   LIG d   1       2.941  -1.219  -3.081  0.00  0.00     0.027 H 
ATOM     24  H   LIG d   1       5.493  -2.917  -2.908  0.00  0.00     0.027 H 
ATOM     25  H   LIG d   1       4.181  -3.145  -4.114  0.00  0.00     0.027 H 
ATOM     26  H   LIG d   1       6.980  -2.675  -4.670  0.00  0.00     0.031 H 
ATOM     27  H   LIG d   1       5.897  -2.487  -6.091  0.00  0.00     0.031 H 
ENDROOT
BRANCH   1  28
ATOM     28  C   LIG d   1       8.211   2.396  -4.671  0.00  0.00     0.013 C 
ATOM     29  H   LIG d   1       7.783   2.103  -3.701  0.00  0.00     0.043 H 
ATOM     30  H   LIG d   1       7.522   3.083  -5.184  0.00  0.00     0.043 H 
BRANCH  28  31
ATOM     31  N   LIG d   1       9.499   3.067  -4.455  0.00  0.00    -0.299 N 
ATOM     32  C   LIG d   1       9.373   4.520  -4.634  0.00  0.00     0.015 C 
ATOM     33  C   LIG d   1      10.764   5.160  -4.579  0.00  0.00     0.031 C 
ATOM     34  H   LIG d   1       8.746   4.936  -3.831  0.00  0.00     0.044 H 
ATOM     35  H   LIG d   1       8.910   4.731  -5.608  0.00  0.00     0.044 H 
ATOM     36  N   LIG d   1      11.422   4.742  -3.332  0.00  0.00    -0.265 N 
ATOM     37  H   LIG d   1      10.673   6.257  -4.596  0.00  0.00     0.048 H 
ATOM     38  H   LIG d   1      11.364   4.828  -5.439  0.00  0.00     0.048 H 
ATOM     39  C   LIG d   1      11.971   5.651  -2.501  0.00  0.00     0.403 C 
ATOM     40  C   LIG d   1      11.467   3.306  -3.015  0.00  0.00     0.031 C 
ATOM     41  O   LIG d   1      11.926   6.833  -2.778  0.00  0.00    -0.226 OA
ATOM     42  C   LIG d   1      10.048   2.738  -3.131  0.00  0.00     0.015 C 
ATOM     43  H   LIG d   1      12.135   2.795  -3.725  0.00  0.00     0.048 H 
ATOM     44  H   LIG d   1      11.844   3.168  -1.991  0.00  0.00     0.048 H 
ATOM     45  H   LIG d   1       9.410   3.179  -2.351  0.00  0.00     0.044 H 
ATOM     46  H   LIG d   1      10.077   1.645  -3.008  0.00  0.00     0.044 H 
BRANCH  39  47
ATOM     47  O   LIG d   1      12.570   5.248  -1.364  0.00  0.00    -0.451 OA
BRANCH  47  48
ATOM     48  C   LIG d   1      12.508   6.152  -0.230  0.00  0.00     0.091 C 
ATOM     49  H   LIG d   1      12.358   7.181  -0.589  0.00  0.00     0.070 H 
ATOM     50  H   LIG d   1      13.450   6.095   0.336  0.00  0.00     0.070 H 
BRANCH  48  51
ATOM     51  C   LIG d   1      11.343   5.753   0.677  0.00  0.00    -0.030 C 
ATOM     52  H   LIG d   1      11.468   4.707   0.995  0.00  0.00     0.026 H 
ATOM     53  H   LIG d   1      10.396   5.859   0.127  0.00  0.00     0.026 H 
ATOM     54  H   LIG d   1      11.327   6.406   1.563  0.00  0.00     0.026 H 
ENDBRANCH  48  51
ENDBRANCH  47  48
ENDBRANCH  39  47
ENDBRANCH  28  31
ENDBRANCH   1  28
BRANCH  12  55
ATOM     55  C   LIG d   1       4.238  -0.738  -5.265  0.00  0.00    -0.056 C 
ATOM     56  H   LIG d   1       3.939   0.248  -4.879  0.00  0.00     0.024 H 
ATOM     57  H   LIG d   1       3.366  -1.408  -5.274  0.00  0.00     0.024 H 
ATOM     58  H   LIG d   1       4.627  -0.630  -6.287  0.00  0.00     0.024 H 
ENDBRANCH  12  55
BRANCH   7  59
ATOM     59  C   LIG d   1       3.880   1.151  -3.011  0.00  0.00    -0.059 C 
ATOM     60  H   LIG d   1       4.236   1.655  -3.921  0.00  0.00     0.024 H 
ATOM     61  H   LIG d   1       3.538   1.905  -2.285  0.00  0.00     0.024 H 
ATOM     62  H   LIG d   1       3.046   0.482  -3.265  0.00  0.00     0.024 H 
ENDBRANCH   7  59
TORSDOF 7
ENDMDL
MODEL 2
REMARK VINA RESULT:      -6.4      6.396      9.364
REMARK  7 active torsions:
REMARK  status: ('A' for Active; 'I' for Inactive)
REMARK    1  A    between atoms: C_1  and  C_2 
REMARK    2  A    between atoms: C_2  and  O_3 
REMARK    3  A    between atoms: O_3  and  C_4 
REMARK       I    between atoms: C_4  and  N_6 
REMARK    4  A    between atoms: N_9  and  C_12 
REMARK    5  A    between atoms: C_12  and  C_13 
REMARK    6  A    between atoms: C_19  and  C_32 
REMARK    7  A    between atoms: C_24  and  C_31 
ROOT
ATOM      1  C   LIG d   1       5.009  -3.102  -6.826  0.00  0.00     0.079 C 
ATOM      2  H   LIG d   1       5.685  -3.523  -7.584  0.00  0.00     0.043 H 
ATOM      3  C   LIG d   1       5.695  -2.066  -5.889  0.00  0.00     0.029 C 
ATOM      4  H   LIG d   1       6.588  -1.544  -6.262  0.00  0.00     0.039 H 
ATOM      5  C   LIG d   1       4.682  -1.004  -5.584  0.00  0.00    -0.077 C 
ATOM      6  C   LIG d   1       4.299  -0.643  -4.400  0.00  0.00    -0.064 C 
ATOM      7  C   LIG d   1       3.226   0.425  -4.290  0.00  0.00    -0.022 C 
ATOM      8  H   LIG d   1       3.069   0.888  -5.275  0.00  0.00     0.034 H 
ATOM      9  C   LIG d   1       3.680   1.482  -3.281  0.00  0.00    -0.047 C 
ATOM     10  C   LIG d   1       4.009   0.798  -1.951  0.00  0.00    -0.052 C 
ATOM     11  C   LIG d   1       5.205  -0.135  -2.146  0.00  0.00    -0.044 C 
ATOM     12  C   LIG d   1       4.840  -1.246  -3.135  0.00  0.00    -0.007 C 
ATOM     13  C   LIG d   1       6.067  -2.110  -3.392  0.00  0.00    -0.006 C 
ATOM     14  C   LIG d   1       5.932  -2.947  -4.642  0.00  0.00     0.111 C 
ATOM     15  H   LIG d   1       6.846  -3.559  -4.667  0.00  0.00     0.074 H 
ATOM     16  O   LIG d   1       4.757  -3.810  -4.611  0.00  0.00    -0.461 OA
ATOM     17  C   LIG d   1       4.486  -4.169  -5.884  0.00  0.00     0.312 C 
ATOM     18  O   LIG d   1       3.916  -5.180  -6.219  0.00  0.00    -0.251 OA
ATOM     19  H   LIG d   1       4.255  -0.517  -6.473  0.00  0.00     0.058 H 
ATOM     20  H   LIG d   1       4.574   1.995  -3.664  0.00  0.00     0.027 H 
ATOM     21  H   LIG d   1       2.873   2.216  -3.129  0.00  0.00     0.027 H 
ATOM     22  H   LIG d   1       4.254   1.561  -1.198  0.00  0.00     0.027 H 
ATOM     23  H   LIG d   1       3.138   0.216  -1.614  0.00  0.00     0.027 H 
ATOM     24  H   LIG d   1       6.056   0.440  -2.541  0.00  0.00     0.027 H 
ATOM     25  H   LIG d   1       5.481  -0.582  -1.180  0.00  0.00     0.027 H 
ATOM     26  H   LIG d   1       6.951  -1.467  -3.509  0.00  0.00     0.031 H 
ATOM     27  H   LIG d   1       6.220  -2.792  -2.542  0.00  0.00     0.031 H 
ENDROOT
BRANCH   1  28
ATOM     28  C   LIG d   1       3.855  -2.452  -7.592  0.00  0.00     0.013 C 
ATOM     29  H   LIG d   1       3.774  -1.393  -7.305  0.00  0.00     0.043 H 
ATOM     30  H   LIG d   1       2.915  -2.970  -7.349  0.00  0.00     0.043 H 
BRANCH  28  31
ATOM     31  N   LIG d   1       4.108  -2.550  -9.035  0.00  0.00    -0.299 N 
ATOM     32  C   LIG d   1       2.906  -2.994  -9.752  0.00  0.00     0.015 C 
ATOM     33  C   LIG d   1       3.258  -3.257 -11.220  0.00  0.00     0.031 C 
ATOM     34  H   LIG d   1       2.133  -2.212  -9.695  0.00  0.00     0.044 H 
ATOM     35  H   LIG d   1       2.526  -3.919  -9.295  0.00  0.00     0.044 H 
ATOM     36  N   LIG d   1       3.901  -2.053 -11.769  0.00  0.00    -0.265 N 
ATOM     37  H   LIG d   1       2.345  -3.478 -11.792  0.00  0.00     0.048 H 
ATOM     38  H   LIG d   1       3.952  -4.107 -11.293  0.00  0.00     0.048 H 
ATOM     39  C   LIG d   1       3.467  -1.501 -12.920  0.00  0.00     0.403 C 
ATOM     40  C   LIG d   1       5.029  -1.468 -11.030  0.00  0.00     0.031 C 
ATOM     41  O   LIG d   1       2.533  -1.998 -13.518  0.00  0.00    -0.226 OA
ATOM     42  C   LIG d   1       4.607  -1.275  -9.569  0.00  0.00     0.015 C 
ATOM     43  H   LIG d   1       5.894  -2.146 -11.084  0.00  0.00     0.048 H 
ATOM     44  H   LIG d   1       5.296  -0.497 -11.475  0.00  0.00     0.048 H 
ATOM     45  H   LIG d   1       3.811  -0.518  -9.513  0.00  0.00     0.044 H 
ATOM     46  H   LIG d   1       5.472  -0.942  -8.976  0.00  0.00     0.044 H 
BRANCH  39  47
ATOM     47  O   LIG d   1       4.068  -0.399 -13.406  0.00  0.00    -0.451 OA
BRANCH  47  48
ATOM     48  C   LIG d   1       4.513  -0.446 -14.788  0.00  0.00     0.091 C 
ATOM     49  H   LIG d   1       4.416   0.552 -15.239  0.00  0.00     0.070 H 
ATOM     50  H   LIG d   1       3.894  -1.163 -15.348  0.00  0.00     0.070 H 
BRANCH  48  51
ATOM     51  C   LIG d   1       5.976  -0.890 -14.837  0.00  0.00    -0.030 C 
ATOM     52  H   LIG d   1       6.439  -0.737 -13.850  0.00  0.00     0.026 H 
ATOM     53  H   LIG d   1       6.514  -0.296 -15.590  0.00  0.00     0.026 H 
ATOM     54  H   LIG d   1       6.027  -1.956 -15.105  0.00  0.00     0.026 H 
ENDBRANCH  48  51
ENDBRANCH  47  48
ENDBRANCH  39  47
ENDBRANCH  28  31
ENDBRANCH   1  28
BRANCH  12  55
ATOM     55  C   LIG d   1       3.759  -2.129  -2.508  0.00  0.00    -0.056 C 
ATOM     56  H   LIG d   1       4.234  -2.895  -1.876  0.00  0.00     0.024 H 
ATOM     57  H   LIG d   1       3.178  -2.618  -3.303  0.00  0.00     0.024 H 
ATOM     58  H   LIG d   1       3.091  -1.509  -1.893  0.00  0.00     0.024 H 
ENDBRANCH  12  55
BRANCH   7  59
ATOM     59  C   LIG d   1       1.918  -0.210  -3.813  0.00  0.00    -0.059 C 
ATOM     60  H   LIG d   1       1.219   0.580  -3.501  0.00  0.00     0.024 H 
ATOM     61  H   LIG d   1       2.122  -0.875  -2.960  0.00  0.00     0.024 H 
ATOM     62  H   LIG d   1       1.472  -0.791  -4.633  0.00  0.00     0.024 H 
ENDBRANCH   7  59
TORSDOF 7
ENDMDL
MODEL 3
REMARK VINA RESULT:      -6.4      5.442     10.412
REMARK  7 active torsions:
REMARK  status: ('A' for Active; 'I' for Inactive)
REMARK    1  A    between atoms: C_1  and  C_2 
REMARK    2  A    between atoms: C_2  and  O_3 
REMARK    3  A    between atoms: O_3  and  C_4 
REMARK       I    between atoms: C_4  and  N_6 
REMARK    4  A    between atoms: N_9  and  C_12 
REMARK    5  A    between atoms: C_12  and  C_13 
REMARK    6  A    between atoms: C_19  and  C_32 
REMARK    7  A    between atoms: C_24  and  C_31 
ROOT
ATOM      1  C   LIG d   1       5.564  -2.243  -7.267  0.00  0.00     0.079 C 
ATOM      2  H   LIG d   1       5.724  -2.226  -8.355  0.00  0.00     0.043 H 
ATOM      3  C   LIG d   1       5.448  -0.827  -6.633  0.00  0.00     0.029 C 
ATOM      4  H   LIG d   1       5.129   0.004  -7.280  0.00  0.00     0.039 H 
ATOM      5  C   LIG d   1       4.438  -0.915  -5.531  0.00  0.00    -0.077 C 
ATOM      6  C   LIG d   1       4.640  -0.592  -4.292  0.00  0.00    -0.064 C 
ATOM      7  C   LIG d   1       3.504  -0.791  -3.305  0.00  0.00    -0.022 C 
ATOM      8  H   LIG d   1       2.577  -1.011  -3.854  0.00  0.00     0.034 H 
ATOM      9  C   LIG d   1       3.334   0.485  -2.479  0.00  0.00    -0.047 C 
ATOM     10  C   LIG d   1       4.669   0.837  -1.819  0.00  0.00    -0.052 C 
ATOM     11  C   LIG d   1       5.694   1.175  -2.904  0.00  0.00    -0.044 C 
ATOM     12  C   LIG d   1       5.946  -0.056  -3.780  0.00  0.00    -0.007 C 
ATOM     13  C   LIG d   1       6.894   0.320  -4.910  0.00  0.00    -0.006 C 
ATOM     14  C   LIG d   1       6.868  -0.680  -6.042  0.00  0.00     0.111 C 
ATOM     15  H   LIG d   1       7.635  -0.324  -6.746  0.00  0.00     0.074 H 
ATOM     16  O   LIG d   1       7.189  -2.032  -5.599  0.00  0.00    -0.461 OA
ATOM     17  C   LIG d   1       6.728  -2.885  -6.538  0.00  0.00     0.312 C 
ATOM     18  O   LIG d   1       7.174  -3.986  -6.762  0.00  0.00    -0.251 OA
ATOM     19  H   LIG d   1       3.453  -1.293  -5.846  0.00  0.00     0.058 H 
ATOM     20  H   LIG d   1       3.017   1.308  -3.136  0.00  0.00     0.027 H 
ATOM     21  H   LIG d   1       2.570   0.321  -1.703  0.00  0.00     0.027 H 
ATOM     22  H   LIG d   1       4.533   1.705  -1.158  0.00  0.00     0.027 H 
ATOM     23  H   LIG d   1       5.025  -0.021  -1.231  0.00  0.00     0.027 H 
ATOM     24  H   LIG d   1       5.308   1.994  -3.529  0.00  0.00     0.027 H 
ATOM     25  H   LIG d   1       6.637   1.486  -2.431  0.00  0.00     0.027 H 
ATOM     26  H   LIG d   1       6.608   1.300  -5.318  0.00  0.00     0.031 H 
ATOM     27  H   LIG d   1       7.923   0.369  -4.525  0.00  0.00     0.031 H 
ENDROOT
BRANCH   1  28
ATOM     28  C   LIG d   1       4.281  -3.043  -7.034  0.00  0.00     0.013 C 
ATOM     29  H   LIG d   1       3.418  -2.361  -7.037  0.00  0.00     0.043 H 
ATOM     30  H   LIG d   1       4.339  -3.556  -6.062  0.00  0.00     0.043 H 
BRANCH  28  31
ATOM     31  N   LIG d   1       4.122  -4.038  -8.103  0.00  0.00    -0.299 N 
ATOM     32  C   LIG d   1       3.771  -5.353  -7.551  0.00  0.00     0.015 C 
ATOM     33  C   LIG d   1       3.792  -6.396  -8.673  0.00  0.00     0.031 C 
ATOM     34  H   LIG d   1       2.763  -5.310  -7.110  0.00  0.00     0.044 H 
ATOM     35  H   LIG d   1       4.498  -5.633  -6.775  0.00  0.00     0.044 H 
ATOM     36  N   LIG d   1       2.924  -5.927  -9.764  0.00  0.00    -0.265 N 
ATOM     37  H   LIG d   1       3.419  -7.360  -8.296  0.00  0.00     0.048 H 
ATOM     38  H   LIG d   1       4.818  -6.521  -9.049  0.00  0.00     0.048 H 
ATOM     39  C   LIG d   1       1.968  -6.726 -10.279  0.00  0.00     0.403 C 
ATOM     40  C   LIG d   1       3.127  -4.564 -10.278  0.00  0.00     0.031 C 
ATOM     41  O   LIG d   1       1.815  -7.850  -9.843  0.00  0.00    -0.226 OA
ATOM     42  C   LIG d   1       3.131  -3.592  -9.093  0.00  0.00     0.015 C 
ATOM     43  H   LIG d   1       4.090  -4.513 -10.809  0.00  0.00     0.048 H 
ATOM     44  H   LIG d   1       2.311  -4.308 -10.971  0.00  0.00     0.048 H 
ATOM     45  H   LIG d   1       2.134  -3.573  -8.629  0.00  0.00     0.044 H 
ATOM     46  H   LIG d   1       3.392  -2.584  -9.445  0.00  0.00     0.044 H 
BRANCH  39  47
ATOM     47  O   LIG d   1       1.184  -6.279 -11.278  0.00  0.00    -0.451 OA
BRANCH  47  48
ATOM     48  C   LIG d   1      -0.243  -6.211 -11.017  0.00  0.00     0.091 C 
ATOM     49  H   LIG d   1      -0.511  -6.951 -10.248  0.00  0.00     0.070 H 
ATOM     50  H   LIG d   1      -0.796  -6.430 -11.943  0.00  0.00     0.070 H 
BRANCH  48  51
ATOM     51  C   LIG d   1      -0.606  -4.809 -10.525  0.00  0.00    -0.030 C 
ATOM     52  H   LIG d   1      -1.664  -4.789 -10.222  0.00  0.00     0.026 H 
ATOM     53  H   LIG d   1      -0.442  -4.083 -11.335  0.00  0.00     0.026 H 
ATOM     54  H   LIG d   1       0.028  -4.547  -9.664  0.00  0.00     0.026 H 
ENDBRANCH  48  51
ENDBRANCH  47  48
ENDBRANCH  39  47
ENDBRANCH  28  31
ENDBRANCH   1  28
BRANCH  12  55
ATOM     55  C   LIG d   1       6.623  -1.135  -2.931  0.00  0.00    -0.056 C 
ATOM     56  H   LIG d   1       5.923  -1.484  -2.157  0.00  0.00     0.024 H 
ATOM     57  H   LIG d   1       7.520  -0.716  -2.453  0.00  0.00     0.024 H 
ATOM     58  H   LIG d   1       6.910  -1.980  -3.574  0.00  0.00     0.024 H 
ENDBRANCH  12  55
BRANCH   7  59
ATOM     59  C   LIG d   1       3.832  -1.963  -2.376  0.00  0.00    -0.059 C 
ATOM     60  H   LIG d   1       4.527  -1.627  -1.593  0.00  0.00     0.024 H 
ATOM     61  H   LIG d   1       4.300  -2.772  -2.958  0.00  0.00     0.024 H 
ATOM     62  H   LIG d   1       2.907  -2.333  -1.912  0.00  0.00     0.024 H 
ENDBRANCH   7  59
TORSDOF 7
ENDMDL
MODEL 4
REMARK VINA RESULT:      -6.4      6.185      9.858
REMARK  7 active torsions:
REMARK  status: ('A' for Active; 'I' for Inactive)
REMARK    1  A    between atoms: C_1  and  C_2 
REMARK    2  A    between atoms: C_2  and  O_3 
REMARK    3  A    between atoms: O_3  and  C_4 
REMARK       I    between atoms: C_4  and  N_6 
REMARK    4  A    between atoms: N_9  and  C_12 
REMARK    5  A    between atoms: C_12  and  C_13 
REMARK    6  A    between atoms: C_19  and  C_32 
REMARK    7  A    between atoms: C_24  and  C_31 
ROOT
ATOM      1  C   LIG d   1       4.402  -1.518  -7.906  0.00  0.00     0.079 C 
ATOM      2  H   LIG d   1       4.854  -1.490  -8.908  0.00  0.00     0.043 H 
ATOM      3  C   LIG d   1       5.241  -0.775  -6.826  0.00  0.00     0.029 C 
ATOM      4  H   LIG d   1       5.928   0.016  -7.160  0.00  0.00     0.039 H 
ATOM      5  C   LIG d   1       4.273  -0.124  -5.884  0.00  0.00    -0.077 C 
ATOM      6  C   LIG d   1       4.233  -0.301  -4.601  0.00  0.00    -0.064 C 
ATOM      7  C   LIG d   1       3.150   0.414  -3.813  0.00  0.00    -0.022 C 
ATOM      8  H   LIG d   1       2.661   1.159  -4.458  0.00  0.00     0.034 H 
ATOM      9  C   LIG d   1       3.787   1.103  -2.605  0.00  0.00    -0.047 C 
ATOM     10  C   LIG d   1       4.562   0.067  -1.788  0.00  0.00    -0.052 C 
ATOM     11  C   LIG d   1       5.725  -0.470  -2.625  0.00  0.00    -0.044 C 
ATOM     12  C   LIG d   1       5.183  -1.197  -3.859  0.00  0.00    -0.007 C 
ATOM     13  C   LIG d   1       6.350  -1.642  -4.731  0.00  0.00    -0.006 C 
ATOM     14  C   LIG d   1       5.922  -1.979  -6.139  0.00  0.00     0.111 C 
ATOM     15  H   LIG d   1       6.838  -2.342  -6.629  0.00  0.00     0.074 H 
ATOM     16  O   LIG d   1       4.895  -3.014  -6.178  0.00  0.00    -0.461 OA
ATOM     17  C   LIG d   1       4.287  -2.935  -7.381  0.00  0.00     0.312 C 
ATOM     18  O   LIG d   1       3.739  -3.850  -7.948  0.00  0.00    -0.251 OA
ATOM     19  H   LIG d   1       3.555   0.555  -6.368  0.00  0.00     0.058 H 
ATOM     20  H   LIG d   1       4.473   1.890  -2.951  0.00  0.00     0.027 H 
ATOM     21  H   LIG d   1       2.999   1.552  -1.981  0.00  0.00     0.027 H 
ATOM     22  H   LIG d   1       4.952   0.538  -0.874  0.00  0.00     0.027 H 
ATOM     23  H   LIG d   1       3.892  -0.762  -1.516  0.00  0.00     0.027 H 
ATOM     24  H   LIG d   1       6.361   0.369  -2.946  0.00  0.00     0.027 H 
ATOM     25  H   LIG d   1       6.319  -1.170  -2.020  0.00  0.00     0.027 H 
ATOM     26  H   LIG d   1       7.094  -0.835  -4.787  0.00  0.00     0.031 H 
ATOM     27  H   LIG d   1       6.813  -2.539  -4.293  0.00  0.00     0.031 H 
ENDROOT
BRANCH   1  28
ATOM     28  C   LIG d   1       3.016  -0.883  -8.042  0.00  0.00     0.013 C 
ATOM     29  H   LIG d   1       2.992   0.067  -7.489  0.00  0.00     0.043 H 
ATOM     30  H   LIG d   1       2.258  -1.566  -7.630  0.00  0.00     0.043 H 
BRANCH  28  31
ATOM     31  N   LIG d   1       2.729  -0.632  -9.460  0.00  0.00    -0.299 N 
ATOM     32  C   LIG d   1       3.959  -0.674 -10.262  0.00  0.00     0.015 C 
ATOM     33  C   LIG d   1       3.645  -0.231 -11.695  0.00  0.00     0.031 C 
ATOM     34  H   LIG d   1       4.354  -1.701 -10.275  0.00  0.00     0.044 H 
ATOM     35  H   LIG d   1       4.707   0.001  -9.825  0.00  0.00     0.044 H 
ATOM     36  N   LIG d   1       2.539  -1.055 -12.207  0.00  0.00    -0.265 N 
ATOM     37  H   LIG d   1       4.531  -0.369 -12.333  0.00  0.00     0.048 H 
ATOM     38  H   LIG d   1       3.348   0.828 -11.704  0.00  0.00     0.048 H 
ATOM     39  C   LIG d   1       2.638  -1.685 -13.395  0.00  0.00     0.403 C 
ATOM     40  C   LIG d   1       1.322  -1.171 -11.391  0.00  0.00     0.031 C 
ATOM     41  O   LIG d   1       3.651  -1.576 -14.058  0.00  0.00    -0.226 OA
ATOM     42  C   LIG d   1       1.726  -1.578  -9.969  0.00  0.00     0.015 C 
ATOM     43  H   LIG d   1       0.800  -0.202 -11.369  0.00  0.00     0.048 H 
ATOM     44  H   LIG d   1       0.659  -1.935 -11.826  0.00  0.00     0.048 H 
ATOM     45  H   LIG d   1       2.154  -2.592  -9.984  0.00  0.00     0.044 H 
ATOM     46  H   LIG d   1       0.842  -1.562  -9.316  0.00  0.00     0.044 H 
BRANCH  39  47
ATOM     47  O   LIG d   1       1.614  -2.433 -13.847  0.00  0.00    -0.451 OA
BRANCH  47  48
ATOM     48  C   LIG d   1       1.827  -3.868 -13.917  0.00  0.00     0.091 C 
ATOM     49  H   LIG d   1       2.858  -4.102 -13.613  0.00  0.00     0.070 H 
ATOM     50  H   LIG d   1       1.663  -4.213 -14.949  0.00  0.00     0.070 H 
BRANCH  48  51
ATOM     51  C   LIG d   1       0.845  -4.575 -12.981  0.00  0.00    -0.030 C 
ATOM     52  H   LIG d   1       0.454  -5.478 -13.475  0.00  0.00     0.026 H 
ATOM     53  H   LIG d   1       0.013  -3.898 -12.743  0.00  0.00     0.026 H 
ATOM     54  H   LIG d   1       1.364  -4.860 -12.054  0.00  0.00     0.026 H 
ENDBRANCH  48  51
ENDBRANCH  47  48
ENDBRANCH  39  47
ENDBRANCH  28  31
ENDBRANCH   1  28
BRANCH  12  55
ATOM     55  C   LIG d   1       4.427  -2.447  -3.402  0.00  0.00    -0.056 C 
ATOM     56  H   LIG d   1       5.147  -3.203  -3.055  0.00  0.00     0.024 H 
ATOM     57  H   LIG d   1       3.846  -2.852  -4.244  0.00  0.00     0.024 H 
ATOM     58  H   LIG d   1       3.747  -2.184  -2.580  0.00  0.00     0.024 H 
ENDBRANCH  12  55
BRANCH   7  59
ATOM     59  C   LIG d   1       2.110  -0.602  -3.334  0.00  0.00    -0.059 C 
ATOM     60  H   LIG d   1       1.337  -0.728  -4.107  0.00  0.00     0.024 H 
ATOM     61  H   LIG d   1       1.643  -0.239  -2.406  0.00  0.00     0.024 H 
ATOM     62  H   LIG d   1       2.600  -1.567  -3.145  0.00  0.00     0.024 H 
ENDBRANCH   7  59
TORSDOF 7
ENDMDL
MODEL 5
REMARK VINA RESULT:      -6.4      1.526      2.054
REMARK  7 active torsions:
REMARK  status: ('A' for Active; 'I' for Inactive)
REMARK    1  A    between atoms: C_1  and  C_2 
REMARK    2  A    between atoms: C_2  and  O_3 
REMARK    3  A    between atoms: O_3  and  C_4 
REMARK       I    between atoms: C_4  and  N_6 
REMARK    4  A    between atoms: N_9  and  C_12 
REMARK    5  A    between atoms: C_12  and  C_13 
REMARK    6  A    between atoms: C_19  and  C_32 
REMARK    7  A    between atoms: C_24  and  C_31 
ROOT
ATOM      1  C   LIG d   1       8.462   1.136  -5.414  0.00  0.00     0.079 C 
ATOM      2  H   LIG d   1       9.512   1.123  -5.740  0.00  0.00     0.043 H 
ATOM      3  C   LIG d   1       8.015  -0.177  -4.708  0.00  0.00     0.029 C 
ATOM      4  H   LIG d   1       8.790  -0.798  -4.235  0.00  0.00     0.039 H 
ATOM      5  C   LIG d   1       7.061   0.209  -3.618  0.00  0.00    -0.077 C 
ATOM      6  C   LIG d   1       5.851  -0.235  -3.481  0.00  0.00    -0.064 C 
ATOM      7  C   LIG d   1       5.015   0.305  -2.335  0.00  0.00    -0.022 C 
ATOM      8  H   LIG d   1       5.660   0.875  -1.650  0.00  0.00     0.034 H 
ATOM      9  C   LIG d   1       4.371  -0.868  -1.594  0.00  0.00    -0.047 C 
ATOM     10  C   LIG d   1       3.576  -1.715  -2.591  0.00  0.00    -0.052 C 
ATOM     11  C   LIG d   1       4.539  -2.338  -3.603  0.00  0.00    -0.044 C 
ATOM     12  C   LIG d   1       5.226  -1.234  -4.412  0.00  0.00    -0.007 C 
ATOM     13  C   LIG d   1       6.249  -1.863  -5.349  0.00  0.00    -0.006 C 
ATOM     14  C   LIG d   1       7.252  -0.859  -5.865  0.00  0.00     0.111 C 
ATOM     15  H   LIG d   1       7.878  -1.427  -6.569  0.00  0.00     0.074 H 
ATOM     16  O   LIG d   1       6.618   0.259  -6.555  0.00  0.00    -0.461 OA
ATOM     17  C   LIG d   1       7.510   1.272  -6.586  0.00  0.00     0.312 C 
ATOM     18  O   LIG d   1       7.544   2.149  -7.417  0.00  0.00    -0.251 OA
ATOM     19  H   LIG d   1       7.465   0.933  -2.895  0.00  0.00     0.058 H 
ATOM     20  H   LIG d   1       5.154  -1.483  -1.128  0.00  0.00     0.027 H 
ATOM     21  H   LIG d   1       3.695  -0.484  -0.815  0.00  0.00     0.027 H 
ATOM     22  H   LIG d   1       3.042  -2.511  -2.052  0.00  0.00     0.027 H 
ATOM     23  H   LIG d   1       2.850  -1.078  -3.117  0.00  0.00     0.027 H 
ATOM     24  H   LIG d   1       5.300  -2.927  -3.070  0.00  0.00     0.027 H 
ATOM     25  H   LIG d   1       3.978  -2.995  -4.285  0.00  0.00     0.027 H 
ATOM     26  H   LIG d   1       6.801  -2.649  -4.814  0.00  0.00     0.031 H 
ATOM     27  H   LIG d   1       5.732  -2.301  -6.216  0.00  0.00     0.031 H 
ENDROOT
BRANCH   1  28
ATOM     28  C   LIG d   1       8.320   2.331  -4.468  0.00  0.00     0.013 C 
ATOM     29  H   LIG d   1       8.155   1.969  -3.443  0.00  0.00     0.043 H 
ATOM     30  H   LIG d   1       7.465   2.947  -4.782  0.00  0.00     0.043 H 
BRANCH  28  31
ATOM     31  N   LIG d   1       9.547   3.137  -4.511  0.00  0.00    -0.299 N 
ATOM     32  C   LIG d   1       9.817   3.755  -3.206  0.00  0.00     0.015 C 
ATOM     33  C   LIG d   1      10.995   4.726  -3.338  0.00  0.00     0.031 C 
ATOM     34  H   LIG d   1      10.068   2.972  -2.473  0.00  0.00     0.044 H 
ATOM     35  H   LIG d   1       8.926   4.302  -2.866  0.00  0.00     0.044 H 
ATOM     36  N   LIG d   1      12.131   4.005  -3.932  0.00  0.00    -0.265 N 
ATOM     37  H   LIG d   1      11.280   5.107  -2.346  0.00  0.00     0.048 H 
ATOM     38  H   LIG d   1      10.715   5.568  -3.988  0.00  0.00     0.048 H 
ATOM     39  C   LIG d   1      13.349   4.039  -3.356  0.00  0.00     0.403 C 
ATOM     40  C   LIG d   1      11.903   3.248  -5.172  0.00  0.00     0.031 C 
ATOM     41  O   LIG d   1      13.520   4.671  -2.332  0.00  0.00    -0.226 OA
ATOM     42  C   LIG d   1      10.689   2.334  -4.968  0.00  0.00     0.015 C 
ATOM     43  H   LIG d   1      11.710   3.948  -5.999  0.00  0.00     0.048 H 
ATOM     44  H   LIG d   1      12.793   2.644  -5.402  0.00  0.00     0.048 H 
ATOM     45  H   LIG d   1      10.926   1.571  -4.211  0.00  0.00     0.044 H 
ATOM     46  H   LIG d   1      10.435   1.841  -5.918  0.00  0.00     0.044 H 
BRANCH  39  47
ATOM     47  O   LIG d   1      14.377   3.373  -3.915  0.00  0.00    -0.451 OA
BRANCH  47  48
ATOM     48  C   LIG d   1      15.259   2.648  -3.019  0.00  0.00     0.091 C 
ATOM     49  H   LIG d   1      15.064   2.959  -1.981  0.00  0.00     0.070 H 
ATOM     50  H   LIG d   1      16.306   2.870  -3.277  0.00  0.00     0.070 H 
BRANCH  48  51
ATOM     51  C   LIG d   1      15.007   1.146  -3.159  0.00  0.00    -0.030 C 
ATOM     52  H   LIG d   1      15.938   0.645  -3.465  0.00  0.00     0.026 H 
ATOM     53  H   LIG d   1      14.230   0.974  -3.918  0.00  0.00     0.026 H 
ATOM     54  H   LIG d   1      14.672   0.739  -2.193  0.00  0.00     0.026 H 
ENDBRANCH  48  51
ENDBRANCH  47  48
ENDBRANCH  39  47
ENDBRANCH  28  31
ENDBRANCH   1  28
BRANCH  12  55
ATOM     55  C   LIG d   1       4.174  -0.522  -5.267  0.00  0.00    -0.056 C 
ATOM     56  H   LIG d   1       4.677   0.088  -6.032  0.00  0.00     0.024 H 
ATOM     57  H   LIG d   1       3.560   0.127  -4.626  0.00  0.00     0.024 H 
ATOM     58  H   LIG d   1       3.533  -1.268  -5.756  0.00  0.00     0.024 H 
ENDBRANCH  12  55
BRANCH   7  59
ATOM     59  C   LIG d   1       3.923   1.225  -2.886  0.00  0.00    -0.059 C 
ATOM     60  H   LIG d   1       3.950   2.186  -2.353  0.00  0.00     0.024 H 
ATOM     61  H   LIG d   1       2.939   0.754  -2.741  0.00  0.00     0.024 H 
ATOM     62  H   LIG d   1       4.094   1.395  -3.959  0.00  0.00     0.024 H 
ENDBRANCH   7  59
TORSDOF 7
ENDMDL
MODEL 6
REMARK VINA RESULT:      -6.2      5.400     10.191
REMARK  7 active torsions:
REMARK  status: ('A' for Active; 'I' for Inactive)
REMARK    1  A    between atoms: C_1  and  C_2 
REMARK    2  A    between atoms: C_2  and  O_3 
REMARK    3  A    between atoms: O_3  and  C_4 
REMARK       I    between atoms: C_4  and  N_6 
REMARK    4  A    between atoms: N_9  and  C_12 
REMARK    5  A    between atoms: C_12  and  C_13 
REMARK    6  A    between atoms: C_19  and  C_32 
REMARK    7  A    between atoms: C_24  and  C_31 
ROOT
ATOM      1  C   LIG d   1       5.663  -1.777  -7.544  0.00  0.00     0.079 C 
ATOM      2  H   LIG d   1       5.885  -1.633  -8.612  0.00  0.00     0.043 H 
ATOM      3  C   LIG d   1       5.567  -0.446  -6.744  0.00  0.00     0.029 C 
ATOM      4  H   LIG d   1       5.317   0.471  -7.297  0.00  0.00     0.039 H 
ATOM      5  C   LIG d   1       4.492  -0.625  -5.715  0.00  0.00    -0.077 C 
ATOM      6  C   LIG d   1       4.635  -0.466  -4.437  0.00  0.00    -0.064 C 
ATOM      7  C   LIG d   1       3.438  -0.735  -3.543  0.00  0.00    -0.022 C 
ATOM      8  H   LIG d   1       2.536  -0.842  -4.163  0.00  0.00     0.034 H 
ATOM      9  C   LIG d   1       3.270   0.436  -2.573  0.00  0.00    -0.047 C 
ATOM     10  C   LIG d   1       4.578   0.643  -1.806  0.00  0.00    -0.052 C 
ATOM     11  C   LIG d   1       5.676   1.065  -2.784  0.00  0.00    -0.044 C 
ATOM     12  C   LIG d   1       5.930  -0.058  -3.794  0.00  0.00    -0.007 C 
ATOM     13  C   LIG d   1       6.955   0.412  -4.818  0.00  0.00    -0.006 C 
ATOM     14  C   LIG d   1       6.955  -0.439  -6.066  0.00  0.00     0.111 C 
ATOM     15  H   LIG d   1       7.774  -0.034  -6.679  0.00  0.00     0.074 H 
ATOM     16  O   LIG d   1       7.198  -1.848  -5.781  0.00  0.00    -0.461 OA
ATOM     17  C   LIG d   1       6.759  -2.557  -6.843  0.00  0.00     0.312 C 
ATOM     18  O   LIG d   1       7.173  -3.640  -7.180  0.00  0.00    -0.251 OA
ATOM     19  H   LIG d   1       3.513  -0.916  -6.126  0.00  0.00     0.058 H 
ATOM     20  H   LIG d   1       3.023   1.348  -3.136  0.00  0.00     0.027 H 
ATOM     21  H   LIG d   1       2.458   0.212  -1.864  0.00  0.00     0.027 H 
ATOM     22  H   LIG d   1       4.439   1.428  -1.048  0.00  0.00     0.027 H 
ATOM     23  H   LIG d   1       4.867  -0.297  -1.312  0.00  0.00     0.027 H 
ATOM     24  H   LIG d   1       5.358   1.972  -3.320  0.00  0.00     0.027 H 
ATOM     25  H   LIG d   1       6.602   1.272  -2.228  0.00  0.00     0.027 H 
ATOM     26  H   LIG d   1       6.731   1.447  -5.113  0.00  0.00     0.031 H 
ATOM     27  H   LIG d   1       7.961   0.365  -4.376  0.00  0.00     0.031 H 
ENDROOT
BRANCH   1  28
ATOM     28  C   LIG d   1       4.339  -2.541  -7.481  0.00  0.00     0.013 C 
ATOM     29  H   LIG d   1       3.595  -1.940  -6.936  0.00  0.00     0.043 H 
ATOM     30  H   LIG d   1       4.491  -3.497  -6.959  0.00  0.00     0.043 H 
BRANCH  28  31
ATOM     31  N   LIG d   1       3.856  -2.799  -8.844  0.00  0.00    -0.299 N 
ATOM     32  C   LIG d   1       3.272  -4.143  -8.950  0.00  0.00     0.015 C 
ATOM     33  C   LIG d   1       2.948  -4.440 -10.418  0.00  0.00     0.031 C 
ATOM     34  H   LIG d   1       2.348  -4.191  -8.354  0.00  0.00     0.044 H 
ATOM     35  H   LIG d   1       3.990  -4.886  -8.575  0.00  0.00     0.044 H 
ATOM     36  N   LIG d   1       2.106  -3.353 -10.940  0.00  0.00    -0.265 N 
ATOM     37  H   LIG d   1       2.405  -5.394 -10.496  0.00  0.00     0.048 H 
ATOM     38  H   LIG d   1       3.877  -4.497 -11.003  0.00  0.00     0.048 H 
ATOM     39  C   LIG d   1       0.948  -3.620 -11.578  0.00  0.00     0.403 C 
ATOM     40  C   LIG d   1       2.560  -1.967 -10.748  0.00  0.00     0.031 C 
ATOM     41  O   LIG d   1       0.589  -4.771 -11.728  0.00  0.00    -0.226 OA
ATOM     42  C   LIG d   1       2.900  -1.767  -9.267  0.00  0.00     0.015 C 
ATOM     43  H   LIG d   1       3.453  -1.786 -11.366  0.00  0.00     0.048 H 
ATOM     44  H   LIG d   1       1.760  -1.274 -11.048  0.00  0.00     0.048 H 
ATOM     45  H   LIG d   1       1.983  -1.848  -8.665  0.00  0.00     0.044 H 
ATOM     46  H   LIG d   1       3.346  -0.772  -9.124  0.00  0.00     0.044 H 
BRANCH  39  47
ATOM     47  O   LIG d   1       0.192  -2.611 -12.049  0.00  0.00    -0.451 OA
BRANCH  47  48
ATOM     48  C   LIG d   1      -0.166  -2.657 -13.456  0.00  0.00     0.091 C 
ATOM     49  H   LIG d   1       0.126  -3.630 -13.878  0.00  0.00     0.070 H 
ATOM     50  H   LIG d   1       0.358  -1.852 -13.993  0.00  0.00     0.070 H 
BRANCH  48  51
ATOM     51  C   LIG d   1      -1.677  -2.468 -13.603  0.00  0.00    -0.030 C 
ATOM     52  H   LIG d   1      -2.125  -3.394 -13.998  0.00  0.00     0.026 H 
ATOM     53  H   LIG d   1      -1.877  -1.639 -14.297  0.00  0.00     0.026 H 
ATOM     54  H   LIG d   1      -2.116  -2.239 -12.620  0.00  0.00     0.026 H 
ENDBRANCH  48  51
ENDBRANCH  47  48
ENDBRANCH  39  47
ENDBRANCH  28  31
ENDBRANCH   1  28
BRANCH  12  55
ATOM     55  C   LIG d   1       6.515  -1.263  -3.054  0.00  0.00    -0.056 C 
ATOM     56  H   LIG d   1       5.920  -1.461  -2.150  0.00  0.00     0.024 H 
ATOM     57  H   LIG d   1       7.555  -1.049  -2.770  0.00  0.00     0.024 H 
ATOM     58  H   LIG d   1       6.488  -2.145  -3.711  0.00  0.00     0.024 H 
ENDBRANCH  12  55
BRANCH   7  59
ATOM     59  C   LIG d   1       3.667  -2.026  -2.754  0.00  0.00    -0.059 C 
ATOM     60  H   LIG d   1       3.632  -1.808  -1.677  0.00  0.00     0.024 H 
ATOM     61  H   LIG d   1       4.652  -2.443  -3.011  0.00  0.00     0.024 H 
ATOM     62  H   LIG d   1       2.883  -2.754  -3.007  0.00  0.00     0.024 H 
ENDBRANCH   7  59
TORSDOF 7
ENDMDL
MODEL 7
REMARK VINA RESULT:      -6.2      1.961      2.683
REMARK  7 active torsions:
REMARK  status: ('A' for Active; 'I' for Inactive)
REMARK    1  A    between atoms: C_1  and  C_2 
REMARK    2  A    between atoms: C_2  and  O_3 
REMARK    3  A    between atoms: O_3  and  C_4 
REMARK       I    between atoms: C_4  and  N_6 
REMARK    4  A    between atoms: N_9  and  C_12 
REMARK    5  A    between atoms: C_12  and  C_13 
REMARK    6  A    between atoms: C_19  and  C_32 
REMARK    7  A    between atoms: C_24  and  C_31 
ROOT
ATOM      1  C   LIG d   1       8.416   1.119  -5.527  0.00  0.00     0.079 C 
ATOM      2  H   LIG d   1       9.463   1.143  -5.863  0.00  0.00     0.043 H 
ATOM      3  C   LIG d   1       8.045  -0.173  -4.743  0.00  0.00     0.029 C 
ATOM      4  H   LIG d   1       8.855  -0.725  -4.244  0.00  0.00     0.039 H 
ATOM      5  C   LIG d   1       7.079   0.223  -3.668  0.00  0.00    -0.077 C 
ATOM      6  C   LIG d   1       5.896  -0.276  -3.494  0.00  0.00    -0.064 C 
ATOM      7  C   LIG d   1       5.041   0.284  -2.371  0.00  0.00    -0.022 C 
ATOM      8  H   LIG d   1       5.659   0.926  -1.726  0.00  0.00     0.034 H 
ATOM      9  C   LIG d   1       4.465  -0.877  -1.559  0.00  0.00    -0.047 C 
ATOM     10  C   LIG d   1       3.710  -1.821  -2.498  0.00  0.00    -0.052 C 
ATOM     11  C   LIG d   1       4.697  -2.448  -3.483  0.00  0.00    -0.044 C 
ATOM     12  C   LIG d   1       5.319  -1.358  -4.361  0.00  0.00    -0.007 C 
ATOM     13  C   LIG d   1       6.367  -1.984  -5.270  0.00  0.00    -0.006 C 
ATOM     14  C   LIG d   1       7.312  -0.959  -5.852  0.00  0.00     0.111 C 
ATOM     15  H   LIG d   1       7.962  -1.533  -6.529  0.00  0.00     0.074 H 
ATOM     16  O   LIG d   1       6.614   0.083  -6.598  0.00  0.00    -0.461 OA
ATOM     17  C   LIG d   1       7.450   1.138  -6.696  0.00  0.00     0.312 C 
ATOM     18  O   LIG d   1       7.432   1.966  -7.575  0.00  0.00    -0.251 OA
ATOM     19  H   LIG d   1       7.450   1.008  -2.991  0.00  0.00     0.058 H 
ATOM     20  H   LIG d   1       5.284  -1.422  -1.067  0.00  0.00     0.027 H 
ATOM     21  H   LIG d   1       3.775  -0.485  -0.796  0.00  0.00     0.027 H 
ATOM     22  H   LIG d   1       3.223  -2.612  -1.909  0.00  0.00     0.027 H 
ATOM     23  H   LIG d   1       2.947  -1.253  -3.052  0.00  0.00     0.027 H 
ATOM     24  H   LIG d   1       5.492  -2.964  -2.925  0.00  0.00     0.027 H 
ATOM     25  H   LIG d   1       4.167  -3.172  -4.121  0.00  0.00     0.027 H 
ATOM     26  H   LIG d   1       6.964  -2.708  -4.698  0.00  0.00     0.031 H 
ATOM     27  H   LIG d   1       5.868  -2.497  -6.105  0.00  0.00     0.031 H 
ENDROOT
BRANCH   1  28
ATOM     28  C   LIG d   1       8.218   2.357  -4.649  0.00  0.00     0.013 C 
ATOM     29  H   LIG d   1       7.984   2.043  -3.621  0.00  0.00     0.043 H 
ATOM     30  H   LIG d   1       7.388   2.959  -5.047  0.00  0.00     0.043 H 
BRANCH  28  31
ATOM     31  N   LIG d   1       9.449   3.159  -4.648  0.00  0.00    -0.299 N 
ATOM     32  C   LIG d   1      10.260   2.880  -5.840  0.00  0.00     0.015 C 
ATOM     33  C   LIG d   1      11.610   3.595  -5.713  0.00  0.00     0.031 C 
ATOM     34  H   LIG d   1       9.736   3.245  -6.736  0.00  0.00     0.044 H 
ATOM     35  H   LIG d   1      10.426   1.797  -5.928  0.00  0.00     0.044 H 
ATOM     36  N   LIG d   1      11.361   5.020  -5.449  0.00  0.00    -0.265 N 
ATOM     37  H   LIG d   1      12.180   3.489  -6.648  0.00  0.00     0.048 H 
ATOM     38  H   LIG d   1      12.186   3.164  -4.881  0.00  0.00     0.048 H 
ATOM     39  C   LIG d   1      11.956   5.976  -6.191  0.00  0.00     0.403 C 
ATOM     40  C   LIG d   1      10.446   5.376  -4.353  0.00  0.00     0.031 C 
ATOM     41  O   LIG d   1      12.709   5.664  -7.092  0.00  0.00    -0.226 OA
ATOM     42  C   LIG d   1       9.142   4.592  -4.534  0.00  0.00     0.015 C 
ATOM     43  H   LIG d   1      10.910   5.116  -3.390  0.00  0.00     0.048 H 
ATOM     44  H   LIG d   1      10.242   6.457  -4.382  0.00  0.00     0.048 H 
ATOM     45  H   LIG d   1       8.632   4.931  -5.448  0.00  0.00     0.044 H 
ATOM     46  H   LIG d   1       8.488   4.759  -3.665  0.00  0.00     0.044 H 
BRANCH  39  47
ATOM     47  O   LIG d   1      11.715   7.275  -5.934  0.00  0.00    -0.451 OA
BRANCH  47  48
ATOM     48  C   LIG d   1      11.048   8.041  -6.971  0.00  0.00     0.091 C 
ATOM     49  H   LIG d   1      11.236   7.575  -7.950  0.00  0.00     0.070 H 
ATOM     50  H   LIG d   1      11.436   9.070  -6.974  0.00  0.00     0.070 H 
BRANCH  48  51
ATOM     51  C   LIG d   1       9.543   8.064  -6.699  0.00  0.00    -0.030 C 
ATOM     52  H   LIG d   1       9.247   7.131  -6.195  0.00  0.00     0.026 H 
ATOM     53  H   LIG d   1       8.999   8.156  -7.650  0.00  0.00     0.026 H 
ATOM     54  H   LIG d   1       9.300   8.923  -6.054  0.00  0.00     0.026 H 
ENDBRANCH  48  51
ENDBRANCH  47  48
ENDBRANCH  39  47
ENDBRANCH  28  31
ENDBRANCH   1  28
BRANCH  12  55
ATOM     55  C   LIG d   1       4.225  -0.752  -5.243  0.00  0.00    -0.056 C 
ATOM     56  H   LIG d   1       4.274  -1.199  -6.247  0.00  0.00     0.024 H 
ATOM     57  H   LIG d   1       4.375   0.335  -5.318  0.00  0.00     0.024 H 
ATOM     58  H   LIG d   1       3.240  -0.956  -4.798  0.00  0.00     0.024 H 
ENDBRANCH  12  55
BRANCH   7  59
ATOM     59  C   LIG d   1       3.898   1.112  -2.963  0.00  0.00    -0.059 C 
ATOM     60  H   LIG d   1       3.408   0.542  -3.765  0.00  0.00     0.024 H 
ATOM     61  H   LIG d   1       4.299   2.051  -3.373  0.00  0.00     0.024 H 
ATOM     62  H   LIG d   1       3.165   1.341  -2.176  0.00  0.00     0.024 H 
ENDBRANCH   7  59
TORSDOF 7
ENDMDL
MODEL 8
REMARK VINA RESULT:      -6.2      5.785     10.199
REMARK  7 active torsions:
REMARK  status: ('A' for Active; 'I' for Inactive)
REMARK    1  A    between atoms: C_1  and  C_2 
REMARK    2  A    between atoms: C_2  and  O_3 
REMARK    3  A    between atoms: O_3  and  C_4 
REMARK       I    between atoms: C_4  and  N_6 
REMARK    4  A    between atoms: N_9  and  C_12 
REMARK    5  A    between atoms: C_12  and  C_13 
REMARK    6  A    between atoms: C_19  and  C_32 
REMARK    7  A    between atoms: C_24  and  C_31 
ROOT
ATOM      1  C   LIG d   1       6.441  -3.812  -6.570  0.00  0.00     0.079 C 
ATOM      2  H   LIG d   1       6.564  -4.425  -7.475  0.00  0.00     0.043 H 
ATOM      3  C   LIG d   1       5.133  -2.968  -6.565  0.00  0.00     0.029 C 
ATOM      4  H   LIG d   1       4.292  -3.317  -7.182  0.00  0.00     0.039 H 
ATOM      5  C   LIG d   1       4.634  -2.931  -5.152  0.00  0.00    -0.077 C 
ATOM      6  C   LIG d   1       4.395  -1.860  -4.464  0.00  0.00    -0.064 C 
ATOM      7  C   LIG d   1       3.934  -2.021  -3.026  0.00  0.00    -0.022 C 
ATOM      8  H   LIG d   1       3.677  -3.074  -2.841  0.00  0.00     0.034 H 
ATOM      9  C   LIG d   1       2.708  -1.135  -2.795  0.00  0.00    -0.047 C 
ATOM     10  C   LIG d   1       3.054   0.307  -3.174  0.00  0.00    -0.052 C 
ATOM     11  C   LIG d   1       3.345   0.379  -4.674  0.00  0.00    -0.044 C 
ATOM     12  C   LIG d   1       4.576  -0.471  -5.004  0.00  0.00    -0.007 C 
ATOM     13  C   LIG d   1       4.798  -0.467  -6.511  0.00  0.00    -0.006 C 
ATOM     14  C   LIG d   1       5.702  -1.588  -6.964  0.00  0.00     0.111 C 
ATOM     15  H   LIG d   1       5.826  -1.427  -8.045  0.00  0.00     0.074 H 
ATOM     16  O   LIG d   1       7.003  -1.557  -6.305  0.00  0.00    -0.461 OA
ATOM     17  C   LIG d   1       7.548  -2.786  -6.430  0.00  0.00     0.312 C 
ATOM     18  O   LIG d   1       8.732  -3.029  -6.430  0.00  0.00    -0.251 OA
ATOM     19  H   LIG d   1       4.472  -3.922  -4.702  0.00  0.00     0.058 H 
ATOM     20  H   LIG d   1       1.875  -1.491  -3.418  0.00  0.00     0.027 H 
ATOM     21  H   LIG d   1       2.418  -1.178  -1.734  0.00  0.00     0.027 H 
ATOM     22  H   LIG d   1       2.206   0.963  -2.932  0.00  0.00     0.027 H 
ATOM     23  H   LIG d   1       3.942   0.632  -2.611  0.00  0.00     0.027 H 
ATOM     24  H   LIG d   1       2.478  -0.003  -5.233  0.00  0.00     0.027 H 
ATOM     25  H   LIG d   1       3.536   1.424  -4.960  0.00  0.00     0.027 H 
ATOM     26  H   LIG d   1       3.832  -0.582  -7.024  0.00  0.00     0.031 H 
ATOM     27  H   LIG d   1       5.262   0.485  -6.811  0.00  0.00     0.031 H 
ENDROOT
BRANCH   1  28
ATOM     28  C   LIG d   1       6.458  -4.783  -5.388  0.00  0.00     0.013 C 
ATOM     29  H   LIG d   1       5.641  -4.533  -4.695  0.00  0.00     0.043 H 
ATOM     30  H   LIG d   1       7.421  -4.703  -4.862  0.00  0.00     0.043 H 
BRANCH  28  31
ATOM     31  N   LIG d   1       6.282  -6.156  -5.878  0.00  0.00    -0.299 N 
ATOM     32  C   LIG d   1       7.213  -7.077  -5.213  0.00  0.00     0.015 C 
ATOM     33  C   LIG d   1       7.123  -8.456  -5.877  0.00  0.00     0.031 C 
ATOM     34  H   LIG d   1       6.946  -7.165  -4.149  0.00  0.00     0.044 H 
ATOM     35  H   LIG d   1       8.238  -6.692  -5.304  0.00  0.00     0.044 H 
ATOM     36  N   LIG d   1       5.716  -8.884  -5.876  0.00  0.00    -0.265 N 
ATOM     37  H   LIG d   1       7.729  -9.182  -5.315  0.00  0.00     0.048 H 
ATOM     38  H   LIG d   1       7.488  -8.397  -6.913  0.00  0.00     0.048 H 
ATOM     39  C   LIG d   1       5.363 -10.098  -5.405  0.00  0.00     0.403 C 
ATOM     40  C   LIG d   1       4.705  -7.956  -6.402  0.00  0.00     0.031 C 
ATOM     41  O   LIG d   1       6.213 -10.853  -4.975  0.00  0.00    -0.226 OA
ATOM     42  C   LIG d   1       4.889  -6.597  -5.717  0.00  0.00     0.015 C 
ATOM     43  H   LIG d   1       4.836  -7.849  -7.490  0.00  0.00     0.048 H 
ATOM     44  H   LIG d   1       3.700  -8.350  -6.191  0.00  0.00     0.048 H 
ATOM     45  H   LIG d   1       4.656  -6.689  -4.646  0.00  0.00     0.044 H 
ATOM     46  H   LIG d   1       4.215  -5.859  -6.177  0.00  0.00     0.044 H 
BRANCH  39  47
ATOM     47  O   LIG d   1       4.071 -10.472  -5.413  0.00  0.00    -0.451 OA
BRANCH  47  48
ATOM     48  C   LIG d   1       3.585 -11.191  -4.249  0.00  0.00     0.091 C 
ATOM     49  H   LIG d   1       4.358 -11.894  -3.902  0.00  0.00     0.070 H 
ATOM     50  H   LIG d   1       2.676 -11.750  -4.516  0.00  0.00     0.070 H 
BRANCH  48  51
ATOM     51  C   LIG d   1       3.263 -10.196  -3.133  0.00  0.00    -0.030 C 
ATOM     52  H   LIG d   1       2.171 -10.096  -3.036  0.00  0.00     0.026 H 
ATOM     53  H   LIG d   1       3.700  -9.217  -3.376  0.00  0.00     0.026 H 
ATOM     54  H   LIG d   1       3.684 -10.560  -2.184  0.00  0.00     0.026 H 
ENDBRANCH  48  51
ENDBRANCH  47  48
ENDBRANCH  39  47
ENDBRANCH  28  31
ENDBRANCH   1  28
BRANCH  12  55
ATOM     55  C   LIG d   1       5.803   0.160  -4.342  0.00  0.00    -0.056 C 
ATOM     56  H   LIG d   1       5.495   1.051  -3.774  0.00  0.00     0.024 H 
ATOM     57  H   LIG d   1       6.529   0.451  -5.115  0.00  0.00     0.024 H 
ATOM     58  H   LIG d   1       6.266  -0.567  -3.659  0.00  0.00     0.024 H 
ENDBRANCH  12  55
BRANCH   7  59
ATOM     59  C   LIG d   1       5.058  -1.599  -2.077  0.00  0.00    -0.059 C 
ATOM     60  H   LIG d   1       5.831  -2.381  -2.053  0.00  0.00     0.024 H 
ATOM     61  H   LIG d   1       4.649  -1.457  -1.065  0.00  0.00     0.024 H 
ATOM     62  H   LIG d   1       5.500  -0.656  -2.429  0.00  0.00     0.024 H 
ENDBRANCH   7  59
TORSDOF 7
ENDMDL
MODEL 9
REMARK VINA RESULT:      -5.8      6.467      9.717
REMARK  7 active torsions:
REMARK  status: ('A' for Active; 'I' for Inactive)
REMARK    1  A    between atoms: C_1  and  C_2 
REMARK    2  A    between atoms: C_2  and  O_3 
REMARK    3  A    between atoms: O_3  and  C_4 
REMARK       I    between atoms: C_4  and  N_6 
REMARK    4  A    between atoms: N_9  and  C_12 
REMARK    5  A    between atoms: C_12  and  C_13 
REMARK    6  A    between atoms: C_19  and  C_32 
REMARK    7  A    between atoms: C_24  and  C_31 
ROOT
ATOM      1  C   LIG d   1       2.549  -1.514  -9.709  0.00  0.00     0.079 C 
ATOM      2  H   LIG d   1       1.914  -1.234  -8.856  0.00  0.00     0.043 H 
ATOM      3  C   LIG d   1       1.973  -1.066 -11.084  0.00  0.00     0.029 C 
ATOM      4  H   LIG d   1       1.276  -0.215 -11.099  0.00  0.00     0.039 H 
ATOM      5  C   LIG d   1       3.136  -0.674 -11.945  0.00  0.00    -0.077 C 
ATOM      6  C   LIG d   1       3.413  -1.169 -13.110  0.00  0.00    -0.064 C 
ATOM      7  C   LIG d   1       4.663  -0.677 -13.818  0.00  0.00    -0.022 C 
ATOM      8  H   LIG d   1       5.056   0.206 -13.293  0.00  0.00     0.034 H 
ATOM      9  C   LIG d   1       4.306  -0.313 -15.260  0.00  0.00    -0.047 C 
ATOM     10  C   LIG d   1       3.651  -1.521 -15.935  0.00  0.00    -0.052 C 
ATOM     11  C   LIG d   1       2.323  -1.828 -15.240  0.00  0.00    -0.044 C 
ATOM     12  C   LIG d   1       2.579  -2.222 -13.783  0.00  0.00    -0.007 C 
ATOM     13  C   LIG d   1       1.245  -2.431 -13.079  0.00  0.00    -0.006 C 
ATOM     14  C   LIG d   1       1.375  -2.403 -11.574  0.00  0.00     0.111 C 
ATOM     15  H   LIG d   1       0.365  -2.630 -11.203  0.00  0.00     0.074 H 
ATOM     16  O   LIG d   1       2.322  -3.397 -11.078  0.00  0.00    -0.461 OA
ATOM     17  C   LIG d   1       2.690  -3.018  -9.836  0.00  0.00     0.312 C 
ATOM     18  O   LIG d   1       3.071  -3.761  -8.962  0.00  0.00    -0.251 OA
ATOM     19  H   LIG d   1       3.781   0.103 -11.510  0.00  0.00     0.058 H 
ATOM     20  H   LIG d   1       3.608   0.536 -15.263  0.00  0.00     0.027 H 
ATOM     21  H   LIG d   1       5.222  -0.037 -15.806  0.00  0.00     0.027 H 
ATOM     22  H   LIG d   1       3.469  -1.295 -16.995  0.00  0.00     0.027 H 
ATOM     23  H   LIG d   1       4.318  -2.393 -15.855  0.00  0.00     0.027 H 
ATOM     24  H   LIG d   1       1.681  -0.935 -15.269  0.00  0.00     0.027 H 
ATOM     25  H   LIG d   1       1.822  -2.657 -15.760  0.00  0.00     0.027 H 
ATOM     26  H   LIG d   1       0.546  -1.635 -13.373  0.00  0.00     0.031 H 
ATOM     27  H   LIG d   1       0.829  -3.409 -13.365  0.00  0.00     0.031 H 
ENDROOT
BRANCH   1  28
ATOM     28  C   LIG d   1       3.913  -0.868  -9.461  0.00  0.00     0.013 C 
ATOM     29  H   LIG d   1       4.063  -0.042 -10.172  0.00  0.00     0.043 H 
ATOM     30  H   LIG d   1       4.705  -1.618  -9.600  0.00  0.00     0.043 H 
BRANCH  28  31
ATOM     31  N   LIG d   1       3.967  -0.347  -8.089  0.00  0.00    -0.299 N 
ATOM     32  C   LIG d   1       2.620  -0.249  -7.509  0.00  0.00     0.015 C 
ATOM     33  C   LIG d   1       2.701   0.462  -6.154  0.00  0.00     0.031 C 
ATOM     34  H   LIG d   1       2.206  -1.259  -7.369  0.00  0.00     0.044 H 
ATOM     35  H   LIG d   1       1.970   0.323  -8.186  0.00  0.00     0.044 H 
ATOM     36  N   LIG d   1       3.689  -0.237  -5.318  0.00  0.00    -0.265 N 
ATOM     37  H   LIG d   1       1.719   0.439  -5.659  0.00  0.00     0.048 H 
ATOM     38  H   LIG d   1       3.016   1.506  -6.298  0.00  0.00     0.048 H 
ATOM     39  C   LIG d   1       3.381  -0.631  -4.066  0.00  0.00     0.403 C 
ATOM     40  C   LIG d   1       5.022  -0.495  -5.883  0.00  0.00     0.031 C 
ATOM     41  O   LIG d   1       2.274  -0.409  -3.615  0.00  0.00    -0.226 OA
ATOM     42  C   LIG d   1       4.850  -1.169  -7.249  0.00  0.00     0.015 C 
ATOM     43  H   LIG d   1       5.561   0.458  -6.000  0.00  0.00     0.048 H 
ATOM     44  H   LIG d   1       5.586  -1.154  -5.207  0.00  0.00     0.048 H 
ATOM     45  H   LIG d   1       4.404  -2.165  -7.114  0.00  0.00     0.044 H 
ATOM     46  H   LIG d   1       5.831  -1.268  -7.737  0.00  0.00     0.044 H 
BRANCH  39  47
ATOM     47  O   LIG d   1       4.299  -1.269  -3.316  0.00  0.00    -0.451 OA
BRANCH  47  48
ATOM     48  C   LIG d   1       4.340  -0.939  -1.903  0.00  0.00     0.091 C 
ATOM     49  H   LIG d   1       5.103  -1.555  -1.404  0.00  0.00     0.070 H 
ATOM     50  H   LIG d   1       3.356  -1.139  -1.451  0.00  0.00     0.070 H 
BRANCH  48  51
ATOM     51  C   LIG d   1       4.686   0.541  -1.734  0.00  0.00    -0.030 C 
ATOM     52  H   LIG d   1       5.332   0.668  -0.852  0.00  0.00     0.026 H 
ATOM     53  H   LIG d   1       3.762   1.121  -1.597  0.00  0.00     0.026 H 
ATOM     54  H   LIG d   1       5.214   0.898  -2.630  0.00  0.00     0.026 H 
ENDBRANCH  48  51
ENDBRANCH  47  48
ENDBRANCH  39  47
ENDBRANCH  28  31
ENDBRANCH   1  28
BRANCH  12  55
ATOM     55  C   LIG d   1       3.343  -3.547 -13.757  0.00  0.00    -0.056 C 
ATOM     56  H   LIG d   1       2.820  -4.283 -14.385  0.00  0.00     0.024 H 
ATOM     57  H   LIG d   1       3.398  -3.919 -12.724  0.00  0.00     0.024 H 
ATOM     58  H   LIG d   1       4.360  -3.391 -14.145  0.00  0.00     0.024 H 
ENDBRANCH  12  55
BRANCH   7  59
ATOM     59  C   LIG d   1       5.722  -1.782 -13.815  0.00  0.00    -0.059 C 
ATOM     60  H   LIG d   1       5.402  -2.599 -14.477  0.00  0.00     0.024 H 
ATOM     61  H   LIG d   1       5.847  -2.167 -12.791  0.00  0.00     0.024 H 
ATOM     62  H   LIG d   1       6.679  -1.374 -14.172  0.00  0.00     0.024 H 
ENDBRANCH   7  59
TORSDOF 7
ENDMDL
MODEL 10
REMARK VINA RESULT:      -5.6      8.935     13.917
REMARK  7 active torsions:
REMARK  status: ('A' for Active; 'I' for Inactive)
REMARK    1  A    between atoms: C_1  and  C_2 
REMARK    2  A    between atoms: C_2  and  O_3 
REMARK    3  A    between atoms: O_3  and  C_4 
REMARK       I    between atoms: C_4  and  N_6 
REMARK    4  A    between atoms: N_9  and  C_12 
REMARK    5  A    between atoms: C_12  and  C_13 
REMARK    6  A    between atoms: C_19  and  C_32 
REMARK    7  A    between atoms: C_24  and  C_31 
ROOT
ATOM      1  C   LIG d   1       1.514  -3.088 -11.709  0.00  0.00     0.079 C 
ATOM      2  H   LIG d   1       0.903  -3.557 -12.493  0.00  0.00     0.043 H 
ATOM      3  C   LIG d   1       1.646  -1.545 -11.863  0.00  0.00     0.029 C 
ATOM      4  H   LIG d   1       0.860  -1.013 -12.418  0.00  0.00     0.039 H 
ATOM      5  C   LIG d   1       1.656  -0.962 -10.482  0.00  0.00    -0.077 C 
ATOM      6  C   LIG d   1       2.583  -0.201  -9.991  0.00  0.00    -0.064 C 
ATOM      7  C   LIG d   1       2.441   0.262  -8.551  0.00  0.00    -0.022 C 
ATOM      8  H   LIG d   1       1.429   0.026  -8.190  0.00  0.00     0.034 H 
ATOM      9  C   LIG d   1       2.681   1.771  -8.489  0.00  0.00    -0.047 C 
ATOM     10  C   LIG d   1       4.045   2.088  -9.107  0.00  0.00    -0.052 C 
ATOM     11  C   LIG d   1       4.021   1.730 -10.594  0.00  0.00    -0.044 C 
ATOM     12  C   LIG d   1       3.800   0.224 -10.761  0.00  0.00    -0.007 C 
ATOM     13  C   LIG d   1       3.683  -0.104 -12.243  0.00  0.00    -0.006 C 
ATOM     14  C   LIG d   1       3.056  -1.456 -12.487  0.00  0.00     0.111 C 
ATOM     15  H   LIG d   1       3.094  -1.588 -13.579  0.00  0.00     0.074 H 
ATOM     16  O   LIG d   1       3.784  -2.536 -11.830  0.00  0.00    -0.461 OA
ATOM     17  C   LIG d   1       2.945  -3.590 -11.736  0.00  0.00     0.312 C 
ATOM     18  O   LIG d   1       3.282  -4.749 -11.683  0.00  0.00    -0.251 OA
ATOM     19  H   LIG d   1       0.782  -1.229  -9.870  0.00  0.00     0.058 H 
ATOM     20  H   LIG d   1       1.891   2.293  -9.049  0.00  0.00     0.027 H 
ATOM     21  H   LIG d   1       2.665   2.102  -7.439  0.00  0.00     0.027 H 
ATOM     22  H   LIG d   1       4.260   3.160  -8.990  0.00  0.00     0.027 H 
ATOM     23  H   LIG d   1       4.823   1.500  -8.599  0.00  0.00     0.027 H 
ATOM     24  H   LIG d   1       3.202   2.275 -11.088  0.00  0.00     0.027 H 
ATOM     25  H   LIG d   1       4.979   2.012 -11.054  0.00  0.00     0.027 H 
ATOM     26  H   LIG d   1       3.059   0.653 -12.738  0.00  0.00     0.031 H 
ATOM     27  H   LIG d   1       4.685  -0.109 -12.698  0.00  0.00     0.031 H 
ENDROOT
BRANCH   1  28
ATOM     28  C   LIG d   1       0.849  -3.441 -10.377  0.00  0.00     0.013 C 
ATOM     29  H   LIG d   1       0.437  -2.530  -9.920  0.00  0.00     0.043 H 
ATOM     30  H   LIG d   1       1.595  -3.885  -9.701  0.00  0.00     0.043 H 
BRANCH  28  31
ATOM     31  N   LIG d   1      -0.234  -4.405 -10.610  0.00  0.00    -0.299 N 
ATOM     32  C   LIG d   1      -0.674  -4.374 -12.012  0.00  0.00     0.015 C 
ATOM     33  C   LIG d   1      -1.917  -5.255 -12.173  0.00  0.00     0.031 C 
ATOM     34  H   LIG d   1       0.131  -4.755 -12.658  0.00  0.00     0.044 H 
ATOM     35  H   LIG d   1      -0.917  -3.341 -12.298  0.00  0.00     0.044 H 
ATOM     36  N   LIG d   1      -1.613  -6.594 -11.646  0.00  0.00    -0.265 N 
ATOM     37  H   LIG d   1      -2.188  -5.332 -13.236  0.00  0.00     0.048 H 
ATOM     38  H   LIG d   1      -2.758  -4.823 -11.611  0.00  0.00     0.048 H 
ATOM     39  C   LIG d   1      -1.854  -7.698 -12.381  0.00  0.00     0.403 C 
ATOM     40  C   LIG d   1      -1.039  -6.697 -10.296  0.00  0.00     0.031 C 
ATOM     41  O   LIG d   1      -2.330  -7.595 -13.494  0.00  0.00    -0.226 OA
ATOM     42  C   LIG d   1       0.171  -5.759 -10.208  0.00  0.00     0.015 C 
ATOM     43  H   LIG d   1      -1.796  -6.403  -9.552  0.00  0.00     0.048 H 
ATOM     44  H   LIG d   1      -0.724  -7.734 -10.109  0.00  0.00     0.048 H 
ATOM     45  H   LIG d   1       0.964  -6.119 -10.880  0.00  0.00     0.044 H 
ATOM     46  H   LIG d   1       0.546  -5.738  -9.174  0.00  0.00     0.044 H 
BRANCH  39  47
ATOM     47  O   LIG d   1      -1.569  -8.915 -11.881  0.00  0.00    -0.451 OA
BRANCH  47  48
ATOM     48  C   LIG d   1      -2.684  -9.825 -11.685  0.00  0.00     0.091 C 
ATOM     49  H   LIG d   1      -2.424 -10.816 -12.088  0.00  0.00     0.070 H 
ATOM     50  H   LIG d   1      -3.570  -9.438 -12.211  0.00  0.00     0.070 H 
BRANCH  48  51
ATOM     51  C   LIG d   1      -2.989  -9.945 -10.191  0.00  0.00    -0.030 C 
ATOM     52  H   LIG d   1      -4.074 -10.064 -10.047  0.00  0.00     0.026 H 
ATOM     53  H   LIG d   1      -2.647  -9.037  -9.673  0.00  0.00     0.026 H 
ATOM     54  H   LIG d   1      -2.466 -10.821  -9.779  0.00  0.00     0.026 H 
ENDBRANCH  48  51
ENDBRANCH  47  48
ENDBRANCH  39  47
ENDBRANCH  28  31
ENDBRANCH   1  28
BRANCH  12  55
ATOM     55  C   LIG d   1       5.019  -0.518 -10.204  0.00  0.00    -0.056 C 
ATOM     56  H   LIG d   1       5.931   0.050 -10.441  0.00  0.00     0.024 H 
ATOM     57  H   LIG d   1       5.079  -1.517 -10.660  0.00  0.00     0.024 H 
ATOM     58  H   LIG d   1       4.920  -0.617  -9.114  0.00  0.00     0.024 H 
ENDBRANCH  12  55
BRANCH   7  59
ATOM     59  C   LIG d   1       3.471  -0.458  -7.678  0.00  0.00    -0.059 C 
ATOM     60  H   LIG d   1       4.020   0.280  -7.075  0.00  0.00     0.024 H 
ATOM     61  H   LIG d   1       4.178  -1.005  -8.320  0.00  0.00     0.024 H 
ATOM     62  H   LIG d   1       2.957  -1.166  -7.012  0.00  0.00     0.024 H 
ENDBRANCH   7  59
TORSDOF 7
ENDMDL
