MODEL 1
REMARK VINA RESULT:      -7.2      0.000      0.000
REMARK  6 active torsions:
REMARK  status: ('A' for Active; 'I' for Inactive)
REMARK    1  A    between atoms: C_1  and  C_2 
REMARK       I    between atoms: C_2  and  N_4 
REMARK    2  A    between atoms: C_16  and  O_20 
REMARK    3  A    between atoms: O_20  and  C_21 
REMARK    4  A    between atoms: C_21  and  C_22 
REMARK       I    between atoms: C_22  and  N_24 
REMARK    5  A    between atoms: N_24  and  C_25 
REMARK    6  A    between atoms: C_25  and  C_26 
ROOT
ATOM      1  C   LIG d   1      11.063   5.547  -3.126  0.00  0.00     0.212 C 
ATOM      2  O   LIG d   1      11.617   5.362  -2.062  0.00  0.00    -0.276 OA
ATOM      3  N   LIG d   1      10.204   4.627  -3.608  0.00  0.00    -0.301 N 
ATOM      4  C   LIG d   1      10.011   3.347  -2.912  0.00  0.00     0.018 C 
ATOM      5  C   LIG d   1      10.239   2.207  -3.910  0.00  0.00     0.003 C 
ATOM      6  C   LIG d   1       9.330   2.407  -5.124  0.00  0.00     0.120 C 
ATOM      7  C   LIG d   1       9.675   3.729  -5.813  0.00  0.00     0.003 C 
ATOM      8  C   LIG d   1       9.443   4.885  -4.838  0.00  0.00     0.018 C 
ATOM      9  C   LIG d   1       9.543   1.249  -6.110  0.00  0.00     0.051 C 
ATOM     10  C   LIG d   1       9.164  -0.030  -5.386  0.00  0.00     0.170 C 
ATOM     11  O   LIG d   1       9.806  -1.051  -5.516  0.00  0.00    -0.292 OA
ATOM     12  C   LIG d   1       7.977   0.032  -4.520  0.00  0.00     0.059 A 
ATOM     13  C   LIG d   1       7.405  -1.135  -4.006  0.00  0.00    -0.044 A 
ATOM     14  C   LIG d   1       6.310  -1.056  -3.195  0.00  0.00    -0.019 A 
ATOM     15  C   LIG d   1       5.755   0.184  -2.885  0.00  0.00     0.125 A 
ATOM     16  C   LIG d   1       6.310   1.351  -3.388  0.00  0.00     0.022 A 
ATOM     17  C   LIG d   1       7.425   1.288  -4.210  0.00  0.00     0.135 A 
ATOM     18  O   LIG d   1       7.966   2.426  -4.705  0.00  0.00    -0.484 OA
ATOM     19  H   LIG d   1       8.995   3.293  -2.521  0.00  0.00     0.047 H 
ATOM     20  H   LIG d   1      10.725   3.264  -2.093  0.00  0.00     0.047 H 
ATOM     21  H   LIG d   1      10.004   1.255  -3.432  0.00  0.00     0.032 H 
ATOM     22  H   LIG d   1      11.280   2.207  -4.231  0.00  0.00     0.032 H 
ATOM     23  H   LIG d   1      10.721   3.715  -6.120  0.00  0.00     0.032 H 
ATOM     24  H   LIG d   1       9.040   3.858  -6.690  0.00  0.00     0.032 H 
ATOM     25  H   LIG d   1       8.381   4.957  -4.602  0.00  0.00     0.047 H 
ATOM     26  H   LIG d   1       9.783   5.818  -5.289  0.00  0.00     0.047 H 
ATOM     27  H   LIG d   1       8.966   1.388  -6.916  0.00  0.00     0.038 H 
ATOM     28  H   LIG d   1      10.589   1.208  -6.414  0.00  0.00     0.038 H 
ATOM     29  H   LIG d   1       7.831  -2.098  -4.248  0.00  0.00     0.063 H 
ATOM     30  H   LIG d   1       5.871  -1.956  -2.793  0.00  0.00     0.065 H 
ATOM     31  H   LIG d   1       5.875   2.308  -3.140  0.00  0.00     0.069 H 
ENDROOT
BRANCH   1  32
ATOM     32  C   LIG d   1      11.334   6.807  -3.906  0.00  0.00     0.012 C 
ATOM     33  H   LIG d   1      11.309   7.665  -3.234  0.00  0.00     0.032 H 
ATOM     34  H   LIG d   1      12.317   6.741  -4.373  0.00  0.00     0.032 H 
ATOM     35  H   LIG d   1      10.572   6.928  -4.677  0.00  0.00     0.032 H 
ENDBRANCH   1  32
BRANCH  15  36
ATOM     36  O   LIG d   1       4.664   0.250  -2.080  0.00  0.00    -0.483 OA
BRANCH  36  37
ATOM     37  C   LIG d   1       3.545   0.995  -2.566  0.00  0.00     0.165 C 
ATOM     38  H   LIG d   1       3.864   2.005  -2.822  0.00  0.00     0.080 H 
ATOM     39  H   LIG d   1       2.777   1.040  -1.794  0.00  0.00     0.080 H 
BRANCH  37  40
ATOM     40  C   LIG d   1       2.986   0.318  -3.791  0.00  0.00     0.251 C 
ATOM     41  O   LIG d   1       2.432  -0.756  -3.691  0.00  0.00    -0.272 OA
ATOM     42  N   LIG d   1       3.102   0.906  -4.998  0.00  0.00    -0.308 N 
ATOM     43  H   LIG d   1       3.546   1.766  -5.078  0.00  0.00     0.149 HD
BRANCH  42  44
ATOM     44  C   LIG d   1       2.560   0.249  -6.190  0.00  0.00     0.043 C 
ATOM     45  H   LIG d   1       1.480   0.391  -6.222  0.00  0.00     0.052 H 
ATOM     46  H   LIG d   1       2.784  -0.817  -6.149  0.00  0.00     0.052 H 
BRANCH  44  47
ATOM     47  C   LIG d   1       3.184   0.849  -7.423  0.00  0.00     0.007 A 
ATOM     48  S   LIG d   1       4.610   0.295  -8.343  0.00  0.00    -0.100 SA
ATOM     49  C   LIG d   1       4.605   1.562  -9.601  0.00  0.00    -0.024 A 
ATOM     50  C   LIG d   1       3.534   2.311  -9.241  0.00  0.00    -0.054 A 
ATOM     51  H   LIG d   1       5.280   1.698 -10.433  0.00  0.00     0.069 H 
ATOM     52  C   LIG d   1       2.806   1.945  -8.124  0.00  0.00    -0.050 A 
ATOM     53  H   LIG d   1       3.254   3.180  -9.817  0.00  0.00     0.062 H 
ATOM     54  H   LIG d   1       1.948   2.524  -7.815  0.00  0.00     0.063 H 
ENDBRANCH  44  47
ENDBRANCH  42  44
ENDBRANCH  37  40
ENDBRANCH  36  37
ENDBRANCH  15  36
TORSDOF 6
ENDMDL
MODEL 2
REMARK VINA RESULT:      -6.9      5.830      8.834
REMARK  6 active torsions:
REMARK  status: ('A' for Active; 'I' for Inactive)
REMARK    1  A    between atoms: C_1  and  C_2 
REMARK       I    between atoms: C_2  and  N_4 
REMARK    2  A    between atoms: C_16  and  O_20 
REMARK    3  A    between atoms: O_20  and  C_21 
REMARK    4  A    between atoms: C_21  and  C_22 
REMARK       I    between atoms: C_22  and  N_24 
REMARK    5  A    between atoms: N_24  and  C_25 
REMARK    6  A    between atoms: C_25  and  C_26 
ROOT
ATOM      1  C   LIG d   1       4.526  -1.005  -4.100  0.00  0.00     0.212 C 
ATOM      2  O   LIG d   1       5.534  -1.680  -4.131  0.00  0.00    -0.276 OA
ATOM      3  N   LIG d   1       3.852  -0.746  -5.238  0.00  0.00    -0.301 N 
ATOM      4  C   LIG d   1       4.384  -1.181  -6.538  0.00  0.00     0.018 C 
ATOM      5  C   LIG d   1       4.448   0.032  -7.472  0.00  0.00     0.003 C 
ATOM      6  C   LIG d   1       3.069   0.690  -7.545  0.00  0.00     0.120 C 
ATOM      7  C   LIG d   1       2.656   1.173  -6.153  0.00  0.00     0.003 C 
ATOM      8  C   LIG d   1       2.573  -0.025  -5.203  0.00  0.00     0.018 C 
ATOM      9  C   LIG d   1       3.131   1.889  -8.502  0.00  0.00     0.051 C 
ATOM     10  C   LIG d   1       3.520   1.352  -9.867  0.00  0.00     0.170 C 
ATOM     11  O   LIG d   1       4.297   1.943 -10.588  0.00  0.00    -0.292 OA
ATOM     12  C   LIG d   1       2.905   0.078 -10.271  0.00  0.00     0.059 A 
ATOM     13  C   LIG d   1       3.003  -0.375 -11.590  0.00  0.00    -0.044 A 
ATOM     14  C   LIG d   1       2.435  -1.565 -11.943  0.00  0.00    -0.019 A 
ATOM     15  C   LIG d   1       1.750  -2.324 -10.996  0.00  0.00     0.125 A 
ATOM     16  C   LIG d   1       1.644  -1.887  -9.684  0.00  0.00     0.022 A 
ATOM     17  C   LIG d   1       2.219  -0.683  -9.308  0.00  0.00     0.135 A 
ATOM     18  O   LIG d   1       2.113  -0.252  -8.029  0.00  0.00    -0.484 OA
ATOM     19  H   LIG d   1       3.728  -1.938  -6.966  0.00  0.00     0.047 H 
ATOM     20  H   LIG d   1       5.384  -1.593  -6.404  0.00  0.00     0.047 H 
ATOM     21  H   LIG d   1       4.749  -0.294  -8.468  0.00  0.00     0.032 H 
ATOM     22  H   LIG d   1       5.173   0.749  -7.088  0.00  0.00     0.032 H 
ATOM     23  H   LIG d   1       3.396   1.883  -5.781  0.00  0.00     0.032 H 
ATOM     24  H   LIG d   1       1.682   1.660  -6.211  0.00  0.00     0.032 H 
ATOM     25  H   LIG d   1       1.770  -0.689  -5.523  0.00  0.00     0.047 H 
ATOM     26  H   LIG d   1       2.378   0.325  -4.189  0.00  0.00     0.047 H 
ATOM     27  H   LIG d   1       2.237   2.336  -8.535  0.00  0.00     0.038 H 
ATOM     28  H   LIG d   1       3.881   2.601  -8.155  0.00  0.00     0.038 H 
ATOM     29  H   LIG d   1       3.529   0.213 -12.327  0.00  0.00     0.063 H 
ATOM     30  H   LIG d   1       2.514  -1.919 -12.960  0.00  0.00     0.065 H 
ATOM     31  H   LIG d   1       1.114  -2.483  -8.956  0.00  0.00     0.069 H 
ENDROOT
BRANCH   1  32
ATOM     32  C   LIG d   1       4.026  -0.458  -2.788  0.00  0.00     0.012 C 
ATOM     33  H   LIG d   1       3.636  -1.274  -2.179  0.00  0.00     0.032 H 
ATOM     34  H   LIG d   1       4.847   0.028  -2.260  0.00  0.00     0.032 H 
ATOM     35  H   LIG d   1       3.233   0.266  -2.974  0.00  0.00     0.032 H 
ENDBRANCH   1  32
BRANCH  15  36
ATOM     36  O   LIG d   1       1.187  -3.504 -11.359  0.00  0.00    -0.483 OA
BRANCH  36  37
ATOM     37  C   LIG d   1       1.525  -4.651 -10.577  0.00  0.00     0.165 C 
ATOM     38  H   LIG d   1       2.062  -4.335  -9.683  0.00  0.00     0.080 H 
ATOM     39  H   LIG d   1       2.156  -5.319 -11.163  0.00  0.00     0.080 H 
BRANCH  37  40
ATOM     40  C   LIG d   1       0.264  -5.375 -10.177  0.00  0.00     0.251 C 
ATOM     41  O   LIG d   1       0.313  -6.537  -9.838  0.00  0.00    -0.272 OA
ATOM     42  N   LIG d   1      -0.918  -4.728 -10.196  0.00  0.00    -0.308 N 
ATOM     43  H   LIG d   1      -0.958  -3.797 -10.468  0.00  0.00     0.149 HD
BRANCH  42  44
ATOM     44  C   LIG d   1      -2.144  -5.430  -9.809  0.00  0.00     0.043 C 
ATOM     45  H   LIG d   1      -2.195  -5.498  -8.722  0.00  0.00     0.052 H 
ATOM     46  H   LIG d   1      -2.138  -6.433 -10.235  0.00  0.00     0.052 H 
BRANCH  44  47
ATOM     47  C   LIG d   1      -3.341  -4.673 -10.323  0.00  0.00     0.007 A 
ATOM     48  S   LIG d   1      -3.653  -4.044 -11.964  0.00  0.00    -0.100 SA
ATOM     49  C   LIG d   1      -5.258  -3.323 -11.656  0.00  0.00    -0.024 A 
ATOM     50  C   LIG d   1      -5.445  -3.606 -10.344  0.00  0.00    -0.054 A 
ATOM     51  H   LIG d   1      -5.909  -2.798 -12.339  0.00  0.00     0.069 H 
ATOM     52  C   LIG d   1      -4.462  -4.297  -9.660  0.00  0.00    -0.050 A 
ATOM     53  H   LIG d   1      -6.348  -3.295  -9.840  0.00  0.00     0.062 H 
ATOM     54  H   LIG d   1      -4.586  -4.535  -8.614  0.00  0.00     0.063 H 
ENDBRANCH  44  47
ENDBRANCH  42  44
ENDBRANCH  37  40
ENDBRANCH  36  37
ENDBRANCH  15  36
TORSDOF 6
ENDMDL
MODEL 3
REMARK VINA RESULT:      -6.6      4.452      8.421
REMARK  6 active torsions:
REMARK  status: ('A' for Active; 'I' for Inactive)
REMARK    1  A    between atoms: C_1  and  C_2 
REMARK       I    between atoms: C_2  and  N_4 
REMARK    2  A    between atoms: C_16  and  O_20 
REMARK    3  A    between atoms: O_20  and  C_21 
REMARK    4  A    between atoms: C_21  and  C_22 
REMARK       I    between atoms: C_22  and  N_24 
REMARK    5  A    between atoms: N_24  and  C_25 
REMARK    6  A    between atoms: C_25  and  C_26 
ROOT
ATOM      1  C   LIG d   1       5.405  -7.202  -5.638  0.00  0.00     0.212 C 
ATOM      2  O   LIG d   1       4.443  -7.608  -5.020  0.00  0.00    -0.276 OA
ATOM      3  N   LIG d   1       5.323  -6.047  -6.329  0.00  0.00    -0.301 N 
ATOM      4  C   LIG d   1       4.047  -5.327  -6.433  0.00  0.00     0.018 C 
ATOM      5  C   LIG d   1       3.742  -5.079  -7.915  0.00  0.00     0.003 C 
ATOM      6  C   LIG d   1       4.926  -4.359  -8.562  0.00  0.00     0.120 C 
ATOM      7  C   LIG d   1       6.177  -5.235  -8.465  0.00  0.00     0.003 C 
ATOM      8  C   LIG d   1       6.508  -5.486  -6.992  0.00  0.00     0.018 C 
ATOM      9  C   LIG d   1       4.607  -4.090 -10.040  0.00  0.00     0.051 C 
ATOM     10  C   LIG d   1       3.378  -3.201 -10.077  0.00  0.00     0.170 C 
ATOM     11  O   LIG d   1       2.497  -3.363 -10.895  0.00  0.00    -0.292 OA
ATOM     12  C   LIG d   1       3.311  -2.130  -9.070  0.00  0.00     0.059 A 
ATOM     13  C   LIG d   1       2.354  -1.116  -9.169  0.00  0.00    -0.044 A 
ATOM     14  C   LIG d   1       2.301  -0.138  -8.218  0.00  0.00    -0.019 A 
ATOM     15  C   LIG d   1       3.202  -0.142  -7.156  0.00  0.00     0.125 A 
ATOM     16  C   LIG d   1       4.157  -1.141  -7.045  0.00  0.00     0.022 A 
ATOM     17  C   LIG d   1       4.222  -2.144  -7.999  0.00  0.00     0.135 A 
ATOM     18  O   LIG d   1       5.156  -3.118  -7.895  0.00  0.00    -0.484 OA
ATOM     19  H   LIG d   1       4.121  -4.374  -5.911  0.00  0.00     0.047 H 
ATOM     20  H   LIG d   1       3.251  -5.926  -5.992  0.00  0.00     0.047 H 
ATOM     21  H   LIG d   1       2.848  -4.462  -8.003  0.00  0.00     0.032 H 
ATOM     22  H   LIG d   1       3.578  -6.032  -8.416  0.00  0.00     0.032 H 
ATOM     23  H   LIG d   1       5.992  -6.187  -8.965  0.00  0.00     0.032 H 
ATOM     24  H   LIG d   1       7.014  -4.728  -8.945  0.00  0.00     0.032 H 
ATOM     25  H   LIG d   1       6.783  -4.546  -6.514  0.00  0.00     0.047 H 
ATOM     26  H   LIG d   1       7.336  -6.191  -6.918  0.00  0.00     0.047 H 
ATOM     27  H   LIG d   1       5.388  -3.639 -10.472  0.00  0.00     0.038 H 
ATOM     28  H   LIG d   1       4.401  -5.030 -10.551  0.00  0.00     0.038 H 
ATOM     29  H   LIG d   1       1.658  -1.108  -9.994  0.00  0.00     0.063 H 
ATOM     30  H   LIG d   1       1.559   0.644  -8.290  0.00  0.00     0.065 H 
ATOM     31  H   LIG d   1       4.850  -1.138  -6.216  0.00  0.00     0.069 H 
ENDROOT
BRANCH   1  32
ATOM     32  C   LIG d   1       6.691  -7.986  -5.631  0.00  0.00     0.012 C 
ATOM     33  H   LIG d   1       7.498  -7.358  -5.254  0.00  0.00     0.032 H 
ATOM     34  H   LIG d   1       6.581  -8.860  -4.989  0.00  0.00     0.032 H 
ATOM     35  H   LIG d   1       6.926  -8.308  -6.646  0.00  0.00     0.032 H 
ENDBRANCH   1  32
BRANCH  15  36
ATOM     36  O   LIG d   1       3.141   0.838  -6.218  0.00  0.00    -0.483 OA
BRANCH  36  37
ATOM     37  C   LIG d   1       2.448   0.532  -5.006  0.00  0.00     0.165 C 
ATOM     38  H   LIG d   1       1.702  -0.238  -5.199  0.00  0.00     0.080 H 
ATOM     39  H   LIG d   1       1.956   1.430  -4.632  0.00  0.00     0.080 H 
BRANCH  37  40
ATOM     40  C   LIG d   1       3.432   0.034  -3.978  0.00  0.00     0.251 C 
ATOM     41  O   LIG d   1       3.161  -0.931  -3.298  0.00  0.00    -0.272 OA
ATOM     42  N   LIG d   1       4.613   0.662  -3.817  0.00  0.00    -0.308 N 
ATOM     43  H   LIG d   1       4.830   1.435  -4.362  0.00  0.00     0.149 HD
BRANCH  42  44
ATOM     44  C   LIG d   1       5.570   0.179  -2.817  0.00  0.00     0.043 C 
ATOM     45  H   LIG d   1       5.041  -0.398  -2.059  0.00  0.00     0.052 H 
ATOM     46  H   LIG d   1       6.064   1.029  -2.348  0.00  0.00     0.052 H 
BRANCH  44  47
ATOM     47  C   LIG d   1       6.599  -0.694  -3.487  0.00  0.00     0.007 A 
ATOM     48  S   LIG d   1       7.802  -0.259  -4.733  0.00  0.00    -0.100 SA
ATOM     49  C   LIG d   1       8.566  -1.863  -4.915  0.00  0.00    -0.024 A 
ATOM     50  C   LIG d   1       7.864  -2.611  -4.028  0.00  0.00    -0.054 A 
ATOM     51  H   LIG d   1       9.376  -2.160  -5.563  0.00  0.00     0.069 H 
ATOM     52  C   LIG d   1       6.855  -2.011  -3.297  0.00  0.00    -0.050 A 
ATOM     53  H   LIG d   1       8.088  -3.658  -3.896  0.00  0.00     0.062 H 
ATOM     54  H   LIG d   1       6.281  -2.584  -2.584  0.00  0.00     0.063 H 
ENDBRANCH  44  47
ENDBRANCH  42  44
ENDBRANCH  37  40
ENDBRANCH  36  37
ENDBRANCH  15  36
TORSDOF 6
ENDMDL
MODEL 4
REMARK VINA RESULT:      -6.6      4.248      6.987
REMARK  6 active torsions:
REMARK  status: ('A' for Active; 'I' for Inactive)
REMARK    1  A    between atoms: C_1  and  C_2 
REMARK       I    between atoms: C_2  and  N_4 
REMARK    2  A    between atoms: C_16  and  O_20 
REMARK    3  A    between atoms: O_20  and  C_21 
REMARK    4  A    between atoms: C_21  and  C_22 
REMARK       I    between atoms: C_22  and  N_24 
REMARK    5  A    between atoms: N_24  and  C_25 
REMARK    6  A    between atoms: C_25  and  C_26 
ROOT
ATOM      1  C   LIG d   1       9.589   6.219 -12.300  0.00  0.00     0.212 C 
ATOM      2  O   LIG d   1       8.437   5.962 -12.583  0.00  0.00    -0.276 OA
ATOM      3  N   LIG d   1       9.981   6.223 -11.010  0.00  0.00    -0.301 N 
ATOM      4  C   LIG d   1       9.004   6.028  -9.930  0.00  0.00     0.018 C 
ATOM      5  C   LIG d   1       9.130   7.189  -8.938  0.00  0.00     0.003 C 
ATOM      6  C   LIG d   1      10.580   7.294  -8.463  0.00  0.00     0.120 C 
ATOM      7  C   LIG d   1      11.493   7.578  -9.657  0.00  0.00     0.003 C 
ATOM      8  C   LIG d   1      11.393   6.424 -10.658  0.00  0.00     0.018 C 
ATOM      9  C   LIG d   1      10.697   8.442  -7.449  0.00  0.00     0.051 C 
ATOM     10  C   LIG d   1       9.794   8.099  -6.279  0.00  0.00     0.170 C 
ATOM     11  O   LIG d   1       9.117   8.941  -5.727  0.00  0.00    -0.292 OA
ATOM     12  C   LIG d   1       9.783   6.692  -5.848  0.00  0.00     0.059 A 
ATOM     13  C   LIG d   1       9.182   6.320  -4.642  0.00  0.00    -0.044 A 
ATOM     14  C   LIG d   1       9.172   5.008  -4.265  0.00  0.00    -0.019 A 
ATOM     15  C   LIG d   1       9.766   4.041  -5.073  0.00  0.00     0.125 A 
ATOM     16  C   LIG d   1      10.367   4.396  -6.272  0.00  0.00     0.022 A 
ATOM     17  C   LIG d   1      10.382   5.722  -6.671  0.00  0.00     0.135 A 
ATOM     18  O   LIG d   1      10.971   6.071  -7.839  0.00  0.00    -0.484 OA
ATOM     19  H   LIG d   1       9.207   5.087  -9.420  0.00  0.00     0.047 H 
ATOM     20  H   LIG d   1       7.997   6.011 -10.346  0.00  0.00     0.047 H 
ATOM     21  H   LIG d   1       8.479   7.006  -8.082  0.00  0.00     0.032 H 
ATOM     22  H   LIG d   1       8.839   8.118  -9.426  0.00  0.00     0.032 H 
ATOM     23  H   LIG d   1      11.183   8.506 -10.138  0.00  0.00     0.032 H 
ATOM     24  H   LIG d   1      12.523   7.673  -9.313  0.00  0.00     0.032 H 
ATOM     25  H   LIG d   1      11.790   5.514 -10.208  0.00  0.00     0.047 H 
ATOM     26  H   LIG d   1      11.963   6.667 -11.556  0.00  0.00     0.047 H 
ATOM     27  H   LIG d   1      11.649   8.528  -7.153  0.00  0.00     0.038 H 
ATOM     28  H   LIG d   1      10.373   9.376  -7.908  0.00  0.00     0.038 H 
ATOM     29  H   LIG d   1       8.725   7.068  -4.012  0.00  0.00     0.063 H 
ATOM     30  H   LIG d   1       8.704   4.718  -3.336  0.00  0.00     0.065 H 
ATOM     31  H   LIG d   1      10.823   3.639  -6.893  0.00  0.00     0.069 H 
ENDROOT
BRANCH   1  32
ATOM     32  C   LIG d   1      10.581   6.530 -13.390  0.00  0.00     0.012 C 
ATOM     33  H   LIG d   1      10.063   6.585 -14.348  0.00  0.00     0.032 H 
ATOM     34  H   LIG d   1      11.061   7.486 -13.183  0.00  0.00     0.032 H 
ATOM     35  H   LIG d   1      11.336   5.745 -13.430  0.00  0.00     0.032 H 
ENDBRANCH   1  32
BRANCH  15  36
ATOM     36  O   LIG d   1       9.753   2.740  -4.686  0.00  0.00    -0.483 OA
BRANCH  36  37
ATOM     37  C   LIG d   1       8.697   2.335  -3.813  0.00  0.00     0.165 C 
ATOM     38  H   LIG d   1       8.044   3.184  -3.614  0.00  0.00     0.080 H 
ATOM     39  H   LIG d   1       9.119   1.972  -2.876  0.00  0.00     0.080 H 
BRANCH  37  40
ATOM     40  C   LIG d   1       7.902   1.232  -4.465  0.00  0.00     0.251 C 
ATOM     41  O   LIG d   1       7.439   1.393  -5.574  0.00  0.00    -0.272 OA
ATOM     42  N   LIG d   1       7.709   0.067  -3.817  0.00  0.00    -0.308 N 
ATOM     43  H   LIG d   1       8.080  -0.062  -2.929  0.00  0.00     0.149 HD
BRANCH  42  44
ATOM     44  C   LIG d   1       6.936  -1.005  -4.450  0.00  0.00     0.043 C 
ATOM     45  H   LIG d   1       7.451  -1.955  -4.308  0.00  0.00     0.052 H 
ATOM     46  H   LIG d   1       6.839  -0.801  -5.516  0.00  0.00     0.052 H 
BRANCH  44  47
ATOM     47  C   LIG d   1       5.567  -1.075  -3.824  0.00  0.00     0.007 A 
ATOM     48  S   LIG d   1       4.022  -0.412  -4.423  0.00  0.00    -0.100 SA
ATOM     49  C   LIG d   1       2.976  -0.964  -3.086  0.00  0.00    -0.024 A 
ATOM     50  C   LIG d   1       3.860  -1.607  -2.285  0.00  0.00    -0.054 A 
ATOM     51  H   LIG d   1       1.914  -0.822  -2.950  0.00  0.00     0.069 H 
ATOM     52  C   LIG d   1       5.189  -1.664  -2.664  0.00  0.00    -0.050 A 
ATOM     53  H   LIG d   1       3.532  -2.068  -1.365  0.00  0.00     0.062 H 
ATOM     54  H   LIG d   1       5.914  -2.170  -2.044  0.00  0.00     0.063 H 
ENDBRANCH  44  47
ENDBRANCH  42  44
ENDBRANCH  37  40
ENDBRANCH  36  37
ENDBRANCH  15  36
TORSDOF 6
ENDMDL
MODEL 5
REMARK VINA RESULT:      -6.6      3.471      5.689
REMARK  6 active torsions:
REMARK  status: ('A' for Active; 'I' for Inactive)
REMARK    1  A    between atoms: C_1  and  C_2 
REMARK       I    between atoms: C_2  and  N_4 
REMARK    2  A    between atoms: C_16  and  O_20 
REMARK    3  A    between atoms: O_20  and  C_21 
REMARK    4  A    between atoms: C_21  and  C_22 
REMARK       I    between atoms: C_22  and  N_24 
REMARK    5  A    between atoms: N_24  and  C_25 
REMARK    6  A    between atoms: C_25  and  C_26 
ROOT
ATOM      1  C   LIG d   1      10.404  -0.398  -5.309  0.00  0.00     0.212 C 
ATOM      2  O   LIG d   1      10.728   0.771  -5.350  0.00  0.00    -0.276 OA
ATOM      3  N   LIG d   1       9.102  -0.734  -5.218  0.00  0.00    -0.301 N 
ATOM      4  C   LIG d   1       8.072   0.302  -5.058  0.00  0.00     0.018 C 
ATOM      5  C   LIG d   1       7.220  -0.037  -3.829  0.00  0.00     0.003 C 
ATOM      6  C   LIG d   1       6.669  -1.456  -3.972  0.00  0.00     0.120 C 
ATOM      7  C   LIG d   1       7.827  -2.454  -4.048  0.00  0.00     0.003 C 
ATOM      8  C   LIG d   1       8.686  -2.141  -5.276  0.00  0.00     0.018 C 
ATOM      9  C   LIG d   1       5.796  -1.784  -2.752  0.00  0.00     0.051 C 
ATOM     10  C   LIG d   1       4.654  -0.785  -2.738  0.00  0.00     0.170 C 
ATOM     11  O   LIG d   1       4.252  -0.288  -1.707  0.00  0.00    -0.292 OA
ATOM     12  C   LIG d   1       4.058  -0.450  -4.041  0.00  0.00     0.059 A 
ATOM     13  C   LIG d   1       2.857   0.262  -4.115  0.00  0.00    -0.044 A 
ATOM     14  C   LIG d   1       2.326   0.572  -5.334  0.00  0.00    -0.019 A 
ATOM     15  C   LIG d   1       2.971   0.174  -6.503  0.00  0.00     0.125 A 
ATOM     16  C   LIG d   1       4.163  -0.534  -6.445  0.00  0.00     0.022 A 
ATOM     17  C   LIG d   1       4.718  -0.854  -5.216  0.00  0.00     0.135 A 
ATOM     18  O   LIG d   1       5.878  -1.548  -5.157  0.00  0.00    -0.484 OA
ATOM     19  H   LIG d   1       7.440   0.329  -5.945  0.00  0.00     0.047 H 
ATOM     20  H   LIG d   1       8.547   1.272  -4.916  0.00  0.00     0.047 H 
ATOM     21  H   LIG d   1       6.393   0.669  -3.755  0.00  0.00     0.032 H 
ATOM     22  H   LIG d   1       7.835   0.026  -2.932  0.00  0.00     0.032 H 
ATOM     23  H   LIG d   1       8.436  -2.372  -3.147  0.00  0.00     0.032 H 
ATOM     24  H   LIG d   1       7.431  -3.466  -4.129  0.00  0.00     0.032 H 
ATOM     25  H   LIG d   1       8.104  -2.313  -6.182  0.00  0.00     0.047 H 
ATOM     26  H   LIG d   1       9.567  -2.783  -5.279  0.00  0.00     0.047 H 
ATOM     27  H   LIG d   1       5.451  -2.720  -2.830  0.00  0.00     0.038 H 
ATOM     28  H   LIG d   1       6.384  -1.688  -1.839  0.00  0.00     0.038 H 
ATOM     29  H   LIG d   1       2.353   0.568  -3.211  0.00  0.00     0.063 H 
ATOM     30  H   LIG d   1       1.401   1.126  -5.394  0.00  0.00     0.065 H 
ATOM     31  H   LIG d   1       4.658  -0.837  -7.356  0.00  0.00     0.069 H 
ENDROOT
BRANCH   1  32
ATOM     32  C   LIG d   1      11.458  -1.474  -5.361  0.00  0.00     0.012 C 
ATOM     33  H   LIG d   1      12.329  -1.157  -4.787  0.00  0.00     0.032 H 
ATOM     34  H   LIG d   1      11.059  -2.395  -4.936  0.00  0.00     0.032 H 
ATOM     35  H   LIG d   1      11.749  -1.648  -6.397  0.00  0.00     0.032 H 
ENDBRANCH   1  32
BRANCH  15  36
ATOM     36  O   LIG d   1       2.432   0.485  -7.709  0.00  0.00    -0.483 OA
BRANCH  36  37
ATOM     37  C   LIG d   1       2.986   1.610  -8.395  0.00  0.00     0.165 C 
ATOM     38  H   LIG d   1       3.864   1.967  -7.857  0.00  0.00     0.080 H 
ATOM     39  H   LIG d   1       2.243   2.406  -8.447  0.00  0.00     0.080 H 
BRANCH  37  40
ATOM     40  C   LIG d   1       3.381   1.202  -9.791  0.00  0.00     0.251 C 
ATOM     41  O   LIG d   1       3.751   2.039 -10.586  0.00  0.00    -0.272 OA
ATOM     42  N   LIG d   1       3.326  -0.095 -10.154  0.00  0.00    -0.308 N 
ATOM     43  H   LIG d   1       3.030  -0.765  -9.518  0.00  0.00     0.149 HD
BRANCH  42  44
ATOM     44  C   LIG d   1       3.710  -0.493 -11.511  0.00  0.00     0.043 C 
ATOM     45  H   LIG d   1       4.546  -1.191 -11.461  0.00  0.00     0.052 H 
ATOM     46  H   LIG d   1       4.008   0.389 -12.077  0.00  0.00     0.052 H 
BRANCH  44  47
ATOM     47  C   LIG d   1       2.540  -1.156 -12.191  0.00  0.00     0.007 A 
ATOM     48  S   LIG d   1       2.492  -2.030 -13.747  0.00  0.00    -0.100 SA
ATOM     49  C   LIG d   1       0.759  -2.460 -13.739  0.00  0.00    -0.024 A 
ATOM     50  C   LIG d   1       0.340  -1.918 -12.570  0.00  0.00    -0.054 A 
ATOM     51  H   LIG d   1       0.192  -3.010 -14.476  0.00  0.00     0.069 H 
ATOM     52  C   LIG d   1       1.253  -1.249 -11.776  0.00  0.00    -0.050 A 
ATOM     53  H   LIG d   1      -0.692  -2.006 -12.264  0.00  0.00     0.062 H 
ATOM     54  H   LIG d   1       0.945  -0.807 -10.840  0.00  0.00     0.063 H 
ENDBRANCH  44  47
ENDBRANCH  42  44
ENDBRANCH  37  40
ENDBRANCH  36  37
ENDBRANCH  15  36
TORSDOF 6
ENDMDL
MODEL 6
REMARK VINA RESULT:      -6.5      3.064      5.866
REMARK  6 active torsions:
REMARK  status: ('A' for Active; 'I' for Inactive)
REMARK    1  A    between atoms: C_1  and  C_2 
REMARK       I    between atoms: C_2  and  N_4 
REMARK    2  A    between atoms: C_16  and  O_20 
REMARK    3  A    between atoms: O_20  and  C_21 
REMARK    4  A    between atoms: C_21  and  C_22 
REMARK       I    between atoms: C_22  and  N_24 
REMARK    5  A    between atoms: N_24  and  C_25 
REMARK    6  A    between atoms: C_25  and  C_26 
ROOT
ATOM      1  C   LIG d   1      12.025   6.562  -0.051  0.00  0.00     0.212 C 
ATOM      2  O   LIG d   1      13.178   6.187  -0.032  0.00  0.00    -0.276 OA
ATOM      3  N   LIG d   1      11.294   6.439  -1.178  0.00  0.00    -0.301 N 
ATOM      4  C   LIG d   1      11.912   5.956  -2.421  0.00  0.00     0.018 C 
ATOM      5  C   LIG d   1      11.633   6.971  -3.535  0.00  0.00     0.003 C 
ATOM      6  C   LIG d   1      10.126   7.212  -3.633  0.00  0.00     0.120 C 
ATOM      7  C   LIG d   1       9.609   7.789  -2.313  0.00  0.00     0.003 C 
ATOM      8  C   LIG d   1       9.867   6.786  -1.186  0.00  0.00     0.018 C 
ATOM      9  C   LIG d   1       9.848   8.211  -4.767  0.00  0.00     0.051 C 
ATOM     10  C   LIG d   1      10.355   7.581  -6.051  0.00  0.00     0.170 C 
ATOM     11  O   LIG d   1      10.934   8.232  -6.896  0.00  0.00    -0.292 OA
ATOM     12  C   LIG d   1      10.109   6.140  -6.219  0.00  0.00     0.059 A 
ATOM     13  C   LIG d   1      10.315   5.520  -7.454  0.00  0.00    -0.044 A 
ATOM     14  C   LIG d   1      10.091   4.180  -7.587  0.00  0.00    -0.019 A 
ATOM     15  C   LIG d   1       9.650   3.431  -6.498  0.00  0.00     0.125 A 
ATOM     16  C   LIG d   1       9.440   4.033  -5.266  0.00  0.00     0.022 A 
ATOM     17  C   LIG d   1       9.667   5.392  -5.113  0.00  0.00     0.135 A 
ATOM     18  O   LIG d   1       9.460   5.982  -3.913  0.00  0.00    -0.484 OA
ATOM     19  H   LIG d   1      11.485   4.991  -2.690  0.00  0.00     0.047 H 
ATOM     20  H   LIG d   1      12.988   5.856  -2.280  0.00  0.00     0.047 H 
ATOM     21  H   LIG d   1      12.002   6.579  -4.483  0.00  0.00     0.032 H 
ATOM     22  H   LIG d   1      12.137   7.909  -3.307  0.00  0.00     0.032 H 
ATOM     23  H   LIG d   1      10.130   8.723  -2.097  0.00  0.00     0.032 H 
ATOM     24  H   LIG d   1       8.539   7.980  -2.394  0.00  0.00     0.032 H 
ATOM     25  H   LIG d   1       9.274   5.887  -1.354  0.00  0.00     0.047 H 
ATOM     26  H   LIG d   1       9.594   7.232  -0.230  0.00  0.00     0.047 H 
ATOM     27  H   LIG d   1       8.865   8.388  -4.820  0.00  0.00     0.038 H 
ATOM     28  H   LIG d   1      10.377   9.144  -4.577  0.00  0.00     0.038 H 
ATOM     29  H   LIG d   1      10.652   6.099  -8.301  0.00  0.00     0.063 H 
ATOM     30  H   LIG d   1      10.254   3.698  -8.539  0.00  0.00     0.065 H 
ATOM     31  H   LIG d   1       9.101   3.444  -4.427  0.00  0.00     0.069 H 
ENDROOT
BRANCH   1  32
ATOM     32  C   LIG d   1      11.407   7.162   1.185  0.00  0.00     0.012 C 
ATOM     33  H   LIG d   1      11.896   6.755   2.070  0.00  0.00     0.032 H 
ATOM     34  H   LIG d   1      11.534   8.244   1.166  0.00  0.00     0.032 H 
ATOM     35  H   LIG d   1      10.345   6.920   1.214  0.00  0.00     0.032 H 
ENDBRANCH   1  32
BRANCH  15  36
ATOM     36  O   LIG d   1       9.428   2.100  -6.642  0.00  0.00    -0.483 OA
BRANCH  36  37
ATOM     37  C   LIG d   1       8.076   1.652  -6.524  0.00  0.00     0.165 C 
ATOM     38  H   LIG d   1       7.776   1.154  -7.446  0.00  0.00     0.080 H 
ATOM     39  H   LIG d   1       7.424   2.506  -6.343  0.00  0.00     0.080 H 
BRANCH  37  40
ATOM     40  C   LIG d   1       7.967   0.685  -5.372  0.00  0.00     0.251 C 
ATOM     41  O   LIG d   1       8.816  -0.165  -5.212  0.00  0.00    -0.272 OA
ATOM     42  N   LIG d   1       6.927   0.767  -4.520  0.00  0.00    -0.308 N 
ATOM     43  H   LIG d   1       6.247   1.448  -4.648  0.00  0.00     0.149 HD
BRANCH  42  44
ATOM     44  C   LIG d   1       6.820  -0.172  -3.400  0.00  0.00     0.043 C 
ATOM     45  H   LIG d   1       7.192   0.303  -2.492  0.00  0.00     0.052 H 
ATOM     46  H   LIG d   1       7.413  -1.060  -3.614  0.00  0.00     0.052 H 
BRANCH  44  47
ATOM     47  C   LIG d   1       5.377  -0.564  -3.209  0.00  0.00     0.007 A 
ATOM     48  S   LIG d   1       3.908   0.199  -3.876  0.00  0.00    -0.100 SA
ATOM     49  C   LIG d   1       2.703  -0.902  -3.152  0.00  0.00    -0.024 A 
ATOM     50  C   LIG d   1       3.489  -1.764  -2.462  0.00  0.00    -0.054 A 
ATOM     51  H   LIG d   1       1.627  -0.885  -3.241  0.00  0.00     0.069 H 
ATOM     52  C   LIG d   1       4.860  -1.590  -2.491  0.00  0.00    -0.050 A 
ATOM     53  H   LIG d   1       3.051  -2.573  -1.898  0.00  0.00     0.062 H 
ATOM     54  H   LIG d   1       5.509  -2.262  -1.950  0.00  0.00     0.063 H 
ENDBRANCH  44  47
ENDBRANCH  42  44
ENDBRANCH  37  40
ENDBRANCH  36  37
ENDBRANCH  15  36
TORSDOF 6
ENDMDL
MODEL 7
REMARK VINA RESULT:      -6.5      3.227      4.838
REMARK  6 active torsions:
REMARK  status: ('A' for Active; 'I' for Inactive)
REMARK    1  A    between atoms: C_1  and  C_2 
REMARK       I    between atoms: C_2  and  N_4 
REMARK    2  A    between atoms: C_16  and  O_20 
REMARK    3  A    between atoms: O_20  and  C_21 
REMARK    4  A    between atoms: C_21  and  C_22 
REMARK       I    between atoms: C_22  and  N_24 
REMARK    5  A    between atoms: N_24  and  C_25 
REMARK    6  A    between atoms: C_25  and  C_26 
ROOT
ATOM      1  C   LIG d   1       9.521   0.647  -8.934  0.00  0.00     0.212 C 
ATOM      2  O   LIG d   1       8.737   0.920  -9.819  0.00  0.00    -0.276 OA
ATOM      3  N   LIG d   1       9.067   0.223  -7.738  0.00  0.00    -0.301 N 
ATOM      4  C   LIG d   1       7.625   0.191  -7.454  0.00  0.00     0.018 C 
ATOM      5  C   LIG d   1       7.362   0.972  -6.162  0.00  0.00     0.003 C 
ATOM      6  C   LIG d   1       8.236   0.407  -5.042  0.00  0.00     0.120 C 
ATOM      7  C   LIG d   1       9.713   0.568  -5.411  0.00  0.00     0.003 C 
ATOM      8  C   LIG d   1      10.003  -0.215  -6.694  0.00  0.00     0.018 C 
ATOM      9  C   LIG d   1       7.951   1.175  -3.743  0.00  0.00     0.051 C 
ATOM     10  C   LIG d   1       6.485   0.963  -3.411  0.00  0.00     0.170 C 
ATOM     11  O   LIG d   1       5.792   1.861  -2.980  0.00  0.00    -0.292 OA
ATOM     12  C   LIG d   1       5.949  -0.388  -3.638  0.00  0.00     0.059 A 
ATOM     13  C   LIG d   1       4.694  -0.750  -3.141  0.00  0.00    -0.044 A 
ATOM     14  C   LIG d   1       4.209  -2.005  -3.372  0.00  0.00    -0.019 A 
ATOM     15  C   LIG d   1       4.964  -2.929  -4.091  0.00  0.00     0.125 A 
ATOM     16  C   LIG d   1       6.213  -2.584  -4.589  0.00  0.00     0.022 A 
ATOM     17  C   LIG d   1       6.718  -1.312  -4.367  0.00  0.00     0.135 A 
ATOM     18  O   LIG d   1       7.937  -0.975  -4.849  0.00  0.00    -0.484 OA
ATOM     19  H   LIG d   1       7.300  -0.842  -7.330  0.00  0.00     0.047 H 
ATOM     20  H   LIG d   1       7.080   0.652  -8.277  0.00  0.00     0.047 H 
ATOM     21  H   LIG d   1       6.311   0.875  -5.888  0.00  0.00     0.032 H 
ATOM     22  H   LIG d   1       7.602   2.023  -6.317  0.00  0.00     0.032 H 
ATOM     23  H   LIG d   1       9.934   1.623  -5.570  0.00  0.00     0.032 H 
ATOM     24  H   LIG d   1      10.334   0.183  -4.601  0.00  0.00     0.032 H 
ATOM     25  H   LIG d   1       9.871  -1.282  -6.509  0.00  0.00     0.047 H 
ATOM     26  H   LIG d   1      11.026  -0.023  -7.016  0.00  0.00     0.047 H 
ATOM     27  H   LIG d   1       8.537   0.824  -3.013  0.00  0.00     0.038 H 
ATOM     28  H   LIG d   1       8.149   2.237  -3.889  0.00  0.00     0.038 H 
ATOM     29  H   LIG d   1       4.108  -0.038  -2.579  0.00  0.00     0.063 H 
ATOM     30  H   LIG d   1       3.237  -2.285  -2.994  0.00  0.00     0.065 H 
ATOM     31  H   LIG d   1       6.790  -3.305  -5.148  0.00  0.00     0.069 H 
ENDROOT
BRANCH   1  32
ATOM     32  C   LIG d   1      11.003   0.779  -9.173  0.00  0.00     0.012 C 
ATOM     33  H   LIG d   1      11.243   1.819  -9.397  0.00  0.00     0.032 H 
ATOM     34  H   LIG d   1      11.545   0.465  -8.281  0.00  0.00     0.032 H 
ATOM     35  H   LIG d   1      11.293   0.151 -10.015  0.00  0.00     0.032 H 
ENDBRANCH   1  32
BRANCH  15  36
ATOM     36  O   LIG d   1       4.474  -4.175  -4.311  0.00  0.00    -0.483 OA
BRANCH  36  37
ATOM     37  C   LIG d   1       5.023  -4.902  -5.412  0.00  0.00     0.165 C 
ATOM     38  H   LIG d   1       5.112  -5.954  -5.143  0.00  0.00     0.080 H 
ATOM     39  H   LIG d   1       6.007  -4.503  -5.656  0.00  0.00     0.080 H 
BRANCH  37  40
ATOM     40  C   LIG d   1       4.114  -4.764  -6.607  0.00  0.00     0.251 C 
ATOM     41  O   LIG d   1       3.126  -5.459  -6.701  0.00  0.00    -0.272 OA
ATOM     42  N   LIG d   1       4.400  -3.866  -7.570  0.00  0.00    -0.308 N 
ATOM     43  H   LIG d   1       5.192  -3.309  -7.495  0.00  0.00     0.149 HD
BRANCH  42  44
ATOM     44  C   LIG d   1       3.518  -3.732  -8.733  0.00  0.00     0.043 C 
ATOM     45  H   LIG d   1       2.646  -4.372  -8.601  0.00  0.00     0.052 H 
ATOM     46  H   LIG d   1       4.056  -4.031  -9.632  0.00  0.00     0.052 H 
BRANCH  44  47
ATOM     47  C   LIG d   1       3.076  -2.298  -8.865  0.00  0.00     0.007 A 
ATOM     48  S   LIG d   1       3.636  -0.861  -7.965  0.00  0.00    -0.100 SA
ATOM     49  C   LIG d   1       2.603   0.355  -8.765  0.00  0.00    -0.024 A 
ATOM     50  C   LIG d   1       1.911  -0.402  -9.650  0.00  0.00    -0.054 A 
ATOM     51  H   LIG d   1       2.544   1.419  -8.588  0.00  0.00     0.069 H 
ATOM     52  C   LIG d   1       2.153  -1.763  -9.701  0.00  0.00    -0.050 A 
ATOM     53  H   LIG d   1       1.181   0.049 -10.305  0.00  0.00     0.062 H 
ATOM     54  H   LIG d   1       1.616  -2.389 -10.397  0.00  0.00     0.063 H 
ENDBRANCH  44  47
ENDBRANCH  42  44
ENDBRANCH  37  40
ENDBRANCH  36  37
ENDBRANCH  15  36
TORSDOF 6
ENDMDL
MODEL 8
REMARK VINA RESULT:      -6.4      4.934      9.648
REMARK  6 active torsions:
REMARK  status: ('A' for Active; 'I' for Inactive)
REMARK    1  A    between atoms: C_1  and  C_2 
REMARK       I    between atoms: C_2  and  N_4 
REMARK    2  A    between atoms: C_16  and  O_20 
REMARK    3  A    between atoms: O_20  and  C_21 
REMARK    4  A    between atoms: C_21  and  C_22 
REMARK       I    between atoms: C_22  and  N_24 
REMARK    5  A    between atoms: N_24  and  C_25 
REMARK    6  A    between atoms: C_25  and  C_26 
ROOT
ATOM      1  C   LIG d   1       0.185  -5.479 -10.589  0.00  0.00     0.212 C 
ATOM      2  O   LIG d   1      -0.956  -5.131 -10.807  0.00  0.00    -0.276 OA
ATOM      3  N   LIG d   1       1.136  -4.555 -10.341  0.00  0.00    -0.301 N 
ATOM      4  C   LIG d   1       0.829  -3.121 -10.439  0.00  0.00     0.018 C 
ATOM      5  C   LIG d   1       1.843  -2.466 -11.383  0.00  0.00     0.003 C 
ATOM      6  C   LIG d   1       3.260  -2.774 -10.897  0.00  0.00     0.120 C 
ATOM      7  C   LIG d   1       3.492  -4.287 -10.915  0.00  0.00     0.003 C 
ATOM      8  C   LIG d   1       2.497  -4.963  -9.968  0.00  0.00     0.018 C 
ATOM      9  C   LIG d   1       4.272  -2.095 -11.831  0.00  0.00     0.051 C 
ATOM     10  C   LIG d   1       4.015  -0.601 -11.758  0.00  0.00     0.170 C 
ATOM     11  O   LIG d   1       4.061   0.104 -12.744  0.00  0.00    -0.292 OA
ATOM     12  C   LIG d   1       3.708  -0.052 -10.428  0.00  0.00     0.059 A 
ATOM     13  C   LIG d   1       3.696   1.329 -10.211  0.00  0.00    -0.044 A 
ATOM     14  C   LIG d   1       3.397   1.819  -8.973  0.00  0.00    -0.019 A 
ATOM     15  C   LIG d   1       3.114   0.949  -7.923  0.00  0.00     0.125 A 
ATOM     16  C   LIG d   1       3.123  -0.424  -8.123  0.00  0.00     0.022 A 
ATOM     17  C   LIG d   1       3.419  -0.938  -9.375  0.00  0.00     0.135 A 
ATOM     18  O   LIG d   1       3.432  -2.277  -9.571  0.00  0.00    -0.484 OA
ATOM     19  H   LIG d   1       0.899  -2.665  -9.452  0.00  0.00     0.047 H 
ATOM     20  H   LIG d   1      -0.178  -2.989 -10.835  0.00  0.00     0.047 H 
ATOM     21  H   LIG d   1       1.687  -1.386 -11.389  0.00  0.00     0.032 H 
ATOM     22  H   LIG d   1       1.709  -2.859 -12.390  0.00  0.00     0.032 H 
ATOM     23  H   LIG d   1       3.346  -4.665 -11.927  0.00  0.00     0.032 H 
ATOM     24  H   LIG d   1       4.509  -4.503 -10.588  0.00  0.00     0.032 H 
ATOM     25  H   LIG d   1       2.702  -4.657  -8.942  0.00  0.00     0.047 H 
ATOM     26  H   LIG d   1       2.590  -6.046 -10.053  0.00  0.00     0.047 H 
ATOM     27  H   LIG d   1       5.201  -2.313 -11.530  0.00  0.00     0.038 H 
ATOM     28  H   LIG d   1       4.129  -2.447 -12.853  0.00  0.00     0.038 H 
ATOM     29  H   LIG d   1       3.920   2.006 -11.022  0.00  0.00     0.063 H 
ATOM     30  H   LIG d   1       3.383   2.886  -8.805  0.00  0.00     0.065 H 
ATOM     31  H   LIG d   1       2.899  -1.091  -7.304  0.00  0.00     0.069 H 
ENDROOT
BRANCH   1  32
ATOM     32  C   LIG d   1       0.541  -6.943 -10.594  0.00  0.00     0.012 C 
ATOM     33  H   LIG d   1       0.493  -7.325 -11.614  0.00  0.00     0.032 H 
ATOM     34  H   LIG d   1       1.550  -7.074 -10.205  0.00  0.00     0.032 H 
ATOM     35  H   LIG d   1      -0.164  -7.490  -9.968  0.00  0.00     0.032 H 
ENDBRANCH   1  32
BRANCH  15  36
ATOM     36  O   LIG d   1       2.821   1.448  -6.695  0.00  0.00    -0.483 OA
BRANCH  36  37
ATOM     37  C   LIG d   1       2.040   0.622  -5.829  0.00  0.00     0.165 C 
ATOM     38  H   LIG d   1       1.756  -0.289  -6.355  0.00  0.00     0.080 H 
ATOM     39  H   LIG d   1       1.143   1.161  -5.524  0.00  0.00     0.080 H 
BRANCH  37  40
ATOM     40  C   LIG d   1       2.851   0.266  -4.609  0.00  0.00     0.251 C 
ATOM     41  O   LIG d   1       3.445   1.132  -4.002  0.00  0.00    -0.272 OA
ATOM     42  N   LIG d   1       2.915  -1.014  -4.192  0.00  0.00    -0.308 N 
ATOM     43  H   LIG d   1       2.439  -1.706  -4.678  0.00  0.00     0.149 HD
BRANCH  42  44
ATOM     44  C   LIG d   1       3.703  -1.360  -3.007  0.00  0.00     0.043 C 
ATOM     45  H   LIG d   1       3.155  -2.087  -2.407  0.00  0.00     0.052 H 
ATOM     46  H   LIG d   1       3.883  -0.463  -2.416  0.00  0.00     0.052 H 
BRANCH  44  47
ATOM     47  C   LIG d   1       5.020  -1.953  -3.435  0.00  0.00     0.007 A 
ATOM     48  S   LIG d   1       5.332  -3.304  -4.559  0.00  0.00    -0.100 SA
ATOM     49  C   LIG d   1       7.115  -3.300  -4.469  0.00  0.00    -0.024 A 
ATOM     50  C   LIG d   1       7.350  -2.286  -3.601  0.00  0.00    -0.054 A 
ATOM     51  H   LIG d   1       7.823  -3.941  -4.973  0.00  0.00     0.069 H 
ATOM     52  C   LIG d   1       6.276  -1.595  -3.072  0.00  0.00    -0.050 A 
ATOM     53  H   LIG d   1       8.361  -2.021  -3.328  0.00  0.00     0.062 H 
ATOM     54  H   LIG d   1       6.435  -0.782  -2.379  0.00  0.00     0.063 H 
ENDBRANCH  44  47
ENDBRANCH  42  44
ENDBRANCH  37  40
ENDBRANCH  36  37
ENDBRANCH  15  36
TORSDOF 6
ENDMDL
MODEL 9
REMARK VINA RESULT:      -6.4      3.337      6.659
REMARK  6 active torsions:
REMARK  status: ('A' for Active; 'I' for Inactive)
REMARK    1  A    between atoms: C_1  and  C_2 
REMARK       I    between atoms: C_2  and  N_4 
REMARK    2  A    between atoms: C_16  and  O_20 
REMARK    3  A    between atoms: O_20  and  C_21 
REMARK    4  A    between atoms: C_21  and  C_22 
REMARK       I    between atoms: C_22  and  N_24 
REMARK    5  A    between atoms: N_24  and  C_25 
REMARK    6  A    between atoms: C_25  and  C_26 
ROOT
ATOM      1  C   LIG d   1      12.605   8.823   0.727  0.00  0.00     0.212 C 
ATOM      2  O   LIG d   1      13.781   8.535   0.646  0.00  0.00    -0.276 OA
ATOM      3  N   LIG d   1      11.765   8.516  -0.282  0.00  0.00    -0.301 N 
ATOM      4  C   LIG d   1      12.277   7.934  -1.531  0.00  0.00     0.018 C 
ATOM      5  C   LIG d   1      11.790   8.787  -2.707  0.00  0.00     0.003 C 
ATOM      6  C   LIG d   1      10.266   8.909  -2.647  0.00  0.00     0.120 C 
ATOM      7  C   LIG d   1       9.856   9.601  -1.345  0.00  0.00     0.003 C 
ATOM      8  C   LIG d   1      10.322   8.759  -0.154  0.00  0.00     0.018 C 
ATOM      9  C   LIG d   1       9.779   9.743  -3.841  0.00  0.00     0.051 C 
ATOM     10  C   LIG d   1      10.189   9.003  -5.100  0.00  0.00     0.170 C 
ATOM     11  O   LIG d   1      10.612   9.588  -6.076  0.00  0.00    -0.292 OA
ATOM     12  C   LIG d   1      10.047   7.539  -5.078  0.00  0.00     0.059 A 
ATOM     13  C   LIG d   1      10.163   6.792  -6.254  0.00  0.00    -0.044 A 
ATOM     14  C   LIG d   1      10.039   5.433  -6.210  0.00  0.00    -0.019 A 
ATOM     15  C   LIG d   1       9.788   4.790  -5.000  0.00  0.00     0.125 A 
ATOM     16  C   LIG d   1       9.669   5.518  -3.825  0.00  0.00     0.022 A 
ATOM     17  C   LIG d   1       9.797   6.897  -3.851  0.00  0.00     0.135 A 
ATOM     18  O   LIG d   1       9.678   7.610  -2.707  0.00  0.00    -0.484 OA
ATOM     19  H   LIG d   1      11.904   6.916  -1.638  0.00  0.00     0.047 H 
ATOM     20  H   LIG d   1      13.366   7.927  -1.511  0.00  0.00     0.047 H 
ATOM     21  H   LIG d   1      12.081   8.312  -3.644  0.00  0.00     0.032 H 
ATOM     22  H   LIG d   1      12.236   9.779  -2.646  0.00  0.00     0.032 H 
ATOM     23  H   LIG d   1      10.317  10.587  -1.297  0.00  0.00     0.032 H 
ATOM     24  H   LIG d   1       8.771   9.705  -1.315  0.00  0.00     0.032 H 
ATOM     25  H   LIG d   1       9.791   7.807  -0.150  0.00  0.00     0.047 H 
ATOM     26  H   LIG d   1      10.122   9.295   0.773  0.00  0.00     0.047 H 
ATOM     27  H   LIG d   1       8.785   9.844  -3.793  0.00  0.00     0.038 H 
ATOM     28  H   LIG d   1      10.246  10.728  -3.820  0.00  0.00     0.038 H 
ATOM     29  H   LIG d   1      10.353   7.288  -7.194  0.00  0.00     0.063 H 
ATOM     30  H   LIG d   1      10.133   4.854  -7.117  0.00  0.00     0.065 H 
ATOM     31  H   LIG d   1       9.478   5.010  -2.891  0.00  0.00     0.069 H 
ENDROOT
BRANCH   1  32
ATOM     32  C   LIG d   1      12.083   9.521   1.956  0.00  0.00     0.012 C 
ATOM     33  H   LIG d   1      11.299   8.916   2.412  0.00  0.00     0.032 H 
ATOM     34  H   LIG d   1      12.896   9.658   2.669  0.00  0.00     0.032 H 
ATOM     35  H   LIG d   1      11.676  10.493   1.677  0.00  0.00     0.032 H 
ENDBRANCH   1  32
BRANCH  15  36
ATOM     36  O   LIG d   1       9.663   3.439  -4.970  0.00  0.00    -0.483 OA
BRANCH  36  37
ATOM     37  C   LIG d   1       8.945   2.879  -3.868  0.00  0.00     0.165 C 
ATOM     38  H   LIG d   1       8.325   3.649  -3.410  0.00  0.00     0.080 H 
ATOM     39  H   LIG d   1       9.651   2.494  -3.132  0.00  0.00     0.080 H 
BRANCH  37  40
ATOM     40  C   LIG d   1       8.069   1.755  -4.360  0.00  0.00     0.251 C 
ATOM     41  O   LIG d   1       7.598   1.797  -5.476  0.00  0.00    -0.272 OA
ATOM     42  N   LIG d   1       7.812   0.702  -3.559  0.00  0.00    -0.308 N 
ATOM     43  H   LIG d   1       8.190   0.668  -2.666  0.00  0.00     0.149 HD
BRANCH  42  44
ATOM     44  C   LIG d   1       6.960  -0.391  -4.036  0.00  0.00     0.043 C 
ATOM     45  H   LIG d   1       7.358  -1.342  -3.681  0.00  0.00     0.052 H 
ATOM     46  H   LIG d   1       6.943  -0.388  -5.125  0.00  0.00     0.052 H 
BRANCH  44  47
ATOM     47  C   LIG d   1       5.561  -0.204  -3.510  0.00  0.00     0.007 A 
ATOM     48  S   LIG d   1       4.121  -1.231  -3.755  0.00  0.00    -0.100 SA
ATOM     49  C   LIG d   1       2.962  -0.273  -2.792  0.00  0.00    -0.024 A 
ATOM     50  C   LIG d   1       3.737   0.749  -2.355  0.00  0.00    -0.054 A 
ATOM     51  H   LIG d   1       1.915  -0.460  -2.607  0.00  0.00     0.069 H 
ATOM     52  C   LIG d   1       5.070   0.785  -2.723  0.00  0.00    -0.050 A 
ATOM     53  H   LIG d   1       3.321   1.524  -1.729  0.00  0.00     0.062 H 
ATOM     54  H   LIG d   1       5.709   1.588  -2.389  0.00  0.00     0.063 H 
ENDBRANCH  44  47
ENDBRANCH  42  44
ENDBRANCH  37  40
ENDBRANCH  36  37
ENDBRANCH  15  36
TORSDOF 6
ENDMDL
MODEL 10
REMARK VINA RESULT:      -6.4      3.077      6.071
REMARK  6 active torsions:
REMARK  status: ('A' for Active; 'I' for Inactive)
REMARK    1  A    between atoms: C_1  and  C_2 
REMARK       I    between atoms: C_2  and  N_4 
REMARK    2  A    between atoms: C_16  and  O_20 
REMARK    3  A    between atoms: O_20  and  C_21 
REMARK    4  A    between atoms: C_21  and  C_22 
REMARK       I    between atoms: C_22  and  N_24 
REMARK    5  A    between atoms: N_24  and  C_25 
REMARK    6  A    between atoms: C_25  and  C_26 
ROOT
ATOM      1  C   LIG d   1      10.167  -1.623  -5.070  0.00  0.00     0.212 C 
ATOM      2  O   LIG d   1      10.687  -0.528  -5.010  0.00  0.00    -0.276 OA
ATOM      3  N   LIG d   1       8.825  -1.730  -5.131  0.00  0.00    -0.301 N 
ATOM      4  C   LIG d   1       7.974  -0.537  -5.017  0.00  0.00     0.018 C 
ATOM      5  C   LIG d   1       6.947  -0.771  -3.903  0.00  0.00     0.003 C 
ATOM      6  C   LIG d   1       6.182  -2.065  -4.184  0.00  0.00     0.120 C 
ATOM      7  C   LIG d   1       7.156  -3.245  -4.199  0.00  0.00     0.003 C 
ATOM      8  C   LIG d   1       8.186  -3.040  -5.313  0.00  0.00     0.018 C 
ATOM      9  C   LIG d   1       5.137  -2.283  -3.080  0.00  0.00     0.051 C 
ATOM     10  C   LIG d   1       4.187  -1.101  -3.124  0.00  0.00     0.170 C 
ATOM     11  O   LIG d   1       3.764  -0.583  -2.112  0.00  0.00    -0.292 OA
ATOM     12  C   LIG d   1       3.804  -0.616  -4.460  0.00  0.00     0.059 A 
ATOM     13  C   LIG d   1       2.756   0.297  -4.615  0.00  0.00    -0.044 A 
ATOM     14  C   LIG d   1       2.423   0.743  -5.861  0.00  0.00    -0.019 A 
ATOM     15  C   LIG d   1       3.116   0.284  -6.979  0.00  0.00     0.125 A 
ATOM     16  C   LIG d   1       4.157  -0.623  -6.841  0.00  0.00     0.022 A 
ATOM     17  C   LIG d   1       4.511  -1.082  -5.583  0.00  0.00     0.135 A 
ATOM     18  O   LIG d   1       5.523  -1.970  -5.446  0.00  0.00    -0.484 OA
ATOM     19  H   LIG d   1       7.457  -0.365  -5.961  0.00  0.00     0.047 H 
ATOM     20  H   LIG d   1       8.588   0.329  -4.772  0.00  0.00     0.047 H 
ATOM     21  H   LIG d   1       6.249   0.066  -3.873  0.00  0.00     0.032 H 
ATOM     22  H   LIG d   1       7.461  -0.851  -2.946  0.00  0.00     0.032 H 
ATOM     23  H   LIG d   1       7.667  -3.307  -3.237  0.00  0.00     0.032 H 
ATOM     24  H   LIG d   1       6.606  -4.169  -4.378  0.00  0.00     0.032 H 
ATOM     25  H   LIG d   1       7.687  -3.071  -6.282  0.00  0.00     0.047 H 
ATOM     26  H   LIG d   1       8.940  -3.825  -5.263  0.00  0.00     0.047 H 
ATOM     27  H   LIG d   1       4.650  -3.140  -3.247  0.00  0.00     0.038 H 
ATOM     28  H   LIG d   1       5.629  -2.328  -2.108  0.00  0.00     0.038 H 
ATOM     29  H   LIG d   1       2.214   0.650  -3.750  0.00  0.00     0.063 H 
ATOM     30  H   LIG d   1       1.618   1.452  -5.982  0.00  0.00     0.065 H 
ATOM     31  H   LIG d   1       4.691  -0.970  -7.713  0.00  0.00     0.069 H 
ENDROOT
BRANCH   1  32
ATOM     32  C   LIG d   1      11.023  -2.863  -5.076  0.00  0.00     0.012 C 
ATOM     33  H   LIG d   1      12.061  -2.590  -4.889  0.00  0.00     0.032 H 
ATOM     34  H   LIG d   1      10.681  -3.545  -4.298  0.00  0.00     0.032 H 
ATOM     35  H   LIG d   1      10.946  -3.352  -6.047  0.00  0.00     0.032 H 
ENDBRANCH   1  32
BRANCH  15  36
ATOM     36  O   LIG d   1       2.774   0.732  -8.214  0.00  0.00    -0.483 OA
BRANCH  36  37
ATOM     37  C   LIG d   1       3.309   1.995  -8.616  0.00  0.00     0.165 C 
ATOM     38  H   LIG d   1       3.456   2.623  -7.737  0.00  0.00     0.080 H 
ATOM     39  H   LIG d   1       2.615   2.483  -9.300  0.00  0.00     0.080 H 
BRANCH  37  40
ATOM     40  C   LIG d   1       4.631   1.782  -9.308  0.00  0.00     0.251 C 
ATOM     41  O   LIG d   1       4.661   1.532 -10.494  0.00  0.00    -0.272 OA
ATOM     42  N   LIG d   1       5.779   1.872  -8.609  0.00  0.00    -0.308 N 
ATOM     43  H   LIG d   1       5.756   2.073  -7.660  0.00  0.00     0.149 HD
BRANCH  42  44
ATOM     44  C   LIG d   1       7.065   1.665  -9.281  0.00  0.00     0.043 C 
ATOM     45  H   LIG d   1       6.957   1.881 -10.344  0.00  0.00     0.052 H 
ATOM     46  H   LIG d   1       7.379   0.629  -9.152  0.00  0.00     0.052 H 
BRANCH  44  47
ATOM     47  C   LIG d   1       8.099   2.583  -8.683  0.00  0.00     0.007 A 
ATOM     48  S   LIG d   1       9.124   2.334  -7.243  0.00  0.00    -0.100 SA
ATOM     49  C   LIG d   1      10.013   3.881  -7.297  0.00  0.00    -0.024 A 
ATOM     50  C   LIG d   1       9.478   4.475  -8.392  0.00  0.00    -0.054 A 
ATOM     51  H   LIG d   1      10.778   4.249  -6.630  0.00  0.00     0.069 H 
ATOM     52  C   LIG d   1       8.497   3.809  -9.102  0.00  0.00    -0.050 A 
ATOM     53  H   LIG d   1       9.813   5.452  -8.704  0.00  0.00     0.062 H 
ATOM     54  H   LIG d   1       8.054   4.259  -9.978  0.00  0.00     0.063 H 
ENDBRANCH  44  47
ENDBRANCH  42  44
ENDBRANCH  37  40
ENDBRANCH  36  37
ENDBRANCH  15  36
TORSDOF 6
ENDMDL
