MODEL 1
REMARK VINA RESULT:      -6.5      0.000      0.000
REMARK  8 active torsions:
REMARK  status: ('A' for Active; 'I' for Inactive)
REMARK    1  A    between atoms: C_1  and  C_2 
REMARK    2  A    between atoms: C_6  and  C_7 
REMARK    3  A    between atoms: C_7  and  C_8 
REMARK    4  A    between atoms: C_15  and  C_18 
REMARK    5  A    between atoms: C_18  and  N_19 
REMARK    6  A    between atoms: N_22  and  C_25 
REMARK    7  A    between atoms: C_25  and  C_26 
REMARK    8  A    between atoms: C_26  and  O_27 
ROOT
ATOM      1  C   LIG d   1       3.271   0.412  -6.272  0.00  0.00     0.177 A 
ATOM      2  C   LIG d   1       2.661  -0.053  -5.077  0.00  0.00     0.232 A 
ATOM      3  O   LIG d   1       1.489   0.051  -4.754  0.00  0.00    -0.283 OA
ATOM      4  C   LIG d   1       3.747  -0.688  -4.310  0.00  0.00     0.068 A 
ATOM      5  C   LIG d   1       3.803  -1.325  -3.070  0.00  0.00    -0.048 A 
ATOM      6  C   LIG d   1       4.991  -1.825  -2.616  0.00  0.00    -0.068 A 
ATOM      7  C   LIG d   1       6.145  -1.698  -3.384  0.00  0.00    -0.097 A 
ATOM      8  C   LIG d   1       6.104  -1.068  -4.618  0.00  0.00     0.032 A 
ATOM      9  C   LIG d   1       4.906  -0.555  -5.094  0.00  0.00     0.147 A 
ATOM     10  O   LIG d   1       4.586   0.088  -6.237  0.00  0.00    -0.451 OA
ATOM     11  O   LIG d   1       7.319  -2.198  -2.922  0.00  0.00    -0.873 OA
ATOM     12  H   LIG d   1       2.909  -1.425  -2.472  0.00  0.00     0.063 H 
ATOM     13  H   LIG d   1       5.034  -2.319  -1.656  0.00  0.00     0.061 H 
ENDROOT
BRANCH   8  14
ATOM     14  C   LIG d   1       7.360  -0.937  -5.440  0.00  0.00    -0.003 C 
ATOM     15  H   LIG d   1       7.782  -1.927  -5.618  0.00  0.00     0.087 H 
ATOM     16  H   LIG d   1       7.124  -0.466  -6.394  0.00  0.00     0.087 H 
BRANCH  14  17
ATOM     17  N   LIG d   1       8.336  -0.114  -4.715  0.00  0.00     0.240 N 
ATOM     18  C   LIG d   1       9.599  -0.078  -5.464  0.00  0.00    -0.018 C 
ATOM     19  C   LIG d   1      10.623   0.765  -4.699  0.00  0.00     0.039 C 
ATOM     20  H   LIG d   1       9.981  -1.092  -5.582  0.00  0.00     0.083 H 
ATOM     21  H   LIG d   1       9.427   0.363  -6.446  0.00  0.00     0.083 H 
ATOM     22  N   LIG d   1      10.098   2.127  -4.525  0.00  0.00    -0.290 N 
ATOM     23  H   LIG d   1      11.555   0.804  -5.263  0.00  0.00     0.048 H 
ATOM     24  H   LIG d   1      10.806   0.318  -3.722  0.00  0.00     0.048 H 
ATOM     25  C   LIG d   1       8.821   2.105  -3.798  0.00  0.00     0.039 C 
ATOM     26  C   LIG d   1       7.813   1.251  -4.570  0.00  0.00    -0.018 C 
ATOM     27  H   LIG d   1       8.439   3.123  -3.703  0.00  0.00     0.048 H 
ATOM     28  H   LIG d   1       8.975   1.680  -2.806  0.00  0.00     0.048 H 
ATOM     29  H   LIG d   1       7.650   1.685  -5.556  0.00  0.00     0.083 H 
ATOM     30  H   LIG d   1       6.869   1.223  -4.025  0.00  0.00     0.083 H 
ATOM     31  H   LIG d   1       8.498  -0.509  -3.801  0.00  0.00     0.204 HD
BRANCH  22  32
ATOM     32  C   LIG d   1      11.077   2.984  -3.843  0.00  0.00     0.022 C 
ATOM     33  H   LIG d   1      11.858   2.365  -3.402  0.00  0.00     0.045 H 
ATOM     34  H   LIG d   1      11.521   3.673  -4.561  0.00  0.00     0.045 H 
BRANCH  32  35
ATOM     35  C   LIG d   1      10.376   3.780  -2.740  0.00  0.00     0.057 C 
ATOM     36  H   LIG d   1      10.315   4.829  -3.031  0.00  0.00     0.057 H 
ATOM     37  H   LIG d   1       9.372   3.386  -2.589  0.00  0.00     0.057 H 
BRANCH  35  38
ATOM     38  O   LIG d   1      11.119   3.665  -1.524  0.00  0.00    -0.394 OA
ATOM     39  H   LIG d   1      11.973   4.119  -1.540  0.00  0.00     0.209 HD
ENDBRANCH  35  38
ENDBRANCH  32  35
ENDBRANCH  22  32
ENDBRANCH  14  17
ENDBRANCH   8  14
BRANCH   1  40
ATOM     40  C   LIG d   1       2.639   1.068  -7.287  0.00  0.00    -0.002 C 
ATOM     41  H   LIG d   1       1.916   1.839  -7.064  0.00  0.00     0.067 H 
BRANCH  40  42
ATOM     42  C   LIG d   1       2.929   0.740  -8.630  0.00  0.00     0.019 A 
ATOM     43  C   LIG d   1       3.631   1.476  -9.582  0.00  0.00    -0.036 A 
ATOM     44  C   LIG d   1       3.756   0.885 -10.815  0.00  0.00    -0.051 A 
ATOM     45  C   LIG d   1       3.203  -0.336 -11.021  0.00  0.00    -0.024 A 
ATOM     46  H   LIG d   1       4.288   1.385 -11.610  0.00  0.00     0.063 H 
ATOM     47  S   LIG d   1       2.492  -0.724  -9.549  0.00  0.00    -0.097 SA
ATOM     48  H   LIG d   1       3.214  -0.926 -11.927  0.00  0.00     0.069 H 
BRANCH  43  49
ATOM     49  C   LIG d   1       4.219   2.829  -9.277  0.00  0.00    -0.039 C 
ATOM     50  H   LIG d   1       5.226   2.707  -8.879  0.00  0.00     0.028 H 
ATOM     51  H   LIG d   1       4.259   3.422 -10.190  0.00  0.00     0.028 H 
ATOM     52  H   LIG d   1       3.596   3.338  -8.540  0.00  0.00     0.028 H 
ENDBRANCH  43  49
ENDBRANCH  40  42
ENDBRANCH   1  40
TORSDOF 8
ENDMDL
MODEL 2
REMARK VINA RESULT:      -6.4      3.395      7.184
REMARK  8 active torsions:
REMARK  status: ('A' for Active; 'I' for Inactive)
REMARK    1  A    between atoms: C_1  and  C_2 
REMARK    2  A    between atoms: C_6  and  C_7 
REMARK    3  A    between atoms: C_7  and  C_8 
REMARK    4  A    between atoms: C_15  and  C_18 
REMARK    5  A    between atoms: C_18  and  N_19 
REMARK    6  A    between atoms: N_22  and  C_25 
REMARK    7  A    between atoms: C_25  and  C_26 
REMARK    8  A    between atoms: C_26  and  O_27 
ROOT
ATOM      1  C   LIG d   1       7.332   1.121  -4.120  0.00  0.00     0.177 A 
ATOM      2  C   LIG d   1       8.443   2.004  -4.186  0.00  0.00     0.232 A 
ATOM      3  O   LIG d   1       9.095   2.446  -3.254  0.00  0.00    -0.283 OA
ATOM      4  C   LIG d   1       8.638   2.273  -5.620  0.00  0.00     0.068 A 
ATOM      5  C   LIG d   1       9.547   3.051  -6.337  0.00  0.00    -0.048 A 
ATOM      6  C   LIG d   1       9.472   3.101  -7.701  0.00  0.00    -0.068 A 
ATOM      7  C   LIG d   1       8.491   2.380  -8.376  0.00  0.00    -0.097 A 
ATOM      8  C   LIG d   1       7.581   1.603  -7.677  0.00  0.00     0.032 A 
ATOM      9  C   LIG d   1       7.644   1.541  -6.292  0.00  0.00     0.147 A 
ATOM     10  O   LIG d   1       6.903   0.875  -5.380  0.00  0.00    -0.451 OA
ATOM     11  O   LIG d   1       8.426   2.438  -9.731  0.00  0.00    -0.873 OA
ATOM     12  H   LIG d   1      10.309   3.611  -5.817  0.00  0.00     0.063 H 
ATOM     13  H   LIG d   1      10.177   3.703  -8.256  0.00  0.00     0.061 H 
ENDROOT
BRANCH   8  14
ATOM     14  C   LIG d   1       6.524   0.828  -8.420  0.00  0.00    -0.003 C 
ATOM     15  H   LIG d   1       5.596   1.399  -8.433  0.00  0.00     0.087 H 
ATOM     16  H   LIG d   1       6.855   0.650  -9.443  0.00  0.00     0.087 H 
BRANCH  14  17
ATOM     17  N   LIG d   1       6.297  -0.458  -7.748  0.00  0.00     0.240 N 
ATOM     18  C   LIG d   1       4.881  -0.829  -7.867  0.00  0.00    -0.018 C 
ATOM     19  C   LIG d   1       4.640  -2.160  -7.151  0.00  0.00     0.039 C 
ATOM     20  H   LIG d   1       4.263  -0.055  -7.412  0.00  0.00     0.083 H 
ATOM     21  H   LIG d   1       4.619  -0.931  -8.921  0.00  0.00     0.083 H 
ATOM     22  N   LIG d   1       5.488  -3.198  -7.754  0.00  0.00    -0.290 N 
ATOM     23  H   LIG d   1       3.592  -2.443  -7.252  0.00  0.00     0.048 H 
ATOM     24  H   LIG d   1       4.888  -2.056  -6.095  0.00  0.00     0.048 H 
ATOM     25  C   LIG d   1       6.908  -2.828  -7.665  0.00  0.00     0.039 C 
ATOM     26  C   LIG d   1       7.130  -1.492  -8.376  0.00  0.00    -0.018 C 
ATOM     27  H   LIG d   1       7.515  -3.600  -8.140  0.00  0.00     0.048 H 
ATOM     28  H   LIG d   1       7.194  -2.735  -6.617  0.00  0.00     0.048 H 
ATOM     29  H   LIG d   1       6.857  -1.590  -9.427  0.00  0.00     0.083 H 
ATOM     30  H   LIG d   1       8.180  -1.210  -8.299  0.00  0.00     0.083 H 
ATOM     31  H   LIG d   1       6.542  -0.376  -6.773  0.00  0.00     0.204 HD
BRANCH  22  32
ATOM     32  C   LIG d   1       5.245  -4.505  -7.130  0.00  0.00     0.022 C 
ATOM     33  H   LIG d   1       5.947  -5.236  -7.530  0.00  0.00     0.045 H 
ATOM     34  H   LIG d   1       5.378  -4.425  -6.051  0.00  0.00     0.045 H 
BRANCH  32  35
ATOM     35  C   LIG d   1       3.814  -4.956  -7.433  0.00  0.00     0.057 C 
ATOM     36  H   LIG d   1       3.315  -4.201  -8.040  0.00  0.00     0.057 H 
ATOM     37  H   LIG d   1       3.839  -5.901  -7.976  0.00  0.00     0.057 H 
BRANCH  35  38
ATOM     38  O   LIG d   1       3.100  -5.131  -6.208  0.00  0.00    -0.394 OA
ATOM     39  H   LIG d   1       2.171  -4.865  -6.252  0.00  0.00     0.209 HD
ENDBRANCH  35  38
ENDBRANCH  32  35
ENDBRANCH  22  32
ENDBRANCH  14  17
ENDBRANCH   8  14
BRANCH   1  40
ATOM     40  C   LIG d   1       6.793   0.603  -2.979  0.00  0.00    -0.002 C 
ATOM     41  H   LIG d   1       7.152   0.928  -2.014  0.00  0.00     0.067 H 
BRANCH  40  42
ATOM     42  C   LIG d   1       5.761  -0.360  -3.059  0.00  0.00     0.019 A 
ATOM     43  C   LIG d   1       4.420  -0.242  -2.703  0.00  0.00    -0.036 A 
ATOM     44  C   LIG d   1       3.652  -1.362  -2.905  0.00  0.00    -0.051 A 
ATOM     45  C   LIG d   1       4.231  -2.477  -3.417  0.00  0.00    -0.024 A 
ATOM     46  H   LIG d   1       2.601  -1.356  -2.659  0.00  0.00     0.063 H 
ATOM     47  S   LIG d   1       5.839  -2.043  -3.642  0.00  0.00    -0.097 SA
ATOM     48  H   LIG d   1       3.766  -3.429  -3.631  0.00  0.00     0.069 H 
BRANCH  43  49
ATOM     49  C   LIG d   1       3.848   1.033  -2.139  0.00  0.00    -0.039 C 
ATOM     50  H   LIG d   1       3.637   0.898  -1.079  0.00  0.00     0.028 H 
ATOM     51  H   LIG d   1       4.567   1.842  -2.267  0.00  0.00     0.028 H 
ATOM     52  H   LIG d   1       2.926   1.280  -2.665  0.00  0.00     0.028 H 
ENDBRANCH  43  49
ENDBRANCH  40  42
ENDBRANCH   1  40
TORSDOF 8
ENDMDL
MODEL 3
REMARK VINA RESULT:      -6.3      4.584      9.256
REMARK  8 active torsions:
REMARK  status: ('A' for Active; 'I' for Inactive)
REMARK    1  A    between atoms: C_1  and  C_2 
REMARK    2  A    between atoms: C_6  and  C_7 
REMARK    3  A    between atoms: C_7  and  C_8 
REMARK    4  A    between atoms: C_15  and  C_18 
REMARK    5  A    between atoms: C_18  and  N_19 
REMARK    6  A    between atoms: N_22  and  C_25 
REMARK    7  A    between atoms: C_25  and  C_26 
REMARK    8  A    between atoms: C_26  and  O_27 
ROOT
ATOM      1  C   LIG d   1       3.245  -0.023  -7.256  0.00  0.00     0.177 A 
ATOM      2  C   LIG d   1       3.255   1.035  -8.204  0.00  0.00     0.232 A 
ATOM      3  O   LIG d   1       3.090   2.225  -7.988  0.00  0.00    -0.283 OA
ATOM      4  C   LIG d   1       3.505   0.388  -9.503  0.00  0.00     0.068 A 
ATOM      5  C   LIG d   1       3.627   0.868 -10.807  0.00  0.00    -0.048 A 
ATOM      6  C   LIG d   1       3.866  -0.004 -11.832  0.00  0.00    -0.068 A 
ATOM      7  C   LIG d   1       3.985  -1.368 -11.580  0.00  0.00    -0.097 A 
ATOM      8  C   LIG d   1       3.866  -1.858 -10.289  0.00  0.00     0.032 A 
ATOM      9  C   LIG d   1       3.624  -0.986  -9.237  0.00  0.00     0.147 A 
ATOM     10  O   LIG d   1       3.472  -1.187  -7.910  0.00  0.00    -0.451 OA
ATOM     11  O   LIG d   1       4.220  -2.225 -12.606  0.00  0.00    -0.873 OA
ATOM     12  H   LIG d   1       3.535   1.925 -11.007  0.00  0.00     0.063 H 
ATOM     13  H   LIG d   1       3.961   0.367 -12.842  0.00  0.00     0.061 H 
ENDROOT
BRANCH   8  14
ATOM     14  C   LIG d   1       3.997  -3.337 -10.029  0.00  0.00    -0.003 C 
ATOM     15  H   LIG d   1       4.883  -3.718 -10.536  0.00  0.00     0.087 H 
ATOM     16  H   LIG d   1       4.089  -3.511  -8.957  0.00  0.00     0.087 H 
BRANCH  14  17
ATOM     17  N   LIG d   1       2.806  -4.030 -10.537  0.00  0.00     0.240 N 
ATOM     18  C   LIG d   1       2.743  -5.380  -9.961  0.00  0.00    -0.018 C 
ATOM     19  C   LIG d   1       1.513  -6.110 -10.505  0.00  0.00     0.039 C 
ATOM     20  H   LIG d   1       3.642  -5.934 -10.232  0.00  0.00     0.083 H 
ATOM     21  H   LIG d   1       2.672  -5.309  -8.876  0.00  0.00     0.083 H 
ATOM     22  N   LIG d   1       0.303  -5.353 -10.156  0.00  0.00    -0.290 N 
ATOM     23  H   LIG d   1       1.457  -7.107 -10.067  0.00  0.00     0.048 H 
ATOM     24  H   LIG d   1       1.589  -6.194 -11.590  0.00  0.00     0.048 H 
ATOM     25  C   LIG d   1       0.364  -3.991 -10.705  0.00  0.00     0.039 C 
ATOM     26  C   LIG d   1       1.603  -3.278 -10.159  0.00  0.00    -0.018 C 
ATOM     27  H   LIG d   1      -0.532  -3.440 -10.412  0.00  0.00     0.048 H 
ATOM     28  H   LIG d   1       0.420  -4.040 -11.792  0.00  0.00     0.048 H 
ATOM     29  H   LIG d   1       1.538  -3.218  -9.073  0.00  0.00     0.083 H 
ATOM     30  H   LIG d   1       1.656  -2.273 -10.576  0.00  0.00     0.083 H 
ATOM     31  H   LIG d   1       2.859  -4.096 -11.543  0.00  0.00     0.204 HD
BRANCH  22  32
ATOM     32  C   LIG d   1      -0.906  -6.051 -10.613  0.00  0.00     0.022 C 
ATOM     33  H   LIG d   1      -1.234  -5.626 -11.562  0.00  0.00     0.045 H 
ATOM     34  H   LIG d   1      -0.687  -7.110 -10.745  0.00  0.00     0.045 H 
BRANCH  32  35
ATOM     35  C   LIG d   1      -2.015  -5.887  -9.571  0.00  0.00     0.057 C 
ATOM     36  H   LIG d   1      -2.337  -4.846  -9.544  0.00  0.00     0.057 H 
ATOM     37  H   LIG d   1      -2.860  -6.522  -9.838  0.00  0.00     0.057 H 
BRANCH  35  38
ATOM     38  O   LIG d   1      -1.521  -6.267  -8.286  0.00  0.00    -0.394 OA
ATOM     39  H   LIG d   1      -1.122  -7.148  -8.262  0.00  0.00     0.209 HD
ENDBRANCH  35  38
ENDBRANCH  32  35
ENDBRANCH  22  32
ENDBRANCH  14  17
ENDBRANCH   8  14
BRANCH   1  40
ATOM     40  C   LIG d   1       3.047   0.111  -5.913  0.00  0.00    -0.002 C 
ATOM     41  H   LIG d   1       2.137   0.560  -5.543  0.00  0.00     0.067 H 
BRANCH  40  42
ATOM     42  C   LIG d   1       4.033  -0.337  -5.005  0.00  0.00     0.019 A 
ATOM     43  C   LIG d   1       3.884  -0.762  -3.688  0.00  0.00    -0.036 A 
ATOM     44  C   LIG d   1       5.039  -1.149  -3.055  0.00  0.00    -0.051 A 
ATOM     45  C   LIG d   1       6.214  -1.089  -3.730  0.00  0.00    -0.024 A 
ATOM     46  H   LIG d   1       5.014  -1.495  -2.033  0.00  0.00     0.063 H 
ATOM     47  S   LIG d   1       5.791  -0.506  -5.248  0.00  0.00    -0.097 SA
ATOM     48  H   LIG d   1       7.199  -1.355  -3.374  0.00  0.00     0.069 H 
BRANCH  43  49
ATOM     49  C   LIG d   1       2.542  -0.801  -3.003  0.00  0.00    -0.039 C 
ATOM     50  H   LIG d   1       1.778  -1.102  -3.718  0.00  0.00     0.028 H 
ATOM     51  H   LIG d   1       2.574  -1.517  -2.182  0.00  0.00     0.028 H 
ATOM     52  H   LIG d   1       2.305   0.189  -2.612  0.00  0.00     0.028 H 
ENDBRANCH  43  49
ENDBRANCH  40  42
ENDBRANCH   1  40
TORSDOF 8
ENDMDL
MODEL 4
REMARK VINA RESULT:      -6.2      3.144      6.531
REMARK  8 active torsions:
REMARK  status: ('A' for Active; 'I' for Inactive)
REMARK    1  A    between atoms: C_1  and  C_2 
REMARK    2  A    between atoms: C_6  and  C_7 
REMARK    3  A    between atoms: C_7  and  C_8 
REMARK    4  A    between atoms: C_15  and  C_18 
REMARK    5  A    between atoms: C_18  and  N_19 
REMARK    6  A    between atoms: N_22  and  C_25 
REMARK    7  A    between atoms: C_25  and  C_26 
REMARK    8  A    between atoms: C_26  and  O_27 
ROOT
ATOM      1  C   LIG d   1       7.769   0.779  -5.132  0.00  0.00     0.177 A 
ATOM      2  C   LIG d   1       7.507   1.442  -3.904  0.00  0.00     0.232 A 
ATOM      3  O   LIG d   1       8.215   2.257  -3.335  0.00  0.00    -0.283 OA
ATOM      4  C   LIG d   1       6.197   0.934  -3.463  0.00  0.00     0.068 A 
ATOM      5  C   LIG d   1       5.393   1.186  -2.350  0.00  0.00    -0.048 A 
ATOM      6  C   LIG d   1       4.196   0.542  -2.217  0.00  0.00    -0.068 A 
ATOM      7  C   LIG d   1       3.776  -0.366  -3.186  0.00  0.00    -0.097 A 
ATOM      8  C   LIG d   1       4.563  -0.626  -4.296  0.00  0.00     0.032 A 
ATOM      9  C   LIG d   1       5.782   0.021  -4.447  0.00  0.00     0.147 A 
ATOM     10  O   LIG d   1       6.726  -0.039  -5.410  0.00  0.00    -0.451 OA
ATOM     11  O   LIG d   1       2.585  -1.001  -3.041  0.00  0.00    -0.873 OA
ATOM     12  H   LIG d   1       5.716   1.890  -1.597  0.00  0.00     0.063 H 
ATOM     13  H   LIG d   1       3.573   0.737  -1.356  0.00  0.00     0.061 H 
ENDROOT
BRANCH   8  14
ATOM     14  C   LIG d   1       4.097  -1.610  -5.337  0.00  0.00    -0.003 C 
ATOM     15  H   LIG d   1       4.775  -2.464  -5.359  0.00  0.00     0.087 H 
ATOM     16  H   LIG d   1       3.092  -1.952  -5.091  0.00  0.00     0.087 H 
BRANCH  14  17
ATOM     17  N   LIG d   1       4.086  -0.962  -6.654  0.00  0.00     0.240 N 
ATOM     18  C   LIG d   1       4.038  -1.987  -7.705  0.00  0.00    -0.018 C 
ATOM     19  C   LIG d   1       4.045  -1.312  -9.078  0.00  0.00     0.039 C 
ATOM     20  H   LIG d   1       4.907  -2.639  -7.616  0.00  0.00     0.083 H 
ATOM     21  H   LIG d   1       3.128  -2.578  -7.595  0.00  0.00     0.083 H 
ATOM     22  N   LIG d   1       2.883  -0.419  -9.188  0.00  0.00    -0.290 N 
ATOM     23  H   LIG d   1       3.995  -2.073  -9.858  0.00  0.00     0.048 H 
ATOM     24  H   LIG d   1       4.961  -0.732  -9.194  0.00  0.00     0.048 H 
ATOM     25  C   LIG d   1       2.905   0.598  -8.127  0.00  0.00     0.039 C 
ATOM     26  C   LIG d   1       2.907  -0.093  -6.761  0.00  0.00    -0.018 C 
ATOM     27  H   LIG d   1       2.021   1.232  -8.213  0.00  0.00     0.048 H 
ATOM     28  H   LIG d   1       3.801   1.209  -8.228  0.00  0.00     0.048 H 
ATOM     29  H   LIG d   1       2.003  -0.693  -6.657  0.00  0.00     0.083 H 
ATOM     30  H   LIG d   1       2.936   0.660  -5.974  0.00  0.00     0.083 H 
ATOM     31  H   LIG d   1       4.922  -0.407  -6.763  0.00  0.00     0.204 HD
BRANCH  22  32
ATOM     32  C   LIG d   1       2.824   0.206 -10.516  0.00  0.00     0.022 C 
ATOM     33  H   LIG d   1       2.503  -0.531 -11.251  0.00  0.00     0.045 H 
ATOM     34  H   LIG d   1       2.114   1.034 -10.498  0.00  0.00     0.045 H 
BRANCH  32  35
ATOM     35  C   LIG d   1       4.210   0.733 -10.894  0.00  0.00     0.057 C 
ATOM     36  H   LIG d   1       4.221   1.819 -10.814  0.00  0.00     0.057 H 
ATOM     37  H   LIG d   1       4.955   0.311 -10.218  0.00  0.00     0.057 H 
BRANCH  35  38
ATOM     38  O   LIG d   1       4.515   0.350 -12.236  0.00  0.00    -0.394 OA
ATOM     39  H   LIG d   1       5.317   0.759 -12.589  0.00  0.00     0.209 HD
ENDBRANCH  35  38
ENDBRANCH  32  35
ENDBRANCH  22  32
ENDBRANCH  14  17
ENDBRANCH   8  14
BRANCH   1  40
ATOM     40  C   LIG d   1       8.881   0.943  -5.905  0.00  0.00    -0.002 C 
ATOM     41  H   LIG d   1       9.737   0.300  -5.764  0.00  0.00     0.067 H 
BRANCH  40  42
ATOM     42  C   LIG d   1       8.914   1.954  -6.891  0.00  0.00     0.019 A 
ATOM     43  C   LIG d   1       9.597   3.167  -6.883  0.00  0.00    -0.036 A 
ATOM     44  C   LIG d   1       9.438   3.947  -8.002  0.00  0.00    -0.051 A 
ATOM     45  C   LIG d   1       8.645   3.501  -9.009  0.00  0.00    -0.024 A 
ATOM     46  H   LIG d   1       9.935   4.902  -8.079  0.00  0.00     0.063 H 
ATOM     47  S   LIG d   1       8.091   2.009  -8.472  0.00  0.00    -0.097 SA
ATOM     48  H   LIG d   1       8.421   3.994  -9.944  0.00  0.00     0.069 H 
BRANCH  43  49
ATOM     49  C   LIG d   1      10.461   3.594  -5.724  0.00  0.00    -0.039 C 
ATOM     50  H   LIG d   1      11.511   3.481  -5.992  0.00  0.00     0.028 H 
ATOM     51  H   LIG d   1      10.258   4.638  -5.484  0.00  0.00     0.028 H 
ATOM     52  H   LIG d   1      10.238   2.972  -4.857  0.00  0.00     0.028 H 
ENDBRANCH  43  49
ENDBRANCH  40  42
ENDBRANCH   1  40
TORSDOF 8
ENDMDL
MODEL 5
REMARK VINA RESULT:      -6.1      7.853     10.324
REMARK  8 active torsions:
REMARK  status: ('A' for Active; 'I' for Inactive)
REMARK    1  A    between atoms: C_1  and  C_2 
REMARK    2  A    between atoms: C_6  and  C_7 
REMARK    3  A    between atoms: C_7  and  C_8 
REMARK    4  A    between atoms: C_15  and  C_18 
REMARK    5  A    between atoms: C_18  and  N_19 
REMARK    6  A    between atoms: N_22  and  C_25 
REMARK    7  A    between atoms: C_25  and  C_26 
REMARK    8  A    between atoms: C_26  and  O_27 
ROOT
ATOM      1  C   LIG d   1       9.528   6.344  -3.359  0.00  0.00     0.177 A 
ATOM      2  C   LIG d   1      10.026   5.433  -2.390  0.00  0.00     0.232 A 
ATOM      3  O   LIG d   1      10.100   4.219  -2.483  0.00  0.00    -0.283 OA
ATOM      4  C   LIG d   1      10.434   6.269  -1.248  0.00  0.00     0.068 A 
ATOM      5  C   LIG d   1      10.991   5.987  -0.000  0.00  0.00    -0.048 A 
ATOM      6  C   LIG d   1      11.265   7.006   0.868  0.00  0.00    -0.068 A 
ATOM      7  C   LIG d   1      10.989   8.324   0.513  0.00  0.00    -0.097 A 
ATOM      8  C   LIG d   1      10.437   8.619  -0.723  0.00  0.00     0.032 A 
ATOM      9  C   LIG d   1      10.153   7.596  -1.616  0.00  0.00     0.147 A 
ATOM     10  O   LIG d   1       9.629   7.599  -2.861  0.00  0.00    -0.451 OA
ATOM     11  O   LIG d   1      11.265   9.327   1.385  0.00  0.00    -0.873 OA
ATOM     12  H   LIG d   1      11.206   4.966   0.278  0.00  0.00     0.063 H 
ATOM     13  H   LIG d   1      11.696   6.787   1.834  0.00  0.00     0.061 H 
ENDROOT
BRANCH   8  14
ATOM     14  C   LIG d   1      10.143  10.049  -1.095  0.00  0.00    -0.003 C 
ATOM     15  H   LIG d   1       9.161  10.330  -0.714  0.00  0.00     0.087 H 
ATOM     16  H   LIG d   1      10.901  10.701  -0.660  0.00  0.00     0.087 H 
BRANCH  14  17
ATOM     17  N   LIG d   1      10.159  10.188  -2.557  0.00  0.00     0.240 N 
ATOM     18  C   LIG d   1       9.135  11.158  -2.967  0.00  0.00    -0.018 C 
ATOM     19  C   LIG d   1       9.138  11.289  -4.492  0.00  0.00     0.039 C 
ATOM     20  H   LIG d   1       8.155  10.816  -2.634  0.00  0.00     0.083 H 
ATOM     21  H   LIG d   1       9.353  12.128  -2.519  0.00  0.00     0.083 H 
ATOM     22  N   LIG d   1      10.466  11.733  -4.940  0.00  0.00    -0.290 N 
ATOM     23  H   LIG d   1       8.388  12.020  -4.796  0.00  0.00     0.048 H 
ATOM     24  H   LIG d   1       8.907  10.323  -4.941  0.00  0.00     0.048 H 
ATOM     25  C   LIG d   1      11.504  10.784  -4.514  0.00  0.00     0.039 C 
ATOM     26  C   LIG d   1      11.482  10.657  -2.990  0.00  0.00    -0.018 C 
ATOM     27  H   LIG d   1      12.482  11.146  -4.836  0.00  0.00     0.048 H 
ATOM     28  H   LIG d   1      11.312   9.809  -4.964  0.00  0.00     0.048 H 
ATOM     29  H   LIG d   1      11.687  11.629  -2.542  0.00  0.00     0.083 H 
ATOM     30  H   LIG d   1      12.242   9.943  -2.674  0.00  0.00     0.083 H 
ATOM     31  H   LIG d   1       9.964   9.294  -2.981  0.00  0.00     0.204 HD
BRANCH  22  32
ATOM     32  C   LIG d   1      10.493  11.924  -6.396  0.00  0.00     0.022 C 
ATOM     33  H   LIG d   1      11.513  12.135  -6.717  0.00  0.00     0.045 H 
ATOM     34  H   LIG d   1      10.136  11.021  -6.890  0.00  0.00     0.045 H 
BRANCH  32  35
ATOM     35  C   LIG d   1       9.589  13.101  -6.773  0.00  0.00     0.057 C 
ATOM     36  H   LIG d   1       8.893  13.300  -5.958  0.00  0.00     0.057 H 
ATOM     37  H   LIG d   1      10.201  13.985  -6.952  0.00  0.00     0.057 H 
BRANCH  35  38
ATOM     38  O   LIG d   1       8.859  12.780  -7.958  0.00  0.00    -0.394 OA
ATOM     39  H   LIG d   1       8.149  12.138  -7.821  0.00  0.00     0.209 HD
ENDBRANCH  35  38
ENDBRANCH  32  35
ENDBRANCH  22  32
ENDBRANCH  14  17
ENDBRANCH   8  14
BRANCH   1  40
ATOM     40  C   LIG d   1       9.037   6.011  -4.587  0.00  0.00    -0.002 C 
ATOM     41  H   LIG d   1       7.996   5.746  -4.699  0.00  0.00     0.067 H 
BRANCH  40  42
ATOM     42  C   LIG d   1       9.889   6.014  -5.714  0.00  0.00     0.019 A 
ATOM     43  C   LIG d   1      10.047   6.991  -6.693  0.00  0.00    -0.036 A 
ATOM     44  C   LIG d   1      10.967   6.707  -7.672  0.00  0.00    -0.051 A 
ATOM     45  C   LIG d   1      11.637   5.528  -7.627  0.00  0.00    -0.024 A 
ATOM     46  H   LIG d   1      11.155   7.412  -8.468  0.00  0.00     0.063 H 
ATOM     47  S   LIG d   1      11.041   4.765  -6.254  0.00  0.00    -0.097 SA
ATOM     48  H   LIG d   1      12.383   5.161  -8.317  0.00  0.00     0.069 H 
BRANCH  43  49
ATOM     49  C   LIG d   1       9.266   8.279  -6.676  0.00  0.00    -0.039 C 
ATOM     50  H   LIG d   1       9.692   8.973  -7.400  0.00  0.00     0.028 H 
ATOM     51  H   LIG d   1       8.226   8.077  -6.934  0.00  0.00     0.028 H 
ATOM     52  H   LIG d   1       9.313   8.719  -5.679  0.00  0.00     0.028 H 
ENDBRANCH  43  49
ENDBRANCH  40  42
ENDBRANCH   1  40
TORSDOF 8
ENDMDL
MODEL 6
REMARK VINA RESULT:      -6.0      3.931      6.305
REMARK  8 active torsions:
REMARK  status: ('A' for Active; 'I' for Inactive)
REMARK    1  A    between atoms: C_1  and  C_2 
REMARK    2  A    between atoms: C_6  and  C_7 
REMARK    3  A    between atoms: C_7  and  C_8 
REMARK    4  A    between atoms: C_15  and  C_18 
REMARK    5  A    between atoms: C_18  and  N_19 
REMARK    6  A    between atoms: N_22  and  C_25 
REMARK    7  A    between atoms: C_25  and  C_26 
REMARK    8  A    between atoms: C_26  and  O_27 
ROOT
ATOM      1  C   LIG d   1       3.561  -0.326  -6.326  0.00  0.00     0.177 A 
ATOM      2  C   LIG d   1       3.764   0.198  -5.022  0.00  0.00     0.232 A 
ATOM      3  O   LIG d   1       3.153   1.107  -4.485  0.00  0.00    -0.283 OA
ATOM      4  C   LIG d   1       4.872  -0.592  -4.456  0.00  0.00     0.068 A 
ATOM      5  C   LIG d   1       5.538  -0.573  -3.231  0.00  0.00    -0.048 A 
ATOM      6  C   LIG d   1       6.554  -1.456  -2.996  0.00  0.00    -0.068 A 
ATOM      7  C   LIG d   1       6.928  -2.372  -3.975  0.00  0.00    -0.097 A 
ATOM      8  C   LIG d   1       6.274  -2.403  -5.197  0.00  0.00     0.032 A 
ATOM      9  C   LIG d   1       5.240  -1.513  -5.451  0.00  0.00     0.147 A 
ATOM     10  O   LIG d   1       4.446  -1.330  -6.529  0.00  0.00    -0.451 OA
ATOM     11  O   LIG d   1       7.940  -3.244  -3.731  0.00  0.00    -0.873 OA
ATOM     12  H   LIG d   1       5.251   0.137  -2.470  0.00  0.00     0.063 H 
ATOM     13  H   LIG d   1       7.070  -1.441  -2.047  0.00  0.00     0.061 H 
ENDROOT
BRANCH   8  14
ATOM     14  C   LIG d   1       6.688  -3.400  -6.248  0.00  0.00    -0.003 C 
ATOM     15  H   LIG d   1       6.340  -3.064  -7.225  0.00  0.00     0.087 H 
ATOM     16  H   LIG d   1       7.775  -3.486  -6.261  0.00  0.00     0.087 H 
BRANCH  14  17
ATOM     17  N   LIG d   1       6.097  -4.708  -5.942  0.00  0.00     0.240 N 
ATOM     18  C   LIG d   1       5.026  -4.999  -6.905  0.00  0.00    -0.018 C 
ATOM     19  C   LIG d   1       4.397  -6.355  -6.575  0.00  0.00     0.039 C 
ATOM     20  H   LIG d   1       4.264  -4.222  -6.847  0.00  0.00     0.083 H 
ATOM     21  H   LIG d   1       5.442  -5.028  -7.913  0.00  0.00     0.083 H 
ATOM     22  N   LIG d   1       5.430  -7.399  -6.635  0.00  0.00    -0.290 N 
ATOM     23  H   LIG d   1       3.612  -6.577  -7.298  0.00  0.00     0.048 H 
ATOM     24  H   LIG d   1       3.969  -6.323  -5.573  0.00  0.00     0.048 H 
ATOM     25  C   LIG d   1       6.520  -7.108  -5.693  0.00  0.00     0.039 C 
ATOM     26  C   LIG d   1       7.132  -5.746  -6.031  0.00  0.00    -0.018 C 
ATOM     27  H   LIG d   1       7.286  -7.881  -5.774  0.00  0.00     0.048 H 
ATOM     28  H   LIG d   1       6.128  -7.089  -4.677  0.00  0.00     0.048 H 
ATOM     29  H   LIG d   1       7.537  -5.771  -7.042  0.00  0.00     0.083 H 
ATOM     30  H   LIG d   1       7.933  -5.523  -5.325  0.00  0.00     0.083 H 
ATOM     31  H   LIG d   1       5.715  -4.695  -5.009  0.00  0.00     0.204 HD
BRANCH  22  32
ATOM     32  C   LIG d   1       4.853  -8.725  -6.378  0.00  0.00     0.022 C 
ATOM     33  H   LIG d   1       3.780  -8.699  -6.571  0.00  0.00     0.045 H 
ATOM     34  H   LIG d   1       5.322  -9.460  -7.031  0.00  0.00     0.045 H 
BRANCH  32  35
ATOM     35  C   LIG d   1       5.096  -9.113  -4.918  0.00  0.00     0.057 C 
ATOM     36  H   LIG d   1       5.694 -10.023  -4.878  0.00  0.00     0.057 H 
ATOM     37  H   LIG d   1       5.627  -8.306  -4.411  0.00  0.00     0.057 H 
BRANCH  35  38
ATOM     38  O   LIG d   1       3.843  -9.336  -4.269  0.00  0.00    -0.394 OA
ATOM     39  H   LIG d   1       3.922  -9.653  -3.358  0.00  0.00     0.209 HD
ENDBRANCH  35  38
ENDBRANCH  32  35
ENDBRANCH  22  32
ENDBRANCH  14  17
ENDBRANCH   8  14
BRANCH   1  40
ATOM     40  C   LIG d   1       2.628   0.106  -7.222  0.00  0.00    -0.002 C 
ATOM     41  H   LIG d   1       1.599   0.226  -6.916  0.00  0.00     0.067 H 
BRANCH  40  42
ATOM     42  C   LIG d   1       3.006   0.397  -8.552  0.00  0.00     0.019 A 
ATOM     43  C   LIG d   1       2.661  -0.263  -9.728  0.00  0.00    -0.036 A 
ATOM     44  C   LIG d   1       3.185   0.265 -10.882  0.00  0.00    -0.051 A 
ATOM     45  C   LIG d   1       3.985   1.358 -10.804  0.00  0.00    -0.024 A 
ATOM     46  H   LIG d   1       2.965  -0.184 -11.839  0.00  0.00     0.063 H 
ATOM     47  S   LIG d   1       4.052   1.706  -9.162  0.00  0.00    -0.097 SA
ATOM     48  H   LIG d   1       4.470   1.885 -11.613  0.00  0.00     0.069 H 
BRANCH  43  49
ATOM     49  C   LIG d   1       1.764  -1.475  -9.735  0.00  0.00    -0.039 C 
ATOM     50  H   LIG d   1       1.966  -2.081  -8.853  0.00  0.00     0.028 H 
ATOM     51  H   LIG d   1       0.722  -1.156  -9.728  0.00  0.00     0.028 H 
ATOM     52  H   LIG d   1       1.958  -2.064 -10.633  0.00  0.00     0.028 H 
ENDBRANCH  43  49
ENDBRANCH  40  42
ENDBRANCH   1  40
TORSDOF 8
ENDMDL
MODEL 7
REMARK VINA RESULT:      -5.9      3.605      6.244
REMARK  8 active torsions:
REMARK  status: ('A' for Active; 'I' for Inactive)
REMARK    1  A    between atoms: C_1  and  C_2 
REMARK    2  A    between atoms: C_6  and  C_7 
REMARK    3  A    between atoms: C_7  and  C_8 
REMARK    4  A    between atoms: C_15  and  C_18 
REMARK    5  A    between atoms: C_18  and  N_19 
REMARK    6  A    between atoms: N_22  and  C_25 
REMARK    7  A    between atoms: C_25  and  C_26 
REMARK    8  A    between atoms: C_26  and  O_27 
ROOT
ATOM      1  C   LIG d   1       3.448  -0.258  -6.734  0.00  0.00     0.177 A 
ATOM      2  C   LIG d   1       3.467   0.156  -5.375  0.00  0.00     0.232 A 
ATOM      3  O   LIG d   1       2.750   0.989  -4.845  0.00  0.00    -0.283 OA
ATOM      4  C   LIG d   1       4.537  -0.636  -4.745  0.00  0.00     0.068 A 
ATOM      5  C   LIG d   1       5.049  -0.698  -3.449  0.00  0.00    -0.048 A 
ATOM      6  C   LIG d   1       6.073  -1.557  -3.163  0.00  0.00    -0.068 A 
ATOM      7  C   LIG d   1       6.608  -2.368  -4.162  0.00  0.00    -0.097 A 
ATOM      8  C   LIG d   1       6.108  -2.316  -5.453  0.00  0.00     0.032 A 
ATOM      9  C   LIG d   1       5.068  -1.450  -5.759  0.00  0.00     0.147 A 
ATOM     10  O   LIG d   1       4.401  -1.204  -6.908  0.00  0.00    -0.451 OA
ATOM     11  O   LIG d   1       7.625  -3.216  -3.866  0.00  0.00    -0.873 OA
ATOM     12  H   LIG d   1       4.637  -0.071  -2.673  0.00  0.00     0.063 H 
ATOM     13  H   LIG d   1       6.470  -1.606  -2.160  0.00  0.00     0.061 H 
ENDROOT
BRANCH   8  14
ATOM     14  C   LIG d   1       6.695  -3.199  -6.524  0.00  0.00    -0.003 C 
ATOM     15  H   LIG d   1       7.223  -2.584  -7.253  0.00  0.00     0.087 H 
ATOM     16  H   LIG d   1       7.392  -3.905  -6.072  0.00  0.00     0.087 H 
BRANCH  14  17
ATOM     17  N   LIG d   1       5.617  -3.936  -7.196  0.00  0.00     0.240 N 
ATOM     18  C   LIG d   1       6.040  -4.288  -8.558  0.00  0.00    -0.018 C 
ATOM     19  C   LIG d   1       4.910  -5.040  -9.266  0.00  0.00     0.039 C 
ATOM     20  H   LIG d   1       6.273  -3.378  -9.113  0.00  0.00     0.083 H 
ATOM     21  H   LIG d   1       6.925  -4.923  -8.511  0.00  0.00     0.083 H 
ATOM     22  N   LIG d   1       4.585  -6.256  -8.506  0.00  0.00    -0.290 N 
ATOM     23  H   LIG d   1       5.229  -5.314 -10.271  0.00  0.00     0.048 H 
ATOM     24  H   LIG d   1       4.029  -4.401  -9.325  0.00  0.00     0.048 H 
ATOM     25  C   LIG d   1       4.183  -5.920  -7.132  0.00  0.00     0.039 C 
ATOM     26  C   LIG d   1       5.319  -5.161  -6.443  0.00  0.00    -0.018 C 
ATOM     27  H   LIG d   1       3.972  -6.838  -6.582  0.00  0.00     0.048 H 
ATOM     28  H   LIG d   1       3.290  -5.296  -7.157  0.00  0.00     0.048 H 
ATOM     29  H   LIG d   1       6.208  -5.791  -6.407  0.00  0.00     0.083 H 
ATOM     30  H   LIG d   1       5.018  -4.901  -5.428  0.00  0.00     0.083 H 
ATOM     31  H   LIG d   1       4.791  -3.359  -7.239  0.00  0.00     0.204 HD
BRANCH  22  32
ATOM     32  C   LIG d   1       3.540  -7.035  -9.184  0.00  0.00     0.022 C 
ATOM     33  H   LIG d   1       4.005  -7.778  -9.833  0.00  0.00     0.045 H 
ATOM     34  H   LIG d   1       2.921  -7.538  -8.442  0.00  0.00     0.045 H 
BRANCH  32  35
ATOM     35  C   LIG d   1       2.669  -6.099 -10.024  0.00  0.00     0.057 C 
ATOM     36  H   LIG d   1       3.152  -5.125 -10.103  0.00  0.00     0.057 H 
ATOM     37  H   LIG d   1       2.538  -6.521 -11.020  0.00  0.00     0.057 H 
BRANCH  35  38
ATOM     38  O   LIG d   1       1.392  -5.948  -9.401  0.00  0.00    -0.394 OA
ATOM     39  H   LIG d   1       1.199  -5.046  -9.113  0.00  0.00     0.209 HD
ENDBRANCH  35  38
ENDBRANCH  32  35
ENDBRANCH  22  32
ENDBRANCH  14  17
ENDBRANCH   8  14
BRANCH   1  40
ATOM     40  C   LIG d   1       2.609   0.214  -7.700  0.00  0.00    -0.002 C 
ATOM     41  H   LIG d   1       1.625   0.570  -7.434  0.00  0.00     0.067 H 
BRANCH  40  42
ATOM     42  C   LIG d   1       3.027   0.237  -9.050  0.00  0.00     0.019 A 
ATOM     43  C   LIG d   1       3.595   1.281  -9.775  0.00  0.00    -0.036 A 
ATOM     44  C   LIG d   1       3.904   0.996 -11.082  0.00  0.00    -0.051 A 
ATOM     45  C   LIG d   1       3.639  -0.242 -11.569  0.00  0.00    -0.024 A 
ATOM     46  H   LIG d   1       4.352   1.748 -11.715  0.00  0.00     0.063 H 
ATOM     47  S   LIG d   1       2.961  -1.062 -10.268  0.00  0.00    -0.097 SA
ATOM     48  H   LIG d   1       3.821  -0.616 -12.566  0.00  0.00     0.069 H 
BRANCH  43  49
ATOM     49  C   LIG d   1       3.861   2.633  -9.163  0.00  0.00    -0.039 C 
ATOM     50  H   LIG d   1       3.321   2.718  -8.221  0.00  0.00     0.028 H 
ATOM     51  H   LIG d   1       4.930   2.745  -8.982  0.00  0.00     0.028 H 
ATOM     52  H   LIG d   1       3.524   3.412  -9.847  0.00  0.00     0.028 H 
ENDBRANCH  43  49
ENDBRANCH  40  42
ENDBRANCH   1  40
TORSDOF 8
ENDMDL
MODEL 8
REMARK VINA RESULT:      -5.9      3.315      7.541
REMARK  8 active torsions:
REMARK  status: ('A' for Active; 'I' for Inactive)
REMARK    1  A    between atoms: C_1  and  C_2 
REMARK    2  A    between atoms: C_6  and  C_7 
REMARK    3  A    between atoms: C_7  and  C_8 
REMARK    4  A    between atoms: C_15  and  C_18 
REMARK    5  A    between atoms: C_18  and  N_19 
REMARK    6  A    between atoms: N_22  and  C_25 
REMARK    7  A    between atoms: C_25  and  C_26 
REMARK    8  A    between atoms: C_26  and  O_27 
ROOT
ATOM      1  C   LIG d   1       7.633   0.884  -4.388  0.00  0.00     0.177 A 
ATOM      2  C   LIG d   1       8.375   2.095  -4.334  0.00  0.00     0.232 A 
ATOM      3  O   LIG d   1       8.718   2.711  -3.338  0.00  0.00    -0.283 OA
ATOM      4  C   LIG d   1       8.641   2.447  -5.739  0.00  0.00     0.068 A 
ATOM      5  C   LIG d   1       9.311   3.505  -6.354  0.00  0.00    -0.048 A 
ATOM      6  C   LIG d   1       9.392   3.558  -7.718  0.00  0.00    -0.068 A 
ATOM      7  C   LIG d   1       8.806   2.561  -8.494  0.00  0.00    -0.097 A 
ATOM      8  C   LIG d   1       8.138   1.505  -7.896  0.00  0.00     0.032 A 
ATOM      9  C   LIG d   1       8.047   1.436  -6.513  0.00  0.00     0.147 A 
ATOM     10  O   LIG d   1       7.472   0.536  -5.686  0.00  0.00    -0.451 OA
ATOM     11  O   LIG d   1       8.892   2.625  -9.847  0.00  0.00    -0.873 OA
ATOM     12  H   LIG d   1       9.766   4.280  -5.755  0.00  0.00     0.063 H 
ATOM     13  H   LIG d   1       9.911   4.377  -8.194  0.00  0.00     0.061 H 
ENDROOT
BRANCH   8  14
ATOM     14  C   LIG d   1       7.509   0.433  -8.748  0.00  0.00    -0.003 C 
ATOM     15  H   LIG d   1       7.685   0.654  -9.801  0.00  0.00     0.087 H 
ATOM     16  H   LIG d   1       7.949  -0.533  -8.502  0.00  0.00     0.087 H 
BRANCH  14  17
ATOM     17  N   LIG d   1       6.063   0.391  -8.494  0.00  0.00     0.240 N 
ATOM     18  C   LIG d   1       5.358   1.127  -9.551  0.00  0.00    -0.018 C 
ATOM     19  C   LIG d   1       3.853   1.100  -9.277  0.00  0.00     0.039 C 
ATOM     20  H   LIG d   1       5.705   2.160  -9.569  0.00  0.00     0.083 H 
ATOM     21  H   LIG d   1       5.560   0.660 -10.516  0.00  0.00     0.083 H 
ATOM     22  N   LIG d   1       3.390  -0.295  -9.235  0.00  0.00    -0.290 N 
ATOM     23  H   LIG d   1       3.328   1.633 -10.070  0.00  0.00     0.048 H 
ATOM     24  H   LIG d   1       3.649   1.579  -8.319  0.00  0.00     0.048 H 
ATOM     25  C   LIG d   1       4.106  -1.051  -8.197  0.00  0.00     0.039 C 
ATOM     26  C   LIG d   1       5.609  -1.006  -8.481  0.00  0.00    -0.018 C 
ATOM     27  H   LIG d   1       3.765  -2.087  -8.202  0.00  0.00     0.048 H 
ATOM     28  H   LIG d   1       3.906  -0.607  -7.222  0.00  0.00     0.048 H 
ATOM     29  H   LIG d   1       5.809  -1.462  -9.450  0.00  0.00     0.083 H 
ATOM     30  H   LIG d   1       6.141  -1.555  -7.704  0.00  0.00     0.083 H 
ATOM     31  H   LIG d   1       5.866   0.816  -7.600  0.00  0.00     0.204 HD
BRANCH  22  32
ATOM     32  C   LIG d   1       1.938  -0.362  -9.028  0.00  0.00     0.022 C 
ATOM     33  H   LIG d   1       1.719  -1.041  -8.204  0.00  0.00     0.045 H 
ATOM     34  H   LIG d   1       1.557   0.632  -8.793  0.00  0.00     0.045 H 
BRANCH  32  35
ATOM     35  C   LIG d   1       1.265  -0.876 -10.303  0.00  0.00     0.057 C 
ATOM     36  H   LIG d   1       0.322  -0.350 -10.454  0.00  0.00     0.057 H 
ATOM     37  H   LIG d   1       1.920  -0.700 -11.156  0.00  0.00     0.057 H 
BRANCH  35  38
ATOM     38  O   LIG d   1       1.015  -2.277 -10.178  0.00  0.00    -0.394 OA
ATOM     39  H   LIG d   1       0.204  -2.491  -9.695  0.00  0.00     0.209 HD
ENDBRANCH  35  38
ENDBRANCH  32  35
ENDBRANCH  22  32
ENDBRANCH  14  17
ENDBRANCH   8  14
BRANCH   1  40
ATOM     40  C   LIG d   1       7.167   0.187  -3.312  0.00  0.00    -0.002 C 
ATOM     41  H   LIG d   1       7.741   0.155  -2.398  0.00  0.00     0.067 H 
BRANCH  40  42
ATOM     42  C   LIG d   1       5.932  -0.494  -3.393  0.00  0.00     0.019 A 
ATOM     43  C   LIG d   1       4.745  -0.245  -2.710  0.00  0.00    -0.036 A 
ATOM     44  C   LIG d   1       3.700  -1.084  -3.009  0.00  0.00    -0.051 A 
ATOM     45  C   LIG d   1       3.887  -2.074  -3.917  0.00  0.00    -0.024 A 
ATOM     46  H   LIG d   1       2.742  -0.958  -2.527  0.00  0.00     0.063 H 
ATOM     47  S   LIG d   1       5.487  -1.899  -4.397  0.00  0.00    -0.097 SA
ATOM     48  H   LIG d   1       3.170  -2.809  -4.255  0.00  0.00     0.069 H 
BRANCH  43  49
ATOM     49  C   LIG d   1       4.613   0.878  -1.713  0.00  0.00    -0.039 C 
ATOM     50  H   LIG d   1       5.603   1.244  -1.445  0.00  0.00     0.028 H 
ATOM     51  H   LIG d   1       4.032   1.688  -2.153  0.00  0.00     0.028 H 
ATOM     52  H   LIG d   1       4.106   0.511  -0.819  0.00  0.00     0.028 H 
ENDBRANCH  43  49
ENDBRANCH  40  42
ENDBRANCH   1  40
TORSDOF 8
ENDMDL
MODEL 9
REMARK VINA RESULT:      -5.9      7.174     11.255
REMARK  8 active torsions:
REMARK  status: ('A' for Active; 'I' for Inactive)
REMARK    1  A    between atoms: C_1  and  C_2 
REMARK    2  A    between atoms: C_6  and  C_7 
REMARK    3  A    between atoms: C_7  and  C_8 
REMARK    4  A    between atoms: C_15  and  C_18 
REMARK    5  A    between atoms: C_18  and  N_19 
REMARK    6  A    between atoms: N_22  and  C_25 
REMARK    7  A    between atoms: C_25  and  C_26 
REMARK    8  A    between atoms: C_26  and  O_27 
ROOT
ATOM      1  C   LIG d   1      10.470   6.190  -1.265  0.00  0.00     0.177 A 
ATOM      2  C   LIG d   1      11.343   6.423  -0.169  0.00  0.00     0.232 A 
ATOM      3  O   LIG d   1      12.072   5.614   0.382  0.00  0.00    -0.283 OA
ATOM      4  C   LIG d   1      11.179   7.849   0.160  0.00  0.00     0.068 A 
ATOM      5  C   LIG d   1      11.746   8.685   1.122  0.00  0.00    -0.048 A 
ATOM      6  C   LIG d   1      11.382  10.001   1.179  0.00  0.00    -0.068 A 
ATOM      7  C   LIG d   1      10.447  10.510   0.282  0.00  0.00    -0.097 A 
ATOM      8  C   LIG d   1       9.876   9.691  -0.680  0.00  0.00     0.032 A 
ATOM      9  C   LIG d   1      10.235   8.352  -0.751  0.00  0.00     0.147 A 
ATOM     10  O   LIG d   1       9.848   7.353  -1.573  0.00  0.00    -0.451 OA
ATOM     11  O   LIG d   1      10.093  11.818   0.349  0.00  0.00    -0.873 OA
ATOM     12  H   LIG d   1      12.472   8.293   1.820  0.00  0.00     0.063 H 
ATOM     13  H   LIG d   1      11.822  10.648   1.924  0.00  0.00     0.061 H 
ENDROOT
BRANCH   8  14
ATOM     14  C   LIG d   1       8.865  10.254  -1.645  0.00  0.00    -0.003 C 
ATOM     15  H   LIG d   1       8.379   9.438  -2.180  0.00  0.00     0.087 H 
ATOM     16  H   LIG d   1       8.116  10.824  -1.096  0.00  0.00     0.087 H 
BRANCH  14  17
ATOM     17  N   LIG d   1       9.543  11.133  -2.606  0.00  0.00     0.240 N 
ATOM     18  C   LIG d   1      10.012  10.339  -3.750  0.00  0.00    -0.018 C 
ATOM     19  C   LIG d   1      10.735  11.251  -4.743  0.00  0.00     0.039 C 
ATOM     20  H   LIG d   1      10.698   9.568  -3.400  0.00  0.00     0.083 H 
ATOM     21  H   LIG d   1       9.158   9.871  -4.241  0.00  0.00     0.083 H 
ATOM     22  N   LIG d   1       9.813  12.302  -5.199  0.00  0.00    -0.290 N 
ATOM     23  H   LIG d   1      11.069  10.665  -5.599  0.00  0.00     0.048 H 
ATOM     24  H   LIG d   1      11.596  11.709  -4.257  0.00  0.00     0.048 H 
ATOM     25  C   LIG d   1       9.316  13.089  -4.062  0.00  0.00     0.039 C 
ATOM     26  C   LIG d   1       8.605  12.162  -3.074  0.00  0.00    -0.018 C 
ATOM     27  H   LIG d   1       8.616  13.845  -4.422  0.00  0.00     0.048 H 
ATOM     28  H   LIG d   1      10.154  13.578  -3.565  0.00  0.00     0.048 H 
ATOM     29  H   LIG d   1       7.759  11.685  -3.569  0.00  0.00     0.083 H 
ATOM     30  H   LIG d   1       8.248  12.742  -2.224  0.00  0.00     0.083 H 
ATOM     31  H   LIG d   1      10.331  11.576  -2.159  0.00  0.00     0.204 HD
BRANCH  22  32
ATOM     32  C   LIG d   1      10.454  13.167  -6.198  0.00  0.00     0.022 C 
ATOM     33  H   LIG d   1      10.036  14.171  -6.132  0.00  0.00     0.045 H 
ATOM     34  H   LIG d   1      11.527  13.207  -6.012  0.00  0.00     0.045 H 
BRANCH  32  35
ATOM     35  C   LIG d   1      10.202  12.603  -7.598  0.00  0.00     0.057 C 
ATOM     36  H   LIG d   1      10.833  13.122  -8.319  0.00  0.00     0.057 H 
ATOM     37  H   LIG d   1      10.438  11.539  -7.609  0.00  0.00     0.057 H 
BRANCH  35  38
ATOM     38  O   LIG d   1       8.829  12.788  -7.947  0.00  0.00    -0.394 OA
ATOM     39  H   LIG d   1       8.673  12.885  -8.896  0.00  0.00     0.209 HD
ENDBRANCH  35  38
ENDBRANCH  32  35
ENDBRANCH  22  32
ENDBRANCH  14  17
ENDBRANCH   8  14
BRANCH   1  40
ATOM     40  C   LIG d   1      10.293   4.998  -1.904  0.00  0.00    -0.002 C 
ATOM     41  H   LIG d   1      10.273   4.079  -1.338  0.00  0.00     0.067 H 
BRANCH  40  42
ATOM     42  C   LIG d   1      10.135   4.965  -3.308  0.00  0.00     0.019 A 
ATOM     43  C   LIG d   1       9.609   3.955  -4.109  0.00  0.00    -0.036 A 
ATOM     44  C   LIG d   1       9.580   4.220  -5.456  0.00  0.00    -0.051 A 
ATOM     45  C   LIG d   1      10.056   5.408  -5.905  0.00  0.00    -0.024 A 
ATOM     46  H   LIG d   1       9.186   3.492  -6.148  0.00  0.00     0.063 H 
ATOM     47  S   LIG d   1      10.558   6.207  -4.515  0.00  0.00    -0.097 SA
ATOM     48  H   LIG d   1      10.103   5.761  -6.926  0.00  0.00     0.069 H 
BRANCH  43  49
ATOM     49  C   LIG d   1       9.098   2.659  -3.534  0.00  0.00    -0.039 C 
ATOM     50  H   LIG d   1       9.544   1.823  -4.072  0.00  0.00     0.028 H 
ATOM     51  H   LIG d   1       9.367   2.598  -2.480  0.00  0.00     0.028 H 
ATOM     52  H   LIG d   1       8.013   2.620  -3.636  0.00  0.00     0.028 H 
ENDBRANCH  43  49
ENDBRANCH  40  42
ENDBRANCH   1  40
TORSDOF 8
ENDMDL
MODEL 10
REMARK VINA RESULT:      -5.8      4.730      9.178
REMARK  8 active torsions:
REMARK  status: ('A' for Active; 'I' for Inactive)
REMARK    1  A    between atoms: C_1  and  C_2 
REMARK    2  A    between atoms: C_6  and  C_7 
REMARK    3  A    between atoms: C_7  and  C_8 
REMARK    4  A    between atoms: C_15  and  C_18 
REMARK    5  A    between atoms: C_18  and  N_19 
REMARK    6  A    between atoms: N_22  and  C_25 
REMARK    7  A    between atoms: C_25  and  C_26 
REMARK    8  A    between atoms: C_26  and  O_27 
ROOT
ATOM      1  C   LIG d   1       4.231  -1.719  -5.901  0.00  0.00     0.177 A 
ATOM      2  C   LIG d   1       3.840  -0.354  -5.886  0.00  0.00     0.232 A 
ATOM      3  O   LIG d   1       3.800   0.395  -4.924  0.00  0.00    -0.283 OA
ATOM      4  C   LIG d   1       3.493  -0.036  -7.282  0.00  0.00     0.068 A 
ATOM      5  C   LIG d   1       3.041   1.119  -7.921  0.00  0.00    -0.048 A 
ATOM      6  C   LIG d   1       2.800   1.102  -9.266  0.00  0.00    -0.068 A 
ATOM      7  C   LIG d   1       3.000  -0.064 -10.000  0.00  0.00    -0.097 A 
ATOM      8  C   LIG d   1       3.449  -1.219  -9.378  0.00  0.00     0.032 A 
ATOM      9  C   LIG d   1       3.699  -1.218  -8.013  0.00  0.00     0.147 A 
ATOM     10  O   LIG d   1       4.137  -2.179  -7.172  0.00  0.00    -0.451 OA
ATOM     11  O   LIG d   1       2.756  -0.069 -11.335  0.00  0.00    -0.873 OA
ATOM     12  H   LIG d   1       2.884   2.025  -7.354  0.00  0.00     0.063 H 
ATOM     13  H   LIG d   1       2.451   1.997  -9.760  0.00  0.00     0.061 H 
ENDROOT
BRANCH   8  14
ATOM     14  C   LIG d   1       3.662  -2.474 -10.184  0.00  0.00    -0.003 C 
ATOM     15  H   LIG d   1       3.643  -2.232 -11.247  0.00  0.00     0.087 H 
ATOM     16  H   LIG d   1       4.628  -2.910  -9.930  0.00  0.00     0.087 H 
BRANCH  14  17
ATOM     17  N   LIG d   1       2.595  -3.437  -9.882  0.00  0.00     0.240 N 
ATOM     18  C   LIG d   1       1.447  -3.187 -10.765  0.00  0.00    -0.018 C 
ATOM     19  C   LIG d   1       0.328  -4.178 -10.438  0.00  0.00     0.039 C 
ATOM     20  H   LIG d   1       1.087  -2.170 -10.614  0.00  0.00     0.083 H 
ATOM     21  H   LIG d   1       1.753  -3.315 -11.804  0.00  0.00     0.083 H 
ATOM     22  N   LIG d   1       0.822  -5.550 -10.624  0.00  0.00    -0.290 N 
ATOM     23  H   LIG d   1      -0.519  -4.003 -11.103  0.00  0.00     0.048 H 
ATOM     24  H   LIG d   1       0.012  -4.043  -9.404  0.00  0.00     0.048 H 
ATOM     25  C   LIG d   1       1.987  -5.806  -9.765  0.00  0.00     0.039 C 
ATOM     26  C   LIG d   1       3.093  -4.802 -10.097  0.00  0.00    -0.018 C 
ATOM     27  H   LIG d   1       2.351  -6.820  -9.939  0.00  0.00     0.048 H 
ATOM     28  H   LIG d   1       1.698  -5.697  -8.720  0.00  0.00     0.048 H 
ATOM     29  H   LIG d   1       3.390  -4.921 -11.139  0.00  0.00     0.083 H 
ATOM     30  H   LIG d   1       3.952  -4.982  -9.452  0.00  0.00     0.083 H 
ATOM     31  H   LIG d   1       2.309  -3.331  -8.921  0.00  0.00     0.204 HD
BRANCH  22  32
ATOM     32  C   LIG d   1      -0.242  -6.531 -10.374  0.00  0.00     0.022 C 
ATOM     33  H   LIG d   1      -0.610  -6.920 -11.324  0.00  0.00     0.045 H 
ATOM     34  H   LIG d   1       0.151  -7.351  -9.773  0.00  0.00     0.045 H 
BRANCH  32  35
ATOM     35  C   LIG d   1      -1.392  -5.856  -9.623  0.00  0.00     0.057 C 
ATOM     36  H   LIG d   1      -1.222  -4.780  -9.589  0.00  0.00     0.057 H 
ATOM     37  H   LIG d   1      -2.331  -6.059 -10.138  0.00  0.00     0.057 H 
BRANCH  35  38
ATOM     38  O   LIG d   1      -1.459  -6.370  -8.292  0.00  0.00    -0.394 OA
ATOM     39  H   LIG d   1      -0.627  -6.308  -7.803  0.00  0.00     0.209 HD
ENDBRANCH  35  38
ENDBRANCH  32  35
ENDBRANCH  22  32
ENDBRANCH  14  17
ENDBRANCH   8  14
BRANCH   1  40
ATOM     40  C   LIG d   1       4.638  -2.444  -4.820  0.00  0.00    -0.002 C 
ATOM     41  H   LIG d   1       4.023  -2.484  -3.933  0.00  0.00     0.067 H 
BRANCH  40  42
ATOM     42  C   LIG d   1       5.866  -3.143  -4.859  0.00  0.00     0.019 A 
ATOM     43  C   LIG d   1       6.125  -4.438  -5.300  0.00  0.00    -0.036 A 
ATOM     44  C   LIG d   1       7.434  -4.842  -5.219  0.00  0.00    -0.051 A 
ATOM     45  C   LIG d   1       8.361  -3.982  -4.727  0.00  0.00    -0.024 A 
ATOM     46  H   LIG d   1       7.723  -5.830  -5.543  0.00  0.00     0.063 H 
ATOM     47  S   LIG d   1       7.486  -2.597  -4.356  0.00  0.00    -0.097 SA
ATOM     48  H   LIG d   1       9.421  -4.150  -4.600  0.00  0.00     0.069 H 
BRANCH  43  49
ATOM     49  C   LIG d   1       5.039  -5.336  -5.836  0.00  0.00    -0.039 C 
ATOM     50  H   LIG d   1       4.990  -5.239  -6.920  0.00  0.00     0.028 H 
ATOM     51  H   LIG d   1       5.261  -6.371  -5.573  0.00  0.00     0.028 H 
ATOM     52  H   LIG d   1       4.082  -5.048  -5.401  0.00  0.00     0.028 H 
ENDBRANCH  43  49
ENDBRANCH  40  42
ENDBRANCH   1  40
TORSDOF 8
ENDMDL
