MODEL 1
REMARK VINA RESULT:      -4.9      0.000      0.000
REMARK  1 active torsions:
REMARK  status: ('A' for Active; 'I' for Inactive)
REMARK    1  A    between atoms: C_3  and  N_9 
ROOT
ATOM      1  C   LIG d   1       5.565  -1.884  -4.819  0.00  0.00    -0.038 A 
ATOM      2  C   LIG d   1       5.724  -0.647  -4.231  0.00  0.00     0.017 A 
ATOM      3  C   LIG d   1       5.106  -0.366  -3.025  0.00  0.00     0.273 A 
ATOM      4  C   LIG d   1       4.325  -1.323  -2.401  0.00  0.00     0.017 A 
ATOM      5  C   LIG d   1       4.158  -2.564  -2.979  0.00  0.00    -0.038 A 
ATOM      6  C   LIG d   1       4.777  -2.854  -4.196  0.00  0.00     0.052 A 
ATOM      7  C   LIG d   1       4.607  -4.140  -4.802  0.00  0.00     0.099 C 
ATOM      8  N   LIG d   1       4.472  -5.160  -5.282  0.00  0.00    -0.191 NA
ATOM      9  H   LIG d   1       6.044  -2.100  -5.763  0.00  0.00     0.063 H 
ATOM     10  H   LIG d   1       6.333   0.104  -4.712  0.00  0.00     0.069 H 
ATOM     11  H   LIG d   1       3.845  -1.097  -1.460  0.00  0.00     0.069 H 
ATOM     12  H   LIG d   1       3.548  -3.310  -2.490  0.00  0.00     0.063 H 
ENDROOT
BRANCH   3  13
ATOM     13  N   LIG d   1       5.282   0.964  -2.399  0.00  0.00     0.080 N 
ATOM     14  O   LIG d   1       4.780   1.197  -1.314  0.00  0.00     0.041 OA
ATOM     15  O   LIG d   1       5.930   1.824  -2.969  0.00  0.00    -0.576 OA
ENDBRANCH   3  13
TORSDOF 1
ENDMDL
MODEL 2
REMARK VINA RESULT:      -4.6      3.128      3.462
REMARK  1 active torsions:
REMARK  status: ('A' for Active; 'I' for Inactive)
REMARK    1  A    between atoms: C_3  and  N_9 
ROOT
ATOM      1  C   LIG d   1       4.365  -0.765  -5.836  0.00  0.00    -0.038 A 
ATOM      2  C   LIG d   1       4.736  -0.843  -4.510  0.00  0.00     0.017 A 
ATOM      3  C   LIG d   1       3.973  -0.222  -3.537  0.00  0.00     0.273 A 
ATOM      4  C   LIG d   1       2.834   0.481  -3.886  0.00  0.00     0.017 A 
ATOM      5  C   LIG d   1       2.451   0.568  -5.208  0.00  0.00    -0.038 A 
ATOM      6  C   LIG d   1       3.217  -0.055  -6.196  0.00  0.00     0.052 A 
ATOM      7  C   LIG d   1       2.827   0.032  -7.570  0.00  0.00     0.099 C 
ATOM      8  N   LIG d   1       2.516   0.101  -8.661  0.00  0.00    -0.191 NA
ATOM      9  H   LIG d   1       4.964  -1.246  -6.596  0.00  0.00     0.063 H 
ATOM     10  H   LIG d   1       5.623  -1.391  -4.231  0.00  0.00     0.069 H 
ATOM     11  H   LIG d   1       2.243   0.964  -3.121  0.00  0.00     0.069 H 
ATOM     12  H   LIG d   1       1.562   1.117  -5.479  0.00  0.00     0.063 H 
ENDROOT
BRANCH   3  13
ATOM     13  N   LIG d   1       4.377  -0.312  -2.116  0.00  0.00     0.080 N 
ATOM     14  O   LIG d   1       4.477  -1.401  -1.579  0.00  0.00     0.041 OA
ATOM     15  O   LIG d   1       4.611   0.703  -1.484  0.00  0.00    -0.576 OA
ENDBRANCH   3  13
TORSDOF 1
ENDMDL
MODEL 3
REMARK VINA RESULT:      -4.5      2.816      4.456
REMARK  1 active torsions:
REMARK  status: ('A' for Active; 'I' for Inactive)
REMARK    1  A    between atoms: C_3  and  N_9 
ROOT
ATOM      1  C   LIG d   1       6.971  -0.575  -3.763  0.00  0.00    -0.038 A 
ATOM      2  C   LIG d   1       5.834  -1.317  -3.522  0.00  0.00     0.017 A 
ATOM      3  C   LIG d   1       4.699  -0.708  -3.017  0.00  0.00     0.273 A 
ATOM      4  C   LIG d   1       4.697   0.650  -2.751  0.00  0.00     0.017 A 
ATOM      5  C   LIG d   1       5.826   1.405  -2.986  0.00  0.00    -0.038 A 
ATOM      6  C   LIG d   1       6.976   0.796  -3.495  0.00  0.00     0.052 A 
ATOM      7  C   LIG d   1       8.153   1.573  -3.741  0.00  0.00     0.099 C 
ATOM      8  N   LIG d   1       9.086   2.190  -3.936  0.00  0.00    -0.191 NA
ATOM      9  H   LIG d   1       7.858  -1.053  -4.153  0.00  0.00     0.063 H 
ATOM     10  H   LIG d   1       5.830  -2.377  -3.729  0.00  0.00     0.069 H 
ATOM     11  H   LIG d   1       3.807   1.120  -2.356  0.00  0.00     0.069 H 
ATOM     12  H   LIG d   1       5.823   2.465  -2.778  0.00  0.00     0.063 H 
ENDROOT
BRANCH   3  13
ATOM     13  N   LIG d   1       3.483  -1.511  -2.762  0.00  0.00     0.080 N 
ATOM     14  O   LIG d   1       3.584  -2.658  -2.366  0.00  0.00     0.041 OA
ATOM     15  O   LIG d   1       2.382  -1.024  -2.948  0.00  0.00    -0.576 OA
ENDBRANCH   3  13
TORSDOF 1
ENDMDL
MODEL 4
REMARK VINA RESULT:      -4.4      3.174      4.772
REMARK  1 active torsions:
REMARK  status: ('A' for Active; 'I' for Inactive)
REMARK    1  A    between atoms: C_3  and  N_9 
ROOT
ATOM      1  C   LIG d   1       6.181  -1.036  -3.440  0.00  0.00    -0.038 A 
ATOM      2  C   LIG d   1       6.296  -2.197  -4.176  0.00  0.00     0.017 A 
ATOM      3  C   LIG d   1       5.240  -3.089  -4.238  0.00  0.00     0.273 A 
ATOM      4  C   LIG d   1       4.062  -2.823  -3.562  0.00  0.00     0.017 A 
ATOM      5  C   LIG d   1       3.933  -1.666  -2.822  0.00  0.00    -0.038 A 
ATOM      6  C   LIG d   1       4.995  -0.762  -2.755  0.00  0.00     0.052 A 
ATOM      7  C   LIG d   1       4.870   0.440  -1.988  0.00  0.00     0.099 C 
ATOM      8  N   LIG d   1       4.769   1.394  -1.380  0.00  0.00    -0.191 NA
ATOM      9  H   LIG d   1       7.008  -0.343  -3.389  0.00  0.00     0.063 H 
ATOM     10  H   LIG d   1       7.212  -2.410  -4.706  0.00  0.00     0.069 H 
ATOM     11  H   LIG d   1       3.241  -3.523  -3.614  0.00  0.00     0.069 H 
ATOM     12  H   LIG d   1       3.013  -1.459  -2.296  0.00  0.00     0.063 H 
ENDROOT
BRANCH   3  13
ATOM     13  N   LIG d   1       5.370  -4.332  -5.030  0.00  0.00     0.080 N 
ATOM     14  O   LIG d   1       4.418  -5.082  -5.146  0.00  0.00     0.041 OA
ATOM     15  O   LIG d   1       6.430  -4.603  -5.567  0.00  0.00    -0.576 OA
ENDBRANCH   3  13
TORSDOF 1
ENDMDL
MODEL 5
REMARK VINA RESULT:      -4.3      3.986      4.553
REMARK  1 active torsions:
REMARK  status: ('A' for Active; 'I' for Inactive)
REMARK    1  A    between atoms: C_3  and  N_9 
ROOT
ATOM      1  C   LIG d   1       4.475  -1.167  -5.183  0.00  0.00    -0.038 A 
ATOM      2  C   LIG d   1       4.173  -0.618  -6.412  0.00  0.00     0.017 A 
ATOM      3  C   LIG d   1       3.122   0.275  -6.535  0.00  0.00     0.273 A 
ATOM      4  C   LIG d   1       2.368   0.621  -5.428  0.00  0.00     0.017 A 
ATOM      5  C   LIG d   1       2.658   0.079  -4.194  0.00  0.00    -0.038 A 
ATOM      6  C   LIG d   1       3.717  -0.822  -4.062  0.00  0.00     0.052 A 
ATOM      7  C   LIG d   1       4.023  -1.390  -2.784  0.00  0.00     0.099 C 
ATOM      8  N   LIG d   1       4.267  -1.840  -1.770  0.00  0.00    -0.191 NA
ATOM      9  H   LIG d   1       5.292  -1.867  -5.089  0.00  0.00     0.063 H 
ATOM     10  H   LIG d   1       4.758  -0.883  -7.279  0.00  0.00     0.069 H 
ATOM     11  H   LIG d   1       1.549   1.318  -5.531  0.00  0.00     0.069 H 
ATOM     12  H   LIG d   1       2.069   0.352  -3.331  0.00  0.00     0.063 H 
ENDROOT
BRANCH   3  13
ATOM     13  N   LIG d   1       2.805   0.861  -7.856  0.00  0.00     0.080 N 
ATOM     14  O   LIG d   1       3.014   2.042  -8.064  0.00  0.00     0.041 OA
ATOM     15  O   LIG d   1       2.336   0.161  -8.736  0.00  0.00    -0.576 OA
ENDBRANCH   3  13
TORSDOF 1
ENDMDL
MODEL 6
REMARK VINA RESULT:      -4.2      1.710      2.201
REMARK  1 active torsions:
REMARK  status: ('A' for Active; 'I' for Inactive)
REMARK    1  A    between atoms: C_3  and  N_9 
ROOT
ATOM      1  C   LIG d   1       4.916  -3.068  -4.194  0.00  0.00    -0.038 A 
ATOM      2  C   LIG d   1       4.214  -2.082  -3.534  0.00  0.00     0.017 A 
ATOM      3  C   LIG d   1       4.881  -1.000  -2.986  0.00  0.00     0.273 A 
ATOM      4  C   LIG d   1       6.257  -0.901  -3.095  0.00  0.00     0.017 A 
ATOM      5  C   LIG d   1       6.972  -1.880  -3.752  0.00  0.00    -0.038 A 
ATOM      6  C   LIG d   1       6.306  -2.974  -4.307  0.00  0.00     0.052 A 
ATOM      7  C   LIG d   1       7.042  -3.995  -4.989  0.00  0.00     0.099 C 
ATOM      8  N   LIG d   1       7.626  -4.804  -5.531  0.00  0.00    -0.191 NA
ATOM      9  H   LIG d   1       4.395  -3.914  -4.618  0.00  0.00     0.063 H 
ATOM     10  H   LIG d   1       3.140  -2.153  -3.446  0.00  0.00     0.069 H 
ATOM     11  H   LIG d   1       6.772  -0.054  -2.664  0.00  0.00     0.069 H 
ATOM     12  H   LIG d   1       8.046  -1.801  -3.837  0.00  0.00     0.063 H 
ENDROOT
BRANCH   3  13
ATOM     13  N   LIG d   1       4.120   0.055  -2.280  0.00  0.00     0.080 N 
ATOM     14  O   LIG d   1       4.660   0.719  -1.414  0.00  0.00     0.041 OA
ATOM     15  O   LIG d   1       2.953   0.258  -2.565  0.00  0.00    -0.576 OA
ENDBRANCH   3  13
TORSDOF 1
ENDMDL
MODEL 7
REMARK VINA RESULT:      -4.2      1.204      1.519
REMARK  1 active torsions:
REMARK  status: ('A' for Active; 'I' for Inactive)
REMARK    1  A    between atoms: C_3  and  N_9 
ROOT
ATOM      1  C   LIG d   1       7.019  -2.100  -4.093  0.00  0.00    -0.038 A 
ATOM      2  C   LIG d   1       6.715  -0.939  -3.412  0.00  0.00     0.017 A 
ATOM      3  C   LIG d   1       5.416  -0.691  -3.005  0.00  0.00     0.273 A 
ATOM      4  C   LIG d   1       4.413  -1.605  -3.278  0.00  0.00     0.017 A 
ATOM      5  C   LIG d   1       4.702  -2.769  -3.958  0.00  0.00    -0.038 A 
ATOM      6  C   LIG d   1       6.011  -3.026  -4.373  0.00  0.00     0.052 A 
ATOM      7  C   LIG d   1       6.318  -4.231  -5.080  0.00  0.00     0.099 C 
ATOM      8  N   LIG d   1       6.562  -5.188  -5.641  0.00  0.00    -0.191 NA
ATOM      9  H   LIG d   1       8.033  -2.290  -4.414  0.00  0.00     0.063 H 
ATOM     10  H   LIG d   1       7.493  -0.223  -3.195  0.00  0.00     0.069 H 
ATOM     11  H   LIG d   1       3.401  -1.405  -2.958  0.00  0.00     0.069 H 
ATOM     12  H   LIG d   1       3.918  -3.481  -4.170  0.00  0.00     0.063 H 
ENDROOT
BRANCH   3  13
ATOM     13  N   LIG d   1       5.098   0.556  -2.274  0.00  0.00     0.080 N 
ATOM     14  O   LIG d   1       5.744   1.567  -2.486  0.00  0.00     0.041 OA
ATOM     15  O   LIG d   1       4.190   0.571  -1.462  0.00  0.00    -0.576 OA
ENDBRANCH   3  13
TORSDOF 1
ENDMDL
MODEL 8
REMARK VINA RESULT:      -4.0      9.580     10.488
REMARK  1 active torsions:
REMARK  status: ('A' for Active; 'I' for Inactive)
REMARK    1  A    between atoms: C_3  and  N_9 
ROOT
ATOM      1  C   LIG d   1       9.839   7.912  -1.828  0.00  0.00    -0.038 A 
ATOM      2  C   LIG d   1      10.260   8.038  -0.521  0.00  0.00     0.017 A 
ATOM      3  C   LIG d   1      10.735   6.934   0.166  0.00  0.00     0.273 A 
ATOM      4  C   LIG d   1      10.790   5.698  -0.453  0.00  0.00     0.017 A 
ATOM      5  C   LIG d   1      10.372   5.558  -1.759  0.00  0.00    -0.038 A 
ATOM      6  C   LIG d   1       9.891   6.666  -2.459  0.00  0.00     0.052 A 
ATOM      7  C   LIG d   1       9.454   6.528  -3.814  0.00  0.00     0.099 C 
ATOM      8  N   LIG d   1       9.108   6.418  -4.891  0.00  0.00    -0.191 NA
ATOM      9  H   LIG d   1       9.464   8.773  -2.362  0.00  0.00     0.063 H 
ATOM     10  H   LIG d   1      10.220   9.000  -0.033  0.00  0.00     0.069 H 
ATOM     11  H   LIG d   1      11.161   4.840   0.089  0.00  0.00     0.069 H 
ATOM     12  H   LIG d   1      10.416   4.592  -2.241  0.00  0.00     0.063 H 
ENDROOT
BRANCH   3  13
ATOM     13  N   LIG d   1      11.186   7.078   1.568  0.00  0.00     0.080 N 
ATOM     14  O   LIG d   1      11.610   8.148   1.965  0.00  0.00     0.041 OA
ATOM     15  O   LIG d   1      11.131   6.125   2.326  0.00  0.00    -0.576 OA
ENDBRANCH   3  13
TORSDOF 1
ENDMDL
MODEL 9
REMARK VINA RESULT:      -4.0      2.477      3.101
REMARK  1 active torsions:
REMARK  status: ('A' for Active; 'I' for Inactive)
REMARK    1  A    between atoms: C_3  and  N_9 
ROOT
ATOM      1  C   LIG d   1       7.952   0.290  -4.400  0.00  0.00    -0.038 A 
ATOM      2  C   LIG d   1       6.990   1.052  -3.772  0.00  0.00     0.017 A 
ATOM      3  C   LIG d   1       5.916   0.441  -3.149  0.00  0.00     0.273 A 
ATOM      4  C   LIG d   1       5.799  -0.938  -3.152  0.00  0.00     0.017 A 
ATOM      5  C   LIG d   1       6.754  -1.713  -3.777  0.00  0.00    -0.038 A 
ATOM      6  C   LIG d   1       7.840  -1.103  -4.408  0.00  0.00     0.052 A 
ATOM      7  C   LIG d   1       8.834  -1.900  -5.060  0.00  0.00     0.099 C 
ATOM      8  N   LIG d   1       9.623  -2.533  -5.576  0.00  0.00    -0.191 NA
ATOM      9  H   LIG d   1       8.788   0.768  -4.890  0.00  0.00     0.063 H 
ATOM     10  H   LIG d   1       7.075   2.128  -3.765  0.00  0.00     0.069 H 
ATOM     11  H   LIG d   1       4.958  -1.409  -2.664  0.00  0.00     0.069 H 
ATOM     12  H   LIG d   1       6.662  -2.789  -3.778  0.00  0.00     0.063 H 
ENDROOT
BRANCH   3  13
ATOM     13  N   LIG d   1       4.887   1.266  -2.476  0.00  0.00     0.080 N 
ATOM     14  O   LIG d   1       4.172   2.001  -3.132  0.00  0.00     0.041 OA
ATOM     15  O   LIG d   1       4.756   1.208  -1.266  0.00  0.00    -0.576 OA
ENDBRANCH   3  13
TORSDOF 1
ENDMDL
MODEL 10
REMARK VINA RESULT:      -4.0      7.109      7.621
REMARK  1 active torsions:
REMARK  status: ('A' for Active; 'I' for Inactive)
REMARK    1  A    between atoms: C_3  and  N_9 
ROOT
ATOM      1  C   LIG d   1       3.630  -0.070 -11.894  0.00  0.00    -0.038 A 
ATOM      2  C   LIG d   1       3.976   0.897 -10.972  0.00  0.00     0.017 A 
ATOM      3  C   LIG d   1       3.230   1.055  -9.817  0.00  0.00     0.273 A 
ATOM      4  C   LIG d   1       2.134   0.245  -9.578  0.00  0.00     0.017 A 
ATOM      5  C   LIG d   1       1.777  -0.725 -10.490  0.00  0.00    -0.038 A 
ATOM      6  C   LIG d   1       2.523  -0.890 -11.659  0.00  0.00     0.052 A 
ATOM      7  C   LIG d   1       2.158  -1.894 -12.611  0.00  0.00     0.099 C 
ATOM      8  N   LIG d   1       1.867  -2.691 -13.366  0.00  0.00    -0.191 NA
ATOM      9  H   LIG d   1       4.209  -0.189 -12.797  0.00  0.00     0.063 H 
ATOM     10  H   LIG d   1       4.830   1.531 -11.153  0.00  0.00     0.069 H 
ATOM     11  H   LIG d   1       1.556   0.374  -8.674  0.00  0.00     0.069 H 
ATOM     12  H   LIG d   1       0.921  -1.357 -10.301  0.00  0.00     0.063 H 
ENDROOT
BRANCH   3  13
ATOM     13  N   LIG d   1       3.608   2.094  -8.833  0.00  0.00     0.080 N 
ATOM     14  O   LIG d   1       4.643   2.721  -8.977  0.00  0.00     0.041 OA
ATOM     15  O   LIG d   1       2.884   2.322  -7.880  0.00  0.00    -0.576 OA
ENDBRANCH   3  13
TORSDOF 1
ENDMDL
