MODEL 1
REMARK VINA RESULT:      -6.0      0.000      0.000
REMARK  10 active torsions:
REMARK  status: ('A' for Active; 'I' for Inactive)
REMARK    1  A    between atoms: C_1  and  C_2 
REMARK    2  A    between atoms: C_2  and  C_4 
REMARK    3  A    between atoms: C_2  and  C_10 
REMARK    4  A    between atoms: C_4  and  C_5 
REMARK    5  A    between atoms: C_5  and  C_6 
REMARK    6  A    between atoms: C_7  and  C_8 
REMARK    7  A    between atoms: C_7  and  C_9 
REMARK    8  A    between atoms: C_16  and  C_34 
REMARK    9  A    between atoms: C_26  and  C_33 
REMARK   10  A    between atoms: C_29  and  O_32 
ROOT
ATOM      1  C   LIG d   1       6.622  -2.027  -5.601  0.00  0.00    -0.033 C 
ATOM      2  H   LIG d   1       7.613  -1.934  -6.046  0.00  0.00     0.031 H 
ATOM      3  C   LIG d   1       6.380  -3.483  -5.132  0.00  0.00    -0.049 C 
ATOM      4  C   LIG d   1       5.214  -4.036  -5.998  0.00  0.00    -0.049 C 
ATOM      5  C   LIG d   1       5.278  -3.161  -7.255  0.00  0.00    -0.032 C 
ATOM      6  H   LIG d   1       6.112  -3.466  -7.888  0.00  0.00     0.031 H 
ATOM      7  C   LIG d   1       5.546  -1.757  -6.649  0.00  0.00    -0.026 C 
ATOM      8  C   LIG d   1       5.934  -0.843  -7.795  0.00  0.00    -0.047 C 
ATOM      9  C   LIG d   1       4.708  -0.723  -8.713  0.00  0.00    -0.049 C 
ATOM     10  C   LIG d   1       4.241  -2.087  -9.215  0.00  0.00    -0.029 C 
ATOM     11  H   LIG d   1       5.023  -2.505  -9.849  0.00  0.00     0.031 H 
ATOM     12  C   LIG d   1       3.994  -3.066  -8.060  0.00  0.00    -0.031 C 
ATOM     13  H   LIG d   1       3.180  -2.710  -7.430  0.00  0.00     0.031 H 
ATOM     14  C   LIG d   1       3.664  -4.439  -8.659  0.00  0.00    -0.031 C 
ATOM     15  C   LIG d   1       2.493  -4.303  -9.588  0.00  0.00    -0.084 C 
ATOM     16  C   LIG d   1       2.209  -3.198 -10.216  0.00  0.00    -0.065 C 
ATOM     17  C   LIG d   1       2.983  -1.923 -10.052  0.00  0.00    -0.008 C 
ATOM     18  C   LIG d   1       3.343  -1.381 -11.438  0.00  0.00    -0.041 C 
ATOM     19  C   LIG d   1       2.091  -1.234 -12.281  0.00  0.00    -0.026 C 
ATOM     20  C   LIG d   1       1.462  -2.611 -12.501  0.00  0.00     0.059 C 
ATOM     21  H   LIG d   1       2.195  -3.277 -12.955  0.00  0.00     0.060 H 
ATOM     22  C   LIG d   1       1.014  -3.187 -11.154  0.00  0.00    -0.005 C 
ATOM     23  H   LIG d   1       6.100  -3.496  -4.079  0.00  0.00     0.027 H 
ATOM     24  H   LIG d   1       7.278  -4.081  -5.288  0.00  0.00     0.027 H 
ATOM     25  H   LIG d   1       4.260  -3.908  -5.488  0.00  0.00     0.027 H 
ATOM     26  H   LIG d   1       5.383  -5.083  -6.250  0.00  0.00     0.027 H 
ATOM     27  H   LIG d   1       6.770  -1.273  -8.347  0.00  0.00     0.027 H 
ATOM     28  H   LIG d   1       6.208   0.140  -7.412  0.00  0.00     0.027 H 
ATOM     29  H   LIG d   1       4.964  -0.098  -9.569  0.00  0.00     0.027 H 
ATOM     30  H   LIG d   1       3.895  -0.251  -8.161  0.00  0.00     0.027 H 
ATOM     31  H   LIG d   1       4.526  -4.812  -9.211  0.00  0.00     0.031 H 
ATOM     32  H   LIG d   1       3.416  -5.135  -7.858  0.00  0.00     0.031 H 
ATOM     33  H   LIG d   1       1.865  -5.166  -9.755  0.00  0.00     0.057 H 
ATOM     34  H   LIG d   1       3.811  -0.401 -11.335  0.00  0.00     0.027 H 
ATOM     35  H   LIG d   1       4.036  -2.065 -11.928  0.00  0.00     0.027 H 
ATOM     36  H   LIG d   1       2.349  -0.794 -13.245  0.00  0.00     0.029 H 
ATOM     37  H   LIG d   1       1.380  -0.587 -11.767  0.00  0.00     0.029 H 
ATOM     38  H   LIG d   1       0.649  -4.205 -11.294  0.00  0.00     0.034 H 
ATOM     39  H   LIG d   1       0.222  -2.567 -10.734  0.00  0.00     0.034 H 
ENDROOT
BRANCH   1  40
ATOM     40  C   LIG d   1       6.472  -1.060  -4.426  0.00  0.00    -0.040 C 
ATOM     41  H   LIG d   1       5.519  -0.537  -4.504  0.00  0.00     0.030 H 
BRANCH  40  42
ATOM     42  C   LIG d   1       7.615  -0.043  -4.454  0.00  0.00    -0.062 C 
ATOM     43  H   LIG d   1       8.530  -0.515  -4.093  0.00  0.00     0.023 H 
ATOM     44  H   LIG d   1       7.765   0.307  -5.474  0.00  0.00     0.023 H 
ATOM     45  H   LIG d   1       7.366   0.802  -3.812  0.00  0.00     0.023 H 
ENDBRANCH  40  42
BRANCH  40  46
ATOM     46  C   LIG d   1       6.518  -1.843  -3.112  0.00  0.00    -0.047 C 
ATOM     47  H   LIG d   1       6.724  -2.893  -3.322  0.00  0.00     0.027 H 
ATOM     48  H   LIG d   1       7.305  -1.439  -2.475  0.00  0.00     0.027 H 
BRANCH  46  49
ATOM     49  C   LIG d   1       5.170  -1.720  -2.398  0.00  0.00    -0.034 C 
ATOM     50  H   LIG d   1       4.395  -2.188  -3.004  0.00  0.00     0.031 H 
ATOM     51  H   LIG d   1       5.225  -2.219  -1.430  0.00  0.00     0.031 H 
BRANCH  49  52
ATOM     52  C   LIG d   1       4.840  -0.264  -2.196  0.00  0.00    -0.085 C 
ATOM     53  C   LIG d   1       3.671   0.199  -2.564  0.00  0.00    -0.080 C 
ATOM     54  H   LIG d   1       5.567   0.397  -1.748  0.00  0.00     0.057 H 
BRANCH  53  55
ATOM     55  C   LIG d   1       2.586  -0.751  -2.998  0.00  0.00    -0.044 C 
ATOM     56  H   LIG d   1       2.261  -1.347  -2.144  0.00  0.00     0.027 H 
ATOM     57  H   LIG d   1       1.740  -0.184  -3.388  0.00  0.00     0.027 H 
ATOM     58  H   LIG d   1       2.970  -1.411  -3.775  0.00  0.00     0.027 H 
ENDBRANCH  53  55
BRANCH  53  59
ATOM     59  C   LIG d   1       3.411   1.684  -2.551  0.00  0.00    -0.044 C 
ATOM     60  H   LIG d   1       3.464   2.053  -1.526  0.00  0.00     0.027 H 
ATOM     61  H   LIG d   1       4.163   2.190  -3.158  0.00  0.00     0.027 H 
ATOM     62  H   LIG d   1       2.421   1.883  -2.958  0.00  0.00     0.027 H 
ENDBRANCH  53  59
ENDBRANCH  49  52
ENDBRANCH  46  49
ENDBRANCH  40  46
ENDBRANCH   1  40
BRANCH   7  63
ATOM     63  C   LIG d   1       4.277  -1.232  -5.974  0.00  0.00    -0.059 C 
ATOM     64  H   LIG d   1       4.535  -0.416  -5.299  0.00  0.00     0.024 H 
ATOM     65  H   LIG d   1       3.585  -0.870  -6.734  0.00  0.00     0.024 H 
ATOM     66  H   LIG d   1       3.807  -2.036  -5.407  0.00  0.00     0.024 H 
ENDBRANCH   7  63
BRANCH  17  67
ATOM     67  C   LIG d   1       2.079  -0.901  -9.361  0.00  0.00    -0.056 C 
ATOM     68  H   LIG d   1       2.674  -0.042  -9.052  0.00  0.00     0.024 H 
ATOM     69  H   LIG d   1       1.303  -0.576 -10.053  0.00  0.00     0.024 H 
ATOM     70  H   LIG d   1       1.618  -1.358  -8.486  0.00  0.00     0.024 H 
ENDBRANCH  17  67
BRANCH  20  71
ATOM     71  O   LIG d   1       0.332  -2.485 -13.366  0.00  0.00    -0.392 OA
ATOM     72  H   LIG d   1      -0.275  -1.774 -13.118  0.00  0.00     0.210 HD
ENDBRANCH  20  71
TORSDOF 10
ENDMDL
MODEL 2
REMARK VINA RESULT:      -5.8      1.238      2.898
REMARK  10 active torsions:
REMARK  status: ('A' for Active; 'I' for Inactive)
REMARK    1  A    between atoms: C_1  and  C_2 
REMARK    2  A    between atoms: C_2  and  C_4 
REMARK    3  A    between atoms: C_2  and  C_10 
REMARK    4  A    between atoms: C_4  and  C_5 
REMARK    5  A    between atoms: C_5  and  C_6 
REMARK    6  A    between atoms: C_7  and  C_8 
REMARK    7  A    between atoms: C_7  and  C_9 
REMARK    8  A    between atoms: C_16  and  C_34 
REMARK    9  A    between atoms: C_26  and  C_33 
REMARK   10  A    between atoms: C_29  and  O_32 
ROOT
ATOM      1  C   LIG d   1       4.696  -1.768  -6.278  0.00  0.00    -0.033 C 
ATOM      2  H   LIG d   1       4.170  -2.359  -5.528  0.00  0.00     0.031 H 
ATOM      3  C   LIG d   1       4.239  -0.290  -6.213  0.00  0.00    -0.049 C 
ATOM      4  C   LIG d   1       3.534   0.011  -7.565  0.00  0.00    -0.049 C 
ATOM      5  C   LIG d   1       3.087  -1.378  -8.034  0.00  0.00    -0.032 C 
ATOM      6  H   LIG d   1       2.217  -1.708  -7.466  0.00  0.00     0.031 H 
ATOM      7  C   LIG d   1       4.325  -2.244  -7.679  0.00  0.00    -0.026 C 
ATOM      8  C   LIG d   1       3.906  -3.695  -7.811  0.00  0.00    -0.047 C 
ATOM      9  C   LIG d   1       3.580  -3.940  -9.292  0.00  0.00    -0.049 C 
ATOM     10  C   LIG d   1       2.495  -2.994  -9.797  0.00  0.00    -0.029 C 
ATOM     11  H   LIG d   1       1.569  -3.220  -9.268  0.00  0.00     0.031 H 
ATOM     12  C   LIG d   1       2.847  -1.525  -9.526  0.00  0.00    -0.031 C 
ATOM     13  H   LIG d   1       3.741  -1.242 -10.081  0.00  0.00     0.031 H 
ATOM     14  C   LIG d   1       1.649  -0.662  -9.939  0.00  0.00    -0.031 C 
ATOM     15  C   LIG d   1       1.310  -0.940 -11.374  0.00  0.00    -0.084 C 
ATOM     16  C   LIG d   1       1.566  -2.077 -11.956  0.00  0.00    -0.065 C 
ATOM     17  C   LIG d   1       2.265  -3.221 -11.282  0.00  0.00    -0.008 C 
ATOM     18  C   LIG d   1       1.447  -4.498 -11.497  0.00  0.00    -0.041 C 
ATOM     19  C   LIG d   1       1.202  -4.716 -12.977  0.00  0.00    -0.026 C 
ATOM     20  C   LIG d   1       0.363  -3.561 -13.528  0.00  0.00     0.059 C 
ATOM     21  H   LIG d   1      -0.563  -3.481 -12.959  0.00  0.00     0.060 H 
ATOM     22  C   LIG d   1       1.152  -2.255 -13.407  0.00  0.00    -0.005 C 
ATOM     23  H   LIG d   1       5.102   0.364  -6.088  0.00  0.00     0.027 H 
ATOM     24  H   LIG d   1       3.541  -0.149  -5.388  0.00  0.00     0.027 H 
ATOM     25  H   LIG d   1       4.234   0.451  -8.275  0.00  0.00     0.027 H 
ATOM     26  H   LIG d   1       2.673   0.663  -7.414  0.00  0.00     0.027 H 
ATOM     27  H   LIG d   1       3.022  -3.884  -7.200  0.00  0.00     0.027 H 
ATOM     28  H   LIG d   1       4.720  -4.349  -7.497  0.00  0.00     0.027 H 
ATOM     29  H   LIG d   1       3.241  -4.968  -9.417  0.00  0.00     0.027 H 
ATOM     30  H   LIG d   1       4.484  -3.792  -9.884  0.00  0.00     0.027 H 
ATOM     31  H   LIG d   1       0.793  -0.903  -9.310  0.00  0.00     0.031 H 
ATOM     32  H   LIG d   1       1.901   0.392  -9.821  0.00  0.00     0.031 H 
ATOM     33  H   LIG d   1       0.821  -0.168 -11.947  0.00  0.00     0.057 H 
ATOM     34  H   LIG d   1       1.999  -5.353 -11.104  0.00  0.00     0.027 H 
ATOM     35  H   LIG d   1       0.494  -4.410 -10.976  0.00  0.00     0.027 H 
ATOM     36  H   LIG d   1       0.668  -5.655 -13.124  0.00  0.00     0.029 H 
ATOM     37  H   LIG d   1       2.156  -4.755 -13.502  0.00  0.00     0.029 H 
ATOM     38  H   LIG d   1       0.525  -1.417 -13.714  0.00  0.00     0.034 H 
ATOM     39  H   LIG d   1       2.039  -2.300 -14.040  0.00  0.00     0.034 H 
ENDROOT
BRANCH   1  40
ATOM     40  C   LIG d   1       6.208  -1.865  -6.068  0.00  0.00    -0.040 C 
ATOM     41  H   LIG d   1       6.705  -1.961  -7.033  0.00  0.00     0.030 H 
BRANCH  40  42
ATOM     42  C   LIG d   1       6.526  -3.089  -5.207  0.00  0.00    -0.062 C 
ATOM     43  H   LIG d   1       7.602  -3.267  -5.211  0.00  0.00     0.023 H 
ATOM     44  H   LIG d   1       6.190  -2.913  -4.186  0.00  0.00     0.023 H 
ATOM     45  H   LIG d   1       6.013  -3.962  -5.613  0.00  0.00     0.023 H 
ENDBRANCH  40  42
BRANCH  40  46
ATOM     46  C   LIG d   1       6.707  -0.602  -5.361  0.00  0.00    -0.047 C 
ATOM     47  H   LIG d   1       7.657  -0.293  -5.798  0.00  0.00     0.027 H 
ATOM     48  H   LIG d   1       5.974   0.195  -5.484  0.00  0.00     0.027 H 
BRANCH  46  49
ATOM     49  C   LIG d   1       6.900  -0.894  -3.872  0.00  0.00    -0.034 C 
ATOM     50  H   LIG d   1       6.479  -1.871  -3.636  0.00  0.00     0.031 H 
ATOM     51  H   LIG d   1       7.965  -0.890  -3.636  0.00  0.00     0.031 H 
BRANCH  49  52
ATOM     52  C   LIG d   1       6.202   0.165  -3.058  0.00  0.00    -0.085 C 
ATOM     53  C   LIG d   1       5.089  -0.121  -2.429  0.00  0.00    -0.080 C 
ATOM     54  H   LIG d   1       6.619   1.159  -2.994  0.00  0.00     0.057 H 
BRANCH  53  55
ATOM     55  C   LIG d   1       4.614  -1.549  -2.348  0.00  0.00    -0.044 C 
ATOM     56  H   LIG d   1       3.706  -1.596  -1.746  0.00  0.00     0.027 H 
ATOM     57  H   LIG d   1       4.403  -1.920  -3.352  0.00  0.00     0.027 H 
ATOM     58  H   LIG d   1       5.386  -2.164  -1.889  0.00  0.00     0.027 H 
ENDBRANCH  53  55
BRANCH  53  59
ATOM     59  C   LIG d   1       4.284   0.978  -1.785  0.00  0.00    -0.044 C 
ATOM     60  H   LIG d   1       3.982   1.700  -2.545  0.00  0.00     0.027 H 
ATOM     61  H   LIG d   1       3.397   0.552  -1.316  0.00  0.00     0.027 H 
ATOM     62  H   LIG d   1       4.889   1.478  -1.029  0.00  0.00     0.027 H 
ENDBRANCH  53  59
ENDBRANCH  49  52
ENDBRANCH  46  49
ENDBRANCH  40  46
ENDBRANCH   1  40
BRANCH   7  63
ATOM     63  C   LIG d   1       5.466  -1.943  -8.653  0.00  0.00    -0.059 C 
ATOM     64  H   LIG d   1       5.053  -1.603  -9.603  0.00  0.00     0.024 H 
ATOM     65  H   LIG d   1       6.105  -1.165  -8.235  0.00  0.00     0.024 H 
ATOM     66  H   LIG d   1       6.054  -2.847  -8.816  0.00  0.00     0.024 H 
ENDBRANCH   7  63
BRANCH  17  67
ATOM     67  C   LIG d   1       3.628  -3.410 -11.952  0.00  0.00    -0.056 C 
ATOM     68  H   LIG d   1       3.796  -2.604 -12.666  0.00  0.00     0.024 H 
ATOM     69  H   LIG d   1       4.411  -3.395 -11.194  0.00  0.00     0.024 H 
ATOM     70  H   LIG d   1       3.645  -4.367 -12.474  0.00  0.00     0.024 H 
ENDBRANCH  17  67
BRANCH  20  71
ATOM     71  O   LIG d   1       0.058  -3.809 -14.902  0.00  0.00    -0.392 OA
ATOM     72  H   LIG d   1       0.228  -4.719 -15.184  0.00  0.00     0.210 HD
ENDBRANCH  20  71
TORSDOF 10
ENDMDL
MODEL 3
REMARK VINA RESULT:      -5.8      1.929      4.061
REMARK  10 active torsions:
REMARK  status: ('A' for Active; 'I' for Inactive)
REMARK    1  A    between atoms: C_1  and  C_2 
REMARK    2  A    between atoms: C_2  and  C_4 
REMARK    3  A    between atoms: C_2  and  C_10 
REMARK    4  A    between atoms: C_4  and  C_5 
REMARK    5  A    between atoms: C_5  and  C_6 
REMARK    6  A    between atoms: C_7  and  C_8 
REMARK    7  A    between atoms: C_7  and  C_9 
REMARK    8  A    between atoms: C_16  and  C_34 
REMARK    9  A    between atoms: C_26  and  C_33 
REMARK   10  A    between atoms: C_29  and  O_32 
ROOT
ATOM      1  C   LIG d   1       3.439   0.488  -8.125  0.00  0.00    -0.033 C 
ATOM      2  H   LIG d   1       2.747   1.325  -8.030  0.00  0.00     0.031 H 
ATOM      3  C   LIG d   1       4.836   0.994  -8.561  0.00  0.00    -0.049 C 
ATOM      4  C   LIG d   1       5.102   0.392  -9.968  0.00  0.00    -0.049 C 
ATOM      5  C   LIG d   1       3.688   0.125 -10.498  0.00  0.00    -0.032 C 
ATOM      6  H   LIG d   1       3.216   1.058 -10.806  0.00  0.00     0.031 H 
ATOM      7  C   LIG d   1       2.984  -0.449  -9.240  0.00  0.00    -0.026 C 
ATOM      8  C   LIG d   1       1.496  -0.474  -9.536  0.00  0.00    -0.047 C 
ATOM      9  C   LIG d   1       1.279  -1.473 -10.682  0.00  0.00    -0.049 C 
ATOM     10  C   LIG d   1       2.091  -1.100 -11.919  0.00  0.00    -0.029 C 
ATOM     11  H   LIG d   1       1.716  -0.152 -12.302  0.00  0.00     0.031 H 
ATOM     12  C   LIG d   1       3.580  -0.922 -11.592  0.00  0.00    -0.031 C 
ATOM     13  H   LIG d   1       4.008  -1.865 -11.254  0.00  0.00     0.031 H 
ATOM     14  C   LIG d   1       4.290  -0.418 -12.854  0.00  0.00    -0.031 C 
ATOM     15  C   LIG d   1       4.036  -1.377 -13.980  0.00  0.00    -0.084 C 
ATOM     16  C   LIG d   1       2.973  -2.128 -14.048  0.00  0.00    -0.065 C 
ATOM     17  C   LIG d   1       1.906  -2.158 -12.994  0.00  0.00    -0.008 C 
ATOM     18  C   LIG d   1       0.540  -1.987 -13.667  0.00  0.00    -0.041 C 
ATOM     19  C   LIG d   1       0.361  -3.031 -14.753  0.00  0.00    -0.026 C 
ATOM     20  C   LIG d   1       1.414  -2.818 -15.841  0.00  0.00     0.059 C 
ATOM     21  H   LIG d   1       1.340  -1.800 -16.224  0.00  0.00     0.060 H 
ATOM     22  C   LIG d   1       2.809  -3.042 -15.250  0.00  0.00    -0.005 C 
ATOM     23  H   LIG d   1       5.595   0.650  -7.859  0.00  0.00     0.027 H 
ATOM     24  H   LIG d   1       4.841   2.083  -8.613  0.00  0.00     0.027 H 
ATOM     25  H   LIG d   1       5.666  -0.537  -9.891  0.00  0.00     0.027 H 
ATOM     26  H   LIG d   1       5.621   1.110 -10.603  0.00  0.00     0.027 H 
ATOM     27  H   LIG d   1       1.161   0.518  -9.838  0.00  0.00     0.027 H 
ATOM     28  H   LIG d   1       0.946  -0.799  -8.652  0.00  0.00     0.027 H 
ATOM     29  H   LIG d   1       0.221  -1.491 -10.944  0.00  0.00     0.027 H 
ATOM     30  H   LIG d   1       1.577  -2.468 -10.348  0.00  0.00     0.027 H 
ATOM     31  H   LIG d   1       3.905   0.565 -13.121  0.00  0.00     0.031 H 
ATOM     32  H   LIG d   1       5.361  -0.351 -12.667  0.00  0.00     0.031 H 
ATOM     33  H   LIG d   1       4.761  -1.439 -14.778  0.00  0.00     0.057 H 
ATOM     34  H   LIG d   1      -0.249  -2.115 -12.926  0.00  0.00     0.027 H 
ATOM     35  H   LIG d   1       0.472  -0.990 -14.103  0.00  0.00     0.027 H 
ATOM     36  H   LIG d   1      -0.635  -2.938 -15.188  0.00  0.00     0.029 H 
ATOM     37  H   LIG d   1       0.477  -4.026 -14.324  0.00  0.00     0.029 H 
ATOM     38  H   LIG d   1       3.567  -2.802 -15.998  0.00  0.00     0.034 H 
ATOM     39  H   LIG d   1       2.915  -4.081 -14.940  0.00  0.00     0.034 H 
ENDROOT
BRANCH   1  40
ATOM     40  C   LIG d   1       3.540  -0.273  -6.801  0.00  0.00    -0.040 C 
ATOM     41  H   LIG d   1       3.291  -1.321  -6.964  0.00  0.00     0.030 H 
BRANCH  40  42
ATOM     42  C   LIG d   1       2.563   0.332  -5.791  0.00  0.00    -0.062 C 
ATOM     43  H   LIG d   1       2.639  -0.206  -4.845  0.00  0.00     0.023 H 
ATOM     44  H   LIG d   1       2.808   1.382  -5.632  0.00  0.00     0.023 H 
ATOM     45  H   LIG d   1       1.546   0.250  -6.174  0.00  0.00     0.023 H 
ENDBRANCH  40  42
BRANCH  40  46
ATOM     46  C   LIG d   1       4.967  -0.165  -6.259  0.00  0.00    -0.047 C 
ATOM     47  H   LIG d   1       5.668  -0.530  -7.010  0.00  0.00     0.027 H 
ATOM     48  H   LIG d   1       5.190   0.876  -6.029  0.00  0.00     0.027 H 
BRANCH  46  49
ATOM     49  C   LIG d   1       5.094  -1.009  -4.989  0.00  0.00    -0.034 C 
ATOM     50  H   LIG d   1       4.186  -1.595  -4.850  0.00  0.00     0.031 H 
ATOM     51  H   LIG d   1       5.949  -1.679  -5.082  0.00  0.00     0.031 H 
BRANCH  49  52
ATOM     52  C   LIG d   1       5.293  -0.102  -3.802  0.00  0.00    -0.085 C 
ATOM     53  C   LIG d   1       4.554  -0.253  -2.731  0.00  0.00    -0.080 C 
ATOM     54  H   LIG d   1       6.045   0.673  -3.835  0.00  0.00     0.057 H 
BRANCH  53  55
ATOM     55  C   LIG d   1       3.650  -1.452  -2.602  0.00  0.00    -0.044 C 
ATOM     56  H   LIG d   1       3.003  -1.514  -3.477  0.00  0.00     0.027 H 
ATOM     57  H   LIG d   1       4.255  -2.357  -2.533  0.00  0.00     0.027 H 
ATOM     58  H   LIG d   1       3.040  -1.352  -1.705  0.00  0.00     0.027 H 
ENDBRANCH  53  55
BRANCH  53  59
ATOM     59  C   LIG d   1       4.609   0.772  -1.628  0.00  0.00    -0.044 C 
ATOM     60  H   LIG d   1       3.598   1.115  -1.401  0.00  0.00     0.027 H 
ATOM     61  H   LIG d   1       5.049   0.324  -0.737  0.00  0.00     0.027 H 
ATOM     62  H   LIG d   1       5.216   1.618  -1.946  0.00  0.00     0.027 H 
ENDBRANCH  53  59
ENDBRANCH  49  52
ENDBRANCH  46  49
ENDBRANCH  40  46
ENDBRANCH   1  40
BRANCH   7  63
ATOM     63  C   LIG d   1       3.482  -1.869  -8.967  0.00  0.00    -0.059 C 
ATOM     64  H   LIG d   1       2.763  -2.393  -8.338  0.00  0.00     0.024 H 
ATOM     65  H   LIG d   1       3.594  -2.402  -9.912  0.00  0.00     0.024 H 
ATOM     66  H   LIG d   1       4.446  -1.826  -8.458  0.00  0.00     0.024 H 
ENDBRANCH   7  63
BRANCH  17  67
ATOM     67  C   LIG d   1       1.936  -3.532 -12.322  0.00  0.00    -0.056 C 
ATOM     68  H   LIG d   1       2.754  -4.121 -12.737  0.00  0.00     0.024 H 
ATOM     69  H   LIG d   1       2.083  -3.409 -11.249  0.00  0.00     0.024 H 
ATOM     70  H   LIG d   1       0.991  -4.045 -12.503  0.00  0.00     0.024 H 
ENDBRANCH  17  67
BRANCH  20  71
ATOM     71  O   LIG d   1       1.193  -3.745 -16.906  0.00  0.00    -0.392 OA
ATOM     72  H   LIG d   1       1.678  -3.536 -17.716  0.00  0.00     0.210 HD
ENDBRANCH  20  71
TORSDOF 10
ENDMDL
MODEL 4
REMARK VINA RESULT:      -5.8      4.457      7.074
REMARK  10 active torsions:
REMARK  status: ('A' for Active; 'I' for Inactive)
REMARK    1  A    between atoms: C_1  and  C_2 
REMARK    2  A    between atoms: C_2  and  C_4 
REMARK    3  A    between atoms: C_2  and  C_10 
REMARK    4  A    between atoms: C_4  and  C_5 
REMARK    5  A    between atoms: C_5  and  C_6 
REMARK    6  A    between atoms: C_7  and  C_8 
REMARK    7  A    between atoms: C_7  and  C_9 
REMARK    8  A    between atoms: C_16  and  C_34 
REMARK    9  A    between atoms: C_26  and  C_33 
REMARK   10  A    between atoms: C_29  and  O_32 
ROOT
ATOM      1  C   LIG d   1       6.790  -1.708  -5.316  0.00  0.00    -0.033 C 
ATOM      2  H   LIG d   1       7.373  -2.581  -5.611  0.00  0.00     0.031 H 
ATOM      3  C   LIG d   1       5.565  -1.542  -6.249  0.00  0.00    -0.049 C 
ATOM      4  C   LIG d   1       5.772  -0.204  -7.012  0.00  0.00    -0.049 C 
ATOM      5  C   LIG d   1       7.292  -0.014  -6.961  0.00  0.00    -0.032 C 
ATOM      6  H   LIG d   1       7.783  -0.684  -7.668  0.00  0.00     0.031 H 
ATOM      7  C   LIG d   1       7.613  -0.437  -5.502  0.00  0.00    -0.026 C 
ATOM      8  C   LIG d   1       9.120  -0.587  -5.404  0.00  0.00    -0.047 C 
ATOM      9  C   LIG d   1       9.729   0.805  -5.625  0.00  0.00    -0.049 C 
ATOM     10  C   LIG d   1       9.311   1.399  -6.967  0.00  0.00    -0.029 C 
ATOM     11  H   LIG d   1       9.730   0.783  -7.762  0.00  0.00     0.031 H 
ATOM     12  C   LIG d   1       7.785   1.412  -7.135  0.00  0.00    -0.031 C 
ATOM     13  H   LIG d   1       7.328   2.062  -6.390  0.00  0.00     0.031 H 
ATOM     14  C   LIG d   1       7.464   1.894  -8.555  0.00  0.00    -0.031 C 
ATOM     15  C   LIG d   1       8.101   3.234  -8.777  0.00  0.00    -0.084 C 
ATOM     16  C   LIG d   1       9.174   3.624  -8.150  0.00  0.00    -0.065 C 
ATOM     17  C   LIG d   1       9.872   2.805  -7.105  0.00  0.00    -0.008 C 
ATOM     18  C   LIG d   1      11.365   2.742  -7.440  0.00  0.00    -0.041 C 
ATOM     19  C   LIG d   1      11.924   4.143  -7.596  0.00  0.00    -0.026 C 
ATOM     20  C   LIG d   1      11.239   4.835  -8.776  0.00  0.00     0.059 C 
ATOM     21  H   LIG d   1      11.368   4.232  -9.675  0.00  0.00     0.060 H 
ATOM     22  C   LIG d   1       9.746   4.993  -8.477  0.00  0.00    -0.005 C 
ATOM     23  H   LIG d   1       4.649  -1.496  -5.659  0.00  0.00     0.027 H 
ATOM     24  H   LIG d   1       5.514  -2.371  -6.954  0.00  0.00     0.027 H 
ATOM     25  H   LIG d   1       5.264   0.614  -6.503  0.00  0.00     0.027 H 
ATOM     26  H   LIG d   1       5.430  -0.292  -8.043  0.00  0.00     0.027 H 
ATOM     27  H   LIG d   1       9.475  -1.275  -6.172  0.00  0.00     0.027 H 
ATOM     28  H   LIG d   1       9.393  -0.960  -4.416  0.00  0.00     0.027 H 
ATOM     29  H   LIG d   1      10.816   0.727  -5.595  0.00  0.00     0.027 H 
ATOM     30  H   LIG d   1       9.400   1.469  -4.825  0.00  0.00     0.027 H 
ATOM     31  H   LIG d   1       7.856   1.180  -9.279  0.00  0.00     0.031 H 
ATOM     32  H   LIG d   1       6.384   1.978  -8.675  0.00  0.00     0.031 H 
ATOM     33  H   LIG d   1       7.656   3.902  -9.499  0.00  0.00     0.057 H 
ATOM     34  H   LIG d   1      11.899   2.241  -6.632  0.00  0.00     0.027 H 
ATOM     35  H   LIG d   1      11.506   2.187  -8.367  0.00  0.00     0.027 H 
ATOM     36  H   LIG d   1      12.997   4.091  -7.778  0.00  0.00     0.029 H 
ATOM     37  H   LIG d   1      11.738   4.712  -6.684  0.00  0.00     0.029 H 
ATOM     38  H   LIG d   1       9.238   5.402  -9.352  0.00  0.00     0.034 H 
ATOM     39  H   LIG d   1       9.609   5.661  -7.627  0.00  0.00     0.034 H 
ENDROOT
BRANCH   1  40
ATOM     40  C   LIG d   1       6.336  -1.837  -3.861  0.00  0.00    -0.040 C 
ATOM     41  H   LIG d   1       6.234  -0.845  -3.422  0.00  0.00     0.030 H 
BRANCH  40  42
ATOM     42  C   LIG d   1       7.373  -2.640  -3.074  0.00  0.00    -0.062 C 
ATOM     43  H   LIG d   1       6.869  -3.237  -2.312  0.00  0.00     0.023 H 
ATOM     44  H   LIG d   1       7.915  -3.299  -3.751  0.00  0.00     0.023 H 
ATOM     45  H   LIG d   1       8.073  -1.957  -2.593  0.00  0.00     0.023 H 
ENDBRANCH  40  42
BRANCH  40  46
ATOM     46  C   LIG d   1       4.987  -2.558  -3.811  0.00  0.00    -0.047 C 
ATOM     47  H   LIG d   1       4.378  -2.248  -4.660  0.00  0.00     0.027 H 
ATOM     48  H   LIG d   1       5.149  -3.635  -3.854  0.00  0.00     0.027 H 
BRANCH  46  49
ATOM     49  C   LIG d   1       4.267  -2.202  -2.508  0.00  0.00    -0.034 C 
ATOM     50  H   LIG d   1       3.213  -2.465  -2.593  0.00  0.00     0.031 H 
ATOM     51  H   LIG d   1       4.715  -2.755  -1.683  0.00  0.00     0.031 H 
BRANCH  49  52
ATOM     52  C   LIG d   1       4.397  -0.723  -2.252  0.00  0.00    -0.085 C 
ATOM     53  C   LIG d   1       3.546   0.113  -2.793  0.00  0.00    -0.080 C 
ATOM     54  H   LIG d   1       5.192  -0.351  -1.622  0.00  0.00     0.057 H 
BRANCH  53  55
ATOM     55  C   LIG d   1       2.322  -0.410  -3.501  0.00  0.00    -0.044 C 
ATOM     56  H   LIG d   1       2.628  -1.073  -4.312  0.00  0.00     0.027 H 
ATOM     57  H   LIG d   1       1.702  -0.963  -2.795  0.00  0.00     0.027 H 
ATOM     58  H   LIG d   1       1.754   0.424  -3.910  0.00  0.00     0.027 H 
ENDBRANCH  53  55
BRANCH  53  59
ATOM     59  C   LIG d   1       3.788   1.598  -2.707  0.00  0.00    -0.044 C 
ATOM     60  H   LIG d   1       4.646   1.862  -3.327  0.00  0.00     0.027 H 
ATOM     61  H   LIG d   1       2.906   2.132  -3.060  0.00  0.00     0.027 H 
ATOM     62  H   LIG d   1       3.990   1.874  -1.672  0.00  0.00     0.027 H 
ENDBRANCH  53  59
ENDBRANCH  49  52
ENDBRANCH  46  49
ENDBRANCH  40  46
ENDBRANCH   1  40
BRANCH   7  63
ATOM     63  C   LIG d   1       7.136   0.644  -4.530  0.00  0.00    -0.059 C 
ATOM     64  H   LIG d   1       6.739   0.174  -3.630  0.00  0.00     0.024 H 
ATOM     65  H   LIG d   1       7.974   1.288  -4.264  0.00  0.00     0.024 H 
ATOM     66  H   LIG d   1       6.355   1.240  -5.003  0.00  0.00     0.024 H 
ENDBRANCH   7  63
BRANCH  17  67
ATOM     67  C   LIG d   1       9.717   3.515  -5.759  0.00  0.00    -0.056 C 
ATOM     68  H   LIG d   1       9.333   2.812  -5.020  0.00  0.00     0.024 H 
ATOM     69  H   LIG d   1      10.686   3.892  -5.433  0.00  0.00     0.024 H 
ATOM     70  H   LIG d   1       9.020   4.347  -5.866  0.00  0.00     0.024 H 
ENDBRANCH  17  67
BRANCH  20  71
ATOM     71  O   LIG d   1      11.824   6.123  -8.978  0.00  0.00    -0.392 OA
ATOM     72  H   LIG d   1      11.213   6.779  -9.339  0.00  0.00     0.210 HD
ENDBRANCH  20  71
TORSDOF 10
ENDMDL
MODEL 5
REMARK VINA RESULT:      -5.5      2.969      7.748
REMARK  10 active torsions:
REMARK  status: ('A' for Active; 'I' for Inactive)
REMARK    1  A    between atoms: C_1  and  C_2 
REMARK    2  A    between atoms: C_2  and  C_4 
REMARK    3  A    between atoms: C_2  and  C_10 
REMARK    4  A    between atoms: C_4  and  C_5 
REMARK    5  A    between atoms: C_5  and  C_6 
REMARK    6  A    between atoms: C_7  and  C_8 
REMARK    7  A    between atoms: C_7  and  C_9 
REMARK    8  A    between atoms: C_16  and  C_34 
REMARK    9  A    between atoms: C_26  and  C_33 
REMARK   10  A    between atoms: C_29  and  O_32 
ROOT
ATOM      1  C   LIG d   1       3.851  -1.530 -10.944  0.00  0.00    -0.033 C 
ATOM      2  H   LIG d   1       4.641  -0.952 -11.425  0.00  0.00     0.031 H 
ATOM      3  C   LIG d   1       2.486  -0.818 -11.116  0.00  0.00    -0.049 C 
ATOM      4  C   LIG d   1       2.020  -0.415  -9.690  0.00  0.00    -0.049 C 
ATOM      5  C   LIG d   1       3.335  -0.343  -8.907  0.00  0.00    -0.032 C 
ATOM      6  H   LIG d   1       3.880   0.566  -9.164  0.00  0.00     0.031 H 
ATOM      7  C   LIG d   1       4.086  -1.593  -9.438  0.00  0.00    -0.026 C 
ATOM      8  C   LIG d   1       5.526  -1.478  -8.974  0.00  0.00    -0.047 C 
ATOM      9  C   LIG d   1       5.515  -1.563  -7.440  0.00  0.00    -0.049 C 
ATOM     10  C   LIG d   1       4.637  -0.480  -6.819  0.00  0.00    -0.029 C 
ATOM     11  H   LIG d   1       5.080   0.490  -7.041  0.00  0.00     0.031 H 
ATOM     12  C   LIG d   1       3.217  -0.494  -7.401  0.00  0.00    -0.031 C 
ATOM     13  H   LIG d   1       2.717  -1.431  -7.155  0.00  0.00     0.031 H 
ATOM     14  C   LIG d   1       2.452   0.703  -6.825  0.00  0.00    -0.031 C 
ATOM     15  C   LIG d   1       2.484   0.636  -5.326  0.00  0.00    -0.084 C 
ATOM     16  C   LIG d   1       3.442   0.053  -4.662  0.00  0.00    -0.065 C 
ATOM     17  C   LIG d   1       4.595  -0.654  -5.310  0.00  0.00    -0.008 C 
ATOM     18  C   LIG d   1       5.900  -0.148  -4.688  0.00  0.00    -0.041 C 
ATOM     19  C   LIG d   1       5.854  -0.304  -3.181  0.00  0.00    -0.026 C 
ATOM     20  C   LIG d   1       4.732   0.568  -2.614  0.00  0.00     0.059 C 
ATOM     21  H   LIG d   1       4.886   1.603  -2.922  0.00  0.00     0.060 H 
ATOM     22  C   LIG d   1       3.384   0.072  -3.144  0.00  0.00    -0.005 C 
ATOM     23  H   LIG d   1       1.763  -1.498 -11.566  0.00  0.00     0.027 H 
ATOM     24  H   LIG d   1       2.602   0.070 -11.737  0.00  0.00     0.027 H 
ATOM     25  H   LIG d   1       1.362  -1.175  -9.269  0.00  0.00     0.027 H 
ATOM     26  H   LIG d   1       1.527   0.558  -9.706  0.00  0.00     0.027 H 
ATOM     27  H   LIG d   1       5.943  -0.521  -9.290  0.00  0.00     0.027 H 
ATOM     28  H   LIG d   1       6.117  -2.295  -9.387  0.00  0.00     0.027 H 
ATOM     29  H   LIG d   1       6.534  -1.449  -7.070  0.00  0.00     0.027 H 
ATOM     30  H   LIG d   1       5.138  -2.541  -7.141  0.00  0.00     0.027 H 
ATOM     31  H   LIG d   1       2.921   1.629  -7.158  0.00  0.00     0.031 H 
ATOM     32  H   LIG d   1       1.418   0.675  -7.169  0.00  0.00     0.031 H 
ATOM     33  H   LIG d   1       1.684   1.102  -4.772  0.00  0.00     0.057 H 
ATOM     34  H   LIG d   1       6.737  -0.731  -5.074  0.00  0.00     0.027 H 
ATOM     35  H   LIG d   1       6.041   0.902  -4.943  0.00  0.00     0.027 H 
ATOM     36  H   LIG d   1       6.807   0.006  -2.751  0.00  0.00     0.029 H 
ATOM     37  H   LIG d   1       5.665  -1.348  -2.929  0.00  0.00     0.029 H 
ATOM     38  H   LIG d   1       2.590   0.745  -2.817  0.00  0.00     0.034 H 
ATOM     39  H   LIG d   1       3.189  -0.934  -2.771  0.00  0.00     0.034 H 
ENDROOT
BRANCH   1  40
ATOM     40  C   LIG d   1       3.791  -2.941 -11.531  0.00  0.00    -0.040 C 
ATOM     41  H   LIG d   1       3.541  -3.652 -10.744  0.00  0.00     0.030 H 
BRANCH  40  42
ATOM     42  C   LIG d   1       5.151  -3.302 -12.131  0.00  0.00    -0.062 C 
ATOM     43  H   LIG d   1       5.303  -2.740 -13.053  0.00  0.00     0.023 H 
ATOM     44  H   LIG d   1       5.939  -3.053 -11.420  0.00  0.00     0.023 H 
ATOM     45  H   LIG d   1       5.181  -4.370 -12.348  0.00  0.00     0.023 H 
ENDBRANCH  40  42
BRANCH  40  46
ATOM     46  C   LIG d   1       2.721  -2.993 -12.624  0.00  0.00    -0.047 C 
ATOM     47  H   LIG d   1       2.000  -2.192 -12.464  0.00  0.00     0.027 H 
ATOM     48  H   LIG d   1       3.193  -2.869 -13.599  0.00  0.00     0.027 H 
BRANCH  46  49
ATOM     49  C   LIG d   1       2.004  -4.344 -12.572  0.00  0.00    -0.034 C 
ATOM     50  H   LIG d   1       1.846  -4.710 -13.586  0.00  0.00     0.031 H 
ATOM     51  H   LIG d   1       2.614  -5.058 -12.018  0.00  0.00     0.031 H 
BRANCH  49  52
ATOM     52  C   LIG d   1       0.674  -4.179 -11.884  0.00  0.00    -0.085 C 
ATOM     53  C   LIG d   1       0.386  -4.906 -10.832  0.00  0.00    -0.080 C 
ATOM     54  H   LIG d   1      -0.043  -3.463 -12.257  0.00  0.00     0.057 H 
BRANCH  53  55
ATOM     55  C   LIG d   1       1.452  -5.756 -10.189  0.00  0.00    -0.044 C 
ATOM     56  H   LIG d   1       2.175  -6.065 -10.944  0.00  0.00     0.027 H 
ATOM     57  H   LIG d   1       1.960  -5.178  -9.415  0.00  0.00     0.027 H 
ATOM     58  H   LIG d   1       0.994  -6.637  -9.742  0.00  0.00     0.027 H 
ENDBRANCH  53  55
BRANCH  53  59
ATOM     59  C   LIG d   1      -1.010  -4.892 -10.266  0.00  0.00    -0.044 C 
ATOM     60  H   LIG d   1      -1.507  -3.963 -10.548  0.00  0.00     0.027 H 
ATOM     61  H   LIG d   1      -1.572  -5.739 -10.661  0.00  0.00     0.027 H 
ATOM     62  H   LIG d   1      -0.963  -4.963  -9.179  0.00  0.00     0.027 H 
ENDBRANCH  53  59
ENDBRANCH  49  52
ENDBRANCH  46  49
ENDBRANCH  40  46
ENDBRANCH   1  40
BRANCH   7  63
ATOM     63  C   LIG d   1       3.456  -2.862  -8.862  0.00  0.00    -0.059 C 
ATOM     64  H   LIG d   1       3.225  -3.553  -9.672  0.00  0.00     0.024 H 
ATOM     65  H   LIG d   1       4.155  -3.333  -8.171  0.00  0.00     0.024 H 
ATOM     66  H   LIG d   1       2.538  -2.604  -8.332  0.00  0.00     0.024 H 
ENDBRANCH   7  63
BRANCH  17  67
ATOM     67  C   LIG d   1       4.471  -2.148  -5.005  0.00  0.00    -0.056 C 
ATOM     68  H   LIG d   1       4.266  -2.286  -3.944  0.00  0.00     0.024 H 
ATOM     69  H   LIG d   1       3.657  -2.573  -5.592  0.00  0.00     0.024 H 
ATOM     70  H   LIG d   1       5.404  -2.650  -5.263  0.00  0.00     0.024 H 
ENDBRANCH  17  67
BRANCH  20  71
ATOM     71  O   LIG d   1       4.742   0.489  -1.187  0.00  0.00    -0.392 OA
ATOM     72  H   LIG d   1       5.462  -0.050  -0.829  0.00  0.00     0.210 HD
ENDBRANCH  20  71
TORSDOF 10
ENDMDL
MODEL 6
REMARK VINA RESULT:      -5.4      9.470     13.150
REMARK  10 active torsions:
REMARK  status: ('A' for Active; 'I' for Inactive)
REMARK    1  A    between atoms: C_1  and  C_2 
REMARK    2  A    between atoms: C_2  and  C_4 
REMARK    3  A    between atoms: C_2  and  C_10 
REMARK    4  A    between atoms: C_4  and  C_5 
REMARK    5  A    between atoms: C_5  and  C_6 
REMARK    6  A    between atoms: C_7  and  C_8 
REMARK    7  A    between atoms: C_7  and  C_9 
REMARK    8  A    between atoms: C_16  and  C_34 
REMARK    9  A    between atoms: C_26  and  C_33 
REMARK   10  A    between atoms: C_29  and  O_32 
ROOT
ATOM      1  C   LIG d   1       9.457   6.084  -7.923  0.00  0.00    -0.033 C 
ATOM      2  H   LIG d   1       8.414   6.390  -8.011  0.00  0.00     0.031 H 
ATOM      3  C   LIG d   1       9.577   4.546  -8.060  0.00  0.00    -0.049 C 
ATOM      4  C   LIG d   1      10.096   4.023  -6.693  0.00  0.00    -0.049 C 
ATOM      5  C   LIG d   1       9.662   5.123  -5.718  0.00  0.00    -0.032 C 
ATOM      6  H   LIG d   1       8.591   5.057  -5.523  0.00  0.00     0.031 H 
ATOM      7  C   LIG d   1       9.986   6.407  -6.529  0.00  0.00    -0.026 C 
ATOM      8  C   LIG d   1       9.326   7.567  -5.808  0.00  0.00    -0.047 C 
ATOM      9  C   LIG d   1      10.012   7.699  -4.440  0.00  0.00    -0.049 C 
ATOM     10  C   LIG d   1       9.917   6.409  -3.632  0.00  0.00    -0.029 C 
ATOM     11  H   LIG d   1       8.868   6.225  -3.400  0.00  0.00     0.031 H 
ATOM     12  C   LIG d   1      10.444   5.202  -4.419  0.00  0.00    -0.031 C 
ATOM     13  H   LIG d   1      11.507   5.321  -4.627  0.00  0.00     0.031 H 
ATOM     14  C   LIG d   1      10.185   3.938  -3.590  0.00  0.00    -0.031 C 
ATOM     15  C   LIG d   1      10.821   4.095  -2.240  0.00  0.00    -0.084 C 
ATOM     16  C   LIG d   1      11.018   5.254  -1.677  0.00  0.00    -0.065 C 
ATOM     17  C   LIG d   1      10.677   6.563  -2.325  0.00  0.00    -0.008 C 
ATOM     18  C   LIG d   1       9.858   7.404  -1.340  0.00  0.00    -0.041 C 
ATOM     19  C   LIG d   1      10.607   7.545  -0.029  0.00  0.00    -0.026 C 
ATOM     20  C   LIG d   1      10.775   6.165   0.610  0.00  0.00     0.059 C 
ATOM     21  H   LIG d   1       9.797   5.701   0.736  0.00  0.00     0.060 H 
ATOM     22  C   LIG d   1      11.646   5.288  -0.294  0.00  0.00    -0.005 C 
ATOM     23  H   LIG d   1      10.286   4.295  -8.849  0.00  0.00     0.027 H 
ATOM     24  H   LIG d   1       8.602   4.112  -8.282  0.00  0.00     0.027 H 
ATOM     25  H   LIG d   1      11.181   3.924  -6.704  0.00  0.00     0.027 H 
ATOM     26  H   LIG d   1       9.623   3.074  -6.438  0.00  0.00     0.027 H 
ATOM     27  H   LIG d   1       8.263   7.364  -5.673  0.00  0.00     0.027 H 
ATOM     28  H   LIG d   1       9.458   8.485  -6.380  0.00  0.00     0.027 H 
ATOM     29  H   LIG d   1       9.537   8.505  -3.880  0.00  0.00     0.027 H 
ATOM     30  H   LIG d   1      11.063   7.946  -4.592  0.00  0.00     0.027 H 
ATOM     31  H   LIG d   1       9.112   3.795  -3.471  0.00  0.00     0.031 H 
ATOM     32  H   LIG d   1      10.614   3.075  -4.097  0.00  0.00     0.031 H 
ATOM     33  H   LIG d   1      11.118   3.206  -1.704  0.00  0.00     0.057 H 
ATOM     34  H   LIG d   1       9.697   8.399  -1.758  0.00  0.00     0.027 H 
ATOM     35  H   LIG d   1       8.897   6.924  -1.163  0.00  0.00     0.027 H 
ATOM     36  H   LIG d   1      10.044   8.191   0.646  0.00  0.00     0.029 H 
ATOM     37  H   LIG d   1      11.588   7.982  -0.215  0.00  0.00     0.029 H 
ATOM     38  H   LIG d   1      11.693   4.277   0.111  0.00  0.00     0.034 H 
ATOM     39  H   LIG d   1      12.650   5.706  -0.357  0.00  0.00     0.034 H 
ENDROOT
BRANCH   1  40
ATOM     40  C   LIG d   1      10.308   6.779  -8.987  0.00  0.00    -0.040 C 
ATOM     41  H   LIG d   1      11.332   6.874  -8.629  0.00  0.00     0.030 H 
BRANCH  40  42
ATOM     42  C   LIG d   1       9.735   8.170  -9.268  0.00  0.00    -0.062 C 
ATOM     43  H   LIG d   1      10.509   8.922  -9.106  0.00  0.00     0.023 H 
ATOM     44  H   LIG d   1       9.391   8.220 -10.300  0.00  0.00     0.023 H 
ATOM     45  H   LIG d   1       8.899   8.362  -8.596  0.00  0.00     0.023 H 
ENDBRANCH  40  42
BRANCH  40  46
ATOM     46  C   LIG d   1      10.291   5.952 -10.274  0.00  0.00    -0.047 C 
ATOM     47  H   LIG d   1      11.207   6.136 -10.836  0.00  0.00     0.027 H 
ATOM     48  H   LIG d   1      10.226   4.893 -10.024  0.00  0.00     0.027 H 
BRANCH  46  49
ATOM     49  C   LIG d   1       9.082   6.352 -11.122  0.00  0.00    -0.034 C 
ATOM     50  H   LIG d   1       8.205   5.798 -10.788  0.00  0.00     0.031 H 
ATOM     51  H   LIG d   1       8.900   7.421 -11.013  0.00  0.00     0.031 H 
BRANCH  49  52
ATOM     52  C   LIG d   1       9.357   6.035 -12.569  0.00  0.00    -0.085 C 
ATOM     53  C   LIG d   1       9.466   7.004 -13.443  0.00  0.00    -0.080 C 
ATOM     54  H   LIG d   1       9.464   5.007 -12.886  0.00  0.00     0.057 H 
BRANCH  53  55
ATOM     55  C   LIG d   1       9.520   8.436 -12.978  0.00  0.00    -0.044 C 
ATOM     56  H   LIG d   1       9.049   8.518 -11.998  0.00  0.00     0.027 H 
ATOM     57  H   LIG d   1      10.560   8.757 -12.908  0.00  0.00     0.027 H 
ATOM     58  H   LIG d   1       8.991   9.070 -13.688  0.00  0.00     0.027 H 
ENDBRANCH  53  55
BRANCH  53  59
ATOM     59  C   LIG d   1       9.538   6.687 -14.915  0.00  0.00    -0.044 C 
ATOM     60  H   LIG d   1       9.588   7.616 -15.484  0.00  0.00     0.027 H 
ATOM     61  H   LIG d   1      10.427   6.089 -15.115  0.00  0.00     0.027 H 
ATOM     62  H   LIG d   1       8.650   6.129 -15.211  0.00  0.00     0.027 H 
ENDBRANCH  53  59
ENDBRANCH  49  52
ENDBRANCH  46  49
ENDBRANCH  40  46
ENDBRANCH   1  40
BRANCH   7  63
ATOM     63  C   LIG d   1      11.499   6.621  -6.579  0.00  0.00    -0.059 C 
ATOM     64  H   LIG d   1      11.839   6.576  -7.614  0.00  0.00     0.024 H 
ATOM     65  H   LIG d   1      11.741   7.598  -6.160  0.00  0.00     0.024 H 
ATOM     66  H   LIG d   1      11.997   5.844  -6.000  0.00  0.00     0.024 H 
ENDBRANCH   7  63
BRANCH  17  67
ATOM     67  C   LIG d   1      11.981   7.307  -2.616  0.00  0.00    -0.056 C 
ATOM     68  H   LIG d   1      12.366   7.739  -1.692  0.00  0.00     0.024 H 
ATOM     69  H   LIG d   1      12.713   6.610  -3.025  0.00  0.00     0.024 H 
ATOM     70  H   LIG d   1      11.793   8.101  -3.338  0.00  0.00     0.024 H 
ENDBRANCH  17  67
BRANCH  20  71
ATOM     71  O   LIG d   1      11.403   6.306   1.886  0.00  0.00    -0.392 OA
ATOM     72  H   LIG d   1      11.965   5.557   2.132  0.00  0.00     0.210 HD
ENDBRANCH  20  71
TORSDOF 10
ENDMDL
MODEL 7
REMARK VINA RESULT:      -5.3      5.710      9.482
REMARK  10 active torsions:
REMARK  status: ('A' for Active; 'I' for Inactive)
REMARK    1  A    between atoms: C_1  and  C_2 
REMARK    2  A    between atoms: C_2  and  C_4 
REMARK    3  A    between atoms: C_2  and  C_10 
REMARK    4  A    between atoms: C_4  and  C_5 
REMARK    5  A    between atoms: C_5  and  C_6 
REMARK    6  A    between atoms: C_7  and  C_8 
REMARK    7  A    between atoms: C_7  and  C_9 
REMARK    8  A    between atoms: C_16  and  C_34 
REMARK    9  A    between atoms: C_26  and  C_33 
REMARK   10  A    between atoms: C_29  and  O_32 
ROOT
ATOM      1  C   LIG d   1       8.398  -0.195  -5.793  0.00  0.00    -0.033 C 
ATOM      2  H   LIG d   1       9.230  -0.864  -6.010  0.00  0.00     0.031 H 
ATOM      3  C   LIG d   1       7.724   0.266  -7.109  0.00  0.00    -0.049 C 
ATOM      4  C   LIG d   1       7.947   1.801  -7.202  0.00  0.00    -0.049 C 
ATOM      5  C   LIG d   1       9.192   2.018  -6.336  0.00  0.00    -0.032 C 
ATOM      6  H   LIG d   1      10.086   1.691  -6.868  0.00  0.00     0.031 H 
ATOM      7  C   LIG d   1       8.906   1.082  -5.132  0.00  0.00    -0.026 C 
ATOM      8  C   LIG d   1      10.195   0.967  -4.341  0.00  0.00    -0.047 C 
ATOM      9  C   LIG d   1      10.508   2.361  -3.778  0.00  0.00    -0.049 C 
ATOM     10  C   LIG d   1      10.619   3.406  -4.884  0.00  0.00    -0.029 C 
ATOM     11  H   LIG d   1      11.479   3.159  -5.506  0.00  0.00     0.031 H 
ATOM     12  C   LIG d   1       9.376   3.420  -5.784  0.00  0.00    -0.031 C 
ATOM     13  H   LIG d   1       8.498   3.717  -5.210  0.00  0.00     0.031 H 
ATOM     14  C   LIG d   1       9.631   4.396  -6.939  0.00  0.00    -0.031 C 
ATOM     15  C   LIG d   1       9.979   5.744  -6.379  0.00  0.00    -0.084 C 
ATOM     16  C   LIG d   1      10.534   5.907  -5.212  0.00  0.00    -0.065 C 
ATOM     17  C   LIG d   1      10.849   4.779  -4.274  0.00  0.00    -0.008 C 
ATOM     18  C   LIG d   1      12.304   4.910  -3.812  0.00  0.00    -0.041 C 
ATOM     19  C   LIG d   1      12.540   6.285  -3.219  0.00  0.00    -0.026 C 
ATOM     20  C   LIG d   1      12.327   7.347  -4.299  0.00  0.00     0.059 C 
ATOM     21  H   LIG d   1      12.981   7.141  -5.146  0.00  0.00     0.060 H 
ATOM     22  C   LIG d   1      10.868   7.319  -4.760  0.00  0.00    -0.005 C 
ATOM     23  H   LIG d   1       6.656   0.045  -7.081  0.00  0.00     0.027 H 
ATOM     24  H   LIG d   1       8.186  -0.232  -7.962  0.00  0.00     0.027 H 
ATOM     25  H   LIG d   1       7.093   2.340  -6.792  0.00  0.00     0.027 H 
ATOM     26  H   LIG d   1       8.137   2.101  -8.233  0.00  0.00     0.027 H 
ATOM     27  H   LIG d   1      11.004   0.640  -4.996  0.00  0.00     0.027 H 
ATOM     28  H   LIG d   1      10.069   0.256  -3.524  0.00  0.00     0.027 H 
ATOM     29  H   LIG d   1      11.449   2.322  -3.231  0.00  0.00     0.027 H 
ATOM     30  H   LIG d   1       9.713   2.654  -3.092  0.00  0.00     0.027 H 
ATOM     31  H   LIG d   1      10.458   4.031  -7.547  0.00  0.00     0.031 H 
ATOM     32  H   LIG d   1       8.735   4.476  -7.553  0.00  0.00     0.031 H 
ATOM     33  H   LIG d   1       9.772   6.619  -6.976  0.00  0.00     0.057 H 
ATOM     34  H   LIG d   1      12.512   4.160  -3.048  0.00  0.00     0.027 H 
ATOM     35  H   LIG d   1      12.970   4.758  -4.661  0.00  0.00     0.027 H 
ATOM     36  H   LIG d   1      13.561   6.350  -2.842  0.00  0.00     0.029 H 
ATOM     37  H   LIG d   1      11.840   6.453  -2.400  0.00  0.00     0.029 H 
ATOM     38  H   LIG d   1      10.732   8.010  -5.593  0.00  0.00     0.034 H 
ATOM     39  H   LIG d   1      10.215   7.605  -3.936  0.00  0.00     0.034 H 
ENDROOT
BRANCH   1  40
ATOM     40  C   LIG d   1       7.377  -0.890  -4.890  0.00  0.00    -0.040 C 
ATOM     41  H   LIG d   1       7.113  -0.230  -4.064  0.00  0.00     0.030 H 
BRANCH  40  42
ATOM     42  C   LIG d   1       7.982  -2.182  -4.337  0.00  0.00    -0.062 C 
ATOM     43  H   LIG d   1       7.787  -2.245  -3.266  0.00  0.00     0.023 H 
ATOM     44  H   LIG d   1       7.534  -3.038  -4.839  0.00  0.00     0.023 H 
ATOM     45  H   LIG d   1       9.059  -2.182  -4.510  0.00  0.00     0.023 H 
ENDBRANCH  40  42
BRANCH  40  46
ATOM     46  C   LIG d   1       6.122  -1.221  -5.700  0.00  0.00    -0.047 C 
ATOM     47  H   LIG d   1       5.957  -0.444  -6.447  0.00  0.00     0.027 H 
ATOM     48  H   LIG d   1       6.254  -2.182  -6.198  0.00  0.00     0.027 H 
BRANCH  46  49
ATOM     49  C   LIG d   1       4.914  -1.293  -4.763  0.00  0.00    -0.034 C 
ATOM     50  H   LIG d   1       3.997  -1.296  -5.352  0.00  0.00     0.031 H 
ATOM     51  H   LIG d   1       4.968  -2.207  -4.170  0.00  0.00     0.031 H 
BRANCH  49  52
ATOM     52  C   LIG d   1       4.919  -0.098  -3.845  0.00  0.00    -0.085 C 
ATOM     53  C   LIG d   1       4.590  -0.239  -2.585  0.00  0.00    -0.080 C 
ATOM     54  H   LIG d   1       5.194   0.875  -4.227  0.00  0.00     0.057 H 
BRANCH  53  55
ATOM     55  C   LIG d   1       4.404  -1.617  -2.004  0.00  0.00    -0.044 C 
ATOM     56  H   LIG d   1       3.996  -2.281  -2.766  0.00  0.00     0.027 H 
ATOM     57  H   LIG d   1       5.367  -2.002  -1.666  0.00  0.00     0.027 H 
ATOM     58  H   LIG d   1       3.717  -1.566  -1.160  0.00  0.00     0.027 H 
ENDBRANCH  53  55
BRANCH  53  59
ATOM     59  C   LIG d   1       4.398   0.977  -1.716  0.00  0.00    -0.044 C 
ATOM     60  H   LIG d   1       3.492   0.858  -1.121  0.00  0.00     0.027 H 
ATOM     61  H   LIG d   1       5.256   1.090  -1.053  0.00  0.00     0.027 H 
ATOM     62  H   LIG d   1       4.305   1.863  -2.345  0.00  0.00     0.027 H 
ENDBRANCH  53  59
ENDBRANCH  49  52
ENDBRANCH  46  49
ENDBRANCH  40  46
ENDBRANCH   1  40
BRANCH   7  63
ATOM     63  C   LIG d   1       7.811   1.688  -4.252  0.00  0.00    -0.059 C 
ATOM     64  H   LIG d   1       7.025   2.104  -4.883  0.00  0.00     0.024 H 
ATOM     65  H   LIG d   1       7.390   0.913  -3.611  0.00  0.00     0.024 H 
ATOM     66  H   LIG d   1       8.236   2.479  -3.634  0.00  0.00     0.024 H 
ENDBRANCH   7  63
BRANCH  17  67
ATOM     67  C   LIG d   1       9.947   4.913  -3.046  0.00  0.00    -0.056 C 
ATOM     68  H   LIG d   1       9.030   4.346  -3.205  0.00  0.00     0.024 H 
ATOM     69  H   LIG d   1      10.466   4.526  -2.169  0.00  0.00     0.024 H 
ATOM     70  H   LIG d   1       9.702   5.963  -2.888  0.00  0.00     0.024 H 
ENDBRANCH  17  67
BRANCH  20  71
ATOM     71  O   LIG d   1      12.633   8.637  -3.764  0.00  0.00    -0.392 OA
ATOM     72  H   LIG d   1      12.471   8.716  -2.814  0.00  0.00     0.210 HD
ENDBRANCH  20  71
TORSDOF 10
ENDMDL
MODEL 8
REMARK VINA RESULT:      -5.3      8.950     13.397
REMARK  10 active torsions:
REMARK  status: ('A' for Active; 'I' for Inactive)
REMARK    1  A    between atoms: C_1  and  C_2 
REMARK    2  A    between atoms: C_2  and  C_4 
REMARK    3  A    between atoms: C_2  and  C_10 
REMARK    4  A    between atoms: C_4  and  C_5 
REMARK    5  A    between atoms: C_5  and  C_6 
REMARK    6  A    between atoms: C_7  and  C_8 
REMARK    7  A    between atoms: C_7  and  C_9 
REMARK    8  A    between atoms: C_16  and  C_34 
REMARK    9  A    between atoms: C_26  and  C_33 
REMARK   10  A    between atoms: C_29  and  O_32 
ROOT
ATOM      1  C   LIG d   1      10.829   4.519  -4.722  0.00  0.00    -0.033 C 
ATOM      2  H   LIG d   1      11.757   4.542  -5.294  0.00  0.00     0.031 H 
ATOM      3  C   LIG d   1       9.707   5.259  -5.492  0.00  0.00    -0.049 C 
ATOM      4  C   LIG d   1       9.322   6.493  -4.630  0.00  0.00    -0.049 C 
ATOM      5  C   LIG d   1      10.587   6.736  -3.798  0.00  0.00    -0.032 C 
ATOM      6  H   LIG d   1      11.360   7.200  -4.411  0.00  0.00     0.031 H 
ATOM      7  C   LIG d   1      10.995   5.288  -3.415  0.00  0.00    -0.026 C 
ATOM      8  C   LIG d   1      12.399   5.357  -2.846  0.00  0.00    -0.047 C 
ATOM      9  C   LIG d   1      12.322   6.173  -1.547  0.00  0.00    -0.049 C 
ATOM     10  C   LIG d   1      11.744   7.565  -1.787  0.00  0.00    -0.029 C 
ATOM     11  H   LIG d   1      12.435   8.119  -2.423  0.00  0.00     0.031 H 
ATOM     12  C   LIG d   1      10.388   7.505  -2.504  0.00  0.00    -0.031 C 
ATOM     13  H   LIG d   1       9.652   7.004  -1.877  0.00  0.00     0.031 H 
ATOM     14  C   LIG d   1       9.952   8.940  -2.824  0.00  0.00    -0.031 C 
ATOM     15  C   LIG d   1       9.922   9.741  -1.555  0.00  0.00    -0.084 C 
ATOM     16  C   LIG d   1      10.671   9.469  -0.525  0.00  0.00    -0.065 C 
ATOM     17  C   LIG d   1      11.614   8.303  -0.465  0.00  0.00    -0.008 C 
ATOM     18  C   LIG d   1      12.988   8.800  -0.005  0.00  0.00    -0.041 C 
ATOM     19  C   LIG d   1      12.858   9.552   1.305  0.00  0.00    -0.026 C 
ATOM     20  C   LIG d   1      11.991  10.795   1.093  0.00  0.00     0.059 C 
ATOM     21  H   LIG d   1      12.422  11.408   0.302  0.00  0.00     0.060 H 
ATOM     22  C   LIG d   1      10.576  10.368   0.696  0.00  0.00    -0.005 C 
ATOM     23  H   LIG d   1       8.842   4.606  -5.615  0.00  0.00     0.027 H 
ATOM     24  H   LIG d   1      10.071   5.583  -6.467  0.00  0.00     0.027 H 
ATOM     25  H   LIG d   1       8.475   6.264  -3.984  0.00  0.00     0.027 H 
ATOM     26  H   LIG d   1       9.106   7.354  -5.262  0.00  0.00     0.027 H 
ATOM     27  H   LIG d   1      13.064   5.850  -3.556  0.00  0.00     0.027 H 
ATOM     28  H   LIG d   1      12.764   4.352  -2.632  0.00  0.00     0.027 H 
ATOM     29  H   LIG d   1      13.323   6.272  -1.128  0.00  0.00     0.027 H 
ATOM     30  H   LIG d   1      11.690   5.646  -0.832  0.00  0.00     0.027 H 
ATOM     31  H   LIG d   1      10.659   9.388  -3.521  0.00  0.00     0.031 H 
ATOM     32  H   LIG d   1       8.958   8.927  -3.271  0.00  0.00     0.031 H 
ATOM     33  H   LIG d   1       9.258  10.591  -1.498  0.00  0.00     0.057 H 
ATOM     34  H   LIG d   1      13.651   7.948   0.146  0.00  0.00     0.027 H 
ATOM     35  H   LIG d   1      13.409   9.458  -0.765  0.00  0.00     0.027 H 
ATOM     36  H   LIG d   1      13.846   9.853   1.654  0.00  0.00     0.029 H 
ATOM     37  H   LIG d   1      12.392   8.907   2.050  0.00  0.00     0.029 H 
ATOM     38  H   LIG d   1       9.980  11.249   0.455  0.00  0.00     0.034 H 
ATOM     39  H   LIG d   1      10.111   9.824   1.518  0.00  0.00     0.034 H 
ENDROOT
BRANCH   1  40
ATOM     40  C   LIG d   1      10.413   3.075  -4.439  0.00  0.00    -0.040 C 
ATOM     41  H   LIG d   1      10.152   2.971  -3.387  0.00  0.00     0.030 H 
BRANCH  40  42
ATOM     42  C   LIG d   1      11.575   2.136  -4.771  0.00  0.00    -0.062 C 
ATOM     43  H   LIG d   1      11.682   2.058  -5.854  0.00  0.00     0.023 H 
ATOM     44  H   LIG d   1      12.496   2.532  -4.343  0.00  0.00     0.023 H 
ATOM     45  H   LIG d   1      11.376   1.149  -4.355  0.00  0.00     0.023 H 
ENDBRANCH  40  42
BRANCH  40  46
ATOM     46  C   LIG d   1       9.203   2.713  -5.303  0.00  0.00    -0.047 C 
ATOM     47  H   LIG d   1       8.467   3.515  -5.250  0.00  0.00     0.027 H 
ATOM     48  H   LIG d   1       9.522   2.581  -6.337  0.00  0.00     0.027 H 
BRANCH  46  49
ATOM     49  C   LIG d   1       8.581   1.413  -4.791  0.00  0.00    -0.034 C 
ATOM     50  H   LIG d   1       8.206   0.833  -5.634  0.00  0.00     0.031 H 
ATOM     51  H   LIG d   1       9.335   0.835  -4.257  0.00  0.00     0.031 H 
BRANCH  49  52
ATOM     52  C   LIG d   1       7.442   1.735  -3.858  0.00  0.00    -0.085 C 
ATOM     53  C   LIG d   1       6.648   0.781  -3.440  0.00  0.00    -0.080 C 
ATOM     54  H   LIG d   1       7.281   2.753  -3.534  0.00  0.00     0.057 H 
BRANCH  53  55
ATOM     55  C   LIG d   1       6.987  -0.660  -3.722  0.00  0.00    -0.044 C 
ATOM     56  H   LIG d   1       7.495  -1.090  -2.858  0.00  0.00     0.027 H 
ATOM     57  H   LIG d   1       6.070  -1.217  -3.918  0.00  0.00     0.027 H 
ATOM     58  H   LIG d   1       7.639  -0.716  -4.592  0.00  0.00     0.027 H 
ENDBRANCH  53  55
BRANCH  53  59
ATOM     59  C   LIG d   1       5.395   1.124  -2.675  0.00  0.00    -0.044 C 
ATOM     60  H   LIG d   1       4.863   0.207  -2.421  0.00  0.00     0.027 H 
ATOM     61  H   LIG d   1       5.662   1.654  -1.760  0.00  0.00     0.027 H 
ATOM     62  H   LIG d   1       4.756   1.758  -3.289  0.00  0.00     0.027 H 
ENDBRANCH  53  59
ENDBRANCH  49  52
ENDBRANCH  46  49
ENDBRANCH  40  46
ENDBRANCH   1  40
BRANCH   7  63
ATOM     63  C   LIG d   1      10.034   4.739  -2.359  0.00  0.00    -0.059 C 
ATOM     64  H   LIG d   1       9.013   5.025  -2.613  0.00  0.00     0.024 H 
ATOM     65  H   LIG d   1      10.110   3.652  -2.329  0.00  0.00     0.024 H 
ATOM     66  H   LIG d   1      10.293   5.149  -1.383  0.00  0.00     0.024 H 
ENDBRANCH   7  63
BRANCH  17  67
ATOM     67  C   LIG d   1      11.090   7.318   0.582  0.00  0.00    -0.056 C 
ATOM     68  H   LIG d   1      10.608   6.479   0.081  0.00  0.00     0.024 H 
ATOM     69  H   LIG d   1      11.921   6.954   1.186  0.00  0.00     0.024 H 
ATOM     70  H   LIG d   1      10.367   7.822   1.224  0.00  0.00     0.024 H 
ENDBRANCH  17  67
BRANCH  20  71
ATOM     71  O   LIG d   1      11.939  11.550   2.305  0.00  0.00    -0.392 OA
ATOM     72  H   LIG d   1      12.385  11.126   3.052  0.00  0.00     0.210 HD
ENDBRANCH  20  71
TORSDOF 10
ENDMDL
MODEL 9
REMARK VINA RESULT:      -5.2      9.439     13.415
REMARK  10 active torsions:
REMARK  status: ('A' for Active; 'I' for Inactive)
REMARK    1  A    between atoms: C_1  and  C_2 
REMARK    2  A    between atoms: C_2  and  C_4 
REMARK    3  A    between atoms: C_2  and  C_10 
REMARK    4  A    between atoms: C_4  and  C_5 
REMARK    5  A    between atoms: C_5  and  C_6 
REMARK    6  A    between atoms: C_7  and  C_8 
REMARK    7  A    between atoms: C_7  and  C_9 
REMARK    8  A    between atoms: C_16  and  C_34 
REMARK    9  A    between atoms: C_26  and  C_33 
REMARK   10  A    between atoms: C_29  and  O_32 
ROOT
ATOM      1  C   LIG d   1       9.818   3.996  -4.671  0.00  0.00    -0.033 C 
ATOM      2  H   LIG d   1       8.751   3.958  -4.890  0.00  0.00     0.031 H 
ATOM      3  C   LIG d   1      10.183   2.939  -3.599  0.00  0.00    -0.049 C 
ATOM      4  C   LIG d   1      10.670   3.729  -2.353  0.00  0.00    -0.049 C 
ATOM      5  C   LIG d   1       9.998   5.095  -2.530  0.00  0.00    -0.032 C 
ATOM      6  H   LIG d   1       8.939   5.032  -2.280  0.00  0.00     0.031 H 
ATOM      7  C   LIG d   1      10.183   5.341  -4.051  0.00  0.00    -0.026 C 
ATOM      8  C   LIG d   1       9.299   6.517  -4.422  0.00  0.00    -0.047 C 
ATOM      9  C   LIG d   1       9.850   7.748  -3.685  0.00  0.00    -0.049 C 
ATOM     10  C   LIG d   1       9.892   7.531  -2.175  0.00  0.00    -0.029 C 
ATOM     11  H   LIG d   1       8.869   7.426  -1.815  0.00  0.00     0.031 H 
ATOM     12  C   LIG d   1      10.657   6.254  -1.803  0.00  0.00    -0.031 C 
ATOM     13  H   LIG d   1      11.702   6.339  -2.100  0.00  0.00     0.031 H 
ATOM     14  C   LIG d   1      10.532   6.045  -0.289  0.00  0.00    -0.031 C 
ATOM     15  C   LIG d   1      11.031   7.269   0.421  0.00  0.00    -0.084 C 
ATOM     16  C   LIG d   1      11.004   8.459  -0.109  0.00  0.00    -0.065 C 
ATOM     17  C   LIG d   1      10.516   8.741  -1.499  0.00  0.00    -0.008 C 
ATOM     18  C   LIG d   1       9.506   9.890  -1.447  0.00  0.00    -0.041 C 
ATOM     19  C   LIG d   1      10.120  11.093  -0.757  0.00  0.00    -0.026 C 
ATOM     20  C   LIG d   1      10.449  10.733   0.693  0.00  0.00     0.059 C 
ATOM     21  H   LIG d   1       9.547  10.381   1.194  0.00  0.00     0.060 H 
ATOM     22  C   LIG d   1      11.511   9.630   0.716  0.00  0.00    -0.005 C 
ATOM     23  H   LIG d   1      10.981   2.293  -3.966  0.00  0.00     0.027 H 
ATOM     24  H   LIG d   1       9.307   2.343  -3.346  0.00  0.00     0.027 H 
ATOM     25  H   LIG d   1      11.755   3.829  -2.359  0.00  0.00     0.027 H 
ATOM     26  H   LIG d   1      10.330   3.249  -1.435  0.00  0.00     0.027 H 
ATOM     27  H   LIG d   1       8.273   6.324  -4.108  0.00  0.00     0.027 H 
ATOM     28  H   LIG d   1       9.333   6.684  -5.499  0.00  0.00     0.027 H 
ATOM     29  H   LIG d   1       9.216   8.607  -3.903  0.00  0.00     0.027 H 
ATOM     30  H   LIG d   1      10.859   7.954  -4.042  0.00  0.00     0.027 H 
ATOM     31  H   LIG d   1       9.488   5.875  -0.030  0.00  0.00     0.031 H 
ATOM     32  H   LIG d   1      11.126   5.182   0.010  0.00  0.00     0.031 H 
ATOM     33  H   LIG d   1      11.419   7.162   1.423  0.00  0.00     0.057 H 
ATOM     34  H   LIG d   1       9.226  10.176  -2.461  0.00  0.00     0.027 H 
ATOM     35  H   LIG d   1       8.618   9.570  -0.902  0.00  0.00     0.027 H 
ATOM     36  H   LIG d   1       9.415  11.924  -0.774  0.00  0.00     0.029 H 
ATOM     37  H   LIG d   1      11.034  11.382  -1.276  0.00  0.00     0.029 H 
ATOM     38  H   LIG d   1      11.682   9.306   1.744  0.00  0.00     0.034 H 
ATOM     39  H   LIG d   1      12.441  10.004   0.289  0.00  0.00     0.034 H 
ENDROOT
BRANCH   1  40
ATOM     40  C   LIG d   1      10.631   3.761  -5.945  0.00  0.00    -0.040 C 
ATOM     41  H   LIG d   1      11.557   4.335  -5.897  0.00  0.00     0.030 H 
BRANCH  40  42
ATOM     42  C   LIG d   1       9.816   4.210  -7.160  0.00  0.00    -0.062 C 
ATOM     43  H   LIG d   1      10.162   5.191  -7.488  0.00  0.00     0.023 H 
ATOM     44  H   LIG d   1       9.942   3.491  -7.969  0.00  0.00     0.023 H 
ATOM     45  H   LIG d   1       8.762   4.270  -6.888  0.00  0.00     0.023 H 
ENDBRANCH  40  42
BRANCH  40  46
ATOM     46  C   LIG d   1      10.960   2.272  -6.074  0.00  0.00    -0.047 C 
ATOM     47  H   LIG d   1      10.774   1.777  -5.121  0.00  0.00     0.027 H 
ATOM     48  H   LIG d   1      10.331   1.827  -6.844  0.00  0.00     0.027 H 
BRANCH  46  49
ATOM     49  C   LIG d   1      12.432   2.107  -6.457  0.00  0.00    -0.034 C 
ATOM     50  H   LIG d   1      12.716   1.058  -6.364  0.00  0.00     0.031 H 
ATOM     51  H   LIG d   1      12.578   2.432  -7.487  0.00  0.00     0.031 H 
BRANCH  49  52
ATOM     52  C   LIG d   1      13.287   2.943  -5.540  0.00  0.00    -0.085 C 
ATOM     53  C   LIG d   1      13.723   2.440  -4.412  0.00  0.00    -0.080 C 
ATOM     54  H   LIG d   1      13.539   3.957  -5.813  0.00  0.00     0.057 H 
BRANCH  53  55
ATOM     55  C   LIG d   1      13.546   0.971  -4.124  0.00  0.00    -0.044 C 
ATOM     56  H   LIG d   1      12.892   0.529  -4.876  0.00  0.00     0.027 H 
ATOM     57  H   LIG d   1      14.517   0.475  -4.151  0.00  0.00     0.027 H 
ATOM     58  H   LIG d   1      13.102   0.845  -3.137  0.00  0.00     0.027 H 
ENDBRANCH  53  55
BRANCH  53  59
ATOM     59  C   LIG d   1      14.404   3.329  -3.404  0.00  0.00    -0.044 C 
ATOM     60  H   LIG d   1      15.466   3.396  -3.638  0.00  0.00     0.027 H 
ATOM     61  H   LIG d   1      13.959   4.324  -3.438  0.00  0.00     0.027 H 
ATOM     62  H   LIG d   1      14.278   2.910  -2.406  0.00  0.00     0.027 H 
ENDBRANCH  53  59
ENDBRANCH  49  52
ENDBRANCH  46  49
ENDBRANCH  40  46
ENDBRANCH   1  40
BRANCH   7  63
ATOM     63  C   LIG d   1      11.645   5.677  -4.350  0.00  0.00    -0.059 C 
ATOM     64  H   LIG d   1      11.693   6.393  -5.171  0.00  0.00     0.024 H 
ATOM     65  H   LIG d   1      12.106   6.111  -3.463  0.00  0.00     0.024 H 
ATOM     66  H   LIG d   1      12.178   4.768  -4.629  0.00  0.00     0.024 H 
ENDBRANCH   7  63
BRANCH  17  67
ATOM     67  C   LIG d   1      11.710   9.195  -2.341  0.00  0.00    -0.056 C 
ATOM     68  H   LIG d   1      12.584   9.308  -1.701  0.00  0.00     0.024 H 
ATOM     69  H   LIG d   1      11.916   8.451  -3.111  0.00  0.00     0.024 H 
ATOM     70  H   LIG d   1      11.479  10.151  -2.812  0.00  0.00     0.024 H 
ENDBRANCH  17  67
BRANCH  20  71
ATOM     71  O   LIG d   1      10.948  11.889   1.369  0.00  0.00    -0.392 OA
ATOM     72  H   LIG d   1      11.760  12.249   0.984  0.00  0.00     0.210 HD
ENDBRANCH  20  71
TORSDOF 10
ENDMDL
MODEL 10
REMARK VINA RESULT:      -5.2      4.727      8.061
REMARK  10 active torsions:
REMARK  status: ('A' for Active; 'I' for Inactive)
REMARK    1  A    between atoms: C_1  and  C_2 
REMARK    2  A    between atoms: C_2  and  C_4 
REMARK    3  A    between atoms: C_2  and  C_10 
REMARK    4  A    between atoms: C_4  and  C_5 
REMARK    5  A    between atoms: C_5  and  C_6 
REMARK    6  A    between atoms: C_7  and  C_8 
REMARK    7  A    between atoms: C_7  and  C_9 
REMARK    8  A    between atoms: C_16  and  C_34 
REMARK    9  A    between atoms: C_26  and  C_33 
REMARK   10  A    between atoms: C_29  and  O_32 
ROOT
ATOM      1  C   LIG d   1       6.903  -1.757  -6.061  0.00  0.00    -0.033 C 
ATOM      2  H   LIG d   1       7.556  -1.417  -6.865  0.00  0.00     0.031 H 
ATOM      3  C   LIG d   1       7.111  -0.884  -4.798  0.00  0.00    -0.049 C 
ATOM      4  C   LIG d   1       7.689  -1.825  -3.705  0.00  0.00    -0.049 C 
ATOM      5  C   LIG d   1       8.338  -2.945  -4.526  0.00  0.00    -0.032 C 
ATOM      6  H   LIG d   1       9.277  -2.602  -4.960  0.00  0.00     0.031 H 
ATOM      7  C   LIG d   1       7.279  -3.173  -5.638  0.00  0.00    -0.026 C 
ATOM      8  C   LIG d   1       7.927  -4.044  -6.697  0.00  0.00    -0.047 C 
ATOM      9  C   LIG d   1       8.217  -5.406  -6.049  0.00  0.00    -0.049 C 
ATOM     10  C   LIG d   1       9.104  -5.269  -4.815  0.00  0.00    -0.029 C 
ATOM     11  H   LIG d   1      10.079  -4.900  -5.133  0.00  0.00     0.031 H 
ATOM     12  C   LIG d   1       8.526  -4.268  -3.805  0.00  0.00    -0.031 C 
ATOM     13  H   LIG d   1       7.572  -4.627  -3.421  0.00  0.00     0.031 H 
ATOM     14  C   LIG d   1       9.543  -4.092  -2.671  0.00  0.00    -0.031 C 
ATOM     15  C   LIG d   1       9.853  -5.433  -2.073  0.00  0.00    -0.084 C 
ATOM     16  C   LIG d   1       9.762  -6.547  -2.742  0.00  0.00    -0.065 C 
ATOM     17  C   LIG d   1       9.296  -6.629  -4.165  0.00  0.00    -0.008 C 
ATOM     18  C   LIG d   1      10.303  -7.457  -4.969  0.00  0.00    -0.041 C 
ATOM     19  C   LIG d   1      10.509  -8.808  -4.313  0.00  0.00    -0.026 C 
ATOM     20  C   LIG d   1      11.117  -8.609  -2.923  0.00  0.00     0.059 C 
ATOM     21  H   LIG d   1      12.044  -8.042  -3.009  0.00  0.00     0.060 H 
ATOM     22  C   LIG d   1      10.128  -7.843  -2.039  0.00  0.00    -0.005 C 
ATOM     23  H   LIG d   1       6.158  -0.470  -4.468  0.00  0.00     0.027 H 
ATOM     24  H   LIG d   1       7.815  -0.080  -5.010  0.00  0.00     0.027 H 
ATOM     25  H   LIG d   1       6.893  -2.221  -3.076  0.00  0.00     0.027 H 
ATOM     26  H   LIG d   1       8.437  -1.306  -3.105  0.00  0.00     0.027 H 
ATOM     27  H   LIG d   1       8.858  -3.588  -7.035  0.00  0.00     0.027 H 
ATOM     28  H   LIG d   1       7.249  -4.172  -7.541  0.00  0.00     0.027 H 
ATOM     29  H   LIG d   1       8.715  -6.048  -6.775  0.00  0.00     0.027 H 
ATOM     30  H   LIG d   1       7.273  -5.869  -5.758  0.00  0.00     0.027 H 
ATOM     31  H   LIG d   1      10.457  -3.650  -3.067  0.00  0.00     0.031 H 
ATOM     32  H   LIG d   1       9.125  -3.439  -1.906  0.00  0.00     0.031 H 
ATOM     33  H   LIG d   1      10.179  -5.475  -1.045  0.00  0.00     0.057 H 
ATOM     34  H   LIG d   1       9.921  -7.614  -5.979  0.00  0.00     0.027 H 
ATOM     35  H   LIG d   1      11.253  -6.925  -5.019  0.00  0.00     0.027 H 
ATOM     36  H   LIG d   1      11.184  -9.411  -4.921  0.00  0.00     0.029 H 
ATOM     37  H   LIG d   1       9.550  -9.318  -4.220  0.00  0.00     0.029 H 
ATOM     38  H   LIG d   1      10.592  -7.620  -1.078  0.00  0.00     0.034 H 
ATOM     39  H   LIG d   1       9.232  -8.444  -1.884  0.00  0.00     0.034 H 
ENDROOT
BRANCH   1  40
ATOM     40  C   LIG d   1       5.440  -1.706  -6.505  0.00  0.00    -0.040 C 
ATOM     41  H   LIG d   1       4.868  -2.456  -5.959  0.00  0.00     0.030 H 
BRANCH  40  42
ATOM     42  C   LIG d   1       5.353  -1.991  -8.005  0.00  0.00    -0.062 C 
ATOM     43  H   LIG d   1       4.805  -1.186  -8.497  0.00  0.00     0.023 H 
ATOM     44  H   LIG d   1       6.357  -2.055  -8.422  0.00  0.00     0.023 H 
ATOM     45  H   LIG d   1       4.832  -2.935  -8.167  0.00  0.00     0.023 H 
ENDBRANCH  40  42
BRANCH  40  46
ATOM     46  C   LIG d   1       4.867  -0.317  -6.215  0.00  0.00    -0.047 C 
ATOM     47  H   LIG d   1       5.570   0.244  -5.600  0.00  0.00     0.027 H 
ATOM     48  H   LIG d   1       4.703   0.211  -7.154  0.00  0.00     0.027 H 
BRANCH  46  49
ATOM     49  C   LIG d   1       3.537  -0.460  -5.470  0.00  0.00    -0.034 C 
ATOM     50  H   LIG d   1       3.181   0.526  -5.172  0.00  0.00     0.031 H 
ATOM     51  H   LIG d   1       2.803  -0.929  -6.125  0.00  0.00     0.031 H 
BRANCH  49  52
ATOM     52  C   LIG d   1       3.737  -1.314  -4.245  0.00  0.00    -0.085 C 
ATOM     53  C   LIG d   1       3.893  -0.751  -3.073  0.00  0.00    -0.080 C 
ATOM     54  H   LIG d   1       3.753  -2.390  -4.334  0.00  0.00     0.057 H 
BRANCH  53  55
ATOM     55  C   LIG d   1       3.671   0.731  -2.913  0.00  0.00    -0.044 C 
ATOM     56  H   LIG d   1       2.882   0.904  -2.180  0.00  0.00     0.027 H 
ATOM     57  H   LIG d   1       4.593   1.202  -2.570  0.00  0.00     0.027 H 
ATOM     58  H   LIG d   1       3.378   1.161  -3.870  0.00  0.00     0.027 H 
ENDBRANCH  53  55
BRANCH  53  59
ATOM     59  C   LIG d   1       4.293  -1.585  -1.883  0.00  0.00    -0.044 C 
ATOM     60  H   LIG d   1       4.062  -2.632  -2.081  0.00  0.00     0.027 H 
ATOM     61  H   LIG d   1       5.363  -1.476  -1.706  0.00  0.00     0.027 H 
ATOM     62  H   LIG d   1       3.743  -1.251  -1.004  0.00  0.00     0.027 H 
ENDBRANCH  53  59
ENDBRANCH  49  52
ENDBRANCH  46  49
ENDBRANCH  40  46
ENDBRANCH   1  40
BRANCH   7  63
ATOM     63  C   LIG d   1       6.059  -3.888  -5.055  0.00  0.00    -0.059 C 
ATOM     64  H   LIG d   1       5.476  -3.185  -4.459  0.00  0.00     0.024 H 
ATOM     65  H   LIG d   1       5.442  -4.273  -5.867  0.00  0.00     0.024 H 
ATOM     66  H   LIG d   1       6.387  -4.714  -4.424  0.00  0.00     0.024 H 
ENDBRANCH   7  63
BRANCH  17  67
ATOM     67  C   LIG d   1       7.953  -7.362  -4.187  0.00  0.00    -0.056 C 
ATOM     68  H   LIG d   1       7.473  -7.211  -5.153  0.00  0.00     0.024 H 
ATOM     69  H   LIG d   1       8.118  -8.428  -4.025  0.00  0.00     0.024 H 
ATOM     70  H   LIG d   1       7.313  -6.970  -3.397  0.00  0.00     0.024 H 
ENDBRANCH  17  67
BRANCH  20  71
ATOM     71  O   LIG d   1      11.392  -9.884  -2.337  0.00  0.00    -0.392 OA
ATOM     72  H   LIG d   1      11.815  -9.833  -1.469  0.00  0.00     0.210 HD
ENDBRANCH  20  71
TORSDOF 10
ENDMDL
