MODEL 1
REMARK VINA RESULT:      -6.7      0.000      0.000
REMARK  10 active torsions:
REMARK  status: ('A' for Active; 'I' for Inactive)
REMARK    1  A    between atoms: C_1  and  O_2 
REMARK    2  A    between atoms: O_2  and  C_3 
REMARK    3  A    between atoms: C_8  and  O_9 
REMARK    4  A    between atoms: O_9  and  C_10 
REMARK    5  A    between atoms: C_14  and  C_15 
REMARK    6  A    between atoms: C_14  and  N_50 
REMARK    7  A    between atoms: C_15  and  C_17 
REMARK    8  A    between atoms: C_15  and  O_25 
REMARK    9  A    between atoms: C_17  and  O_18 
REMARK   10  A    between atoms: O_18  and  C_19 
ROOT
ATOM      1  C   LIG d   1      10.163   8.113  -1.249  0.00  0.00     0.162 A 
ATOM      2  C   LIG d   1       9.876   8.029  -2.598  0.00  0.00    -0.013 A 
ATOM      3  C   LIG d   1       9.818   6.793  -3.228  0.00  0.00    -0.030 A 
ATOM      4  C   LIG d   1      10.048   5.642  -2.506  0.00  0.00     0.004 A 
ATOM      5  C   LIG d   1      10.336   5.723  -1.151  0.00  0.00    -0.008 A 
ATOM      6  C   LIG d   1      10.395   6.951  -0.519  0.00  0.00     0.162 A 
ATOM      7  C   LIG d   1       9.999   4.279  -3.147  0.00  0.00    -0.005 C 
ATOM      8  C   LIG d   1       9.879   5.394  -5.281  0.00  0.00    -0.027 C 
ATOM      9  C   LIG d   1       9.495   6.755  -4.700  0.00  0.00     0.013 C 
ATOM     10  H   LIG d   1       9.696   8.930  -3.167  0.00  0.00     0.066 H 
ATOM     11  H   LIG d   1      10.515   4.819  -0.587  0.00  0.00     0.066 H 
ATOM     12  H   LIG d   1       9.476   3.589  -2.485  0.00  0.00     0.087 H 
ATOM     13  H   LIG d   1      11.015   3.922  -3.310  0.00  0.00     0.087 H 
ATOM     14  H   LIG d   1       9.489   5.305  -6.295  0.00  0.00     0.082 H 
ATOM     15  H   LIG d   1      10.965   5.295  -5.297  0.00  0.00     0.082 H 
ATOM     16  H   LIG d   1      10.053   7.537  -5.213  0.00  0.00     0.036 H 
ATOM     17  H   LIG d   1       8.427   6.919  -4.841  0.00  0.00     0.036 H 
ATOM     18  N   LIG d   1       9.275   4.351  -4.427  0.00  0.00     0.241 N 
ATOM     19  H   LIG d   1       8.294   4.596  -4.246  0.00  0.00     0.204 HD
ENDROOT
BRANCH  18  20
ATOM     20  C   LIG d   1       9.326   3.040  -5.113  0.00  0.00    -0.002 C 
ATOM     21  H   LIG d   1       8.564   2.992  -5.891  0.00  0.00     0.084 H 
ATOM     22  H   LIG d   1      10.311   2.905  -5.559  0.00  0.00     0.084 H 
BRANCH  20  23
ATOM     23  C   LIG d   1       9.075   1.935  -4.085  0.00  0.00     0.129 C 
ATOM     24  H   LIG d   1       9.070   2.364  -3.083  0.00  0.00     0.068 H 
BRANCH  23  25
ATOM     25  C   LIG d   1       7.723   1.275  -4.365  0.00  0.00     0.120 C 
ATOM     26  H   LIG d   1       7.386   1.551  -5.365  0.00  0.00     0.072 H 
ATOM     27  H   LIG d   1       7.827   0.192  -4.302  0.00  0.00     0.072 H 
BRANCH  25  28
ATOM     28  O   LIG d   1       6.767   1.719  -3.401  0.00  0.00    -0.489 OA
BRANCH  28  29
ATOM     29  C   LIG d   1       5.807   0.833  -3.030  0.00  0.00     0.121 A 
ATOM     30  C   LIG d   1       4.556   1.286  -2.638  0.00  0.00    -0.020 A 
ATOM     31  C   LIG d   1       3.581   0.382  -2.262  0.00  0.00    -0.058 A 
ATOM     32  H   LIG d   1       4.343   2.345  -2.630  0.00  0.00     0.065 H 
ATOM     33  C   LIG d   1       3.853  -0.973  -2.273  0.00  0.00    -0.061 A 
ATOM     34  H   LIG d   1       2.607   0.735  -1.956  0.00  0.00     0.062 H 
ATOM     35  C   LIG d   1       5.099  -1.428  -2.661  0.00  0.00    -0.058 A 
ATOM     36  H   LIG d   1       3.089  -1.679  -1.977  0.00  0.00     0.062 H 
ATOM     37  C   LIG d   1       6.075  -0.529  -3.046  0.00  0.00    -0.020 A 
ATOM     38  H   LIG d   1       5.309  -2.488  -2.669  0.00  0.00     0.062 H 
ATOM     39  H   LIG d   1       7.047  -0.884  -3.354  0.00  0.00     0.065 H 
ENDBRANCH  28  29
ENDBRANCH  25  28
ENDBRANCH  23  25
BRANCH  23  40
ATOM     40  O   LIG d   1      10.111   0.954  -4.178  0.00  0.00    -0.383 OA
ATOM     41  H   LIG d   1      10.466   0.675  -3.324  0.00  0.00     0.210 HD
ENDBRANCH  23  40
ENDBRANCH  20  23
ENDBRANCH  18  20
BRANCH   6  42
ATOM     42  O   LIG d   1      10.678   7.024   0.809  0.00  0.00    -0.491 OA
BRANCH  42  43
ATOM     43  C   LIG d   1      11.048   5.806   1.460  0.00  0.00     0.079 C 
ATOM     44  H   LIG d   1      11.088   4.999   0.728  0.00  0.00     0.066 H 
ATOM     45  H   LIG d   1      12.026   5.925   1.924  0.00  0.00     0.066 H 
ATOM     46  H   LIG d   1      10.309   5.565   2.225  0.00  0.00     0.066 H 
ENDBRANCH  42  43
ENDBRANCH   6  42
BRANCH   1  47
ATOM     47  O   LIG d   1      10.221   9.328  -0.637  0.00  0.00    -0.491 OA
BRANCH  47  48
ATOM     48  C   LIG d   1       9.986  10.477  -1.452  0.00  0.00     0.079 C 
ATOM     49  H   LIG d   1       8.938  10.768  -1.375  0.00  0.00     0.066 H 
ATOM     50  H   LIG d   1      10.617  11.298  -1.113  0.00  0.00     0.066 H 
ATOM     51  H   LIG d   1      10.222  10.241  -2.489  0.00  0.00     0.066 H 
ENDBRANCH  47  48
ENDBRANCH   1  47
TORSDOF 10
ENDMDL
MODEL 2
REMARK VINA RESULT:      -6.6      7.109     11.160
REMARK  10 active torsions:
REMARK  status: ('A' for Active; 'I' for Inactive)
REMARK    1  A    between atoms: C_1  and  O_2 
REMARK    2  A    between atoms: O_2  and  C_3 
REMARK    3  A    between atoms: C_8  and  O_9 
REMARK    4  A    between atoms: O_9  and  C_10 
REMARK    5  A    between atoms: C_14  and  C_15 
REMARK    6  A    between atoms: C_14  and  N_50 
REMARK    7  A    between atoms: C_15  and  C_17 
REMARK    8  A    between atoms: C_15  and  O_25 
REMARK    9  A    between atoms: C_17  and  O_18 
REMARK   10  A    between atoms: O_18  and  C_19 
ROOT
ATOM      1  C   LIG d   1       4.639  -6.190  -6.037  0.00  0.00     0.162 A 
ATOM      2  C   LIG d   1       5.124  -5.076  -5.377  0.00  0.00    -0.013 A 
ATOM      3  C   LIG d   1       5.012  -3.816  -5.949  0.00  0.00    -0.030 A 
ATOM      4  C   LIG d   1       4.413  -3.671  -7.181  0.00  0.00     0.004 A 
ATOM      5  C   LIG d   1       3.924  -4.787  -7.846  0.00  0.00    -0.008 A 
ATOM      6  C   LIG d   1       4.034  -6.044  -7.281  0.00  0.00     0.162 A 
ATOM      7  C   LIG d   1       4.271  -2.325  -7.842  0.00  0.00    -0.005 C 
ATOM      8  C   LIG d   1       5.712  -1.438  -6.125  0.00  0.00    -0.027 C 
ATOM      9  C   LIG d   1       5.552  -2.634  -5.186  0.00  0.00     0.013 C 
ATOM     10  H   LIG d   1       5.596  -5.187  -4.410  0.00  0.00     0.066 H 
ATOM     11  H   LIG d   1       3.453  -4.671  -8.812  0.00  0.00     0.066 H 
ATOM     12  H   LIG d   1       3.279  -2.244  -8.285  0.00  0.00     0.087 H 
ATOM     13  H   LIG d   1       5.023  -2.228  -8.624  0.00  0.00     0.087 H 
ATOM     14  H   LIG d   1       5.934  -0.543  -5.544  0.00  0.00     0.082 H 
ATOM     15  H   LIG d   1       6.524  -1.629  -6.827  0.00  0.00     0.082 H 
ATOM     16  H   LIG d   1       6.522  -2.890  -4.759  0.00  0.00     0.036 H 
ATOM     17  H   LIG d   1       4.861  -2.374  -4.384  0.00  0.00     0.036 H 
ATOM     18  N   LIG d   1       4.435  -1.255  -6.844  0.00  0.00     0.241 N 
ATOM     19  H   LIG d   1       3.662  -1.303  -6.169  0.00  0.00     0.204 HD
ENDROOT
BRANCH  18  20
ATOM     20  C   LIG d   1       4.411   0.067  -7.510  0.00  0.00    -0.002 C 
ATOM     21  H   LIG d   1       5.092   0.755  -7.007  0.00  0.00     0.084 H 
ATOM     22  H   LIG d   1       4.714  -0.048  -8.550  0.00  0.00     0.084 H 
BRANCH  20  23
ATOM     23  C   LIG d   1       2.987   0.625  -7.450  0.00  0.00     0.129 C 
ATOM     24  H   LIG d   1       2.392   0.188  -8.251  0.00  0.00     0.068 H 
BRANCH  23  25
ATOM     25  C   LIG d   1       2.360   0.280  -6.099  0.00  0.00     0.120 C 
ATOM     26  H   LIG d   1       1.283   0.439  -6.147  0.00  0.00     0.072 H 
ATOM     27  H   LIG d   1       2.563  -0.764  -5.859  0.00  0.00     0.072 H 
BRANCH  25  28
ATOM     28  O   LIG d   1       2.919   1.118  -5.085  0.00  0.00    -0.489 OA
BRANCH  28  29
ATOM     29  C   LIG d   1       3.369   0.508  -3.958  0.00  0.00     0.121 A 
ATOM     30  C   LIG d   1       4.227   1.179  -3.100  0.00  0.00    -0.020 A 
ATOM     31  C   LIG d   1       4.682   0.557  -1.953  0.00  0.00    -0.058 A 
ATOM     32  H   LIG d   1       4.538   2.188  -3.326  0.00  0.00     0.065 H 
ATOM     33  C   LIG d   1       4.284  -0.735  -1.663  0.00  0.00    -0.061 A 
ATOM     34  H   LIG d   1       5.352   1.078  -1.285  0.00  0.00     0.062 H 
ATOM     35  C   LIG d   1       3.429  -1.407  -2.516  0.00  0.00    -0.058 A 
ATOM     36  H   LIG d   1       4.641  -1.220  -0.765  0.00  0.00     0.062 H 
ATOM     37  C   LIG d   1       2.965  -0.786  -3.660  0.00  0.00    -0.020 A 
ATOM     38  H   LIG d   1       3.119  -2.416  -2.287  0.00  0.00     0.062 H 
ATOM     39  H   LIG d   1       2.294  -1.308  -4.325  0.00  0.00     0.065 H 
ENDBRANCH  28  29
ENDBRANCH  25  28
ENDBRANCH  23  25
BRANCH  23  40
ATOM     40  O   LIG d   1       3.027   2.046  -7.607  0.00  0.00    -0.383 OA
ATOM     41  H   LIG d   1       2.228   2.497  -7.303  0.00  0.00     0.210 HD
ENDBRANCH  23  40
ENDBRANCH  20  23
ENDBRANCH  18  20
BRANCH   6  42
ATOM     42  O   LIG d   1       3.553  -7.133  -7.939  0.00  0.00    -0.491 OA
BRANCH  42  43
ATOM     43  C   LIG d   1       4.263  -7.551  -9.107  0.00  0.00     0.079 C 
ATOM     44  H   LIG d   1       3.770  -7.153  -9.994  0.00  0.00     0.066 H 
ATOM     45  H   LIG d   1       5.286  -7.180  -9.061  0.00  0.00     0.066 H 
ATOM     46  H   LIG d   1       4.273  -8.640  -9.155  0.00  0.00     0.066 H 
ENDBRANCH  42  43
ENDBRANCH   6  42
BRANCH   1  47
ATOM     47  O   LIG d   1       4.754  -7.423  -5.473  0.00  0.00    -0.491 OA
BRANCH  47  48
ATOM     48  C   LIG d   1       6.077  -7.923  -5.271  0.00  0.00     0.079 C 
ATOM     49  H   LIG d   1       6.145  -8.379  -4.283  0.00  0.00     0.066 H 
ATOM     50  H   LIG d   1       6.303  -8.670  -6.031  0.00  0.00     0.066 H 
ATOM     51  H   LIG d   1       6.790  -7.103  -5.343  0.00  0.00     0.066 H 
ENDBRANCH  47  48
ENDBRANCH   1  47
TORSDOF 10
ENDMDL
MODEL 3
REMARK VINA RESULT:      -6.5      7.047      9.208
REMARK  10 active torsions:
REMARK  status: ('A' for Active; 'I' for Inactive)
REMARK    1  A    between atoms: C_1  and  O_2 
REMARK    2  A    between atoms: O_2  and  C_3 
REMARK    3  A    between atoms: C_8  and  O_9 
REMARK    4  A    between atoms: O_9  and  C_10 
REMARK    5  A    between atoms: C_14  and  C_15 
REMARK    6  A    between atoms: C_14  and  N_50 
REMARK    7  A    between atoms: C_15  and  C_17 
REMARK    8  A    between atoms: C_15  and  O_25 
REMARK    9  A    between atoms: C_17  and  O_18 
REMARK   10  A    between atoms: O_18  and  C_19 
ROOT
ATOM      1  C   LIG d   1       8.496  -4.253  -3.865  0.00  0.00     0.162 A 
ATOM      2  C   LIG d   1       8.218  -2.913  -3.669  0.00  0.00    -0.013 A 
ATOM      3  C   LIG d   1       7.377  -2.235  -4.542  0.00  0.00    -0.030 A 
ATOM      4  C   LIG d   1       6.814  -2.900  -5.610  0.00  0.00     0.004 A 
ATOM      5  C   LIG d   1       7.090  -4.245  -5.809  0.00  0.00    -0.008 A 
ATOM      6  C   LIG d   1       7.928  -4.924  -4.943  0.00  0.00     0.162 A 
ATOM      7  C   LIG d   1       5.898  -2.206  -6.584  0.00  0.00    -0.005 C 
ATOM      8  C   LIG d   1       6.517  -0.126  -5.536  0.00  0.00    -0.027 C 
ATOM      9  C   LIG d   1       7.100  -0.777  -4.281  0.00  0.00     0.013 C 
ATOM     10  H   LIG d   1       8.658  -2.388  -2.833  0.00  0.00     0.066 H 
ATOM     11  H   LIG d   1       6.648  -4.765  -6.646  0.00  0.00     0.066 H 
ATOM     12  H   LIG d   1       5.055  -2.859  -6.813  0.00  0.00     0.087 H 
ATOM     13  H   LIG d   1       6.446  -1.990  -7.501  0.00  0.00     0.087 H 
ATOM     14  H   LIG d   1       6.158   0.875  -5.296  0.00  0.00     0.082 H 
ATOM     15  H   LIG d   1       7.285  -0.064  -6.308  0.00  0.00     0.082 H 
ATOM     16  H   LIG d   1       8.030  -0.275  -4.013  0.00  0.00     0.036 H 
ATOM     17  H   LIG d   1       6.388  -0.684  -3.462  0.00  0.00     0.036 H 
ATOM     18  N   LIG d   1       5.386  -0.959  -5.992  0.00  0.00     0.241 N 
ATOM     19  H   LIG d   1       4.793  -1.188  -5.186  0.00  0.00     0.204 HD
ENDROOT
BRANCH  18  20
ATOM     20  C   LIG d   1       4.580  -0.219  -6.989  0.00  0.00    -0.002 C 
ATOM     21  H   LIG d   1       4.823   0.844  -6.957  0.00  0.00     0.084 H 
ATOM     22  H   LIG d   1       4.789  -0.610  -7.984  0.00  0.00     0.084 H 
BRANCH  20  23
ATOM     23  C   LIG d   1       3.096  -0.411  -6.666  0.00  0.00     0.129 C 
ATOM     24  H   LIG d   1       2.955  -1.366  -6.160  0.00  0.00     0.068 H 
BRANCH  23  25
ATOM     25  C   LIG d   1       2.621   0.724  -5.757  0.00  0.00     0.120 C 
ATOM     26  H   LIG d   1       3.467   1.364  -5.504  0.00  0.00     0.072 H 
ATOM     27  H   LIG d   1       1.863   1.312  -6.275  0.00  0.00     0.072 H 
BRANCH  25  28
ATOM     28  O   LIG d   1       2.063   0.176  -4.561  0.00  0.00    -0.489 OA
BRANCH  28  29
ATOM     29  C   LIG d   1       2.927  -0.115  -3.554  0.00  0.00     0.121 A 
ATOM     30  C   LIG d   1       3.172  -1.435  -3.208  0.00  0.00    -0.020 A 
ATOM     31  C   LIG d   1       4.051  -1.728  -2.183  0.00  0.00    -0.058 A 
ATOM     32  H   LIG d   1       2.678  -2.234  -3.740  0.00  0.00     0.065 H 
ATOM     33  C   LIG d   1       4.685  -0.706  -1.502  0.00  0.00    -0.061 A 
ATOM     34  H   LIG d   1       4.242  -2.757  -1.913  0.00  0.00     0.062 H 
ATOM     35  C   LIG d   1       4.442   0.611  -1.844  0.00  0.00    -0.058 A 
ATOM     36  H   LIG d   1       5.372  -0.937  -0.700  0.00  0.00     0.062 H 
ATOM     37  C   LIG d   1       3.570   0.910  -2.872  0.00  0.00    -0.020 A 
ATOM     38  H   LIG d   1       4.939   1.409  -1.310  0.00  0.00     0.062 H 
ATOM     39  H   LIG d   1       3.383   1.938  -3.143  0.00  0.00     0.065 H 
ENDBRANCH  28  29
ENDBRANCH  25  28
ENDBRANCH  23  25
BRANCH  23  40
ATOM     40  O   LIG d   1       2.340  -0.398  -7.878  0.00  0.00    -0.383 OA
ATOM     41  H   LIG d   1       2.526   0.358  -8.451  0.00  0.00     0.210 HD
ENDBRANCH  23  40
ENDBRANCH  20  23
ENDBRANCH  18  20
BRANCH   6  42
ATOM     42  O   LIG d   1       8.196  -6.243  -5.144  0.00  0.00    -0.491 OA
BRANCH  42  43
ATOM     43  C   LIG d   1       7.088  -7.086  -5.470  0.00  0.00     0.079 C 
ATOM     44  H   LIG d   1       7.397  -8.130  -5.414  0.00  0.00     0.066 H 
ATOM     45  H   LIG d   1       6.277  -6.908  -4.765  0.00  0.00     0.066 H 
ATOM     46  H   LIG d   1       6.747  -6.863  -6.481  0.00  0.00     0.066 H 
ENDBRANCH  42  43
ENDBRANCH   6  42
BRANCH   1  47
ATOM     47  O   LIG d   1       9.324  -4.911  -3.009  0.00  0.00    -0.491 OA
BRANCH  47  48
ATOM     48  C   LIG d   1      10.616  -4.343  -2.789  0.00  0.00     0.079 C 
ATOM     49  H   LIG d   1      11.281  -5.102  -2.377  0.00  0.00     0.066 H 
ATOM     50  H   LIG d   1      11.019  -3.981  -3.734  0.00  0.00     0.066 H 
ATOM     51  H   LIG d   1      10.533  -3.513  -2.088  0.00  0.00     0.066 H 
ENDBRANCH  47  48
ENDBRANCH   1  47
TORSDOF 10
ENDMDL
MODEL 4
REMARK VINA RESULT:      -6.1      1.473      1.943
REMARK  10 active torsions:
REMARK  status: ('A' for Active; 'I' for Inactive)
REMARK    1  A    between atoms: C_1  and  O_2 
REMARK    2  A    between atoms: O_2  and  C_3 
REMARK    3  A    between atoms: C_8  and  O_9 
REMARK    4  A    between atoms: O_9  and  C_10 
REMARK    5  A    between atoms: C_14  and  C_15 
REMARK    6  A    between atoms: C_14  and  N_50 
REMARK    7  A    between atoms: C_15  and  C_17 
REMARK    8  A    between atoms: C_15  and  O_25 
REMARK    9  A    between atoms: C_17  and  O_18 
REMARK   10  A    between atoms: O_18  and  C_19 
ROOT
ATOM      1  C   LIG d   1      10.072   9.231  -3.861  0.00  0.00     0.162 A 
ATOM      2  C   LIG d   1      10.015   8.545  -5.060  0.00  0.00    -0.013 A 
ATOM      3  C   LIG d   1       9.951   7.159  -5.074  0.00  0.00    -0.030 A 
ATOM      4  C   LIG d   1       9.942   6.459  -3.887  0.00  0.00     0.004 A 
ATOM      5  C   LIG d   1       9.999   7.144  -2.681  0.00  0.00    -0.008 A 
ATOM      6  C   LIG d   1      10.064   8.525  -2.662  0.00  0.00     0.162 A 
ATOM      7  C   LIG d   1       9.876   4.955  -3.852  0.00  0.00    -0.005 C 
ATOM      8  C   LIG d   1      10.232   4.980  -6.236  0.00  0.00    -0.027 C 
ATOM      9  C   LIG d   1       9.883   6.459  -6.407  0.00  0.00     0.013 C 
ATOM     10  H   LIG d   1      10.022   9.092  -5.993  0.00  0.00     0.066 H 
ATOM     11  H   LIG d   1       9.991   6.594  -1.752  0.00  0.00     0.066 H 
ATOM     12  H   LIG d   1       9.184   4.643  -3.070  0.00  0.00     0.087 H 
ATOM     13  H   LIG d   1      10.866   4.556  -3.636  0.00  0.00     0.087 H 
ATOM     14  H   LIG d   1      10.016   4.443  -7.160  0.00  0.00     0.082 H 
ATOM     15  H   LIG d   1      11.290   4.878  -5.992  0.00  0.00     0.082 H 
ATOM     16  H   LIG d   1      10.593   6.920  -7.094  0.00  0.00     0.036 H 
ATOM     17  H   LIG d   1       8.876   6.548  -6.813  0.00  0.00     0.036 H 
ATOM     18  N   LIG d   1       9.394   4.442  -5.145  0.00  0.00     0.241 N 
ATOM     19  H   LIG d   1       8.424   4.748  -5.288  0.00  0.00     0.204 HD
ENDROOT
BRANCH  18  20
ATOM     20  C   LIG d   1       9.438   2.963  -5.153  0.00  0.00    -0.002 C 
ATOM     21  H   LIG d   1       8.821   2.571  -5.962  0.00  0.00     0.084 H 
ATOM     22  H   LIG d   1      10.468   2.634  -5.289  0.00  0.00     0.084 H 
BRANCH  20  23
ATOM     23  C   LIG d   1       8.909   2.445  -3.813  0.00  0.00     0.129 C 
ATOM     24  H   LIG d   1       8.534   3.281  -3.223  0.00  0.00     0.068 H 
BRANCH  23  25
ATOM     25  C   LIG d   1       7.776   1.447  -4.063  0.00  0.00     0.120 C 
ATOM     26  H   LIG d   1       7.536   1.432  -5.126  0.00  0.00     0.072 H 
ATOM     27  H   LIG d   1       8.091   0.453  -3.746  0.00  0.00     0.072 H 
BRANCH  25  28
ATOM     28  O   LIG d   1       6.621   1.841  -3.320  0.00  0.00    -0.489 OA
BRANCH  28  29
ATOM     29  C   LIG d   1       5.742   0.863  -2.981  0.00  0.00     0.121 A 
ATOM     30  C   LIG d   1       4.470   1.194  -2.538  0.00  0.00    -0.020 A 
ATOM     31  C   LIG d   1       3.577   0.197  -2.195  0.00  0.00    -0.058 A 
ATOM     32  H   LIG d   1       4.176   2.230  -2.464  0.00  0.00     0.065 H 
ATOM     33  C   LIG d   1       3.953  -1.130  -2.290  0.00  0.00    -0.061 A 
ATOM     34  H   LIG d   1       2.587   0.454  -1.850  0.00  0.00     0.062 H 
ATOM     35  C   LIG d   1       5.220  -1.464  -2.730  0.00  0.00    -0.058 A 
ATOM     36  H   LIG d   1       3.253  -1.909  -2.021  0.00  0.00     0.062 H 
ATOM     37  C   LIG d   1       6.114  -0.471  -3.082  0.00  0.00    -0.020 A 
ATOM     38  H   LIG d   1       5.511  -2.502  -2.804  0.00  0.00     0.062 H 
ATOM     39  H   LIG d   1       7.102  -0.731  -3.430  0.00  0.00     0.065 H 
ENDBRANCH  28  29
ENDBRANCH  25  28
ENDBRANCH  23  25
BRANCH  23  40
ATOM     40  O   LIG d   1       9.966   1.797  -3.102  0.00  0.00    -0.383 OA
ATOM     41  H   LIG d   1      10.817   1.817  -3.559  0.00  0.00     0.210 HD
ENDBRANCH  23  40
ENDBRANCH  20  23
ENDBRANCH  18  20
BRANCH   6  42
ATOM     42  O   LIG d   1      10.120   9.191  -1.477  0.00  0.00    -0.491 OA
BRANCH  42  43
ATOM     43  C   LIG d   1       8.884   9.384  -0.784  0.00  0.00     0.079 C 
ATOM     44  H   LIG d   1       8.953  10.275  -0.160  0.00  0.00     0.066 H 
ATOM     45  H   LIG d   1       8.078   9.505  -1.507  0.00  0.00     0.066 H 
ATOM     46  H   LIG d   1       8.681   8.516  -0.156  0.00  0.00     0.066 H 
ENDBRANCH  42  43
ENDBRANCH   6  42
BRANCH   1  47
ATOM     47  O   LIG d   1      10.138  10.591  -3.854  0.00  0.00    -0.491 OA
BRANCH  47  48
ATOM     48  C   LIG d   1       8.933  11.301  -4.146  0.00  0.00     0.079 C 
ATOM     49  H   LIG d   1       8.939  12.256  -3.621  0.00  0.00     0.066 H 
ATOM     50  H   LIG d   1       8.866  11.476  -5.219  0.00  0.00     0.066 H 
ATOM     51  H   LIG d   1       8.077  10.712  -3.819  0.00  0.00     0.066 H 
ENDBRANCH  47  48
ENDBRANCH   1  47
TORSDOF 10
ENDMDL
MODEL 5
REMARK VINA RESULT:      -6.0      3.317      4.914
REMARK  10 active torsions:
REMARK  status: ('A' for Active; 'I' for Inactive)
REMARK    1  A    between atoms: C_1  and  O_2 
REMARK    2  A    between atoms: O_2  and  C_3 
REMARK    3  A    between atoms: C_8  and  O_9 
REMARK    4  A    between atoms: O_9  and  C_10 
REMARK    5  A    between atoms: C_14  and  C_15 
REMARK    6  A    between atoms: C_14  and  N_50 
REMARK    7  A    between atoms: C_15  and  C_17 
REMARK    8  A    between atoms: C_15  and  O_25 
REMARK    9  A    between atoms: C_17  and  O_18 
REMARK   10  A    between atoms: O_18  and  C_19 
ROOT
ATOM      1  C   LIG d   1       9.811   8.930  -7.688  0.00  0.00     0.162 A 
ATOM      2  C   LIG d   1       9.777   8.434  -6.398  0.00  0.00    -0.013 A 
ATOM      3  C   LIG d   1       9.714   7.065  -6.173  0.00  0.00    -0.030 A 
ATOM      4  C   LIG d   1       9.686   6.194  -7.240  0.00  0.00     0.004 A 
ATOM      5  C   LIG d   1       9.721   6.688  -8.537  0.00  0.00    -0.008 A 
ATOM      6  C   LIG d   1       9.783   8.050  -8.766  0.00  0.00     0.162 A 
ATOM      7  C   LIG d   1       9.615   4.702  -7.046  0.00  0.00    -0.005 C 
ATOM      8  C   LIG d   1       9.207   5.124  -4.708  0.00  0.00    -0.027 C 
ATOM      9  C   LIG d   1       9.685   6.575  -4.748  0.00  0.00     0.013 C 
ATOM     10  H   LIG d   1       9.798   9.115  -5.559  0.00  0.00     0.066 H 
ATOM     11  H   LIG d   1       9.699   6.004  -9.372  0.00  0.00     0.066 H 
ATOM     12  H   LIG d   1      10.293   4.215  -7.746  0.00  0.00     0.087 H 
ATOM     13  H   LIG d   1       8.597   4.363  -7.236  0.00  0.00     0.087 H 
ATOM     14  H   LIG d   1       9.351   4.718  -3.706  0.00  0.00     0.082 H 
ATOM     15  H   LIG d   1       8.150   5.078  -4.972  0.00  0.00     0.082 H 
ATOM     16  H   LIG d   1       9.005   7.196  -4.166  0.00  0.00     0.036 H 
ATOM     17  H   LIG d   1      10.687   6.637  -4.323  0.00  0.00     0.036 H 
ATOM     18  N   LIG d   1      10.018   4.354  -5.673  0.00  0.00     0.241 N 
ATOM     19  H   LIG d   1      11.008   4.592  -5.542  0.00  0.00     0.204 HD
ENDROOT
BRANCH  18  20
ATOM     20  C   LIG d   1       9.837   2.902  -5.444  0.00  0.00    -0.002 C 
ATOM     21  H   LIG d   1       9.296   2.453  -6.278  0.00  0.00     0.084 H 
ATOM     22  H   LIG d   1      10.814   2.429  -5.348  0.00  0.00     0.084 H 
BRANCH  20  23
ATOM     23  C   LIG d   1       9.041   2.700  -4.153  0.00  0.00     0.129 C 
ATOM     24  H   LIG d   1       8.639   3.656  -3.820  0.00  0.00     0.068 H 
BRANCH  23  25
ATOM     25  C   LIG d   1       7.892   1.724  -4.411  0.00  0.00     0.120 C 
ATOM     26  H   LIG d   1       7.510   1.872  -5.421  0.00  0.00     0.072 H 
ATOM     27  H   LIG d   1       8.252   0.701  -4.304  0.00  0.00     0.072 H 
BRANCH  25  28
ATOM     28  O   LIG d   1       6.845   1.961  -3.468  0.00  0.00    -0.489 OA
BRANCH  28  29
ATOM     29  C   LIG d   1       6.118   0.885  -3.067  0.00  0.00     0.121 A 
ATOM     30  C   LIG d   1       4.981   1.063  -2.294  0.00  0.00    -0.020 A 
ATOM     31  C   LIG d   1       4.244  -0.033  -1.889  0.00  0.00    -0.058 A 
ATOM     32  H   LIG d   1       4.670   2.057  -2.011  0.00  0.00     0.065 H 
ATOM     33  C   LIG d   1       4.641  -1.307  -2.252  0.00  0.00    -0.061 A 
ATOM     34  H   LIG d   1       3.358   0.104  -1.286  0.00  0.00     0.062 H 
ATOM     35  C   LIG d   1       5.775  -1.487  -3.022  0.00  0.00    -0.058 A 
ATOM     36  H   LIG d   1       4.063  -2.163  -1.934  0.00  0.00     0.062 H 
ATOM     37  C   LIG d   1       6.511  -0.394  -3.436  0.00  0.00    -0.020 A 
ATOM     38  H   LIG d   1       6.083  -2.483  -3.305  0.00  0.00     0.062 H 
ATOM     39  H   LIG d   1       7.394  -0.534  -4.042  0.00  0.00     0.065 H 
ENDBRANCH  28  29
ENDBRANCH  25  28
ENDBRANCH  23  25
BRANCH  23  40
ATOM     40  O   LIG d   1       9.900   2.166  -3.143  0.00  0.00    -0.383 OA
ATOM     41  H   LIG d   1      10.250   2.829  -2.533  0.00  0.00     0.210 HD
ENDBRANCH  23  40
ENDBRANCH  20  23
ENDBRANCH  18  20
BRANCH   6  42
ATOM     42  O   LIG d   1       9.816   8.529 -10.039  0.00  0.00    -0.491 OA
BRANCH  42  43
ATOM     43  C   LIG d   1      10.064   7.582 -11.080  0.00  0.00     0.079 C 
ATOM     44  H   LIG d   1       9.130   7.350 -11.591  0.00  0.00     0.066 H 
ATOM     45  H   LIG d   1      10.774   8.002 -11.791  0.00  0.00     0.066 H 
ATOM     46  H   LIG d   1      10.478   6.669 -10.650  0.00  0.00     0.066 H 
ENDBRANCH  42  43
ENDBRANCH   6  42
BRANCH   1  47
ATOM     47  O   LIG d   1       9.870  10.273  -7.902  0.00  0.00    -0.491 OA
BRANCH  47  48
ATOM     48  C   LIG d   1      10.032  11.107  -6.754  0.00  0.00     0.079 C 
ATOM     49  H   LIG d   1       9.661  12.107  -6.977  0.00  0.00     0.066 H 
ATOM     50  H   LIG d   1       9.471  10.689  -5.919  0.00  0.00     0.066 H 
ATOM     51  H   LIG d   1      11.088  11.161  -6.491  0.00  0.00     0.066 H 
ENDBRANCH  47  48
ENDBRANCH   1  47
TORSDOF 10
ENDMDL
MODEL 6
REMARK VINA RESULT:      -5.9      8.036     12.424
REMARK  10 active torsions:
REMARK  status: ('A' for Active; 'I' for Inactive)
REMARK    1  A    between atoms: C_1  and  O_2 
REMARK    2  A    between atoms: O_2  and  C_3 
REMARK    3  A    between atoms: C_8  and  O_9 
REMARK    4  A    between atoms: O_9  and  C_10 
REMARK    5  A    between atoms: C_14  and  C_15 
REMARK    6  A    between atoms: C_14  and  N_50 
REMARK    7  A    between atoms: C_15  and  C_17 
REMARK    8  A    between atoms: C_15  and  O_25 
REMARK    9  A    between atoms: C_17  and  O_18 
REMARK   10  A    between atoms: O_18  and  C_19 
ROOT
ATOM      1  C   LIG d   1       1.474  -2.707 -13.200  0.00  0.00     0.162 A 
ATOM      2  C   LIG d   1       2.460  -1.738 -13.255  0.00  0.00    -0.013 A 
ATOM      3  C   LIG d   1       2.836  -1.053 -12.107  0.00  0.00    -0.030 A 
ATOM      4  C   LIG d   1       2.227  -1.339 -10.905  0.00  0.00     0.004 A 
ATOM      5  C   LIG d   1       1.238  -2.311 -10.845  0.00  0.00    -0.008 A 
ATOM      6  C   LIG d   1       0.859  -2.995 -11.985  0.00  0.00     0.162 A 
ATOM      7  C   LIG d   1       2.601  -0.620  -9.635  0.00  0.00    -0.005 C 
ATOM      8  C   LIG d   1       3.899   0.894 -10.988  0.00  0.00    -0.027 C 
ATOM      9  C   LIG d   1       3.920  -0.011 -12.220  0.00  0.00     0.013 C 
ATOM     10  H   LIG d   1       2.939  -1.511 -14.197  0.00  0.00     0.066 H 
ATOM     11  H   LIG d   1       0.762  -2.534  -9.902  0.00  0.00     0.066 H 
ATOM     12  H   LIG d   1       2.658  -1.339  -8.818  0.00  0.00     0.087 H 
ATOM     13  H   LIG d   1       1.839   0.125  -9.406  0.00  0.00     0.087 H 
ATOM     14  H   LIG d   1       4.784   1.531 -10.987  0.00  0.00     0.082 H 
ATOM     15  H   LIG d   1       3.003   1.514 -11.003  0.00  0.00     0.082 H 
ATOM     16  H   LIG d   1       3.752   0.590 -13.113  0.00  0.00     0.036 H 
ATOM     17  H   LIG d   1       4.889  -0.503 -12.291  0.00  0.00     0.036 H 
ATOM     18  N   LIG d   1       3.913   0.029  -9.791  0.00  0.00     0.241 N 
ATOM     19  H   LIG d   1       4.633  -0.694  -9.910  0.00  0.00     0.204 HD
ENDROOT
BRANCH  18  20
ATOM     20  C   LIG d   1       4.229   0.831  -8.588  0.00  0.00    -0.002 C 
ATOM     21  H   LIG d   1       5.155   0.478  -8.132  0.00  0.00     0.084 H 
ATOM     22  H   LIG d   1       4.339   1.877  -8.871  0.00  0.00     0.084 H 
BRANCH  20  23
ATOM     23  C   LIG d   1       3.081   0.690  -7.585  0.00  0.00     0.129 C 
ATOM     24  H   LIG d   1       2.241   0.187  -8.062  0.00  0.00     0.068 H 
BRANCH  23  25
ATOM     25  C   LIG d   1       3.553  -0.132  -6.383  0.00  0.00     0.120 C 
ATOM     26  H   LIG d   1       3.501  -1.193  -6.627  0.00  0.00     0.072 H 
ATOM     27  H   LIG d   1       4.581   0.136  -6.140  0.00  0.00     0.072 H 
BRANCH  25  28
ATOM     28  O   LIG d   1       2.712   0.140  -5.260  0.00  0.00    -0.489 OA
BRANCH  28  29
ATOM     29  C   LIG d   1       3.271   0.028  -4.028  0.00  0.00     0.121 A 
ATOM     30  C   LIG d   1       3.514  -1.225  -3.486  0.00  0.00    -0.020 A 
ATOM     31  C   LIG d   1       4.084  -1.336  -2.232  0.00  0.00    -0.058 A 
ATOM     32  H   LIG d   1       3.261  -2.114  -4.044  0.00  0.00     0.065 H 
ATOM     33  C   LIG d   1       4.410  -0.199  -1.517  0.00  0.00    -0.061 A 
ATOM     34  H   LIG d   1       4.273  -2.312  -1.809  0.00  0.00     0.062 H 
ATOM     35  C   LIG d   1       4.168   1.052  -2.054  0.00  0.00    -0.058 A 
ATOM     36  H   LIG d   1       4.856  -0.287  -0.536  0.00  0.00     0.062 H 
ATOM     37  C   LIG d   1       3.606   1.169  -3.310  0.00  0.00    -0.020 A 
ATOM     38  H   LIG d   1       4.424   1.939  -1.494  0.00  0.00     0.062 H 
ATOM     39  H   LIG d   1       3.421   2.145  -3.733  0.00  0.00     0.065 H 
ENDBRANCH  28  29
ENDBRANCH  25  28
ENDBRANCH  23  25
BRANCH  23  40
ATOM     40  O   LIG d   1       2.674   1.987  -7.143  0.00  0.00    -0.383 OA
ATOM     41  H   LIG d   1       2.963   2.207  -6.248  0.00  0.00     0.210 HD
ENDBRANCH  23  40
ENDBRANCH  20  23
ENDBRANCH  18  20
BRANCH   6  42
ATOM     42  O   LIG d   1      -0.111  -3.946 -11.921  0.00  0.00    -0.491 OA
BRANCH  42  43
ATOM     43  C   LIG d   1      -0.409  -4.481 -10.629  0.00  0.00     0.079 C 
ATOM     44  H   LIG d   1       0.357  -4.166  -9.919  0.00  0.00     0.066 H 
ATOM     45  H   LIG d   1      -1.382  -4.117 -10.301  0.00  0.00     0.066 H 
ATOM     46  H   LIG d   1      -0.428  -5.570 -10.682  0.00  0.00     0.066 H 
ENDBRANCH  42  43
ENDBRANCH   6  42
BRANCH   1  47
ATOM     47  O   LIG d   1       1.107  -3.373 -14.328  0.00  0.00    -0.491 OA
BRANCH  47  48
ATOM     48  C   LIG d   1       0.617  -2.587 -15.416  0.00  0.00     0.079 C 
ATOM     49  H   LIG d   1       0.701  -1.529 -15.166  0.00  0.00     0.066 H 
ATOM     50  H   LIG d   1       1.204  -2.797 -16.309  0.00  0.00     0.066 H 
ATOM     51  H   LIG d   1      -0.428  -2.835 -15.601  0.00  0.00     0.066 H 
ENDBRANCH  47  48
ENDBRANCH   1  47
TORSDOF 10
ENDMDL
MODEL 7
REMARK VINA RESULT:      -5.9      2.005      2.649
REMARK  10 active torsions:
REMARK  status: ('A' for Active; 'I' for Inactive)
REMARK    1  A    between atoms: C_1  and  O_2 
REMARK    2  A    between atoms: O_2  and  C_3 
REMARK    3  A    between atoms: C_8  and  O_9 
REMARK    4  A    between atoms: O_9  and  C_10 
REMARK    5  A    between atoms: C_14  and  C_15 
REMARK    6  A    between atoms: C_14  and  N_50 
REMARK    7  A    between atoms: C_15  and  C_17 
REMARK    8  A    between atoms: C_15  and  O_25 
REMARK    9  A    between atoms: C_17  and  O_18 
REMARK   10  A    between atoms: O_18  and  C_19 
ROOT
ATOM      1  C   LIG d   1      13.338   5.807  -0.717  0.00  0.00     0.162 A 
ATOM      2  C   LIG d   1      13.489   5.211  -1.956  0.00  0.00    -0.013 A 
ATOM      3  C   LIG d   1      12.379   4.760  -2.658  0.00  0.00    -0.030 A 
ATOM      4  C   LIG d   1      11.119   4.908  -2.120  0.00  0.00     0.004 A 
ATOM      5  C   LIG d   1      10.964   5.507  -0.878  0.00  0.00    -0.008 A 
ATOM      6  C   LIG d   1      12.065   5.956  -0.174  0.00  0.00     0.162 A 
ATOM      7  C   LIG d   1       9.886   4.433  -2.844  0.00  0.00    -0.005 C 
ATOM      8  C   LIG d   1      11.349   3.341  -4.418  0.00  0.00    -0.027 C 
ATOM      9  C   LIG d   1      12.596   4.123  -4.006  0.00  0.00     0.013 C 
ATOM     10  H   LIG d   1      14.476   5.093  -2.379  0.00  0.00     0.066 H 
ATOM     11  H   LIG d   1       9.975   5.622  -0.459  0.00  0.00     0.066 H 
ATOM     12  H   LIG d   1       9.100   5.182  -2.747  0.00  0.00     0.087 H 
ATOM     13  H   LIG d   1       9.547   3.497  -2.400  0.00  0.00     0.087 H 
ATOM     14  H   LIG d   1      11.440   3.028  -5.458  0.00  0.00     0.082 H 
ATOM     15  H   LIG d   1      11.239   2.463  -3.781  0.00  0.00     0.082 H 
ATOM     16  H   LIG d   1      13.447   3.444  -3.952  0.00  0.00     0.036 H 
ATOM     17  H   LIG d   1      12.797   4.898  -4.745  0.00  0.00     0.036 H 
ATOM     18  N   LIG d   1      10.185   4.238  -4.272  0.00  0.00     0.241 N 
ATOM     19  H   LIG d   1      10.408   5.146  -4.696  0.00  0.00     0.204 HD
ENDROOT
BRANCH  18  20
ATOM     20  C   LIG d   1       9.009   3.661  -4.962  0.00  0.00    -0.002 C 
ATOM     21  H   LIG d   1       8.088   3.994  -4.481  0.00  0.00     0.084 H 
ATOM     22  H   LIG d   1       9.010   3.979  -6.004  0.00  0.00     0.084 H 
BRANCH  20  23
ATOM     23  C   LIG d   1       9.095   2.134  -4.894  0.00  0.00     0.129 C 
ATOM     24  H   LIG d   1      10.124   1.837  -4.690  0.00  0.00     0.068 H 
BRANCH  23  25
ATOM     25  C   LIG d   1       8.184   1.622  -3.777  0.00  0.00     0.120 C 
ATOM     26  H   LIG d   1       8.667   0.786  -3.269  0.00  0.00     0.072 H 
ATOM     27  H   LIG d   1       7.999   2.424  -3.061  0.00  0.00     0.072 H 
BRANCH  25  28
ATOM     28  O   LIG d   1       6.944   1.186  -4.335  0.00  0.00    -0.489 OA
BRANCH  28  29
ATOM     29  C   LIG d   1       6.091   0.527  -3.509  0.00  0.00     0.121 A 
ATOM     30  C   LIG d   1       5.277   1.237  -2.639  0.00  0.00    -0.020 A 
ATOM     31  C   LIG d   1       4.411   0.563  -1.799  0.00  0.00    -0.058 A 
ATOM     32  H   LIG d   1       5.319   2.316  -2.619  0.00  0.00     0.065 H 
ATOM     33  C   LIG d   1       4.357  -0.818  -1.824  0.00  0.00    -0.061 A 
ATOM     34  H   LIG d   1       3.777   1.116  -1.121  0.00  0.00     0.062 H 
ATOM     35  C   LIG d   1       5.168  -1.529  -2.689  0.00  0.00    -0.058 A 
ATOM     36  H   LIG d   1       3.679  -1.343  -1.167  0.00  0.00     0.062 H 
ATOM     37  C   LIG d   1       6.030  -0.860  -3.536  0.00  0.00    -0.020 A 
ATOM     38  H   LIG d   1       5.123  -2.608  -2.708  0.00  0.00     0.062 H 
ATOM     39  H   LIG d   1       6.660  -1.414  -4.216  0.00  0.00     0.065 H 
ENDBRANCH  28  29
ENDBRANCH  25  28
ENDBRANCH  23  25
BRANCH  23  40
ATOM     40  O   LIG d   1       8.676   1.578  -6.142  0.00  0.00    -0.383 OA
ATOM     41  H   LIG d   1       9.315   0.970  -6.536  0.00  0.00     0.210 HD
ENDBRANCH  23  40
ENDBRANCH  20  23
ENDBRANCH  18  20
BRANCH   6  42
ATOM     42  O   LIG d   1      11.907   6.542   1.043  0.00  0.00    -0.491 OA
BRANCH  42  43
ATOM     43  C   LIG d   1      10.997   5.915   1.950  0.00  0.00     0.079 C 
ATOM     44  H   LIG d   1      10.207   5.418   1.387  0.00  0.00     0.066 H 
ATOM     45  H   LIG d   1      11.533   5.182   2.553  0.00  0.00     0.066 H 
ATOM     46  H   LIG d   1      10.557   6.670   2.602  0.00  0.00     0.066 H 
ENDBRANCH  42  43
ENDBRANCH   6  42
BRANCH   1  47
ATOM     47  O   LIG d   1      14.430   6.244  -0.032  0.00  0.00    -0.491 OA
BRANCH  47  48
ATOM     48  C   LIG d   1      15.711   5.922  -0.577  0.00  0.00     0.079 C 
ATOM     49  H   LIG d   1      16.145   6.811  -1.034  0.00  0.00     0.066 H 
ATOM     50  H   LIG d   1      16.364   5.566   0.219  0.00  0.00     0.066 H 
ATOM     51  H   LIG d   1      15.598   5.143  -1.331  0.00  0.00     0.066 H 
ENDBRANCH  47  48
ENDBRANCH   1  47
TORSDOF 10
ENDMDL
MODEL 8
REMARK VINA RESULT:      -5.8      1.704      2.624
REMARK  10 active torsions:
REMARK  status: ('A' for Active; 'I' for Inactive)
REMARK    1  A    between atoms: C_1  and  O_2 
REMARK    2  A    between atoms: O_2  and  C_3 
REMARK    3  A    between atoms: C_8  and  O_9 
REMARK    4  A    between atoms: O_9  and  C_10 
REMARK    5  A    between atoms: C_14  and  C_15 
REMARK    6  A    between atoms: C_14  and  N_50 
REMARK    7  A    between atoms: C_15  and  C_17 
REMARK    8  A    between atoms: C_15  and  O_25 
REMARK    9  A    between atoms: C_17  and  O_18 
REMARK   10  A    between atoms: O_18  and  C_19 
ROOT
ATOM      1  C   LIG d   1       9.913   7.870  -4.542  0.00  0.00     0.162 A 
ATOM      2  C   LIG d   1       9.803   7.012  -5.621  0.00  0.00    -0.013 A 
ATOM      3  C   LIG d   1       9.780   5.638  -5.425  0.00  0.00    -0.030 A 
ATOM      4  C   LIG d   1       9.865   5.123  -4.149  0.00  0.00     0.004 A 
ATOM      5  C   LIG d   1       9.974   5.982  -3.064  0.00  0.00    -0.008 A 
ATOM      6  C   LIG d   1       9.999   7.351  -3.254  0.00  0.00     0.162 A 
ATOM      7  C   LIG d   1       9.846   3.640  -3.888  0.00  0.00    -0.005 C 
ATOM      8  C   LIG d   1      10.056   3.316  -6.267  0.00  0.00    -0.027 C 
ATOM      9  C   LIG d   1       9.654   4.745  -6.633  0.00  0.00     0.013 C 
ATOM     10  H   LIG d   1       9.738   7.412  -6.623  0.00  0.00     0.066 H 
ATOM     11  H   LIG d   1      10.040   5.577  -2.065  0.00  0.00     0.066 H 
ATOM     12  H   LIG d   1       9.213   3.434  -3.025  0.00  0.00     0.087 H 
ATOM     13  H   LIG d   1      10.860   3.299  -3.680  0.00  0.00     0.087 H 
ATOM     14  H   LIG d   1       9.801   2.643  -7.086  0.00  0.00     0.082 H 
ATOM     15  H   LIG d   1      11.130   3.274  -6.081  0.00  0.00     0.082 H 
ATOM     16  H   LIG d   1      10.306   5.113  -7.424  0.00  0.00     0.036 H 
ATOM     17  H   LIG d   1       8.621   4.752  -6.982  0.00  0.00     0.036 H 
ATOM     18  N   LIG d   1       9.302   2.930  -5.058  0.00  0.00     0.241 N 
ATOM     19  H   LIG d   1       8.317   3.191  -5.181  0.00  0.00     0.204 HD
ENDROOT
BRANCH  18  20
ATOM     20  C   LIG d   1       9.391   1.467  -4.849  0.00  0.00    -0.002 C 
ATOM     21  H   LIG d   1      10.042   1.018  -5.599  0.00  0.00     0.084 H 
ATOM     22  H   LIG d   1       9.791   1.269  -3.855  0.00  0.00     0.084 H 
BRANCH  20  23
ATOM     23  C   LIG d   1       7.988   0.865  -4.966  0.00  0.00     0.129 C 
ATOM     24  H   LIG d   1       8.066  -0.214  -5.096  0.00  0.00     0.068 H 
BRANCH  23  25
ATOM     25  C   LIG d   1       7.195   1.171  -3.693  0.00  0.00     0.120 C 
ATOM     26  H   LIG d   1       7.790   1.809  -3.040  0.00  0.00     0.072 H 
ATOM     27  H   LIG d   1       6.269   1.682  -3.956  0.00  0.00     0.072 H 
BRANCH  25  28
ATOM     28  O   LIG d   1       6.890  -0.050  -3.017  0.00  0.00    -0.489 OA
BRANCH  28  29
ATOM     29  C   LIG d   1       5.577  -0.368  -2.877  0.00  0.00     0.121 A 
ATOM     30  C   LIG d   1       5.183  -1.697  -2.840  0.00  0.00    -0.020 A 
ATOM     31  C   LIG d   1       3.846  -2.017  -2.697  0.00  0.00    -0.058 A 
ATOM     32  H   LIG d   1       5.920  -2.482  -2.921  0.00  0.00     0.065 H 
ATOM     33  C   LIG d   1       2.902  -1.012  -2.593  0.00  0.00    -0.061 A 
ATOM     34  H   LIG d   1       3.539  -3.052  -2.669  0.00  0.00     0.062 H 
ATOM     35  C   LIG d   1       3.291   0.314  -2.631  0.00  0.00    -0.058 A 
ATOM     36  H   LIG d   1       1.857  -1.264  -2.482  0.00  0.00     0.062 H 
ATOM     37  C   LIG d   1       4.627   0.639  -2.766  0.00  0.00    -0.020 A 
ATOM     38  H   LIG d   1       2.552   1.097  -2.549  0.00  0.00     0.062 H 
ATOM     39  H   LIG d   1       4.933   1.674  -2.790  0.00  0.00     0.065 H 
ENDBRANCH  28  29
ENDBRANCH  25  28
ENDBRANCH  23  25
BRANCH  23  40
ATOM     40  O   LIG d   1       7.318   1.435  -6.092  0.00  0.00    -0.383 OA
ATOM     41  H   LIG d   1       7.704   2.266  -6.400  0.00  0.00     0.210 HD
ENDBRANCH  23  40
ENDBRANCH  20  23
ENDBRANCH  18  20
BRANCH   6  42
ATOM     42  O   LIG d   1      10.106   8.188  -2.187  0.00  0.00    -0.491 OA
BRANCH  42  43
ATOM     43  C   LIG d   1       9.155   8.018  -1.133  0.00  0.00     0.079 C 
ATOM     44  H   LIG d   1       8.909   8.990  -0.705  0.00  0.00     0.066 H 
ATOM     45  H   LIG d   1       8.252   7.556  -1.530  0.00  0.00     0.066 H 
ATOM     46  H   LIG d   1       9.581   7.379  -0.359  0.00  0.00     0.066 H 
ENDBRANCH  42  43
ENDBRANCH   6  42
BRANCH   1  47
ATOM     47  O   LIG d   1       9.938   9.217  -4.740  0.00  0.00    -0.491 OA
BRANCH  47  48
ATOM     48  C   LIG d   1      10.334   9.675  -6.035  0.00  0.00     0.079 C 
ATOM     49  H   LIG d   1       9.649   9.280  -6.785  0.00  0.00     0.066 H 
ATOM     50  H   LIG d   1      10.309  10.764  -6.057  0.00  0.00     0.066 H 
ATOM     51  H   LIG d   1      11.346   9.331  -6.248  0.00  0.00     0.066 H 
ENDBRANCH  47  48
ENDBRANCH   1  47
TORSDOF 10
ENDMDL
MODEL 9
REMARK VINA RESULT:      -5.8      6.481     10.536
REMARK  10 active torsions:
REMARK  status: ('A' for Active; 'I' for Inactive)
REMARK    1  A    between atoms: C_1  and  O_2 
REMARK    2  A    between atoms: O_2  and  C_3 
REMARK    3  A    between atoms: C_8  and  O_9 
REMARK    4  A    between atoms: O_9  and  C_10 
REMARK    5  A    between atoms: C_14  and  C_15 
REMARK    6  A    between atoms: C_14  and  N_50 
REMARK    7  A    between atoms: C_15  and  C_17 
REMARK    8  A    between atoms: C_15  and  O_25 
REMARK    9  A    between atoms: C_17  and  O_18 
REMARK   10  A    between atoms: O_18  and  C_19 
ROOT
ATOM      1  C   LIG d   1       2.454  -1.065 -10.311  0.00  0.00     0.162 A 
ATOM      2  C   LIG d   1       2.627  -2.411 -10.047  0.00  0.00    -0.013 A 
ATOM      3  C   LIG d   1       3.300  -2.822  -8.905  0.00  0.00    -0.030 A 
ATOM      4  C   LIG d   1       3.798  -1.886  -8.025  0.00  0.00     0.004 A 
ATOM      5  C   LIG d   1       3.625  -0.534  -8.286  0.00  0.00    -0.008 A 
ATOM      6  C   LIG d   1       2.957  -0.119  -9.423  0.00  0.00     0.162 A 
ATOM      7  C   LIG d   1       4.536  -2.285  -6.774  0.00  0.00    -0.005 C 
ATOM      8  C   LIG d   1       4.546  -4.543  -7.616  0.00  0.00    -0.027 C 
ATOM      9  C   LIG d   1       3.456  -4.301  -8.660  0.00  0.00     0.013 C 
ATOM     10  H   LIG d   1       2.238  -3.148 -10.736  0.00  0.00     0.066 H 
ATOM     11  H   LIG d   1       4.016   0.199  -7.595  0.00  0.00     0.066 H 
ATOM     12  H   LIG d   1       4.207  -1.657  -5.946  0.00  0.00     0.087 H 
ATOM     13  H   LIG d   1       5.606  -2.146  -6.929  0.00  0.00     0.087 H 
ATOM     14  H   LIG d   1       4.539  -5.591  -7.315  0.00  0.00     0.082 H 
ATOM     15  H   LIG d   1       5.520  -4.291  -8.037  0.00  0.00     0.082 H 
ATOM     16  H   LIG d   1       3.733  -4.795  -9.592  0.00  0.00     0.036 H 
ATOM     17  H   LIG d   1       2.513  -4.711  -8.300  0.00  0.00     0.036 H 
ATOM     18  N   LIG d   1       4.248  -3.691  -6.447  0.00  0.00     0.241 N 
ATOM     19  H   LIG d   1       3.254  -3.785  -6.210  0.00  0.00     0.204 HD
ENDROOT
BRANCH  18  20
ATOM     20  C   LIG d   1       5.062  -4.118  -5.287  0.00  0.00    -0.002 C 
ATOM     21  H   LIG d   1       4.627  -3.740  -4.361  0.00  0.00     0.084 H 
ATOM     22  H   LIG d   1       5.099  -5.207  -5.253  0.00  0.00     0.084 H 
BRANCH  20  23
ATOM     23  C   LIG d   1       6.480  -3.564  -5.446  0.00  0.00     0.129 C 
ATOM     24  H   LIG d   1       6.492  -2.818  -6.241  0.00  0.00     0.068 H 
BRANCH  23  25
ATOM     25  C   LIG d   1       6.926  -2.919  -4.132  0.00  0.00     0.120 C 
ATOM     26  H   LIG d   1       6.240  -3.208  -3.336  0.00  0.00     0.072 H 
ATOM     27  H   LIG d   1       7.933  -3.254  -3.885  0.00  0.00     0.072 H 
BRANCH  25  28
ATOM     28  O   LIG d   1       6.919  -1.497  -4.274  0.00  0.00    -0.489 OA
BRANCH  28  29
ATOM     29  C   LIG d   1       6.084  -0.799  -3.461  0.00  0.00     0.121 A 
ATOM     30  C   LIG d   1       6.140   0.586  -3.430  0.00  0.00    -0.020 A 
ATOM     31  C   LIG d   1       5.289   1.293  -2.602  0.00  0.00    -0.058 A 
ATOM     32  H   LIG d   1       6.847   1.112  -4.054  0.00  0.00     0.065 H 
ATOM     33  C   LIG d   1       4.383   0.620  -1.803  0.00  0.00    -0.061 A 
ATOM     34  H   LIG d   1       5.333   2.372  -2.577  0.00  0.00     0.062 H 
ATOM     35  C   LIG d   1       4.326  -0.761  -1.831  0.00  0.00    -0.058 A 
ATOM     36  H   LIG d   1       3.719   1.174  -1.156  0.00  0.00     0.062 H 
ATOM     37  C   LIG d   1       5.169  -1.472  -2.662  0.00  0.00    -0.020 A 
ATOM     38  H   LIG d   1       3.617  -1.285  -1.206  0.00  0.00     0.062 H 
ATOM     39  H   LIG d   1       5.121  -2.551  -2.688  0.00  0.00     0.065 H 
ENDBRANCH  28  29
ENDBRANCH  25  28
ENDBRANCH  23  25
BRANCH  23  40
ATOM     40  O   LIG d   1       7.372  -4.630  -5.779  0.00  0.00    -0.383 OA
ATOM     41  H   LIG d   1       8.287  -4.349  -5.917  0.00  0.00     0.210 HD
ENDBRANCH  23  40
ENDBRANCH  20  23
ENDBRANCH  18  20
BRANCH   6  42
ATOM     42  O   LIG d   1       2.792   1.208  -9.673  0.00  0.00    -0.491 OA
BRANCH  42  43
ATOM     43  C   LIG d   1       3.912   1.909 -10.218  0.00  0.00     0.079 C 
ATOM     44  H   LIG d   1       4.807   1.293 -10.125  0.00  0.00     0.066 H 
ATOM     45  H   LIG d   1       3.727   2.127 -11.270  0.00  0.00     0.066 H 
ATOM     46  H   LIG d   1       4.057   2.843  -9.674  0.00  0.00     0.066 H 
ENDBRANCH  42  43
ENDBRANCH   6  42
BRANCH   1  47
ATOM     47  O   LIG d   1       1.797  -0.667 -11.434  0.00  0.00    -0.491 OA
BRANCH  47  48
ATOM     48  C   LIG d   1       0.880  -1.597 -12.014  0.00  0.00     0.079 C 
ATOM     49  H   LIG d   1       1.303  -2.601 -11.966  0.00  0.00     0.066 H 
ATOM     50  H   LIG d   1      -0.060  -1.572 -11.463  0.00  0.00     0.066 H 
ATOM     51  H   LIG d   1       0.700  -1.328 -13.054  0.00  0.00     0.066 H 
ENDBRANCH  47  48
ENDBRANCH   1  47
TORSDOF 10
ENDMDL
MODEL 10
REMARK VINA RESULT:      -5.7      3.665      5.363
REMARK  10 active torsions:
REMARK  status: ('A' for Active; 'I' for Inactive)
REMARK    1  A    between atoms: C_1  and  O_2 
REMARK    2  A    between atoms: O_2  and  C_3 
REMARK    3  A    between atoms: C_8  and  O_9 
REMARK    4  A    between atoms: O_9  and  C_10 
REMARK    5  A    between atoms: C_14  and  C_15 
REMARK    6  A    between atoms: C_14  and  N_50 
REMARK    7  A    between atoms: C_15  and  C_17 
REMARK    8  A    between atoms: C_15  and  O_25 
REMARK    9  A    between atoms: C_17  and  O_18 
REMARK   10  A    between atoms: O_18  and  C_19 
ROOT
ATOM      1  C   LIG d   1       9.895   7.816  -9.410  0.00  0.00     0.162 A 
ATOM      2  C   LIG d   1      10.057   6.444  -9.477  0.00  0.00    -0.013 A 
ATOM      3  C   LIG d   1      10.026   5.676  -8.322  0.00  0.00    -0.030 A 
ATOM      4  C   LIG d   1       9.830   6.280  -7.099  0.00  0.00     0.004 A 
ATOM      5  C   LIG d   1       9.666   7.656  -7.027  0.00  0.00    -0.008 A 
ATOM      6  C   LIG d   1       9.697   8.426  -8.175  0.00  0.00     0.162 A 
ATOM      7  C   LIG d   1       9.791   5.487  -5.819  0.00  0.00    -0.005 C 
ATOM      8  C   LIG d   1      10.548   3.583  -7.088  0.00  0.00    -0.027 C 
ATOM      9  C   LIG d   1      10.202   4.184  -8.450  0.00  0.00     0.013 C 
ATOM     10  H   LIG d   1      10.212   5.968 -10.435  0.00  0.00     0.066 H 
ATOM     11  H   LIG d   1       9.512   8.128  -6.068  0.00  0.00     0.066 H 
ATOM     12  H   LIG d   1       8.983   5.859  -5.189  0.00  0.00     0.087 H 
ATOM     13  H   LIG d   1      10.739   5.604  -5.294  0.00  0.00     0.087 H 
ATOM     14  H   LIG d   1      10.504   2.495  -7.146  0.00  0.00     0.082 H 
ATOM     15  H   LIG d   1      11.551   3.893  -6.794  0.00  0.00     0.082 H 
ATOM     16  H   LIG d   1      11.009   3.975  -9.153  0.00  0.00     0.036 H 
ATOM     17  H   LIG d   1       9.277   3.740  -8.817  0.00  0.00     0.036 H 
ATOM     18  N   LIG d   1       9.548   4.065  -6.115  0.00  0.00     0.241 N 
ATOM     19  H   LIG d   1       8.610   3.962  -6.520  0.00  0.00     0.204 HD
ENDROOT
BRANCH  18  20
ATOM     20  C   LIG d   1       9.625   3.268  -4.869  0.00  0.00    -0.002 C 
ATOM     21  H   LIG d   1      10.665   3.046  -4.627  0.00  0.00     0.084 H 
ATOM     22  H   LIG d   1       9.174   3.832  -4.053  0.00  0.00     0.084 H 
BRANCH  20  23
ATOM     23  C   LIG d   1       8.857   1.959  -5.072  0.00  0.00     0.129 C 
ATOM     24  H   LIG d   1       9.529   1.203  -5.478  0.00  0.00     0.068 H 
BRANCH  23  25
ATOM     25  C   LIG d   1       8.302   1.481  -3.729  0.00  0.00     0.120 C 
ATOM     26  H   LIG d   1       8.450   0.405  -3.638  0.00  0.00     0.072 H 
ATOM     27  H   LIG d   1       8.823   1.990  -2.917  0.00  0.00     0.072 H 
BRANCH  25  28
ATOM     28  O   LIG d   1       6.906   1.777  -3.658  0.00  0.00    -0.489 OA
BRANCH  28  29
ATOM     29  C   LIG d   1       6.096   0.816  -3.145  0.00  0.00     0.121 A 
ATOM     30  C   LIG d   1       6.367  -0.523  -3.385  0.00  0.00    -0.020 A 
ATOM     31  C   LIG d   1       5.541  -1.499  -2.861  0.00  0.00    -0.058 A 
ATOM     32  H   LIG d   1       7.224  -0.803  -3.979  0.00  0.00     0.065 H 
ATOM     33  C   LIG d   1       4.444  -1.142  -2.100  0.00  0.00    -0.061 A 
ATOM     34  H   LIG d   1       5.752  -2.542  -3.048  0.00  0.00     0.062 H 
ATOM     35  C   LIG d   1       4.170   0.192  -1.860  0.00  0.00    -0.058 A 
ATOM     36  H   LIG d   1       3.799  -1.907  -1.691  0.00  0.00     0.062 H 
ATOM     37  C   LIG d   1       4.997   1.171  -2.374  0.00  0.00    -0.020 A 
ATOM     38  H   LIG d   1       3.313   0.468  -1.264  0.00  0.00     0.062 H 
ATOM     39  H   LIG d   1       4.786   2.213  -2.183  0.00  0.00     0.065 H 
ENDBRANCH  28  29
ENDBRANCH  25  28
ENDBRANCH  23  25
BRANCH  23  40
ATOM     40  O   LIG d   1       7.778   2.177  -5.982  0.00  0.00    -0.383 OA
ATOM     41  H   LIG d   1       6.939   1.790  -5.699  0.00  0.00     0.210 HD
ENDBRANCH  23  40
ENDBRANCH  20  23
ENDBRANCH  18  20
BRANCH   6  42
ATOM     42  O   LIG d   1       9.536   9.775  -8.098  0.00  0.00    -0.491 OA
BRANCH  42  43
ATOM     43  C   LIG d   1       9.995  10.415  -6.905  0.00  0.00     0.079 C 
ATOM     44  H   LIG d   1       9.141  10.670  -6.277  0.00  0.00     0.066 H 
ATOM     45  H   LIG d   1      10.657   9.740  -6.363  0.00  0.00     0.066 H 
ATOM     46  H   LIG d   1      10.537  11.324  -7.166  0.00  0.00     0.066 H 
ENDBRANCH  42  43
ENDBRANCH   6  42
BRANCH   1  47
ATOM     47  O   LIG d   1       9.929   8.565 -10.545  0.00  0.00    -0.491 OA
BRANCH  47  48
ATOM     48  C   LIG d   1      11.210   8.781 -11.142  0.00  0.00     0.079 C 
ATOM     49  H   LIG d   1      11.761   7.842 -11.166  0.00  0.00     0.066 H 
ATOM     50  H   LIG d   1      11.079   9.152 -12.158  0.00  0.00     0.066 H 
ATOM     51  H   LIG d   1      11.764   9.514 -10.556  0.00  0.00     0.066 H 
ENDBRANCH  47  48
ENDBRANCH   1  47
TORSDOF 10
ENDMDL
