MODEL 1
REMARK VINA RESULT:      -7.4      0.000      0.000
REMARK  13 active torsions:
REMARK  status: ('A' for Active; 'I' for Inactive)
REMARK    1  A    between atoms: C_1  and  C_2 
REMARK    2  A    between atoms: N_6  and  O_7 
REMARK    3  A    between atoms: O_7  and  C_8 
REMARK    4  A    between atoms: C_8  and  C_9 
REMARK       I    between atoms: C_9  and  N_11 
REMARK    5  A    between atoms: N_11  and  C_12 
REMARK    6  A    between atoms: C_12  and  C_14 
REMARK    7  A    between atoms: C_12  and  C_18 
REMARK    8  A    between atoms: C_14  and  C_15 
REMARK    9  A    between atoms: C_23  and  C_25 
REMARK   10  A    between atoms: C_23  and  C_26 
REMARK   11  A    between atoms: C_37  and  C_46 
REMARK   12  A    between atoms: C_42  and  C_43 
REMARK   13  A    between atoms: C_42  and  O_45 
ROOT
ATOM      1  C   LIG d   1       4.310   0.406  -2.366  0.00  0.00    -0.070 C 
ATOM      2  C   LIG d   1       4.659   1.188  -1.562  0.00  0.00    -0.116 C 
ATOM      3  H   LIG d   1       4.971   1.888  -0.844  0.00  0.00     0.123 H 
ENDROOT
BRANCH   1   4
ATOM      4  C   LIG d   1       3.874  -0.575  -3.372  0.00  0.00     0.132 C 
ATOM      5  C   LIG d   1       5.077  -1.010  -4.251  0.00  0.00     0.011 C 
ATOM      6  C   LIG d   1       6.328  -0.873  -3.379  0.00  0.00    -0.043 C 
ATOM      7  C   LIG d   1       4.778  -2.491  -4.538  0.00  0.00    -0.029 C 
ATOM      8  C   LIG d   1       7.509  -1.598  -4.017  0.00  0.00    -0.049 C 
ATOM      9  H   LIG d   1       6.130  -1.304  -2.397  0.00  0.00     0.027 H 
ATOM     10  H   LIG d   1       6.573   0.182  -3.265  0.00  0.00     0.027 H 
ATOM     11  C   LIG d   1       7.182  -3.093  -4.107  0.00  0.00    -0.029 C 
ATOM     12  H   LIG d   1       8.399  -1.454  -3.404  0.00  0.00     0.027 H 
ATOM     13  H   LIG d   1       7.684  -1.202  -5.017  0.00  0.00     0.027 H 
ATOM     14  C   LIG d   1       8.385  -3.826  -4.707  0.00  0.00    -0.007 C 
ATOM     15  C   LIG d   1       5.975  -3.271  -5.028  0.00  0.00    -0.034 C 
ATOM     16  H   LIG d   1       6.958  -3.494  -3.119  0.00  0.00     0.031 H 
ATOM     17  C   LIG d   1       8.021  -5.254  -4.964  0.00  0.00    -0.062 C 
ATOM     18  C   LIG d   1       9.628  -3.610  -3.879  0.00  0.00    -0.038 C 
ATOM     19  C   LIG d   1       8.702  -6.288  -4.491  0.00  0.00    -0.037 C 
ATOM     20  C   LIG d   1       6.781  -5.517  -5.801  0.00  0.00    -0.031 C 
ATOM     21  C   LIG d   1       9.848  -6.040  -3.594  0.00  0.00     0.080 C 
ATOM     22  H   LIG d   1       8.416  -7.297  -4.748  0.00  0.00     0.064 H 
ATOM     23  C   LIG d   1       9.839  -4.719  -2.849  0.00  0.00    -0.006 C 
ATOM     24  N   LIG d   1      10.806  -6.901  -3.451  0.00  0.00    -0.089 NA
ATOM     25  H   LIG d   1      10.791  -4.574  -2.339  0.00  0.00     0.033 H 
ATOM     26  H   LIG d   1       9.024  -4.709  -2.123  0.00  0.00     0.033 H 
ATOM     27  C   LIG d   1       5.618  -4.753  -5.159  0.00  0.00    -0.046 C 
ATOM     28  H   LIG d   1       6.940  -5.163  -6.821  0.00  0.00     0.031 H 
ATOM     29  H   LIG d   1       6.561  -6.586  -5.811  0.00  0.00     0.031 H 
ATOM     30  H   LIG d   1       4.729  -4.857  -5.781  0.00  0.00     0.027 H 
ATOM     31  H   LIG d   1       5.417  -5.165  -4.170  0.00  0.00     0.027 H 
ATOM     32  H   LIG d   1      10.492  -3.575  -4.543  0.00  0.00     0.028 H 
ATOM     33  H   LIG d   1       9.545  -2.655  -3.360  0.00  0.00     0.028 H 
ATOM     34  H   LIG d   1       6.249  -2.895  -6.014  0.00  0.00     0.031 H 
ATOM     35  H   LIG d   1       3.981  -2.558  -5.278  0.00  0.00     0.031 H 
ATOM     36  C   LIG d   1       4.241  -3.016  -3.194  0.00  0.00    -0.046 C 
ATOM     37  C   LIG d   1       3.363  -1.853  -2.678  0.00  0.00    -0.012 C 
ATOM     38  H   LIG d   1       3.640  -3.913  -3.345  0.00  0.00     0.027 H 
ATOM     39  H   LIG d   1       5.061  -3.213  -2.504  0.00  0.00     0.027 H 
ATOM     40  H   LIG d   1       2.319  -2.028  -2.941  0.00  0.00     0.030 H 
ATOM     41  H   LIG d   1       3.466  -1.757  -1.598  0.00  0.00     0.030 H 
BRANCH   5  42
ATOM     42  C   LIG d   1       5.182  -0.178  -5.532  0.00  0.00    -0.056 C 
ATOM     43  H   LIG d   1       4.392  -0.472  -6.222  0.00  0.00     0.024 H 
ATOM     44  H   LIG d   1       5.078   0.879  -5.287  0.00  0.00     0.024 H 
ATOM     45  H   LIG d   1       6.153  -0.349  -5.997  0.00  0.00     0.024 H 
ENDBRANCH   5  42
BRANCH  14  46
ATOM     46  C   LIG d   1       8.647  -3.186  -6.072  0.00  0.00    -0.056 C 
ATOM     47  H   LIG d   1       8.830  -3.967  -6.811  0.00  0.00     0.024 H 
ATOM     48  H   LIG d   1       7.780  -2.598  -6.372  0.00  0.00     0.024 H 
ATOM     49  H   LIG d   1       9.520  -2.537  -6.006  0.00  0.00     0.024 H 
ENDBRANCH  14  46
BRANCH  24  50
ATOM     50  O   LIG d   1      11.886  -6.621  -2.579  0.00  0.00    -0.384 OA
BRANCH  50  51
ATOM     51  C   LIG d   1      12.365  -7.761  -1.863  0.00  0.00     0.193 C 
ATOM     52  H   LIG d   1      12.675  -8.530  -2.572  0.00  0.00     0.082 H 
ATOM     53  H   LIG d   1      13.217  -7.472  -1.247  0.00  0.00     0.082 H 
BRANCH  51  54
ATOM     54  C   LIG d   1      11.268  -8.301  -0.983  0.00  0.00     0.254 C 
ATOM     55  O   LIG d   1      10.879  -7.654  -0.034  0.00  0.00    -0.272 OA
ATOM     56  N   LIG d   1      10.719  -9.503  -1.251  0.00  0.00    -0.309 N 
ATOM     57  H   LIG d   1      11.081 -10.054  -1.962  0.00  0.00     0.149 HD
BRANCH  56  58
ATOM     58  C   LIG d   1       9.576  -9.976  -0.467  0.00  0.00     0.031 C 
ATOM     59  H   LIG d   1       9.405  -9.302   0.372  0.00  0.00     0.050 H 
BRANCH  58  60
ATOM     60  C   LIG d   1       9.867 -11.383   0.061  0.00  0.00     0.005 C 
ATOM     61  H   LIG d   1       8.933 -11.941   0.139  0.00  0.00     0.034 H 
ATOM     62  H   LIG d   1      10.540 -11.896  -0.625  0.00  0.00     0.034 H 
BRANCH  60  63
ATOM     63  C   LIG d   1      10.510 -11.287   1.420  0.00  0.00     0.043 C 
ATOM     64  O   LIG d   1      10.777 -10.194   1.892  0.00  0.00    -0.550 OA
ATOM     65  O   LIG d   1      10.765 -12.300   2.047  0.00  0.00    -0.550 OA
ENDBRANCH  60  63
ENDBRANCH  58  60
BRANCH  58  66
ATOM     66  C   LIG d   1       8.330 -10.012  -1.354  0.00  0.00    -0.018 C 
ATOM     67  H   LIG d   1       7.883  -9.018  -1.395  0.00  0.00     0.032 H 
ATOM     68  C   LIG d   1       8.721 -10.457  -2.767  0.00  0.00    -0.020 C 
ATOM     69  C   LIG d   1       7.457 -10.569  -3.626  0.00  0.00     0.064 C 
ATOM     70  H   LIG d   1       9.397  -9.725  -3.206  0.00  0.00     0.030 H 
ATOM     71  H   LIG d   1       9.214 -11.428  -2.720  0.00  0.00     0.030 H 
ATOM     72  O   LIG d   1       6.546 -11.485  -3.016  0.00  0.00    -0.374 OA
ATOM     73  C   LIG d   1       6.109 -11.095  -1.712  0.00  0.00     0.049 C 
ATOM     74  C   LIG d   1       7.318 -11.006  -0.777  0.00  0.00    -0.025 C 
ATOM     75  H   LIG d   1       5.405 -11.832  -1.329  0.00  0.00     0.056 H 
ATOM     76  H   LIG d   1       5.622 -10.121  -1.769  0.00  0.00     0.056 H 
ATOM     77  H   LIG d   1       7.782 -11.988  -0.687  0.00  0.00     0.029 H 
ATOM     78  H   LIG d   1       6.993 -10.666   0.206  0.00  0.00     0.029 H 
BRANCH  69  79
ATOM     79  C   LIG d   1       7.832 -11.073  -5.021  0.00  0.00    -0.036 C 
ATOM     80  H   LIG d   1       7.109 -10.700  -5.747  0.00  0.00     0.026 H 
ATOM     81  H   LIG d   1       8.827 -10.715  -5.282  0.00  0.00     0.026 H 
ATOM     82  H   LIG d   1       7.825 -12.163  -5.027  0.00  0.00     0.026 H 
ENDBRANCH  69  79
BRANCH  69  83
ATOM     83  C   LIG d   1       6.797  -9.193  -3.739  0.00  0.00    -0.036 C 
ATOM     84  H   LIG d   1       5.828  -9.294  -4.225  0.00  0.00     0.026 H 
ATOM     85  H   LIG d   1       6.663  -8.771  -2.743  0.00  0.00     0.026 H 
ATOM     86  H   LIG d   1       7.433  -8.533  -4.330  0.00  0.00     0.026 H 
ENDBRANCH  69  83
ENDBRANCH  58  66
ENDBRANCH  56  58
ENDBRANCH  51  54
ENDBRANCH  50  51
ENDBRANCH  24  50
BRANCH   4  87
ATOM     87  O   LIG d   1       2.845  -0.016  -4.190  0.00  0.00    -0.376 OA
ATOM     88  H   LIG d   1       2.210   0.530  -3.705  0.00  0.00     0.211 HD
ENDBRANCH   4  87
ENDBRANCH   1   4
TORSDOF 13
ENDMDL
MODEL 2
REMARK VINA RESULT:      -7.2      1.474      3.669
REMARK  13 active torsions:
REMARK  status: ('A' for Active; 'I' for Inactive)
REMARK    1  A    between atoms: C_1  and  C_2 
REMARK    2  A    between atoms: N_6  and  O_7 
REMARK    3  A    between atoms: O_7  and  C_8 
REMARK    4  A    between atoms: C_8  and  C_9 
REMARK       I    between atoms: C_9  and  N_11 
REMARK    5  A    between atoms: N_11  and  C_12 
REMARK    6  A    between atoms: C_12  and  C_14 
REMARK    7  A    between atoms: C_12  and  C_18 
REMARK    8  A    between atoms: C_14  and  C_15 
REMARK    9  A    between atoms: C_23  and  C_25 
REMARK   10  A    between atoms: C_23  and  C_26 
REMARK   11  A    between atoms: C_37  and  C_46 
REMARK   12  A    between atoms: C_42  and  C_43 
REMARK   13  A    between atoms: C_42  and  O_45 
ROOT
ATOM      1  C   LIG d   1       4.349   0.404  -2.416  0.00  0.00    -0.070 C 
ATOM      2  C   LIG d   1       4.658   1.152  -1.566  0.00  0.00    -0.116 C 
ATOM      3  H   LIG d   1       4.933   1.822  -0.805  0.00  0.00     0.123 H 
ENDROOT
BRANCH   1   4
ATOM      4  C   LIG d   1       3.964  -0.535  -3.483  0.00  0.00     0.132 C 
ATOM      5  C   LIG d   1       5.219  -0.987  -4.275  0.00  0.00     0.011 C 
ATOM      6  C   LIG d   1       6.400  -0.917  -3.303  0.00  0.00    -0.043 C 
ATOM      7  C   LIG d   1       4.897  -2.449  -4.629  0.00  0.00    -0.029 C 
ATOM      8  C   LIG d   1       7.605  -1.665  -3.865  0.00  0.00    -0.049 C 
ATOM      9  H   LIG d   1       6.110  -1.367  -2.353  0.00  0.00     0.027 H 
ATOM     10  H   LIG d   1       6.669   0.126  -3.137  0.00  0.00     0.027 H 
ATOM     11  C   LIG d   1       7.238  -3.145  -4.025  0.00  0.00    -0.029 C 
ATOM     12  H   LIG d   1       8.446  -1.569  -3.179  0.00  0.00     0.027 H 
ATOM     13  H   LIG d   1       7.873  -1.248  -4.836  0.00  0.00     0.027 H 
ATOM     14  C   LIG d   1       8.461  -3.903  -4.548  0.00  0.00    -0.007 C 
ATOM     15  C   LIG d   1       6.104  -3.256  -5.045  0.00  0.00    -0.034 C 
ATOM     16  H   LIG d   1       6.922  -3.564  -3.070  0.00  0.00     0.031 H 
ATOM     17  C   LIG d   1       8.073  -5.310  -4.876  0.00  0.00    -0.062 C 
ATOM     18  C   LIG d   1       9.639  -3.752  -3.618  0.00  0.00    -0.038 C 
ATOM     19  C   LIG d   1       8.680  -6.379  -4.381  0.00  0.00    -0.037 C 
ATOM     20  C   LIG d   1       6.897  -5.507  -5.817  0.00  0.00    -0.031 C 
ATOM     21  C   LIG d   1       9.757  -6.196  -3.389  0.00  0.00     0.080 C 
ATOM     22  H   LIG d   1       8.383  -7.370  -4.689  0.00  0.00     0.064 H 
ATOM     23  C   LIG d   1       9.730  -4.895  -2.608  0.00  0.00    -0.006 C 
ATOM     24  N   LIG d   1      10.672  -7.093  -3.195  0.00  0.00    -0.089 NA
ATOM     25  H   LIG d   1      10.642  -4.798  -2.020  0.00  0.00     0.033 H 
ATOM     26  H   LIG d   1       8.860  -4.877  -1.949  0.00  0.00     0.033 H 
ATOM     27  C   LIG d   1       5.711  -4.720  -5.248  0.00  0.00    -0.046 C 
ATOM     28  H   LIG d   1       7.149  -5.131  -6.810  0.00  0.00     0.031 H 
ATOM     29  H   LIG d   1       6.644  -6.567  -5.876  0.00  0.00     0.031 H 
ATOM     30  H   LIG d   1       4.872  -4.777  -5.941  0.00  0.00     0.027 H 
ATOM     31  H   LIG d   1       5.417  -5.152  -4.291  0.00  0.00     0.027 H 
ATOM     32  H   LIG d   1      10.555  -3.730  -4.210  0.00  0.00     0.028 H 
ATOM     33  H   LIG d   1       9.546  -2.810  -3.079  0.00  0.00     0.028 H 
ATOM     34  H   LIG d   1       6.469  -2.863  -5.994  0.00  0.00     0.031 H 
ATOM     35  H   LIG d   1       4.161  -2.468  -5.432  0.00  0.00     0.031 H 
ATOM     36  C   LIG d   1       4.237  -2.990  -3.349  0.00  0.00    -0.046 C 
ATOM     37  C   LIG d   1       3.358  -1.812  -2.870  0.00  0.00    -0.012 C 
ATOM     38  H   LIG d   1       3.621  -3.862  -3.573  0.00  0.00     0.027 H 
ATOM     39  H   LIG d   1       4.991  -3.235  -2.601  0.00  0.00     0.027 H 
ATOM     40  H   LIG d   1       2.334  -1.944  -3.220  0.00  0.00     0.030 H 
ATOM     41  H   LIG d   1       3.377  -1.749  -1.783  0.00  0.00     0.030 H 
BRANCH   5  42
ATOM     42  C   LIG d   1       5.455  -0.125  -5.518  0.00  0.00    -0.056 C 
ATOM     43  H   LIG d   1       6.470   0.271  -5.498  0.00  0.00     0.024 H 
ATOM     44  H   LIG d   1       5.319  -0.733  -6.412  0.00  0.00     0.024 H 
ATOM     45  H   LIG d   1       4.743   0.701  -5.528  0.00  0.00     0.024 H 
ENDBRANCH   5  42
BRANCH  14  46
ATOM     46  C   LIG d   1       8.853  -3.235  -5.869  0.00  0.00    -0.056 C 
ATOM     47  H   LIG d   1       9.830  -2.761  -5.760  0.00  0.00     0.024 H 
ATOM     48  H   LIG d   1       8.901  -3.987  -6.657  0.00  0.00     0.024 H 
ATOM     49  H   LIG d   1       8.111  -2.482  -6.129  0.00  0.00     0.024 H 
ENDBRANCH  14  46
BRANCH  24  50
ATOM     50  O   LIG d   1      11.686  -6.874  -2.231  0.00  0.00    -0.384 OA
BRANCH  50  51
ATOM     51  C   LIG d   1      12.680  -7.899  -2.191  0.00  0.00     0.193 C 
ATOM     52  H   LIG d   1      13.050  -8.085  -3.200  0.00  0.00     0.082 H 
ATOM     53  H   LIG d   1      13.506  -7.580  -1.555  0.00  0.00     0.082 H 
BRANCH  51  54
ATOM     54  C   LIG d   1      12.077  -9.164  -1.636  0.00  0.00     0.254 C 
ATOM     55  O   LIG d   1      12.568 -10.239  -1.908  0.00  0.00    -0.272 OA
ATOM     56  N   LIG d   1      10.991  -9.100  -0.839  0.00  0.00    -0.309 N 
ATOM     57  H   LIG d   1      10.553  -8.249  -0.684  0.00  0.00     0.149 HD
BRANCH  56  58
ATOM     58  C   LIG d   1      10.475 -10.316  -0.207  0.00  0.00     0.031 C 
ATOM     59  H   LIG d   1      10.983 -11.186  -0.623  0.00  0.00     0.050 H 
BRANCH  58  60
ATOM     60  C   LIG d   1       8.972 -10.429  -0.472  0.00  0.00     0.005 C 
ATOM     61  H   LIG d   1       8.678 -11.479  -0.455  0.00  0.00     0.034 H 
ATOM     62  H   LIG d   1       8.426  -9.886   0.299  0.00  0.00     0.034 H 
BRANCH  60  63
ATOM     63  C   LIG d   1       8.654  -9.841  -1.823  0.00  0.00     0.043 C 
ATOM     64  O   LIG d   1       7.992  -8.820  -1.903  0.00  0.00    -0.550 OA
ATOM     65  O   LIG d   1       9.058 -10.386  -2.835  0.00  0.00    -0.550 OA
ENDBRANCH  60  63
ENDBRANCH  58  60
BRANCH  58  66
ATOM     66  C   LIG d   1      10.723 -10.252   1.301  0.00  0.00    -0.018 C 
ATOM     67  H   LIG d   1       9.871 -10.680   1.829  0.00  0.00     0.032 H 
ATOM     68  C   LIG d   1      11.989 -11.043   1.645  0.00  0.00    -0.020 C 
ATOM     69  C   LIG d   1      12.276 -10.906   3.144  0.00  0.00     0.064 C 
ATOM     70  H   LIG d   1      11.843 -12.093   1.396  0.00  0.00     0.030 H 
ATOM     71  H   LIG d   1      12.832 -10.647   1.078  0.00  0.00     0.030 H 
ATOM     72  O   LIG d   1      12.408  -9.523   3.480  0.00  0.00    -0.374 OA
ATOM     73  C   LIG d   1      11.237  -8.745   3.223  0.00  0.00     0.049 C 
ATOM     74  C   LIG d   1      10.911  -8.793   1.729  0.00  0.00    -0.025 C 
ATOM     75  H   LIG d   1      11.413  -7.713   3.525  0.00  0.00     0.056 H 
ATOM     76  H   LIG d   1      10.400  -9.152   3.791  0.00  0.00     0.056 H 
ATOM     77  H   LIG d   1      11.730  -8.350   1.163  0.00  0.00     0.029 H 
ATOM     78  H   LIG d   1       9.994  -8.237   1.538  0.00  0.00     0.029 H 
BRANCH  69  79
ATOM     79  C   LIG d   1      13.573 -11.642   3.485  0.00  0.00    -0.036 C 
ATOM     80  H   LIG d   1      14.239 -10.969   4.025  0.00  0.00     0.026 H 
ATOM     81  H   LIG d   1      13.347 -12.508   4.106  0.00  0.00     0.026 H 
ATOM     82  H   LIG d   1      14.056 -11.971   2.564  0.00  0.00     0.026 H 
ENDBRANCH  69  79
BRANCH  69  83
ATOM     83  C   LIG d   1      11.118 -11.515   3.939  0.00  0.00    -0.036 C 
ATOM     84  H   LIG d   1      10.198 -10.978   3.711  0.00  0.00     0.026 H 
ATOM     85  H   LIG d   1      11.004 -12.565   3.667  0.00  0.00     0.026 H 
ATOM     86  H   LIG d   1      11.330 -11.437   5.005  0.00  0.00     0.026 H 
ENDBRANCH  69  83
ENDBRANCH  58  66
ENDBRANCH  56  58
ENDBRANCH  51  54
ENDBRANCH  50  51
ENDBRANCH  24  50
BRANCH   4  87
ATOM     87  O   LIG d   1       3.024   0.082  -4.363  0.00  0.00    -0.376 OA
ATOM     88  H   LIG d   1       2.511  -0.546  -4.894  0.00  0.00     0.211 HD
ENDBRANCH   4  87
ENDBRANCH   1   4
TORSDOF 13
ENDMDL
MODEL 3
REMARK VINA RESULT:      -6.9      7.271     13.070
REMARK  13 active torsions:
REMARK  status: ('A' for Active; 'I' for Inactive)
REMARK    1  A    between atoms: C_1  and  C_2 
REMARK    2  A    between atoms: N_6  and  O_7 
REMARK    3  A    between atoms: O_7  and  C_8 
REMARK    4  A    between atoms: C_8  and  C_9 
REMARK       I    between atoms: C_9  and  N_11 
REMARK    5  A    between atoms: N_11  and  C_12 
REMARK    6  A    between atoms: C_12  and  C_14 
REMARK    7  A    between atoms: C_12  and  C_18 
REMARK    8  A    between atoms: C_14  and  C_15 
REMARK    9  A    between atoms: C_23  and  C_25 
REMARK   10  A    between atoms: C_23  and  C_26 
REMARK   11  A    between atoms: C_37  and  C_46 
REMARK   12  A    between atoms: C_42  and  C_43 
REMARK   13  A    between atoms: C_42  and  O_45 
ROOT
ATOM      1  C   LIG d   1       3.037  -0.416  -3.493  0.00  0.00    -0.070 C 
ATOM      2  C   LIG d   1       1.990  -0.421  -4.025  0.00  0.00    -0.116 C 
ATOM      3  H   LIG d   1       1.055  -0.424  -4.503  0.00  0.00     0.123 H 
ENDROOT
BRANCH   1   4
ATOM      4  C   LIG d   1       4.348  -0.412  -2.824  0.00  0.00     0.132 C 
ATOM      5  C   LIG d   1       5.453  -0.868  -3.813  0.00  0.00     0.011 C 
ATOM      6  C   LIG d   1       4.978  -0.472  -5.213  0.00  0.00    -0.043 C 
ATOM      7  C   LIG d   1       6.665  -0.019  -3.393  0.00  0.00    -0.029 C 
ATOM      8  C   LIG d   1       6.127  -0.552  -6.214  0.00  0.00    -0.049 C 
ATOM      9  H   LIG d   1       4.597   0.549  -5.188  0.00  0.00     0.027 H 
ATOM     10  H   LIG d   1       4.181  -1.145  -5.527  0.00  0.00     0.027 H 
ATOM     11  C   LIG d   1       7.212   0.450  -5.803  0.00  0.00    -0.029 C 
ATOM     12  H   LIG d   1       5.761  -0.308  -7.210  0.00  0.00     0.027 H 
ATOM     13  H   LIG d   1       6.543  -1.560  -6.212  0.00  0.00     0.027 H 
ATOM     14  C   LIG d   1       8.345   0.400  -6.831  0.00  0.00    -0.007 C 
ATOM     15  C   LIG d   1       7.757   0.042  -4.435  0.00  0.00    -0.034 C 
ATOM     16  H   LIG d   1       6.800   1.458  -5.754  0.00  0.00     0.031 H 
ATOM     17  C   LIG d   1       9.488   1.241  -6.356  0.00  0.00    -0.062 C 
ATOM     18  C   LIG d   1       7.841   0.711  -8.219  0.00  0.00    -0.038 C 
ATOM     19  C   LIG d   1      10.030   2.221  -7.064  0.00  0.00    -0.037 C 
ATOM     20  C   LIG d   1      10.032   0.955  -4.967  0.00  0.00    -0.031 C 
ATOM     21  C   LIG d   1       9.441   2.570  -8.372  0.00  0.00     0.080 C 
ATOM     22  H   LIG d   1      10.883   2.765  -6.685  0.00  0.00     0.064 H 
ATOM     23  C   LIG d   1       7.985   2.191  -8.570  0.00  0.00    -0.006 C 
ATOM     24  N   LIG d   1      10.126   3.165  -9.296  0.00  0.00    -0.089 NA
ATOM     25  H   LIG d   1       7.698   2.355  -9.608  0.00  0.00     0.033 H 
ATOM     26  H   LIG d   1       7.354   2.790  -7.912  0.00  0.00     0.033 H 
ATOM     27  C   LIG d   1       8.855   1.010  -3.988  0.00  0.00    -0.046 C 
ATOM     28  H   LIG d   1      10.488  -0.036  -4.944  0.00  0.00     0.031 H 
ATOM     29  H   LIG d   1      10.773   1.709  -4.697  0.00  0.00     0.031 H 
ATOM     30  H   LIG d   1       9.198   0.731  -2.991  0.00  0.00     0.027 H 
ATOM     31  H   LIG d   1       8.454   2.023  -3.960  0.00  0.00     0.027 H 
ATOM     32  H   LIG d   1       8.407   0.121  -8.940  0.00  0.00     0.028 H 
ATOM     33  H   LIG d   1       6.790   0.432  -8.284  0.00  0.00     0.028 H 
ATOM     34  H   LIG d   1       8.194  -0.952  -4.532  0.00  0.00     0.031 H 
ATOM     35  H   LIG d   1       7.077  -0.418  -2.466  0.00  0.00     0.031 H 
ATOM     36  C   LIG d   1       6.051   1.361  -3.099  0.00  0.00    -0.046 C 
ATOM     37  C   LIG d   1       4.718   1.021  -2.394  0.00  0.00    -0.012 C 
ATOM     38  H   LIG d   1       6.699   1.937  -2.438  0.00  0.00     0.027 H 
ATOM     39  H   LIG d   1       5.867   1.905  -4.026  0.00  0.00     0.027 H 
ATOM     40  H   LIG d   1       4.846   1.065  -1.313  0.00  0.00     0.030 H 
ATOM     41  H   LIG d   1       3.940   1.716  -2.708  0.00  0.00     0.030 H 
BRANCH   5  42
ATOM     42  C   LIG d   1       5.731  -2.370  -3.711  0.00  0.00    -0.056 C 
ATOM     43  H   LIG d   1       5.967  -2.764  -4.699  0.00  0.00     0.024 H 
ATOM     44  H   LIG d   1       6.573  -2.538  -3.040  0.00  0.00     0.024 H 
ATOM     45  H   LIG d   1       4.848  -2.877  -3.319  0.00  0.00     0.024 H 
ENDBRANCH   5  42
BRANCH  14  46
ATOM     46  C   LIG d   1       8.844  -1.047  -6.857  0.00  0.00    -0.056 C 
ATOM     47  H   LIG d   1       9.929  -1.055  -6.969  0.00  0.00     0.024 H 
ATOM     48  H   LIG d   1       8.572  -1.543  -5.926  0.00  0.00     0.024 H 
ATOM     49  H   LIG d   1       8.389  -1.572  -7.696  0.00  0.00     0.024 H 
ENDBRANCH  14  46
BRANCH  24  50
ATOM     50  O   LIG d   1       9.519   3.482 -10.536  0.00  0.00    -0.384 OA
BRANCH  50  51
ATOM     51  C   LIG d   1       9.839   4.786 -11.024  0.00  0.00     0.193 C 
ATOM     52  H   LIG d   1      10.920   4.929 -10.995  0.00  0.00     0.082 H 
ATOM     53  H   LIG d   1       9.488   4.886 -12.051  0.00  0.00     0.082 H 
BRANCH  51  54
ATOM     54  C   LIG d   1       9.172   5.824 -10.160  0.00  0.00     0.254 C 
ATOM     55  O   LIG d   1       7.991   6.063 -10.304  0.00  0.00    -0.272 OA
ATOM     56  N   LIG d   1       9.886   6.487  -9.229  0.00  0.00    -0.309 N 
ATOM     57  H   LIG d   1      10.844   6.352  -9.166  0.00  0.00     0.149 HD
BRANCH  56  58
ATOM     58  C   LIG d   1       9.214   7.411  -8.312  0.00  0.00     0.031 C 
ATOM     59  H   LIG d   1       8.149   7.442  -8.542  0.00  0.00     0.050 H 
BRANCH  58  60
ATOM     60  C   LIG d   1       9.811   8.812  -8.474  0.00  0.00     0.005 C 
ATOM     61  H   LIG d   1       9.029   9.506  -8.783  0.00  0.00     0.034 H 
ATOM     62  H   LIG d   1      10.231   9.139  -7.523  0.00  0.00     0.034 H 
BRANCH  60  63
ATOM     63  C   LIG d   1      10.895   8.779  -9.519  0.00  0.00     0.043 C 
ATOM     64  O   LIG d   1      12.035   8.477  -9.206  0.00  0.00    -0.550 OA
ATOM     65  O   LIG d   1      10.635   9.055 -10.677  0.00  0.00    -0.550 OA
ENDBRANCH  60  63
ENDBRANCH  58  60
BRANCH  58  66
ATOM     66  C   LIG d   1       9.413   6.936  -6.873  0.00  0.00    -0.018 C 
ATOM     67  H   LIG d   1       8.509   6.434  -6.526  0.00  0.00     0.032 H 
ATOM     68  C   LIG d   1      10.594   5.962  -6.814  0.00  0.00    -0.020 C 
ATOM     69  C   LIG d   1      10.837   5.553  -5.358  0.00  0.00     0.064 C 
ATOM     70  H   LIG d   1      10.367   5.077  -7.408  0.00  0.00     0.030 H 
ATOM     71  H   LIG d   1      11.487   6.447  -7.208  0.00  0.00     0.030 H 
ATOM     72  O   LIG d   1      11.075   6.721  -4.568  0.00  0.00    -0.374 OA
ATOM     73  C   LIG d   1       9.985   7.645  -4.548  0.00  0.00     0.049 C 
ATOM     74  C   LIG d   1       9.709   8.138  -5.971  0.00  0.00    -0.025 C 
ATOM     75  H   LIG d   1      10.237   8.492  -3.912  0.00  0.00     0.056 H 
ATOM     76  H   LIG d   1       9.096   7.148  -4.157  0.00  0.00     0.056 H 
ATOM     77  H   LIG d   1      10.583   8.669  -6.348  0.00  0.00     0.029 H 
ATOM     78  H   LIG d   1       8.850   8.808  -5.964  0.00  0.00     0.029 H 
BRANCH  69  79
ATOM     79  C   LIG d   1      12.054   4.630  -5.283  0.00  0.00    -0.036 C 
ATOM     80  H   LIG d   1      12.639   4.872  -4.396  0.00  0.00     0.026 H 
ATOM     81  H   LIG d   1      11.721   3.593  -5.228  0.00  0.00     0.026 H 
ATOM     82  H   LIG d   1      12.669   4.767  -6.173  0.00  0.00     0.026 H 
ENDBRANCH  69  79
BRANCH  69  83
ATOM     83  C   LIG d   1       9.605   4.820  -4.824  0.00  0.00    -0.036 C 
ATOM     84  H   LIG d   1       8.876   5.546  -4.466  0.00  0.00     0.026 H 
ATOM     85  H   LIG d   1       9.163   4.223  -5.622  0.00  0.00     0.026 H 
ATOM     86  H   LIG d   1       9.899   4.167  -4.003  0.00  0.00     0.026 H 
ENDBRANCH  69  83
ENDBRANCH  58  66
ENDBRANCH  56  58
ENDBRANCH  51  54
ENDBRANCH  50  51
ENDBRANCH  24  50
BRANCH   4  87
ATOM     87  O   LIG d   1       4.322  -1.275  -1.685  0.00  0.00    -0.376 OA
ATOM     88  H   LIG d   1       4.976  -1.052  -1.007  0.00  0.00     0.211 HD
ENDBRANCH   4  87
ENDBRANCH   1   4
TORSDOF 13
ENDMDL
MODEL 4
REMARK VINA RESULT:      -6.8      3.171      9.469
REMARK  13 active torsions:
REMARK  status: ('A' for Active; 'I' for Inactive)
REMARK    1  A    between atoms: C_1  and  C_2 
REMARK    2  A    between atoms: N_6  and  O_7 
REMARK    3  A    between atoms: O_7  and  C_8 
REMARK    4  A    between atoms: C_8  and  C_9 
REMARK       I    between atoms: C_9  and  N_11 
REMARK    5  A    between atoms: N_11  and  C_12 
REMARK    6  A    between atoms: C_12  and  C_14 
REMARK    7  A    between atoms: C_12  and  C_18 
REMARK    8  A    between atoms: C_14  and  C_15 
REMARK    9  A    between atoms: C_23  and  C_25 
REMARK   10  A    between atoms: C_23  and  C_26 
REMARK   11  A    between atoms: C_37  and  C_46 
REMARK   12  A    between atoms: C_42  and  C_43 
REMARK   13  A    between atoms: C_42  and  O_45 
ROOT
ATOM      1  C   LIG d   1       4.693 -10.876  -3.244  0.00  0.00    -0.070 C 
ATOM      2  C   LIG d   1       3.531 -10.813  -3.395  0.00  0.00    -0.116 C 
ATOM      3  H   LIG d   1       2.491 -10.756  -3.532  0.00  0.00     0.123 H 
ENDROOT
BRANCH   1   4
ATOM      4  C   LIG d   1       6.151 -10.956  -3.052  0.00  0.00     0.132 C 
ATOM      5  C   LIG d   1       6.879 -10.136  -4.150  0.00  0.00     0.011 C 
ATOM      6  C   LIG d   1       5.926  -9.010  -4.560  0.00  0.00    -0.043 C 
ATOM      7  C   LIG d   1       8.098  -9.566  -3.404  0.00  0.00    -0.029 C 
ATOM      8  C   LIG d   1       6.665  -7.947  -5.368  0.00  0.00    -0.049 C 
ATOM      9  H   LIG d   1       5.504  -8.552  -3.665  0.00  0.00     0.027 H 
ATOM     10  H   LIG d   1       5.119  -9.424  -5.164  0.00  0.00     0.027 H 
ATOM     11  C   LIG d   1       7.750  -7.321  -4.485  0.00  0.00    -0.029 C 
ATOM     12  H   LIG d   1       5.963  -7.177  -5.686  0.00  0.00     0.027 H 
ATOM     13  H   LIG d   1       7.126  -8.408  -6.242  0.00  0.00     0.027 H 
ATOM     14  C   LIG d   1       8.462  -6.225  -5.281  0.00  0.00    -0.007 C 
ATOM     15  C   LIG d   1       8.759  -8.407  -4.112  0.00  0.00    -0.034 C 
ATOM     16  H   LIG d   1       7.309  -6.898  -3.583  0.00  0.00     0.031 H 
ATOM     17  C   LIG d   1       9.636  -5.723  -4.500  0.00  0.00    -0.062 C 
ATOM     18  C   LIG d   1       7.492  -5.168  -5.749  0.00  0.00    -0.038 C 
ATOM     19  C   LIG d   1       9.831  -4.449  -4.195  0.00  0.00    -0.037 C 
ATOM     20  C   LIG d   1      10.643  -6.753  -4.017  0.00  0.00    -0.031 C 
ATOM     21  C   LIG d   1       8.806  -3.457  -4.574  0.00  0.00     0.080 C 
ATOM     22  H   LIG d   1      10.721  -4.141  -3.666  0.00  0.00     0.064 H 
ATOM     23  C   LIG d   1       7.401  -3.993  -4.777  0.00  0.00    -0.006 C 
ATOM     24  N   LIG d   1       9.088  -2.201  -4.724  0.00  0.00    -0.089 NA
ATOM     25  H   LIG d   1       6.764  -3.214  -5.196  0.00  0.00     0.033 H 
ATOM     26  H   LIG d   1       6.994  -4.332  -3.824  0.00  0.00     0.033 H 
ATOM     27  C   LIG d   1       9.871  -7.824  -3.239  0.00  0.00    -0.046 C 
ATOM     28  H   LIG d   1      11.148  -7.207  -4.871  0.00  0.00     0.031 H 
ATOM     29  H   LIG d   1      11.375  -6.277  -3.364  0.00  0.00     0.031 H 
ATOM     30  H   LIG d   1      10.555  -8.621  -2.945  0.00  0.00     0.027 H 
ATOM     31  H   LIG d   1       9.434  -7.378  -2.346  0.00  0.00     0.027 H 
ATOM     32  H   LIG d   1       7.817  -4.797  -6.722  0.00  0.00     0.028 H 
ATOM     33  H   LIG d   1       6.505  -5.617  -5.856  0.00  0.00     0.028 H 
ATOM     34  H   LIG d   1       9.206  -8.779  -5.035  0.00  0.00     0.031 H 
ATOM     35  H   LIG d   1       8.829 -10.359  -3.257  0.00  0.00     0.031 H 
ATOM     36  C   LIG d   1       7.525  -9.170  -2.031  0.00  0.00    -0.046 C 
ATOM     37  C   LIG d   1       6.543 -10.318  -1.705  0.00  0.00    -0.012 C 
ATOM     38  H   LIG d   1       8.318  -9.119  -1.285  0.00  0.00     0.027 H 
ATOM     39  H   LIG d   1       6.996  -8.219  -2.095  0.00  0.00     0.027 H 
ATOM     40  H   LIG d   1       7.030 -11.058  -1.070  0.00  0.00     0.030 H 
ATOM     41  H   LIG d   1       5.657  -9.923  -1.208  0.00  0.00     0.030 H 
BRANCH   5  42
ATOM     42  C   LIG d   1       7.281 -11.005  -5.344  0.00  0.00    -0.056 C 
ATOM     43  H   LIG d   1       7.342 -10.386  -6.239  0.00  0.00     0.024 H 
ATOM     44  H   LIG d   1       8.251 -11.462  -5.150  0.00  0.00     0.024 H 
ATOM     45  H   LIG d   1       6.535 -11.786  -5.493  0.00  0.00     0.024 H 
ENDBRANCH   5  42
BRANCH  14  46
ATOM     46  C   LIG d   1       9.024  -6.896  -6.538  0.00  0.00    -0.056 C 
ATOM     47  H   LIG d   1       8.201  -7.272  -7.147  0.00  0.00     0.024 H 
ATOM     48  H   LIG d   1       9.598  -6.169  -7.112  0.00  0.00     0.024 H 
ATOM     49  H   LIG d   1       9.670  -7.723  -6.248  0.00  0.00     0.024 H 
ENDBRANCH  14  46
BRANCH  24  50
ATOM     50  O   LIG d   1       8.072  -1.284  -5.088  0.00  0.00    -0.384 OA
BRANCH  50  51
ATOM     51  C   LIG d   1       7.755  -0.333  -4.069  0.00  0.00     0.193 C 
ATOM     52  H   LIG d   1       7.886  -0.794  -3.090  0.00  0.00     0.082 H 
ATOM     53  H   LIG d   1       8.417   0.528  -4.157  0.00  0.00     0.082 H 
BRANCH  51  54
ATOM     54  C   LIG d   1       6.325   0.114  -4.226  0.00  0.00     0.254 C 
ATOM     55  O   LIG d   1       6.008   1.246  -3.927  0.00  0.00    -0.272 OA
ATOM     56  N   LIG d   1       5.398  -0.743  -4.698  0.00  0.00    -0.309 N 
ATOM     57  H   LIG d   1       5.634  -1.669  -4.864  0.00  0.00     0.149 HD
BRANCH  56  58
ATOM     58  C   LIG d   1       4.035  -0.276  -4.960  0.00  0.00     0.031 C 
ATOM     59  H   LIG d   1       3.998   0.810  -4.870  0.00  0.00     0.050 H 
BRANCH  58  60
ATOM     60  C   LIG d   1       3.077  -0.904  -3.944  0.00  0.00     0.005 C 
ATOM     61  H   LIG d   1       2.627  -0.118  -3.337  0.00  0.00     0.034 H 
ATOM     62  H   LIG d   1       2.295  -1.448  -4.472  0.00  0.00     0.034 H 
BRANCH  60  63
ATOM     63  C   LIG d   1       3.839  -1.852  -3.055  0.00  0.00     0.043 C 
ATOM     64  O   LIG d   1       4.222  -1.484  -1.957  0.00  0.00    -0.550 OA
ATOM     65  O   LIG d   1       4.073  -2.987  -3.433  0.00  0.00    -0.550 OA
ENDBRANCH  60  63
ENDBRANCH  58  60
BRANCH  58  66
ATOM     66  C   LIG d   1       3.618  -0.685  -6.374  0.00  0.00    -0.018 C 
ATOM     67  H   LIG d   1       2.576  -1.009  -6.367  0.00  0.00     0.032 H 
ATOM     68  C   LIG d   1       3.778   0.509  -7.320  0.00  0.00    -0.020 C 
ATOM     69  C   LIG d   1       3.436   0.069  -8.747  0.00  0.00     0.064 C 
ATOM     70  H   LIG d   1       3.105   1.310  -7.014  0.00  0.00     0.030 H 
ATOM     71  H   LIG d   1       4.808   0.864  -7.288  0.00  0.00     0.030 H 
ATOM     72  O   LIG d   1       4.279  -1.022  -9.125  0.00  0.00    -0.374 OA
ATOM     73  C   LIG d   1       4.136  -2.183  -8.303  0.00  0.00     0.049 C 
ATOM     74  C   LIG d   1       4.508  -1.833  -6.859  0.00  0.00    -0.025 C 
ATOM     75  H   LIG d   1       4.794  -2.970  -8.668  0.00  0.00     0.056 H 
ATOM     76  H   LIG d   1       3.102  -2.527  -8.338  0.00  0.00     0.056 H 
ATOM     77  H   LIG d   1       5.553  -1.527  -6.817  0.00  0.00     0.029 H 
ATOM     78  H   LIG d   1       4.357  -2.705  -6.223  0.00  0.00     0.029 H 
BRANCH  69  79
ATOM     79  C   LIG d   1       3.653   1.239  -9.708  0.00  0.00    -0.036 C 
ATOM     80  H   LIG d   1       4.633   1.679  -9.527  0.00  0.00     0.026 H 
ATOM     81  H   LIG d   1       3.599   0.880 -10.736  0.00  0.00     0.026 H 
ATOM     82  H   LIG d   1       2.881   1.991  -9.544  0.00  0.00     0.026 H 
ENDBRANCH  69  79
BRANCH  69  83
ATOM     83  C   LIG d   1       1.972  -0.375  -8.804  0.00  0.00    -0.036 C 
ATOM     84  H   LIG d   1       1.739  -0.730  -9.807  0.00  0.00     0.026 H 
ATOM     85  H   LIG d   1       1.809  -1.180  -8.086  0.00  0.00     0.026 H 
ATOM     86  H   LIG d   1       1.328   0.468  -8.557  0.00  0.00     0.026 H 
ENDBRANCH  69  83
ENDBRANCH  58  66
ENDBRANCH  56  58
ENDBRANCH  51  54
ENDBRANCH  50  51
ENDBRANCH  24  50
BRANCH   4  87
ATOM     87  O   LIG d   1       6.578 -12.318  -3.093  0.00  0.00    -0.376 OA
ATOM     88  H   LIG d   1       6.614 -12.746  -2.225  0.00  0.00     0.211 HD
ENDBRANCH   4  87
ENDBRANCH   1   4
TORSDOF 13
ENDMDL
MODEL 5
REMARK VINA RESULT:      -6.7      7.459     10.933
REMARK  13 active torsions:
REMARK  status: ('A' for Active; 'I' for Inactive)
REMARK    1  A    between atoms: C_1  and  C_2 
REMARK    2  A    between atoms: N_6  and  O_7 
REMARK    3  A    between atoms: O_7  and  C_8 
REMARK    4  A    between atoms: C_8  and  C_9 
REMARK       I    between atoms: C_9  and  N_11 
REMARK    5  A    between atoms: N_11  and  C_12 
REMARK    6  A    between atoms: C_12  and  C_14 
REMARK    7  A    between atoms: C_12  and  C_18 
REMARK    8  A    between atoms: C_14  and  C_15 
REMARK    9  A    between atoms: C_23  and  C_25 
REMARK   10  A    between atoms: C_23  and  C_26 
REMARK   11  A    between atoms: C_37  and  C_46 
REMARK   12  A    between atoms: C_42  and  C_43 
REMARK   13  A    between atoms: C_42  and  O_45 
ROOT
ATOM      1  C   LIG d   1      10.948   6.546   0.480  0.00  0.00    -0.070 C 
ATOM      2  C   LIG d   1      11.043   5.980   1.504  0.00  0.00    -0.116 C 
ATOM      3  H   LIG d   1      11.127   5.473   2.419  0.00  0.00     0.123 H 
ENDROOT
BRANCH   1   4
ATOM      4  C   LIG d   1      10.831   7.257  -0.804  0.00  0.00     0.132 C 
ATOM      5  C   LIG d   1      11.486   6.425  -1.938  0.00  0.00     0.011 C 
ATOM      6  C   LIG d   1      11.365   4.954  -1.527  0.00  0.00    -0.043 C 
ATOM      7  C   LIG d   1      10.588   6.723  -3.150  0.00  0.00    -0.029 C 
ATOM      8  C   LIG d   1      11.655   4.040  -2.713  0.00  0.00    -0.049 C 
ATOM      9  H   LIG d   1      10.353   4.764  -1.167  0.00  0.00     0.027 H 
ATOM     10  H   LIG d   1      12.075   4.744  -0.728  0.00  0.00     0.027 H 
ATOM     11  C   LIG d   1      10.606   4.293  -3.802  0.00  0.00    -0.029 C 
ATOM     12  H   LIG d   1      11.605   2.999  -2.392  0.00  0.00     0.027 H 
ATOM     13  H   LIG d   1      12.649   4.255  -3.106  0.00  0.00     0.027 H 
ATOM     14  C   LIG d   1      10.871   3.345  -4.973  0.00  0.00    -0.007 C 
ATOM     15  C   LIG d   1      10.746   5.737  -4.283  0.00  0.00    -0.034 C 
ATOM     16  H   LIG d   1       9.603   4.128  -3.410  0.00  0.00     0.031 H 
ATOM     17  C   LIG d   1       9.969   3.696  -6.114  0.00  0.00    -0.062 C 
ATOM     18  C   LIG d   1      10.831   1.902  -4.532  0.00  0.00    -0.038 C 
ATOM     19  C   LIG d   1       9.153   2.834  -6.705  0.00  0.00    -0.037 C 
ATOM     20  C   LIG d   1       9.985   5.136  -6.597  0.00  0.00    -0.031 C 
ATOM     21  C   LIG d   1       9.059   1.460  -6.176  0.00  0.00     0.080 C 
ATOM     22  H   LIG d   1       8.557   3.136  -7.553  0.00  0.00     0.064 H 
ATOM     23  C   LIG d   1       9.450   1.276  -4.721  0.00  0.00    -0.006 C 
ATOM     24  N   LIG d   1       8.665   0.467  -6.910  0.00  0.00    -0.089 NA
ATOM     25  H   LIG d   1       9.488   0.215  -4.479  0.00  0.00     0.033 H 
ATOM     26  H   LIG d   1       8.725   1.777  -4.078  0.00  0.00     0.033 H 
ATOM     27  C   LIG d   1       9.724   6.034  -5.383  0.00  0.00    -0.046 C 
ATOM     28  H   LIG d   1      10.958   5.372  -7.030  0.00  0.00     0.031 H 
ATOM     29  H   LIG d   1       9.202   5.285  -7.342  0.00  0.00     0.031 H 
ATOM     30  H   LIG d   1       9.807   7.079  -5.680  0.00  0.00     0.027 H 
ATOM     31  H   LIG d   1       8.720   5.847  -5.003  0.00  0.00     0.027 H 
ATOM     32  H   LIG d   1      11.558   1.335  -5.113  0.00  0.00     0.028 H 
ATOM     33  H   LIG d   1      11.103   1.848  -3.478  0.00  0.00     0.028 H 
ATOM     34  H   LIG d   1      11.745   5.855  -4.702  0.00  0.00     0.031 H 
ATOM     35  H   LIG d   1      10.803   7.726  -3.515  0.00  0.00     0.031 H 
ATOM     36  C   LIG d   1       9.168   6.715  -2.554  0.00  0.00    -0.046 C 
ATOM     37  C   LIG d   1       9.347   7.415  -1.187  0.00  0.00    -0.012 C 
ATOM     38  H   LIG d   1       8.483   7.279  -3.188  0.00  0.00     0.027 H 
ATOM     39  H   LIG d   1       8.814   5.693  -2.418  0.00  0.00     0.027 H 
ATOM     40  H   LIG d   1       9.094   8.472  -1.273  0.00  0.00     0.030 H 
ATOM     41  H   LIG d   1       8.715   6.939  -0.438  0.00  0.00     0.030 H 
BRANCH   5  42
ATOM     42  C   LIG d   1      12.943   6.829  -2.179  0.00  0.00    -0.056 C 
ATOM     43  H   LIG d   1      13.542   5.937  -2.359  0.00  0.00     0.024 H 
ATOM     44  H   LIG d   1      12.997   7.487  -3.046  0.00  0.00     0.024 H 
ATOM     45  H   LIG d   1      13.324   7.352  -1.301  0.00  0.00     0.024 H 
ENDBRANCH   5  42
BRANCH  14  46
ATOM     46  C   LIG d   1      12.302   3.622  -5.442  0.00  0.00    -0.056 C 
ATOM     47  H   LIG d   1      12.856   4.116  -4.643  0.00  0.00     0.024 H 
ATOM     48  H   LIG d   1      12.791   2.682  -5.696  0.00  0.00     0.024 H 
ATOM     49  H   LIG d   1      12.277   4.268  -6.319  0.00  0.00     0.024 H 
ENDBRANCH  14  46
BRANCH  24  50
ATOM     50  O   LIG d   1       8.589  -0.835  -6.359  0.00  0.00    -0.384 OA
BRANCH  50  51
ATOM     51  C   LIG d   1       8.290  -1.854  -7.315  0.00  0.00     0.193 C 
ATOM     52  H   LIG d   1       8.706  -1.576  -8.284  0.00  0.00     0.082 H 
ATOM     53  H   LIG d   1       8.727  -2.798  -6.990  0.00  0.00     0.082 H 
BRANCH  51  54
ATOM     54  C   LIG d   1       6.795  -2.007  -7.435  0.00  0.00     0.254 C 
ATOM     55  O   LIG d   1       6.318  -3.088  -7.711  0.00  0.00    -0.272 OA
ATOM     56  N   LIG d   1       5.990  -0.944  -7.238  0.00  0.00    -0.309 N 
ATOM     57  H   LIG d   1       6.375  -0.065  -7.094  0.00  0.00     0.149 HD
BRANCH  56  58
ATOM     58  C   LIG d   1       4.536  -1.117  -7.240  0.00  0.00     0.031 C 
ATOM     59  H   LIG d   1       4.292  -2.147  -7.501  0.00  0.00     0.050 H 
BRANCH  58  60
ATOM     60  C   LIG d   1       3.912  -0.170  -8.268  0.00  0.00     0.005 C 
ATOM     61  H   LIG d   1       3.423  -0.753  -9.049  0.00  0.00     0.034 H 
ATOM     62  H   LIG d   1       3.178   0.467  -7.776  0.00  0.00     0.034 H 
BRANCH  60  63
ATOM     63  C   LIG d   1       4.990   0.686  -8.881  0.00  0.00     0.043 C 
ATOM     64  O   LIG d   1       5.489   0.368  -9.948  0.00  0.00    -0.550 OA
ATOM     65  O   LIG d   1       5.364   1.697  -8.312  0.00  0.00    -0.550 OA
ENDBRANCH  60  63
ENDBRANCH  58  60
BRANCH  58  66
ATOM     66  C   LIG d   1       3.982  -0.797  -5.851  0.00  0.00    -0.018 C 
ATOM     67  H   LIG d   1       3.545  -1.697  -5.416  0.00  0.00     0.032 H 
ATOM     68  C   LIG d   1       5.115  -0.293  -4.952  0.00  0.00    -0.020 C 
ATOM     69  C   LIG d   1       4.539   0.101  -3.589  0.00  0.00     0.064 C 
ATOM     70  H   LIG d   1       5.856  -1.081  -4.821  0.00  0.00     0.030 H 
ATOM     71  H   LIG d   1       5.586   0.577  -5.411  0.00  0.00     0.030 H 
ATOM     72  O   LIG d   1       3.525   1.093  -3.769  0.00  0.00    -0.374 OA
ATOM     73  C   LIG d   1       2.418   0.660  -4.562  0.00  0.00     0.049 C 
ATOM     74  C   LIG d   1       2.910   0.290  -5.964  0.00  0.00    -0.025 C 
ATOM     75  H   LIG d   1       1.685   1.462  -4.633  0.00  0.00     0.056 H 
ATOM     76  H   LIG d   1       1.958  -0.213  -4.097  0.00  0.00     0.056 H 
ATOM     77  H   LIG d   1       3.333   1.171  -6.445  0.00  0.00     0.029 H 
ATOM     78  H   LIG d   1       2.074  -0.083  -6.556  0.00  0.00     0.029 H 
BRANCH  69  79
ATOM     79  C   LIG d   1       5.654   0.665  -2.706  0.00  0.00    -0.036 C 
ATOM     80  H   LIG d   1       5.366   0.578  -1.659  0.00  0.00     0.026 H 
ATOM     81  H   LIG d   1       6.572   0.104  -2.879  0.00  0.00     0.026 H 
ATOM     82  H   LIG d   1       5.816   1.714  -2.953  0.00  0.00     0.026 H 
ENDBRANCH  69  79
BRANCH  69  83
ATOM     83  C   LIG d   1       3.930  -1.133  -2.919  0.00  0.00    -0.036 C 
ATOM     84  H   LIG d   1       4.412  -2.030  -3.305  0.00  0.00     0.026 H 
ATOM     85  H   LIG d   1       4.082  -1.072  -1.841  0.00  0.00     0.026 H 
ATOM     86  H   LIG d   1       2.863  -1.173  -3.133  0.00  0.00     0.026 H 
ENDBRANCH  69  83
ENDBRANCH  58  66
ENDBRANCH  56  58
ENDBRANCH  51  54
ENDBRANCH  50  51
ENDBRANCH  24  50
BRANCH   4  87
ATOM     87  O   LIG d   1      11.454   8.540  -0.714  0.00  0.00    -0.376 OA
ATOM     88  H   LIG d   1      11.355   8.965   0.150  0.00  0.00     0.211 HD
ENDBRANCH   4  87
ENDBRANCH   1   4
TORSDOF 13
ENDMDL
MODEL 6
REMARK VINA RESULT:      -6.7      7.228     11.865
REMARK  13 active torsions:
REMARK  status: ('A' for Active; 'I' for Inactive)
REMARK    1  A    between atoms: C_1  and  C_2 
REMARK    2  A    between atoms: N_6  and  O_7 
REMARK    3  A    between atoms: O_7  and  C_8 
REMARK    4  A    between atoms: C_8  and  C_9 
REMARK       I    between atoms: C_9  and  N_11 
REMARK    5  A    between atoms: N_11  and  C_12 
REMARK    6  A    between atoms: C_12  and  C_14 
REMARK    7  A    between atoms: C_12  and  C_18 
REMARK    8  A    between atoms: C_14  and  C_15 
REMARK    9  A    between atoms: C_23  and  C_25 
REMARK   10  A    between atoms: C_23  and  C_26 
REMARK   11  A    between atoms: C_37  and  C_46 
REMARK   12  A    between atoms: C_42  and  C_43 
REMARK   13  A    between atoms: C_42  and  O_45 
ROOT
ATOM      1  C   LIG d   1      11.043   6.247   1.388  0.00  0.00    -0.070 C 
ATOM      2  C   LIG d   1      10.680   5.442   2.162  0.00  0.00    -0.116 C 
ATOM      3  H   LIG d   1      10.356   4.721   2.854  0.00  0.00     0.123 H 
ENDROOT
BRANCH   1   4
ATOM      4  C   LIG d   1      11.498   7.257   0.419  0.00  0.00     0.132 C 
ATOM      5  C   LIG d   1      12.160   6.566  -0.802  0.00  0.00     0.011 C 
ATOM      6  C   LIG d   1      11.500   5.190  -0.938  0.00  0.00    -0.043 C 
ATOM      7  C   LIG d   1      11.758   7.475  -1.975  0.00  0.00    -0.029 C 
ATOM      8  C   LIG d   1      11.819   4.573  -2.296  0.00  0.00    -0.049 C 
ATOM      9  H   LIG d   1      10.420   5.299  -0.837  0.00  0.00     0.027 H 
ATOM     10  H   LIG d   1      11.870   4.535  -0.149  0.00  0.00     0.027 H 
ATOM     11  C   LIG d   1      11.232   5.466  -3.395  0.00  0.00    -0.029 C 
ATOM     12  H   LIG d   1      11.377   3.579  -2.357  0.00  0.00     0.027 H 
ATOM     13  H   LIG d   1      12.899   4.502  -2.421  0.00  0.00     0.027 H 
ATOM     14  C   LIG d   1      11.514   4.824  -4.756  0.00  0.00    -0.007 C 
ATOM     15  C   LIG d   1      11.921   6.829  -3.331  0.00  0.00    -0.034 C 
ATOM     16  H   LIG d   1      10.158   5.585  -3.256  0.00  0.00     0.031 H 
ATOM     17  C   LIG d   1      11.105   5.764  -5.846  0.00  0.00    -0.062 C 
ATOM     18  C   LIG d   1      10.928   3.436  -4.839  0.00  0.00    -0.038 C 
ATOM     19  C   LIG d   1      10.264   5.446  -6.820  0.00  0.00    -0.037 C 
ATOM     20  C   LIG d   1      11.679   7.170  -5.805  0.00  0.00    -0.031 C 
ATOM     21  C   LIG d   1       9.625   4.115  -6.808  0.00  0.00     0.080 C 
ATOM     22  H   LIG d   1      10.041   6.154  -7.604  0.00  0.00     0.064 H 
ATOM     23  C   LIG d   1       9.530   3.432  -5.457  0.00  0.00    -0.006 C 
ATOM     24  N   LIG d   1       9.171   3.563  -7.889  0.00  0.00    -0.089 NA
ATOM     25  H   LIG d   1       9.184   2.407  -5.584  0.00  0.00     0.033 H 
ATOM     26  H   LIG d   1       8.840   3.980  -4.814  0.00  0.00     0.033 H 
ATOM     27  C   LIG d   1      11.374   7.754  -4.421  0.00  0.00    -0.046 C 
ATOM     28  H   LIG d   1      12.757   7.135  -5.963  0.00  0.00     0.031 H 
ATOM     29  H   LIG d   1      11.211   7.783  -6.576  0.00  0.00     0.031 H 
ATOM     30  H   LIG d   1      11.842   8.734  -4.331  0.00  0.00     0.027 H 
ATOM     31  H   LIG d   1      10.296   7.857  -4.301  0.00  0.00     0.027 H 
ATOM     32  H   LIG d   1      11.584   2.812  -5.447  0.00  0.00     0.028 H 
ATOM     33  H   LIG d   1      10.873   3.015  -3.836  0.00  0.00     0.028 H 
ATOM     34  H   LIG d   1      12.984   6.676  -3.512  0.00  0.00     0.031 H 
ATOM     35  H   LIG d   1      12.353   8.387  -1.940  0.00  0.00     0.031 H 
ATOM     36  C   LIG d   1      10.294   7.835  -1.664  0.00  0.00    -0.046 C 
ATOM     37  C   LIG d   1      10.291   8.042  -0.132  0.00  0.00    -0.012 C 
ATOM     38  H   LIG d   1      10.008   8.754  -2.176  0.00  0.00     0.027 H 
ATOM     39  H   LIG d   1       9.629   7.018  -1.942  0.00  0.00     0.027 H 
ATOM     40  H   LIG d   1      10.397   9.101   0.102  0.00  0.00     0.030 H 
ATOM     41  H   LIG d   1       9.367   7.654   0.296  0.00  0.00     0.030 H 
BRANCH   5  42
ATOM     42  C   LIG d   1      13.679   6.455  -0.645  0.00  0.00    -0.056 C 
ATOM     43  H   LIG d   1      14.046   7.296  -0.057  0.00  0.00     0.024 H 
ATOM     44  H   LIG d   1      13.924   5.522  -0.138  0.00  0.00     0.024 H 
ATOM     45  H   LIG d   1      14.148   6.468  -1.629  0.00  0.00     0.024 H 
ENDBRANCH   5  42
BRANCH  14  46
ATOM     46  C   LIG d   1      13.033   4.668  -4.856  0.00  0.00    -0.056 C 
ATOM     47  H   LIG d   1      13.410   5.294  -5.666  0.00  0.00     0.024 H 
ATOM     48  H   LIG d   1      13.494   4.974  -3.917  0.00  0.00     0.024 H 
ATOM     49  H   LIG d   1      13.278   3.626  -5.059  0.00  0.00     0.024 H 
ENDBRANCH  14  46
BRANCH  24  50
ATOM     50  O   LIG d   1       8.564   2.285  -7.830  0.00  0.00    -0.384 OA
BRANCH  50  51
ATOM     51  C   LIG d   1       7.424   2.143  -8.679  0.00  0.00     0.193 C 
ATOM     52  H   LIG d   1       6.769   3.006  -8.554  0.00  0.00     0.082 H 
ATOM     53  H   LIG d   1       7.748   2.082  -9.718  0.00  0.00     0.082 H 
BRANCH  51  54
ATOM     54  C   LIG d   1       6.676   0.888  -8.311  0.00  0.00     0.254 C 
ATOM     55  O   LIG d   1       7.144  -0.197  -8.583  0.00  0.00    -0.272 OA
ATOM     56  N   LIG d   1       5.487   0.972  -7.680  0.00  0.00    -0.309 N 
ATOM     57  H   LIG d   1       5.077   1.837  -7.532  0.00  0.00     0.149 HD
BRANCH  56  58
ATOM     58  C   LIG d   1       4.816  -0.246  -7.220  0.00  0.00     0.031 C 
ATOM     59  H   LIG d   1       5.177  -1.100  -7.792  0.00  0.00     0.050 H 
BRANCH  58  60
ATOM     60  C   LIG d   1       3.305  -0.102  -7.419  0.00  0.00     0.005 C 
ATOM     61  H   LIG d   1       2.916  -0.997  -7.904  0.00  0.00     0.034 H 
ATOM     62  H   LIG d   1       2.822   0.027  -6.451  0.00  0.00     0.034 H 
BRANCH  60  63
ATOM     63  C   LIG d   1       3.025   1.100  -8.284  0.00  0.00     0.043 C 
ATOM     64  O   LIG d   1       2.794   2.181  -7.770  0.00  0.00    -0.550 OA
ATOM     65  O   LIG d   1       3.029   0.991  -9.498  0.00  0.00    -0.550 OA
ENDBRANCH  60  63
ENDBRANCH  58  60
BRANCH  58  66
ATOM     66  C   LIG d   1       5.116  -0.463  -5.736  0.00  0.00    -0.018 C 
ATOM     67  H   LIG d   1       5.758   0.340  -5.372  0.00  0.00     0.032 H 
ATOM     68  C   LIG d   1       3.804  -0.467  -4.945  0.00  0.00    -0.020 C 
ATOM     69  C   LIG d   1       4.105  -0.766  -3.473  0.00  0.00     0.064 C 
ATOM     70  H   LIG d   1       3.323   0.507  -5.029  0.00  0.00     0.030 H 
ATOM     71  H   LIG d   1       3.141  -1.237  -5.342  0.00  0.00     0.030 H 
ATOM     72  O   LIG d   1       4.789  -2.017  -3.370  0.00  0.00    -0.374 OA
ATOM     73  C   LIG d   1       6.045  -2.054  -4.051  0.00  0.00     0.049 C 
ATOM     74  C   LIG d   1       5.821  -1.809  -5.545  0.00  0.00    -0.025 C 
ATOM     75  H   LIG d   1       6.508  -3.029  -3.907  0.00  0.00     0.056 H 
ATOM     76  H   LIG d   1       6.698  -1.278  -3.650  0.00  0.00     0.056 H 
ATOM     77  H   LIG d   1       5.201  -2.606  -5.956  0.00  0.00     0.029 H 
ATOM     78  H   LIG d   1       6.781  -1.793  -6.060  0.00  0.00     0.029 H 
BRANCH  69  79
ATOM     79  C   LIG d   1       2.794  -0.834  -2.687  0.00  0.00    -0.036 C 
ATOM     80  H   LIG d   1       2.979  -1.288  -1.713  0.00  0.00     0.026 H 
ATOM     81  H   LIG d   1       2.400   0.173  -2.550  0.00  0.00     0.026 H 
ATOM     82  H   LIG d   1       2.072  -1.436  -3.238  0.00  0.00     0.026 H 
ENDBRANCH  69  79
BRANCH  69  83
ATOM     83  C   LIG d   1       4.987   0.346  -2.900  0.00  0.00    -0.036 C 
ATOM     84  H   LIG d   1       5.591  -0.052  -2.085  0.00  0.00     0.026 H 
ATOM     85  H   LIG d   1       5.642   0.730  -3.683  0.00  0.00     0.026 H 
ATOM     86  H   LIG d   1       4.358   1.152  -2.526  0.00  0.00     0.026 H 
ENDBRANCH  69  83
ENDBRANCH  58  66
ENDBRANCH  56  58
ENDBRANCH  51  54
ENDBRANCH  50  51
ENDBRANCH  24  50
BRANCH   4  87
ATOM     87  O   LIG d   1      12.423   8.151   1.039  0.00  0.00    -0.376 OA
ATOM     88  H   LIG d   1      12.168   9.083   0.982  0.00  0.00     0.211 HD
ENDBRANCH   4  87
ENDBRANCH   1   4
TORSDOF 13
ENDMDL
MODEL 7
REMARK VINA RESULT:      -6.6      2.505      4.284
REMARK  13 active torsions:
REMARK  status: ('A' for Active; 'I' for Inactive)
REMARK    1  A    between atoms: C_1  and  C_2 
REMARK    2  A    between atoms: N_6  and  O_7 
REMARK    3  A    between atoms: O_7  and  C_8 
REMARK    4  A    between atoms: C_8  and  C_9 
REMARK       I    between atoms: C_9  and  N_11 
REMARK    5  A    between atoms: N_11  and  C_12 
REMARK    6  A    between atoms: C_12  and  C_14 
REMARK    7  A    between atoms: C_12  and  C_18 
REMARK    8  A    between atoms: C_14  and  C_15 
REMARK    9  A    between atoms: C_23  and  C_25 
REMARK   10  A    between atoms: C_23  and  C_26 
REMARK   11  A    between atoms: C_37  and  C_46 
REMARK   12  A    between atoms: C_42  and  C_43 
REMARK   13  A    between atoms: C_42  and  O_45 
ROOT
ATOM      1  C   LIG d   1       3.820   0.500  -2.672  0.00  0.00    -0.070 C 
ATOM      2  C   LIG d   1       4.119   1.419  -2.006  0.00  0.00    -0.116 C 
ATOM      3  H   LIG d   1       4.387   2.242  -1.411  0.00  0.00     0.123 H 
ENDROOT
BRANCH   1   4
ATOM      4  C   LIG d   1       3.444  -0.654  -3.506  0.00  0.00     0.132 C 
ATOM      5  C   LIG d   1       4.551  -0.937  -4.556  0.00  0.00     0.011 C 
ATOM      6  C   LIG d   1       5.870  -0.461  -3.940  0.00  0.00    -0.043 C 
ATOM      7  C   LIG d   1       4.533  -2.471  -4.673  0.00  0.00    -0.029 C 
ATOM      8  C   LIG d   1       7.058  -1.005  -4.728  0.00  0.00    -0.049 C 
ATOM      9  H   LIG d   1       5.932  -0.811  -2.910  0.00  0.00     0.027 H 
ATOM     10  H   LIG d   1       5.899   0.628  -3.951  0.00  0.00     0.027 H 
ATOM     11  C   LIG d   1       7.047  -2.536  -4.646  0.00  0.00    -0.029 C 
ATOM     12  H   LIG d   1       7.984  -0.622  -4.302  0.00  0.00     0.027 H 
ATOM     13  H   LIG d   1       6.978  -0.695  -5.770  0.00  0.00     0.027 H 
ATOM     14  C   LIG d   1       8.263  -3.079  -5.399  0.00  0.00    -0.007 C 
ATOM     15  C   LIG d   1       5.772  -3.048  -5.314  0.00  0.00    -0.034 C 
ATOM     16  H   LIG d   1       7.079  -2.861  -3.606  0.00  0.00     0.031 H 
ATOM     17  C   LIG d   1       8.176  -4.571  -5.479  0.00  0.00    -0.062 C 
ATOM     18  C   LIG d   1       9.550  -2.532  -4.832  0.00  0.00    -0.038 C 
ATOM     19  C   LIG d   1       9.130  -5.391  -5.064  0.00  0.00    -0.037 C 
ATOM     20  C   LIG d   1       6.900  -5.164  -6.053  0.00  0.00    -0.031 C 
ATOM     21  C   LIG d   1      10.328  -4.825  -4.413  0.00  0.00     0.080 C 
ATOM     22  H   LIG d   1       9.027  -6.459  -5.188  0.00  0.00     0.064 H 
ATOM     23  C   LIG d   1      10.159  -3.457  -3.779  0.00  0.00    -0.006 C 
ATOM     24  N   LIG d   1      11.457  -5.459  -4.384  0.00  0.00    -0.089 NA
ATOM     25  H   LIG d   1      11.129  -3.072  -3.464  0.00  0.00     0.033 H 
ATOM     26  H   LIG d   1       9.491  -3.528  -2.919  0.00  0.00     0.033 H 
ATOM     27  C   LIG d   1       5.723  -4.577  -5.267  0.00  0.00    -0.046 C 
ATOM     28  H   LIG d   1       6.810  -4.900  -7.108  0.00  0.00     0.031 H 
ATOM     29  H   LIG d   1       6.915  -6.249  -5.943  0.00  0.00     0.031 H 
ATOM     30  H   LIG d   1       4.786  -4.922  -5.706  0.00  0.00     0.027 H 
ATOM     31  H   LIG d   1       5.778  -4.909  -4.231  0.00  0.00     0.027 H 
ATOM     32  H   LIG d   1      10.266  -2.402  -5.644  0.00  0.00     0.028 H 
ATOM     33  H   LIG d   1       9.352  -1.561  -4.379  0.00  0.00     0.028 H 
ATOM     34  H   LIG d   1       5.793  -2.738  -6.359  0.00  0.00     0.031 H 
ATOM     35  H   LIG d   1       3.658  -2.775  -5.247  0.00  0.00     0.031 H 
ATOM     36  C   LIG d   1       4.347  -2.939  -3.218  0.00  0.00    -0.046 C 
ATOM     37  C   LIG d   1       3.338  -1.922  -2.637  0.00  0.00    -0.012 C 
ATOM     38  H   LIG d   1       3.936  -3.948  -3.189  0.00  0.00     0.027 H 
ATOM     39  H   LIG d   1       5.292  -2.894  -2.676  0.00  0.00     0.027 H 
ATOM     40  H   LIG d   1       2.327  -2.327  -2.690  0.00  0.00     0.030 H 
ATOM     41  H   LIG d   1       3.594  -1.689  -1.604  0.00  0.00     0.030 H 
BRANCH   5  42
ATOM     42  C   LIG d   1       4.265  -0.248  -5.892  0.00  0.00    -0.056 C 
ATOM     43  H   LIG d   1       5.111   0.384  -6.164  0.00  0.00     0.024 H 
ATOM     44  H   LIG d   1       4.111  -1.002  -6.664  0.00  0.00     0.024 H 
ATOM     45  H   LIG d   1       3.369   0.366  -5.800  0.00  0.00     0.024 H 
ENDBRANCH   5  42
BRANCH  14  46
ATOM     46  C   LIG d   1       8.156  -2.554  -6.834  0.00  0.00    -0.056 C 
ATOM     47  H   LIG d   1       7.206  -2.034  -6.960  0.00  0.00     0.024 H 
ATOM     48  H   LIG d   1       8.976  -1.865  -7.031  0.00  0.00     0.024 H 
ATOM     49  H   LIG d   1       8.207  -3.391  -7.530  0.00  0.00     0.024 H 
ENDBRANCH  14  46
BRANCH  24  50
ATOM     50  O   LIG d   1      12.580  -4.877  -3.748  0.00  0.00    -0.384 OA
BRANCH  50  51
ATOM     51  C   LIG d   1      13.711  -5.745  -3.656  0.00  0.00     0.193 C 
ATOM     52  H   LIG d   1      14.085  -5.961  -4.657  0.00  0.00     0.082 H 
ATOM     53  H   LIG d   1      14.495  -5.262  -3.073  0.00  0.00     0.082 H 
BRANCH  51  54
ATOM     54  C   LIG d   1      13.305  -7.032  -2.984  0.00  0.00     0.254 C 
ATOM     55  O   LIG d   1      13.653  -8.095  -3.452  0.00  0.00    -0.272 OA
ATOM     56  N   LIG d   1      12.554  -7.000  -1.865  0.00  0.00    -0.309 N 
ATOM     57  H   LIG d   1      12.212  -6.155  -1.535  0.00  0.00     0.149 HD
BRANCH  56  58
ATOM     58  C   LIG d   1      12.257  -8.242  -1.148  0.00  0.00     0.031 C 
ATOM     59  H   LIG d   1      12.460  -9.094  -1.796  0.00  0.00     0.050 H 
BRANCH  58  60
ATOM     60  C   LIG d   1      10.782  -8.253  -0.739  0.00  0.00     0.005 C 
ATOM     61  H   LIG d   1      10.391  -9.268  -0.817  0.00  0.00     0.034 H 
ATOM     62  H   LIG d   1      10.688  -7.906   0.290  0.00  0.00     0.034 H 
BRANCH  60  63
ATOM     63  C   LIG d   1      10.001  -7.342  -1.650  0.00  0.00     0.043 C 
ATOM     64  O   LIG d   1       9.835  -6.172  -1.347  0.00  0.00    -0.550 OA
ATOM     65  O   LIG d   1       9.533  -7.774  -2.690  0.00  0.00    -0.550 OA
ENDBRANCH  60  63
ENDBRANCH  58  60
BRANCH  58  66
ATOM     66  C   LIG d   1      13.133  -8.332   0.102  0.00  0.00    -0.018 C 
ATOM     67  H   LIG d   1      13.528  -7.344   0.343  0.00  0.00     0.032 H 
ATOM     68  C   LIG d   1      12.297  -8.848   1.277  0.00  0.00    -0.020 C 
ATOM     69  C   LIG d   1      13.200  -9.012   2.504  0.00  0.00     0.064 C 
ATOM     70  H   LIG d   1      11.503  -8.137   1.501  0.00  0.00     0.030 H 
ATOM     71  H   LIG d   1      11.861  -9.813   1.017  0.00  0.00     0.030 H 
ATOM     72  O   LIG d   1      14.275  -9.900   2.189  0.00  0.00    -0.374 OA
ATOM     73  C   LIG d   1      15.118  -9.443   1.129  0.00  0.00     0.049 C 
ATOM     74  C   LIG d   1      14.293  -9.299  -0.152  0.00  0.00    -0.025 C 
ATOM     75  H   LIG d   1      15.920 -10.162   0.967  0.00  0.00     0.056 H 
ATOM     76  H   LIG d   1      15.546  -8.476   1.397  0.00  0.00     0.056 H 
ATOM     77  H   LIG d   1      13.899 -10.272  -0.442  0.00  0.00     0.029 H 
ATOM     78  H   LIG d   1      14.925  -8.909  -0.950  0.00  0.00     0.029 H 
BRANCH  69  79
ATOM     79  C   LIG d   1      12.385  -9.587   3.664  0.00  0.00    -0.036 C 
ATOM     80  H   LIG d   1      13.062  -9.988   4.418  0.00  0.00     0.026 H 
ATOM     81  H   LIG d   1      11.774  -8.800   4.105  0.00  0.00     0.026 H 
ATOM     82  H   LIG d   1      11.740 -10.384   3.294  0.00  0.00     0.026 H 
ENDBRANCH  69  79
BRANCH  69  83
ATOM     83  C   LIG d   1      13.766  -7.647   2.903  0.00  0.00    -0.036 C 
ATOM     84  H   LIG d   1      14.777  -7.545   2.512  0.00  0.00     0.026 H 
ATOM     85  H   LIG d   1      13.135  -6.858   2.492  0.00  0.00     0.026 H 
ATOM     86  H   LIG d   1      13.785  -7.567   3.989  0.00  0.00     0.026 H 
ENDBRANCH  69  83
ENDBRANCH  58  66
ENDBRANCH  56  58
ENDBRANCH  51  54
ENDBRANCH  50  51
ENDBRANCH  24  50
BRANCH   4  87
ATOM     87  O   LIG d   1       2.200  -0.402  -4.161  0.00  0.00    -0.376 OA
ATOM     88  H   LIG d   1       1.898   0.515  -4.093  0.00  0.00     0.211 HD
ENDBRANCH   4  87
ENDBRANCH   1   4
TORSDOF 13
ENDMDL
MODEL 8
REMARK VINA RESULT:      -6.5      1.684      2.434
REMARK  13 active torsions:
REMARK  status: ('A' for Active; 'I' for Inactive)
REMARK    1  A    between atoms: C_1  and  C_2 
REMARK    2  A    between atoms: N_6  and  O_7 
REMARK    3  A    between atoms: O_7  and  C_8 
REMARK    4  A    between atoms: C_8  and  C_9 
REMARK       I    between atoms: C_9  and  N_11 
REMARK    5  A    between atoms: N_11  and  C_12 
REMARK    6  A    between atoms: C_12  and  C_14 
REMARK    7  A    between atoms: C_12  and  C_18 
REMARK    8  A    between atoms: C_14  and  C_15 
REMARK    9  A    between atoms: C_23  and  C_25 
REMARK   10  A    between atoms: C_23  and  C_26 
REMARK   11  A    between atoms: C_37  and  C_46 
REMARK   12  A    between atoms: C_42  and  C_43 
REMARK   13  A    between atoms: C_42  and  O_45 
ROOT
ATOM      1  C   LIG d   1       4.771  -0.453  -2.814  0.00  0.00    -0.070 C 
ATOM      2  C   LIG d   1       4.782  -0.022  -1.722  0.00  0.00    -0.116 C 
ATOM      3  H   LIG d   1       4.790   0.364  -0.746  0.00  0.00     0.123 H 
ENDROOT
BRANCH   1   4
ATOM      4  C   LIG d   1       4.760  -0.995  -4.183  0.00  0.00     0.132 C 
ATOM      5  C   LIG d   1       6.192  -1.426  -4.598  0.00  0.00     0.011 C 
ATOM      6  C   LIG d   1       6.922  -1.819  -3.311  0.00  0.00    -0.043 C 
ATOM      7  C   LIG d   1       5.940  -2.664  -5.475  0.00  0.00    -0.029 C 
ATOM      8  C   LIG d   1       8.202  -2.583  -3.631  0.00  0.00    -0.049 C 
ATOM      9  H   LIG d   1       6.269  -2.449  -2.706  0.00  0.00     0.027 H 
ATOM     10  H   LIG d   1       7.171  -0.919  -2.749  0.00  0.00     0.027 H 
ATOM     11  C   LIG d   1       7.835  -3.882  -4.356  0.00  0.00    -0.029 C 
ATOM     12  H   LIG d   1       8.729  -2.817  -2.705  0.00  0.00     0.027 H 
ATOM     13  H   LIG d   1       8.841  -1.975  -4.272  0.00  0.00     0.027 H 
ATOM     14  C   LIG d   1       9.117  -4.670  -4.638  0.00  0.00    -0.007 C 
ATOM     15  C   LIG d   1       7.164  -3.524  -5.682  0.00  0.00    -0.034 C 
ATOM     16  H   LIG d   1       7.158  -4.481  -3.746  0.00  0.00     0.031 H 
ATOM     17  C   LIG d   1       8.798  -5.852  -5.498  0.00  0.00    -0.062 C 
ATOM     18  C   LIG d   1       9.866  -4.975  -3.364  0.00  0.00    -0.038 C 
ATOM     19  C   LIG d   1       9.109  -7.101  -5.182  0.00  0.00    -0.037 C 
ATOM     20  C   LIG d   1       8.052  -5.590  -6.795  0.00  0.00    -0.031 C 
ATOM     21  C   LIG d   1       9.742  -7.374  -3.877  0.00  0.00     0.080 C 
ATOM     22  H   LIG d   1       8.890  -7.910  -5.864  0.00  0.00     0.064 H 
ATOM     23  C   LIG d   1       9.502  -6.343  -2.790  0.00  0.00    -0.006 C 
ATOM     24  N   LIG d   1      10.462  -8.432  -3.671  0.00  0.00    -0.089 NA
ATOM     25  H   LIG d   1      10.130  -6.562  -1.927  0.00  0.00     0.033 H 
ATOM     26  H   LIG d   1       8.451  -6.353  -2.497  0.00  0.00     0.033 H 
ATOM     27  C   LIG d   1       6.789  -4.794  -6.450  0.00  0.00    -0.046 C 
ATOM     28  H   LIG d   1       8.681  -5.012  -7.473  0.00  0.00     0.031 H 
ATOM     29  H   LIG d   1       7.777  -6.536  -7.262  0.00  0.00     0.031 H 
ATOM     30  H   LIG d   1       6.271  -4.520  -7.369  0.00  0.00     0.027 H 
ATOM     31  H   LIG d   1       6.131  -5.407  -5.834  0.00  0.00     0.027 H 
ATOM     32  H   LIG d   1      10.936  -4.951  -3.570  0.00  0.00     0.028 H 
ATOM     33  H   LIG d   1       9.633  -4.207  -2.626  0.00  0.00     0.028 H 
ATOM     34  H   LIG d   1       7.881  -2.961  -6.279  0.00  0.00     0.031 H 
ATOM     35  H   LIG d   1       5.559  -2.344  -6.444  0.00  0.00     0.031 H 
ATOM     36  C   LIG d   1       4.815  -3.407  -4.731  0.00  0.00    -0.046 C 
ATOM     37  C   LIG d   1       3.893  -2.267  -4.241  0.00  0.00    -0.012 C 
ATOM     38  H   LIG d   1       4.278  -4.070  -5.411  0.00  0.00     0.027 H 
ATOM     39  H   LIG d   1       5.216  -3.966  -3.886  0.00  0.00     0.027 H 
ATOM     40  H   LIG d   1       3.070  -2.125  -4.942  0.00  0.00     0.030 H 
ATOM     41  H   LIG d   1       3.505  -2.499  -3.250  0.00  0.00     0.030 H 
BRANCH   5  42
ATOM     42  C   LIG d   1       6.929  -0.317  -5.354  0.00  0.00    -0.056 C 
ATOM     43  H   LIG d   1       6.516   0.651  -5.072  0.00  0.00     0.024 H 
ATOM     44  H   LIG d   1       7.988  -0.350  -5.102  0.00  0.00     0.024 H 
ATOM     45  H   LIG d   1       6.806  -0.466  -6.428  0.00  0.00     0.024 H 
ENDBRANCH   5  42
BRANCH  14  46
ATOM     46  C   LIG d   1      10.017  -3.752  -5.470  0.00  0.00    -0.056 C 
ATOM     47  H   LIG d   1       9.509  -3.490  -6.399  0.00  0.00     0.024 H 
ATOM     48  H   LIG d   1      10.232  -2.845  -4.906  0.00  0.00     0.024 H 
ATOM     49  H   LIG d   1      10.949  -4.268  -5.698  0.00  0.00     0.024 H 
ENDBRANCH  14  46
BRANCH  24  50
ATOM     50  O   LIG d   1      11.050  -8.653  -2.402  0.00  0.00    -0.384 OA
BRANCH  50  51
ATOM     51  C   LIG d   1      10.826  -9.963  -1.878  0.00  0.00     0.193 C 
ATOM     52  H   LIG d   1      10.980 -10.700  -2.666  0.00  0.00     0.082 H 
ATOM     53  H   LIG d   1      11.524 -10.152  -1.062  0.00  0.00     0.082 H 
BRANCH  51  54
ATOM     54  C   LIG d   1       9.413 -10.064  -1.365  0.00  0.00     0.254 C 
ATOM     55  O   LIG d   1       9.157  -9.733  -0.226  0.00  0.00    -0.272 OA
ATOM     56  N   LIG d   1       8.434 -10.524  -2.170  0.00  0.00    -0.309 N 
ATOM     57  H   LIG d   1       8.652 -10.861  -3.053  0.00  0.00     0.149 HD
BRANCH  56  58
ATOM     58  C   LIG d   1       7.044 -10.514  -1.710  0.00  0.00     0.031 C 
ATOM     59  H   LIG d   1       6.958  -9.889  -0.822  0.00  0.00     0.050 H 
BRANCH  58  60
ATOM     60  C   LIG d   1       6.609 -11.942  -1.372  0.00  0.00     0.005 C 
ATOM     61  H   LIG d   1       6.495 -12.040  -0.292  0.00  0.00     0.034 H 
ATOM     62  H   LIG d   1       5.658 -12.158  -1.859  0.00  0.00     0.034 H 
BRANCH  60  63
ATOM     63  C   LIG d   1       7.654 -12.914  -1.856  0.00  0.00     0.043 C 
ATOM     64  O   LIG d   1       8.476 -13.365  -1.076  0.00  0.00    -0.550 OA
ATOM     65  O   LIG d   1       7.679 -13.249  -3.028  0.00  0.00    -0.550 OA
ENDBRANCH  60  63
ENDBRANCH  58  60
BRANCH  58  66
ATOM     66  C   LIG d   1       6.146  -9.957  -2.816  0.00  0.00    -0.018 C 
ATOM     67  H   LIG d   1       5.884  -8.923  -2.587  0.00  0.00     0.032 H 
ATOM     68  C   LIG d   1       6.888 -10.012  -4.154  0.00  0.00    -0.020 C 
ATOM     69  C   LIG d   1       5.954  -9.528  -5.268  0.00  0.00     0.064 C 
ATOM     70  H   LIG d   1       7.768  -9.370  -4.111  0.00  0.00     0.030 H 
ATOM     71  H   LIG d   1       7.195 -11.037  -4.359  0.00  0.00     0.030 H 
ATOM     72  O   LIG d   1       4.775 -10.334  -5.285  0.00  0.00    -0.374 OA
ATOM     73  C   LIG d   1       4.015 -10.284  -4.075  0.00  0.00     0.049 C 
ATOM     74  C   LIG d   1       4.871 -10.799  -2.915  0.00  0.00    -0.025 C 
ATOM     75  H   LIG d   1       3.127 -10.905  -4.177  0.00  0.00     0.056 H 
ATOM     76  H   LIG d   1       3.717  -9.253  -3.876  0.00  0.00     0.056 H 
ATOM     77  H   LIG d   1       5.135 -11.841  -3.093  0.00  0.00     0.029 H 
ATOM     78  H   LIG d   1       4.309 -10.720  -1.985  0.00  0.00     0.029 H 
BRANCH  69  79
ATOM     79  C   LIG d   1       6.668  -9.638  -6.617  0.00  0.00    -0.036 C 
ATOM     80  H   LIG d   1       7.426 -10.420  -6.563  0.00  0.00     0.026 H 
ATOM     81  H   LIG d   1       5.944  -9.887  -7.392  0.00  0.00     0.026 H 
ATOM     82  H   LIG d   1       7.143  -8.687  -6.855  0.00  0.00     0.026 H 
ENDBRANCH  69  79
BRANCH  69  83
ATOM     83  C   LIG d   1       5.571  -8.069  -5.011  0.00  0.00    -0.036 C 
ATOM     84  H   LIG d   1       6.453  -7.511  -4.699  0.00  0.00     0.026 H 
ATOM     85  H   LIG d   1       5.167  -7.633  -5.925  0.00  0.00     0.026 H 
ATOM     86  H   LIG d   1       4.817  -8.026  -4.225  0.00  0.00     0.026 H 
ENDBRANCH  69  83
ENDBRANCH  58  66
ENDBRANCH  56  58
ENDBRANCH  51  54
ENDBRANCH  50  51
ENDBRANCH  24  50
BRANCH   4  87
ATOM     87  O   LIG d   1       4.259  -0.016  -5.094  0.00  0.00    -0.376 OA
ATOM     88  H   LIG d   1       4.901   0.670  -5.327  0.00  0.00     0.211 HD
ENDBRANCH   4  87
ENDBRANCH   1   4
TORSDOF 13
ENDMDL
MODEL 9
REMARK VINA RESULT:      -6.5      7.655     12.370
REMARK  13 active torsions:
REMARK  status: ('A' for Active; 'I' for Inactive)
REMARK    1  A    between atoms: C_1  and  C_2 
REMARK    2  A    between atoms: N_6  and  O_7 
REMARK    3  A    between atoms: O_7  and  C_8 
REMARK    4  A    between atoms: C_8  and  C_9 
REMARK       I    between atoms: C_9  and  N_11 
REMARK    5  A    between atoms: N_11  and  C_12 
REMARK    6  A    between atoms: C_12  and  C_14 
REMARK    7  A    between atoms: C_12  and  C_18 
REMARK    8  A    between atoms: C_14  and  C_15 
REMARK    9  A    between atoms: C_23  and  C_25 
REMARK   10  A    between atoms: C_23  and  C_26 
REMARK   11  A    between atoms: C_37  and  C_46 
REMARK   12  A    between atoms: C_42  and  C_43 
REMARK   13  A    between atoms: C_42  and  O_45 
ROOT
ATOM      1  C   LIG d   1       3.408  -0.500 -11.044  0.00  0.00    -0.070 C 
ATOM      2  C   LIG d   1       3.958  -0.282 -12.058  0.00  0.00    -0.116 C 
ATOM      3  H   LIG d   1       4.449  -0.085 -12.965  0.00  0.00     0.123 H 
ENDROOT
BRANCH   1   4
ATOM      4  C   LIG d   1       2.719  -0.776  -9.772  0.00  0.00     0.132 C 
ATOM      5  C   LIG d   1       3.721  -1.353  -8.737  0.00  0.00     0.011 C 
ATOM      6  C   LIG d   1       5.097  -0.783  -9.094  0.00  0.00    -0.043 C 
ATOM      7  C   LIG d   1       3.222  -0.765  -7.407  0.00  0.00    -0.029 C 
ATOM      8  C   LIG d   1       6.081  -0.999  -7.949  0.00  0.00    -0.049 C 
ATOM      9  H   LIG d   1       5.003   0.285  -9.289  0.00  0.00     0.027 H 
ATOM     10  H   LIG d   1       5.471  -1.280  -9.988  0.00  0.00     0.027 H 
ATOM     11  C   LIG d   1       5.583  -0.237  -6.716  0.00  0.00    -0.029 C 
ATOM     12  H   LIG d   1       7.064  -0.626  -8.237  0.00  0.00     0.027 H 
ATOM     13  H   LIG d   1       6.146  -2.063  -7.719  0.00  0.00     0.027 H 
ATOM     14  C   LIG d   1       6.593  -0.418  -5.581  0.00  0.00    -0.007 C 
ATOM     15  C   LIG d   1       4.238  -0.829  -6.291  0.00  0.00    -0.034 C 
ATOM     16  H   LIG d   1       5.467   0.822  -6.945  0.00  0.00     0.031 H 
ATOM     17  C   LIG d   1       6.040   0.170  -4.321  0.00  0.00    -0.062 C 
ATOM     18  C   LIG d   1       7.963   0.072  -5.982  0.00  0.00    -0.038 C 
ATOM     19  C   LIG d   1       6.666   1.084  -3.594  0.00  0.00    -0.037 C 
ATOM     20  C   LIG d   1       4.666  -0.302  -3.876  0.00  0.00    -0.031 C 
ATOM     21  C   LIG d   1       7.955   1.621  -4.075  0.00  0.00     0.080 C 
ATOM     22  H   LIG d   1       6.236   1.440  -2.670  0.00  0.00     0.064 H 
ATOM     23  C   LIG d   1       8.203   1.523  -5.569  0.00  0.00    -0.006 C 
ATOM     24  N   LIG d   1       8.823   2.146  -3.269  0.00  0.00    -0.089 NA
ATOM     25  H   LIG d   1       9.231   1.806  -5.792  0.00  0.00     0.033 H 
ATOM     26  H   LIG d   1       7.513   2.179  -6.102  0.00  0.00     0.033 H 
ATOM     27  C   LIG d   1       3.705  -0.105  -5.053  0.00  0.00    -0.046 C 
ATOM     28  H   LIG d   1       4.707  -1.358  -3.604  0.00  0.00     0.031 H 
ATOM     29  H   LIG d   1       4.331   0.288  -3.022  0.00  0.00     0.031 H 
ATOM     30  H   LIG d   1       2.726  -0.508  -4.793  0.00  0.00     0.027 H 
ATOM     31  H   LIG d   1       3.610   0.959  -5.269  0.00  0.00     0.027 H 
ATOM     32  H   LIG d   1       8.715  -0.560  -5.509  0.00  0.00     0.028 H 
ATOM     33  H   LIG d   1       8.064  -0.010  -7.064  0.00  0.00     0.028 H 
ATOM     34  H   LIG d   1       4.400  -1.876  -6.035  0.00  0.00     0.031 H 
ATOM     35  H   LIG d   1       2.320  -1.292  -7.099  0.00  0.00     0.031 H 
ATOM     36  C   LIG d   1       2.839   0.680  -7.775  0.00  0.00    -0.046 C 
ATOM     37  C   LIG d   1       2.182   0.535  -9.167  0.00  0.00    -0.012 C 
ATOM     38  H   LIG d   1       2.127   1.084  -7.055  0.00  0.00     0.027 H 
ATOM     39  H   LIG d   1       3.726   1.310  -7.833  0.00  0.00     0.027 H 
ATOM     40  H   LIG d   1       1.098   0.482  -9.064  0.00  0.00     0.030 H 
ATOM     41  H   LIG d   1       2.457   1.379  -9.800  0.00  0.00     0.030 H 
BRANCH   5  42
ATOM     42  C   LIG d   1       3.723  -2.884  -8.732  0.00  0.00    -0.056 C 
ATOM     43  H   LIG d   1       3.438  -3.245  -7.744  0.00  0.00     0.024 H 
ATOM     44  H   LIG d   1       3.013  -3.250  -9.473  0.00  0.00     0.024 H 
ATOM     45  H   LIG d   1       4.722  -3.247  -8.977  0.00  0.00     0.024 H 
ENDBRANCH   5  42
BRANCH  14  46
ATOM     46  C   LIG d   1       6.716  -1.926  -5.345  0.00  0.00    -0.056 C 
ATOM     47  H   LIG d   1       7.768  -2.193  -5.242  0.00  0.00     0.024 H 
ATOM     48  H   LIG d   1       6.182  -2.197  -4.434  0.00  0.00     0.024 H 
ATOM     49  H   LIG d   1       6.286  -2.461  -6.191  0.00  0.00     0.024 H 
ENDBRANCH  14  46
BRANCH  24  50
ATOM     50  O   LIG d   1      10.046   2.650  -3.775  0.00  0.00    -0.384 OA
BRANCH  50  51
ATOM     51  C   LIG d   1      11.037   2.884  -2.773  0.00  0.00     0.193 C 
ATOM     52  H   LIG d   1      10.730   2.408  -1.841  0.00  0.00     0.082 H 
ATOM     53  H   LIG d   1      11.989   2.466  -3.098  0.00  0.00     0.082 H 
BRANCH  51  54
ATOM     54  C   LIG d   1      11.188   4.367  -2.552  0.00  0.00     0.254 C 
ATOM     55  O   LIG d   1      12.219   4.809  -2.091  0.00  0.00    -0.272 OA
ATOM     56  N   LIG d   1      10.177   5.202  -2.867  0.00  0.00    -0.309 N 
ATOM     57  H   LIG d   1       9.327   4.844  -3.163  0.00  0.00     0.149 HD
BRANCH  56  58
ATOM     58  C   LIG d   1      10.366   6.651  -2.762  0.00  0.00     0.031 C 
ATOM     59  H   LIG d   1      11.406   6.866  -2.516  0.00  0.00     0.050 H 
BRANCH  58  60
ATOM     60  C   LIG d   1       9.457   7.204  -1.661  0.00  0.00     0.005 C 
ATOM     61  H   LIG d   1       9.133   8.210  -1.930  0.00  0.00     0.034 H 
ATOM     62  H   LIG d   1       8.586   6.559  -1.552  0.00  0.00     0.034 H 
BRANCH  60  63
ATOM     63  C   LIG d   1      10.215   7.251  -0.360  0.00  0.00     0.043 C 
ATOM     64  O   LIG d   1      10.693   8.304   0.029  0.00  0.00    -0.550 OA
ATOM     65  O   LIG d   1      10.351   6.238   0.304  0.00  0.00    -0.550 OA
ENDBRANCH  60  63
ENDBRANCH  58  60
BRANCH  58  66
ATOM     66  C   LIG d   1      10.010   7.310  -4.095  0.00  0.00    -0.018 C 
ATOM     67  H   LIG d   1       9.080   7.869  -3.989  0.00  0.00     0.032 H 
ATOM     68  C   LIG d   1      11.135   8.262  -4.512  0.00  0.00    -0.020 C 
ATOM     69  C   LIG d   1      10.809   8.855  -5.886  0.00  0.00     0.064 C 
ATOM     70  H   LIG d   1      11.225   9.064  -3.780  0.00  0.00     0.030 H 
ATOM     71  H   LIG d   1      12.075   7.712  -4.569  0.00  0.00     0.030 H 
ATOM     72  O   LIG d   1      10.633   7.799  -6.832  0.00  0.00    -0.374 OA
ATOM     73  C   LIG d   1       9.562   6.905  -6.518  0.00  0.00     0.049 C 
ATOM     74  C   LIG d   1       9.840   6.233  -5.171  0.00  0.00    -0.025 C 
ATOM     75  H   LIG d   1       9.482   6.146  -7.294  0.00  0.00     0.056 H 
ATOM     76  H   LIG d   1       8.628   7.465  -6.458  0.00  0.00     0.056 H 
ATOM     77  H   LIG d   1      10.752   5.641  -5.241  0.00  0.00     0.029 H 
ATOM     78  H   LIG d   1       9.004   5.585  -4.908  0.00  0.00     0.029 H 
BRANCH  69  79
ATOM     79  C   LIG d   1      11.958   9.759  -6.338  0.00  0.00    -0.036 C 
ATOM     80  H   LIG d   1      11.614  10.793  -6.371  0.00  0.00     0.026 H 
ATOM     81  H   LIG d   1      12.786   9.674  -5.634  0.00  0.00     0.026 H 
ATOM     82  H   LIG d   1      12.291   9.454  -7.330  0.00  0.00     0.026 H 
ENDBRANCH  69  79
BRANCH  69  83
ATOM     83  C   LIG d   1       9.520   9.675  -5.792  0.00  0.00    -0.036 C 
ATOM     84  H   LIG d   1       9.614  10.409  -4.993  0.00  0.00     0.026 H 
ATOM     85  H   LIG d   1       9.346  10.187  -6.739  0.00  0.00     0.026 H 
ATOM     86  H   LIG d   1       8.683   9.011  -5.579  0.00  0.00     0.026 H 
ENDBRANCH  69  83
ENDBRANCH  58  66
ENDBRANCH  56  58
ENDBRANCH  51  54
ENDBRANCH  50  51
ENDBRANCH  24  50
BRANCH   4  87
ATOM     87  O   LIG d   1       1.647  -1.695  -9.983  0.00  0.00    -0.376 OA
ATOM     88  H   LIG d   1       0.813  -1.429  -9.571  0.00  0.00     0.211 HD
ENDBRANCH   4  87
ENDBRANCH   1   4
TORSDOF 13
ENDMDL
