MODEL 1
REMARK VINA RESULT:      -7.2      0.000      0.000
REMARK  8 active torsions:
REMARK  status: ('A' for Active; 'I' for Inactive)
REMARK    1  A    between atoms: C_1  and  C_2 
REMARK    2  A    between atoms: C_2  and  O_3 
REMARK    3  A    between atoms: O_3  and  C_4 
REMARK    4  A    between atoms: C_7  and  N_10 
REMARK    5  A    between atoms: C_15  and  C_33 
REMARK    6  A    between atoms: C_16  and  C_26 
REMARK    7  A    between atoms: C_21  and  C_25 
REMARK    8  A    between atoms: C_26  and  C_27 
ROOT
ATOM      1  N   LIG d   1      11.031   4.937  -3.226  0.00  0.00    -0.293 NA
ATOM      2  C   LIG d   1       9.933   4.071  -2.772  0.00  0.00     0.044 C 
ATOM      3  C   LIG d   1       9.371   3.311  -3.947  0.00  0.00     0.013 A 
ATOM      4  C   LIG d   1       8.608   2.201  -3.717  0.00  0.00    -0.043 A 
ATOM      5  C   LIG d   1       8.071   1.486  -4.793  0.00  0.00     0.022 A 
ATOM      6  C   LIG d   1       7.249   0.294  -4.567  0.00  0.00    -0.029 A 
ATOM      7  C   LIG d   1       6.760  -0.352  -5.659  0.00  0.00     0.045 A 
ATOM      8  C   LIG d   1       7.053   0.137  -6.947  0.00  0.00     0.341 A 
ATOM      9  O   LIG d   1       6.605  -0.456  -7.912  0.00  0.00    -0.245 OA
ATOM     10  O   LIG d   1       7.803   1.224  -7.155  0.00  0.00    -0.422 OA
ATOM     11  C   LIG d   1       8.316   1.906  -6.112  0.00  0.00     0.146 A 
ATOM     12  C   LIG d   1       9.094   3.034  -6.328  0.00  0.00     0.035 A 
ATOM     13  C   LIG d   1       9.621   3.732  -5.251  0.00  0.00     0.134 A 
ATOM     14  O   LIG d   1      10.385   4.830  -5.490  0.00  0.00    -0.473 OA
ATOM     15  C   LIG d   1      10.604   5.723  -4.396  0.00  0.00     0.157 C 
ATOM     16  H   LIG d   1       9.146   4.681  -2.326  0.00  0.00     0.051 H 
ATOM     17  H   LIG d   1      10.310   3.366  -2.030  0.00  0.00     0.051 H 
ATOM     18  H   LIG d   1       8.418   1.877  -2.705  0.00  0.00     0.063 H 
ATOM     19  H   LIG d   1      11.382   6.440  -4.658  0.00  0.00     0.091 H 
ATOM     20  H   LIG d   1       9.681   6.254  -4.165  0.00  0.00     0.091 H 
ENDROOT
BRANCH   1  21
ATOM     21  C   LIG d   1      11.469   5.772  -2.193  0.00  0.00     0.033 A 
ATOM     22  C   LIG d   1      11.037   5.552  -0.890  0.00  0.00    -0.037 A 
ATOM     23  C   LIG d   1      11.470   6.377   0.128  0.00  0.00    -0.018 A 
ATOM     24  H   LIG d   1      10.364   4.735  -0.677  0.00  0.00     0.064 H 
ATOM     25  C   LIG d   1      12.335   7.425  -0.147  0.00  0.00     0.121 A 
ATOM     26  H   LIG d   1      11.134   6.206   1.141  0.00  0.00     0.066 H 
ATOM     27  C   LIG d   1      12.766   7.647  -1.447  0.00  0.00    -0.018 A 
ATOM     28  C   LIG d   1      12.340   6.819  -2.467  0.00  0.00    -0.037 A 
ATOM     29  H   LIG d   1      13.439   8.464  -1.660  0.00  0.00     0.066 H 
ATOM     30  H   LIG d   1      12.680   6.988  -3.477  0.00  0.00     0.064 H 
BRANCH  25  31
ATOM     31  O   LIG d   1      12.760   8.238   0.858  0.00  0.00    -0.492 OA
BRANCH  31  32
ATOM     32  C   LIG d   1      11.755   8.891   1.635  0.00  0.00     0.087 C 
ATOM     33  H   LIG d   1      10.977   8.175   1.898  0.00  0.00     0.069 H 
ATOM     34  H   LIG d   1      12.203   9.294   2.544  0.00  0.00     0.069 H 
BRANCH  32  35
ATOM     35  C   LIG d   1      11.142  10.032   0.820  0.00  0.00    -0.031 C 
ATOM     36  H   LIG d   1      10.852   9.662  -0.163  0.00  0.00     0.026 H 
ATOM     37  H   LIG d   1      10.263  10.416   1.337  0.00  0.00     0.026 H 
ATOM     38  H   LIG d   1      11.875  10.831   0.705  0.00  0.00     0.026 H 
ENDBRANCH  32  35
ENDBRANCH  31  32
ENDBRANCH  25  31
ENDBRANCH   1  21
BRANCH  12  39
ATOM     39  C   LIG d   1       9.368   3.502  -7.734  0.00  0.00    -0.033 C 
ATOM     40  H   LIG d   1      10.433   3.405  -7.948  0.00  0.00     0.028 H 
ATOM     41  H   LIG d   1       8.799   2.894  -8.436  0.00  0.00     0.028 H 
ATOM     42  H   LIG d   1       9.071   4.547  -7.833  0.00  0.00     0.028 H 
ENDBRANCH  12  39
BRANCH   6  43
ATOM     43  C   LIG d   1       6.956  -0.200  -3.173  0.00  0.00    -0.038 C 
ATOM     44  H   LIG d   1       5.909  -0.014  -2.935  0.00  0.00     0.028 H 
ATOM     45  H   LIG d   1       7.157  -1.270  -3.116  0.00  0.00     0.028 H 
ATOM     46  H   LIG d   1       7.590   0.328  -2.461  0.00  0.00     0.028 H 
ENDBRANCH   6  43
BRANCH   7  47
ATOM     47  C   LIG d   1       5.908  -1.584  -5.492  0.00  0.00     0.005 C 
ATOM     48  H   LIG d   1       5.625  -1.965  -6.473  0.00  0.00     0.036 H 
ATOM     49  H   LIG d   1       6.473  -2.346  -4.954  0.00  0.00     0.036 H 
BRANCH  47  50
ATOM     50  C   LIG d   1       4.668  -1.235  -4.711  0.00  0.00    -0.043 A 
ATOM     51  C   LIG d   1       3.815  -0.249  -5.172  0.00  0.00    -0.058 A 
ATOM     52  C   LIG d   1       2.677   0.072  -4.456  0.00  0.00    -0.061 A 
ATOM     53  H   LIG d   1       4.039   0.271  -6.092  0.00  0.00     0.062 H 
ATOM     54  C   LIG d   1       2.391  -0.594  -3.280  0.00  0.00    -0.062 A 
ATOM     55  H   LIG d   1       2.011   0.842  -4.816  0.00  0.00     0.062 H 
ATOM     56  C   LIG d   1       3.242  -1.580  -2.818  0.00  0.00    -0.061 A 
ATOM     57  H   LIG d   1       1.502  -0.344  -2.719  0.00  0.00     0.062 H 
ATOM     58  C   LIG d   1       4.378  -1.904  -3.537  0.00  0.00    -0.058 A 
ATOM     59  H   LIG d   1       3.019  -2.101  -1.899  0.00  0.00     0.062 H 
ATOM     60  H   LIG d   1       5.042  -2.678  -3.179  0.00  0.00     0.062 H 
ENDBRANCH  47  50
ENDBRANCH   7  47
TORSDOF 8
ENDMDL
MODEL 2
REMARK VINA RESULT:      -7.1      2.521      3.477
REMARK  8 active torsions:
REMARK  status: ('A' for Active; 'I' for Inactive)
REMARK    1  A    between atoms: C_1  and  C_2 
REMARK    2  A    between atoms: C_2  and  O_3 
REMARK    3  A    between atoms: O_3  and  C_4 
REMARK    4  A    between atoms: C_7  and  N_10 
REMARK    5  A    between atoms: C_15  and  C_33 
REMARK    6  A    between atoms: C_16  and  C_26 
REMARK    7  A    between atoms: C_21  and  C_25 
REMARK    8  A    between atoms: C_26  and  C_27 
ROOT
ATOM      1  N   LIG d   1      11.106   6.023  -2.464  0.00  0.00    -0.293 NA
ATOM      2  C   LIG d   1      10.057   5.022  -2.705  0.00  0.00     0.044 C 
ATOM      3  C   LIG d   1       9.915   4.787  -4.187  0.00  0.00     0.013 A 
ATOM      4  C   LIG d   1       9.275   3.661  -4.624  0.00  0.00    -0.043 A 
ATOM      5  C   LIG d   1       9.125   3.427  -5.995  0.00  0.00     0.022 A 
ATOM      6  C   LIG d   1       8.441   2.227  -6.482  0.00  0.00    -0.029 A 
ATOM      7  C   LIG d   1       8.333   2.065  -7.827  0.00  0.00     0.045 A 
ATOM      8  C   LIG d   1       8.869   3.038  -8.693  0.00  0.00     0.341 A 
ATOM      9  O   LIG d   1       8.760   2.874  -9.895  0.00  0.00    -0.245 OA
ATOM     10  O   LIG d   1       9.493   4.135  -8.250  0.00  0.00    -0.422 OA
ATOM     11  C   LIG d   1       9.633   4.350  -6.927  0.00  0.00     0.146 A 
ATOM     12  C   LIG d   1      10.281   5.487  -6.467  0.00  0.00     0.035 A 
ATOM     13  C   LIG d   1      10.423   5.704  -5.104  0.00  0.00     0.134 A 
ATOM     14  O   LIG d   1      11.068   6.823  -4.680  0.00  0.00    -0.473 OA
ATOM     15  C   LIG d   1      10.884   7.204  -3.315  0.00  0.00     0.157 C 
ATOM     16  H   LIG d   1       9.109   5.381  -2.302  0.00  0.00     0.051 H 
ATOM     17  H   LIG d   1      10.329   4.087  -2.213  0.00  0.00     0.051 H 
ATOM     18  H   LIG d   1       8.884   2.951  -3.910  0.00  0.00     0.063 H 
ATOM     19  H   LIG d   1      11.599   7.983  -3.053  0.00  0.00     0.091 H 
ATOM     20  H   LIG d   1       9.869   7.574  -3.171  0.00  0.00     0.091 H 
ENDROOT
BRANCH   1  21
ATOM     21  C   LIG d   1      11.156   6.380  -1.112  0.00  0.00     0.033 A 
ATOM     22  C   LIG d   1      11.294   7.715  -0.751  0.00  0.00    -0.037 A 
ATOM     23  C   LIG d   1      11.344   8.066   0.583  0.00  0.00    -0.018 A 
ATOM     24  H   LIG d   1      11.362   8.476  -1.514  0.00  0.00     0.064 H 
ATOM     25  C   LIG d   1      11.257   7.089   1.562  0.00  0.00     0.121 A 
ATOM     26  H   LIG d   1      11.452   9.105   0.864  0.00  0.00     0.066 H 
ATOM     27  C   LIG d   1      11.119   5.756   1.204  0.00  0.00    -0.018 A 
ATOM     28  C   LIG d   1      11.063   5.403  -0.131  0.00  0.00    -0.037 A 
ATOM     29  H   LIG d   1      11.052   4.995   1.967  0.00  0.00     0.066 H 
ATOM     30  H   LIG d   1      10.951   4.366  -0.410  0.00  0.00     0.064 H 
BRANCH  25  31
ATOM     31  O   LIG d   1      11.306   7.436   2.877  0.00  0.00    -0.492 OA
BRANCH  31  32
ATOM     32  C   LIG d   1      11.018   6.412   3.830  0.00  0.00     0.087 C 
ATOM     33  H   LIG d   1       9.974   6.114   3.739  0.00  0.00     0.069 H 
ATOM     34  H   LIG d   1      11.660   5.551   3.645  0.00  0.00     0.069 H 
BRANCH  32  35
ATOM     35  C   LIG d   1      11.274   6.943   5.242  0.00  0.00    -0.031 C 
ATOM     36  H   LIG d   1      12.203   6.524   5.625  0.00  0.00     0.026 H 
ATOM     37  H   LIG d   1      11.351   8.030   5.213  0.00  0.00     0.026 H 
ATOM     38  H   LIG d   1      10.449   6.654   5.895  0.00  0.00     0.026 H 
ENDBRANCH  32  35
ENDBRANCH  31  32
ENDBRANCH  25  31
ENDBRANCH   1  21
BRANCH  12  39
ATOM     39  C   LIG d   1      10.832   6.489  -7.449  0.00  0.00    -0.033 C 
ATOM     40  H   LIG d   1      10.092   7.269  -7.626  0.00  0.00     0.028 H 
ATOM     41  H   LIG d   1      11.740   6.934  -7.043  0.00  0.00     0.028 H 
ATOM     42  H   LIG d   1      11.063   5.986  -8.389  0.00  0.00     0.028 H 
ENDBRANCH  12  39
BRANCH   6  43
ATOM     43  C   LIG d   1       7.879   1.206  -5.526  0.00  0.00    -0.038 C 
ATOM     44  H   LIG d   1       6.900   1.536  -5.178  0.00  0.00     0.028 H 
ATOM     45  H   LIG d   1       7.779   0.247  -6.035  0.00  0.00     0.028 H 
ATOM     46  H   LIG d   1       8.551   1.098  -4.675  0.00  0.00     0.028 H 
ENDBRANCH   6  43
BRANCH   7  47
ATOM     47  C   LIG d   1       7.640   0.850  -8.391  0.00  0.00     0.005 C 
ATOM     48  H   LIG d   1       8.019   0.648  -9.393  0.00  0.00     0.036 H 
ATOM     49  H   LIG d   1       7.834  -0.008  -7.748  0.00  0.00     0.036 H 
BRANCH  47  50
ATOM     50  C   LIG d   1       6.156   1.104  -8.457  0.00  0.00    -0.043 A 
ATOM     51  C   LIG d   1       5.674   2.220  -9.115  0.00  0.00    -0.058 A 
ATOM     52  C   LIG d   1       4.313   2.453  -9.175  0.00  0.00    -0.061 A 
ATOM     53  H   LIG d   1       6.361   2.911  -9.581  0.00  0.00     0.062 H 
ATOM     54  C   LIG d   1       3.434   1.569  -8.579  0.00  0.00    -0.062 A 
ATOM     55  H   LIG d   1       3.936   3.325  -9.689  0.00  0.00     0.062 H 
ATOM     56  C   LIG d   1       3.915   0.452  -7.922  0.00  0.00    -0.061 A 
ATOM     57  H   LIG d   1       2.370   1.750  -8.626  0.00  0.00     0.062 H 
ATOM     58  C   LIG d   1       5.276   0.218  -7.865  0.00  0.00    -0.058 A 
ATOM     59  H   LIG d   1       3.228  -0.239  -7.456  0.00  0.00     0.062 H 
ATOM     60  H   LIG d   1       5.653  -0.658  -7.356  0.00  0.00     0.062 H 
ENDBRANCH  47  50
ENDBRANCH   7  47
TORSDOF 8
ENDMDL
MODEL 3
REMARK VINA RESULT:      -6.9      6.754     13.081
REMARK  8 active torsions:
REMARK  status: ('A' for Active; 'I' for Inactive)
REMARK    1  A    between atoms: C_1  and  C_2 
REMARK    2  A    between atoms: C_2  and  O_3 
REMARK    3  A    between atoms: O_3  and  C_4 
REMARK    4  A    between atoms: C_7  and  N_10 
REMARK    5  A    between atoms: C_15  and  C_33 
REMARK    6  A    between atoms: C_16  and  C_26 
REMARK    7  A    between atoms: C_21  and  C_25 
REMARK    8  A    between atoms: C_26  and  C_27 
ROOT
ATOM      1  N   LIG d   1       0.992  -2.288 -11.268  0.00  0.00    -0.293 NA
ATOM      2  C   LIG d   1       1.847  -2.995 -10.304  0.00  0.00     0.044 C 
ATOM      3  C   LIG d   1       2.822  -2.025  -9.688  0.00  0.00     0.013 A 
ATOM      4  C   LIG d   1       3.457  -2.366  -8.526  0.00  0.00    -0.043 A 
ATOM      5  C   LIG d   1       4.371  -1.483  -7.942  0.00  0.00     0.022 A 
ATOM      6  C   LIG d   1       5.062  -1.831  -6.697  0.00  0.00    -0.029 A 
ATOM      7  C   LIG d   1       5.936  -0.925  -6.186  0.00  0.00     0.045 A 
ATOM      8  C   LIG d   1       6.148   0.295  -6.857  0.00  0.00     0.341 A 
ATOM      9  O   LIG d   1       6.936   1.093  -6.383  0.00  0.00    -0.245 OA
ATOM     10  O   LIG d   1       5.519   0.615  -7.993  0.00  0.00    -0.422 OA
ATOM     11  C   LIG d   1       4.639  -0.242  -8.548  0.00  0.00     0.146 A 
ATOM     12  C   LIG d   1       3.985   0.089  -9.726  0.00  0.00     0.035 A 
ATOM     13  C   LIG d   1       3.081  -0.797 -10.292  0.00  0.00     0.134 A 
ATOM     14  O   LIG d   1       2.449  -0.445 -11.443  0.00  0.00    -0.473 OA
ATOM     15  C   LIG d   1       1.820  -1.490 -12.188  0.00  0.00     0.157 C 
ATOM     16  H   LIG d   1       2.397  -3.787 -10.815  0.00  0.00     0.051 H 
ATOM     17  H   LIG d   1       1.226  -3.432  -9.521  0.00  0.00     0.051 H 
ATOM     18  H   LIG d   1       3.252  -3.318  -8.060  0.00  0.00     0.063 H 
ATOM     19  H   LIG d   1       1.190  -1.058 -12.965  0.00  0.00     0.091 H 
ATOM     20  H   LIG d   1       2.580  -2.124 -12.643  0.00  0.00     0.091 H 
ENDROOT
BRANCH   1  21
ATOM     21  C   LIG d   1       0.183  -3.186 -11.973  0.00  0.00     0.033 A 
ATOM     22  C   LIG d   1      -0.007  -4.475 -11.490  0.00  0.00    -0.037 A 
ATOM     23  C   LIG d   1      -0.805  -5.361 -12.186  0.00  0.00    -0.018 A 
ATOM     24  H   LIG d   1       0.468  -4.783 -10.571  0.00  0.00     0.064 H 
ATOM     25  C   LIG d   1      -1.416  -4.966 -13.366  0.00  0.00     0.121 A 
ATOM     26  H   LIG d   1      -0.953  -6.364 -11.811  0.00  0.00     0.066 H 
ATOM     27  C   LIG d   1      -1.226  -3.680 -13.850  0.00  0.00    -0.018 A 
ATOM     28  C   LIG d   1      -0.433  -2.789 -13.152  0.00  0.00    -0.037 A 
ATOM     29  H   LIG d   1      -1.701  -3.372 -14.769  0.00  0.00     0.066 H 
ATOM     30  H   LIG d   1      -0.290  -1.787 -13.525  0.00  0.00     0.064 H 
BRANCH  25  31
ATOM     31  O   LIG d   1      -2.202  -5.840 -14.053  0.00  0.00    -0.492 OA
BRANCH  31  32
ATOM     32  C   LIG d   1      -3.213  -6.524 -13.311  0.00  0.00     0.087 C 
ATOM     33  H   LIG d   1      -3.516  -7.420 -13.850  0.00  0.00     0.069 H 
ATOM     34  H   LIG d   1      -2.820  -6.803 -12.332  0.00  0.00     0.069 H 
BRANCH  32  35
ATOM     35  C   LIG d   1      -4.422  -5.604 -13.130  0.00  0.00    -0.031 C 
ATOM     36  H   LIG d   1      -4.084  -4.612 -12.833  0.00  0.00     0.026 H 
ATOM     37  H   LIG d   1      -4.968  -5.534 -14.071  0.00  0.00     0.026 H 
ATOM     38  H   LIG d   1      -5.077  -6.011 -12.359  0.00  0.00     0.026 H 
ENDBRANCH  32  35
ENDBRANCH  31  32
ENDBRANCH  25  31
ENDBRANCH   1  21
BRANCH  12  39
ATOM     39  C   LIG d   1       4.259   1.413 -10.391  0.00  0.00    -0.033 C 
ATOM     40  H   LIG d   1       3.582   2.168  -9.991  0.00  0.00     0.028 H 
ATOM     41  H   LIG d   1       5.290   1.710 -10.200  0.00  0.00     0.028 H 
ATOM     42  H   LIG d   1       4.103   1.319 -11.466  0.00  0.00     0.028 H 
ENDBRANCH  12  39
BRANCH   6  43
ATOM     43  C   LIG d   1       4.811  -3.148  -6.008  0.00  0.00    -0.038 C 
ATOM     44  H   LIG d   1       4.882  -3.012  -4.929  0.00  0.00     0.028 H 
ATOM     45  H   LIG d   1       3.814  -3.508  -6.264  0.00  0.00     0.028 H 
ATOM     46  H   LIG d   1       5.554  -3.875  -6.333  0.00  0.00     0.028 H 
ENDBRANCH   6  43
BRANCH   7  47
ATOM     47  C   LIG d   1       6.678  -1.225  -4.909  0.00  0.00     0.005 C 
ATOM     48  H   LIG d   1       6.828  -2.301  -4.820  0.00  0.00     0.036 H 
ATOM     49  H   LIG d   1       7.645  -0.722  -4.924  0.00  0.00     0.036 H 
BRANCH  47  50
ATOM     50  C   LIG d   1       5.874  -0.732  -3.734  0.00  0.00    -0.043 A 
ATOM     51  C   LIG d   1       5.897   0.608  -3.393  0.00  0.00    -0.058 A 
ATOM     52  C   LIG d   1       5.160   1.060  -2.315  0.00  0.00    -0.061 A 
ATOM     53  H   LIG d   1       6.493   1.301  -3.969  0.00  0.00     0.062 H 
ATOM     54  C   LIG d   1       4.398   0.173  -1.578  0.00  0.00    -0.062 A 
ATOM     55  H   LIG d   1       5.179   2.106  -2.049  0.00  0.00     0.062 H 
ATOM     56  C   LIG d   1       4.373  -1.166  -1.918  0.00  0.00    -0.061 A 
ATOM     57  H   LIG d   1       3.822   0.526  -0.735  0.00  0.00     0.062 H 
ATOM     58  C   LIG d   1       5.108  -1.617  -3.000  0.00  0.00    -0.058 A 
ATOM     59  H   LIG d   1       3.778  -1.859  -1.343  0.00  0.00     0.062 H 
ATOM     60  H   LIG d   1       5.085  -2.664  -3.269  0.00  0.00     0.062 H 
ENDBRANCH  47  50
ENDBRANCH   7  47
TORSDOF 8
ENDMDL
MODEL 4
REMARK VINA RESULT:      -6.8      7.362     13.633
REMARK  8 active torsions:
REMARK  status: ('A' for Active; 'I' for Inactive)
REMARK    1  A    between atoms: C_1  and  C_2 
REMARK    2  A    between atoms: C_2  and  O_3 
REMARK    3  A    between atoms: O_3  and  C_4 
REMARK    4  A    between atoms: C_7  and  N_10 
REMARK    5  A    between atoms: C_15  and  C_33 
REMARK    6  A    between atoms: C_16  and  C_26 
REMARK    7  A    between atoms: C_21  and  C_25 
REMARK    8  A    between atoms: C_26  and  C_27 
ROOT
ATOM      1  N   LIG d   1       4.320  -8.952  -6.854  0.00  0.00    -0.293 NA
ATOM      2  C   LIG d   1       5.440  -8.191  -6.280  0.00  0.00     0.044 C 
ATOM      3  C   LIG d   1       5.225  -6.719  -6.522  0.00  0.00     0.013 A 
ATOM      4  C   LIG d   1       5.930  -5.813  -5.779  0.00  0.00    -0.043 A 
ATOM      5  C   LIG d   1       5.751  -4.443  -5.992  0.00  0.00     0.022 A 
ATOM      6  C   LIG d   1       6.498  -3.456  -5.207  0.00  0.00    -0.029 A 
ATOM      7  C   LIG d   1       6.274  -2.141  -5.468  0.00  0.00     0.045 A 
ATOM      8  C   LIG d   1       5.349  -1.776  -6.466  0.00  0.00     0.341 A 
ATOM      9  O   LIG d   1       5.164  -0.592  -6.684  0.00  0.00    -0.245 OA
ATOM     10  O   LIG d   1       4.667  -2.674  -7.183  0.00  0.00    -0.422 OA
ATOM     11  C   LIG d   1       4.845  -3.993  -6.970  0.00  0.00     0.146 A 
ATOM     12  C   LIG d   1       4.137  -4.925  -7.714  0.00  0.00     0.035 A 
ATOM     13  C   LIG d   1       4.324  -6.281  -7.490  0.00  0.00     0.134 A 
ATOM     14  O   LIG d   1       3.613  -7.173  -8.228  0.00  0.00    -0.473 OA
ATOM     15  C   LIG d   1       4.076  -8.526  -8.241  0.00  0.00     0.157 C 
ATOM     16  H   LIG d   1       6.373  -8.504  -6.751  0.00  0.00     0.051 H 
ATOM     17  H   LIG d   1       5.494  -8.379  -5.208  0.00  0.00     0.051 H 
ATOM     18  H   LIG d   1       6.626  -6.157  -5.028  0.00  0.00     0.063 H 
ATOM     19  H   LIG d   1       3.321  -9.167  -8.694  0.00  0.00     0.091 H 
ATOM     20  H   LIG d   1       5.001  -8.590  -8.814  0.00  0.00     0.091 H 
ENDROOT
BRANCH   1  21
ATOM     21  C   LIG d   1       4.564 -10.328  -6.787  0.00  0.00     0.033 A 
ATOM     22  C   LIG d   1       4.668 -10.957  -5.552  0.00  0.00    -0.037 A 
ATOM     23  C   LIG d   1       4.910 -12.315  -5.488  0.00  0.00    -0.018 A 
ATOM     24  H   LIG d   1       4.559 -10.383  -4.645  0.00  0.00     0.064 H 
ATOM     25  C   LIG d   1       5.049 -13.051  -6.654  0.00  0.00     0.121 A 
ATOM     26  H   LIG d   1       4.991 -12.803  -4.527  0.00  0.00     0.066 H 
ATOM     27  C   LIG d   1       4.946 -12.425  -7.888  0.00  0.00    -0.018 A 
ATOM     28  C   LIG d   1       4.698 -11.068  -7.955  0.00  0.00    -0.037 A 
ATOM     29  H   LIG d   1       5.055 -12.999  -8.796  0.00  0.00     0.066 H 
ATOM     30  H   LIG d   1       4.613 -10.582  -8.914  0.00  0.00     0.064 H 
BRANCH  25  31
ATOM     31  O   LIG d   1       5.288 -14.389  -6.590  0.00  0.00    -0.492 OA
BRANCH  31  32
ATOM     32  C   LIG d   1       6.327 -14.904  -7.423  0.00  0.00     0.087 C 
ATOM     33  H   LIG d   1       6.132 -15.953  -7.642  0.00  0.00     0.069 H 
ATOM     34  H   LIG d   1       6.361 -14.337  -8.354  0.00  0.00     0.069 H 
BRANCH  32  35
ATOM     35  C   LIG d   1       7.670 -14.776  -6.700  0.00  0.00    -0.031 C 
ATOM     36  H   LIG d   1       7.497 -14.635  -5.634  0.00  0.00     0.026 H 
ATOM     37  H   LIG d   1       8.254 -15.683  -6.856  0.00  0.00     0.026 H 
ATOM     38  H   LIG d   1       8.216 -13.919  -7.096  0.00  0.00     0.026 H 
ENDBRANCH  32  35
ENDBRANCH  31  32
ENDBRANCH  25  31
ENDBRANCH   1  21
BRANCH  12  39
ATOM     39  C   LIG d   1       3.162  -4.464  -8.767  0.00  0.00    -0.033 C 
ATOM     40  H   LIG d   1       2.472  -5.274  -9.002  0.00  0.00     0.028 H 
ATOM     41  H   LIG d   1       2.603  -3.607  -8.393  0.00  0.00     0.028 H 
ATOM     42  H   LIG d   1       3.708  -4.178  -9.666  0.00  0.00     0.028 H 
ENDBRANCH  12  39
BRANCH   6  43
ATOM     43  C   LIG d   1       7.481  -3.885  -4.147  0.00  0.00    -0.038 C 
ATOM     44  H   LIG d   1       7.093  -3.619  -3.164  0.00  0.00     0.028 H 
ATOM     45  H   LIG d   1       7.626  -4.964  -4.201  0.00  0.00     0.028 H 
ATOM     46  H   LIG d   1       8.434  -3.382  -4.311  0.00  0.00     0.028 H 
ENDBRANCH   6  43
BRANCH   7  47
ATOM     47  C   LIG d   1       7.012  -1.079  -4.694  0.00  0.00     0.005 C 
ATOM     48  H   LIG d   1       7.891  -1.518  -4.221  0.00  0.00     0.036 H 
ATOM     49  H   LIG d   1       7.322  -0.285  -5.373  0.00  0.00     0.036 H 
BRANCH  47  50
ATOM     50  C   LIG d   1       6.105  -0.508  -3.634  0.00  0.00    -0.043 A 
ATOM     51  C   LIG d   1       5.321  -1.350  -2.867  0.00  0.00    -0.058 A 
ATOM     52  C   LIG d   1       4.489  -0.827  -1.896  0.00  0.00    -0.061 A 
ATOM     53  H   LIG d   1       5.359  -2.418  -3.028  0.00  0.00     0.062 H 
ATOM     54  C   LIG d   1       4.441   0.539  -1.690  0.00  0.00    -0.062 A 
ATOM     55  H   LIG d   1       3.877  -1.484  -1.297  0.00  0.00     0.062 H 
ATOM     56  C   LIG d   1       5.225   1.382  -2.456  0.00  0.00    -0.061 A 
ATOM     57  H   LIG d   1       3.791   0.949  -0.931  0.00  0.00     0.062 H 
ATOM     58  C   LIG d   1       6.060   0.857  -3.425  0.00  0.00    -0.058 A 
ATOM     59  H   LIG d   1       5.188   2.449  -2.295  0.00  0.00     0.062 H 
ATOM     60  H   LIG d   1       6.676   1.515  -4.021  0.00  0.00     0.062 H 
ENDBRANCH  47  50
ENDBRANCH   7  47
TORSDOF 8
ENDMDL
MODEL 5
REMARK VINA RESULT:      -6.7      4.085      6.422
REMARK  8 active torsions:
REMARK  status: ('A' for Active; 'I' for Inactive)
REMARK    1  A    between atoms: C_1  and  C_2 
REMARK    2  A    between atoms: C_2  and  O_3 
REMARK    3  A    between atoms: O_3  and  C_4 
REMARK    4  A    between atoms: C_7  and  N_10 
REMARK    5  A    between atoms: C_15  and  C_33 
REMARK    6  A    between atoms: C_16  and  C_26 
REMARK    7  A    between atoms: C_21  and  C_25 
REMARK    8  A    between atoms: C_26  and  C_27 
ROOT
ATOM      1  N   LIG d   1       7.660   1.455  -4.790  0.00  0.00    -0.293 NA
ATOM      2  C   LIG d   1       8.326   0.158  -4.979  0.00  0.00     0.044 C 
ATOM      3  C   LIG d   1       7.303  -0.948  -4.913  0.00  0.00     0.013 A 
ATOM      4  C   LIG d   1       7.622  -2.180  -5.413  0.00  0.00    -0.043 A 
ATOM      5  C   LIG d   1       6.691  -3.221  -5.355  0.00  0.00     0.022 A 
ATOM      6  C   LIG d   1       7.014  -4.549  -5.885  0.00  0.00    -0.029 A 
ATOM      7  C   LIG d   1       6.061  -5.514  -5.795  0.00  0.00     0.045 A 
ATOM      8  C   LIG d   1       4.818  -5.213  -5.204  0.00  0.00     0.341 A 
ATOM      9  O   LIG d   1       3.978  -6.092  -5.132  0.00  0.00    -0.245 OA
ATOM     10  O   LIG d   1       4.521  -4.002  -4.719  0.00  0.00    -0.422 OA
ATOM     11  C   LIG d   1       5.425  -3.005  -4.781  0.00  0.00     0.146 A 
ATOM     12  C   LIG d   1       5.117  -1.748  -4.279  0.00  0.00     0.035 A 
ATOM     13  C   LIG d   1       6.051  -0.725  -4.346  0.00  0.00     0.134 A 
ATOM     14  O   LIG d   1       5.721   0.498  -3.853  0.00  0.00    -0.473 OA
ATOM     15  C   LIG d   1       6.793   1.410  -3.601  0.00  0.00     0.157 C 
ATOM     16  H   LIG d   1       9.070   0.011  -4.196  0.00  0.00     0.051 H 
ATOM     17  H   LIG d   1       8.816   0.141  -5.953  0.00  0.00     0.051 H 
ATOM     18  H   LIG d   1       8.593  -2.348  -5.853  0.00  0.00     0.063 H 
ATOM     19  H   LIG d   1       6.390   2.403  -3.405  0.00  0.00     0.091 H 
ATOM     20  H   LIG d   1       7.367   1.071  -2.740  0.00  0.00     0.091 H 
ENDROOT
BRANCH   1  21
ATOM     21  C   LIG d   1       8.597   2.489  -4.688  0.00  0.00     0.033 A 
ATOM     22  C   LIG d   1       9.109   2.844  -3.446  0.00  0.00    -0.037 A 
ATOM     23  C   LIG d   1      10.033   3.864  -3.347  0.00  0.00    -0.018 A 
ATOM     24  H   LIG d   1       8.782   2.321  -2.560  0.00  0.00     0.064 H 
ATOM     25  C   LIG d   1      10.452   4.535  -4.486  0.00  0.00     0.121 A 
ATOM     26  H   LIG d   1      10.431   4.141  -2.381  0.00  0.00     0.066 H 
ATOM     27  C   LIG d   1       9.942   4.182  -5.727  0.00  0.00    -0.018 A 
ATOM     28  C   LIG d   1       9.022   3.157  -5.829  0.00  0.00    -0.037 A 
ATOM     29  H   LIG d   1      10.268   4.705  -6.614  0.00  0.00     0.066 H 
ATOM     30  H   LIG d   1       8.629   2.878  -6.795  0.00  0.00     0.064 H 
BRANCH  25  31
ATOM     31  O   LIG d   1      11.363   5.541  -4.387  0.00  0.00    -0.492 OA
BRANCH  31  32
ATOM     32  C   LIG d   1      10.981   6.815  -4.908  0.00  0.00     0.087 C 
ATOM     33  H   LIG d   1      11.872   7.416  -5.088  0.00  0.00     0.069 H 
ATOM     34  H   LIG d   1      10.439   6.678  -5.844  0.00  0.00     0.069 H 
BRANCH  32  35
ATOM     35  C   LIG d   1      10.081   7.529  -3.897  0.00  0.00    -0.031 C 
ATOM     36  H   LIG d   1       9.037   7.382  -4.173  0.00  0.00     0.026 H 
ATOM     37  H   LIG d   1      10.255   7.120  -2.903  0.00  0.00     0.026 H 
ATOM     38  H   LIG d   1      10.309   8.596  -3.897  0.00  0.00     0.026 H 
ENDBRANCH  32  35
ENDBRANCH  31  32
ENDBRANCH  25  31
ENDBRANCH   1  21
BRANCH  12  39
ATOM     39  C   LIG d   1       3.766  -1.496  -3.661  0.00  0.00    -0.033 C 
ATOM     40  H   LIG d   1       3.546  -2.280  -2.937  0.00  0.00     0.028 H 
ATOM     41  H   LIG d   1       3.772  -0.529  -3.158  0.00  0.00     0.028 H 
ATOM     42  H   LIG d   1       3.004  -1.495  -4.441  0.00  0.00     0.028 H 
ENDBRANCH  12  39
BRANCH   6  43
ATOM     43  C   LIG d   1       8.356  -4.834  -6.509  0.00  0.00    -0.038 C 
ATOM     44  H   LIG d   1       8.348  -5.832  -6.947  0.00  0.00     0.028 H 
ATOM     45  H   LIG d   1       8.559  -4.098  -7.287  0.00  0.00     0.028 H 
ATOM     46  H   LIG d   1       9.131  -4.778  -5.745  0.00  0.00     0.028 H 
ENDBRANCH   6  43
BRANCH   7  47
ATOM     47  C   LIG d   1       6.333  -6.899  -6.322  0.00  0.00     0.005 C 
ATOM     48  H   LIG d   1       5.440  -7.282  -6.816  0.00  0.00     0.036 H 
ATOM     49  H   LIG d   1       7.156  -6.860  -7.035  0.00  0.00     0.036 H 
BRANCH  47  50
ATOM     50  C   LIG d   1       6.703  -7.808  -5.178  0.00  0.00    -0.043 A 
ATOM     51  C   LIG d   1       5.837  -8.812  -4.785  0.00  0.00    -0.058 A 
ATOM     52  C   LIG d   1       6.175  -9.646  -3.736  0.00  0.00    -0.061 A 
ATOM     53  H   LIG d   1       4.895  -8.943  -5.297  0.00  0.00     0.062 H 
ATOM     54  C   LIG d   1       7.381  -9.477  -3.081  0.00  0.00    -0.062 A 
ATOM     55  H   LIG d   1       5.499 -10.429  -3.428  0.00  0.00     0.062 H 
ATOM     56  C   LIG d   1       8.247  -8.475  -3.474  0.00  0.00    -0.061 A 
ATOM     57  H   LIG d   1       7.646 -10.128  -2.261  0.00  0.00     0.062 H 
ATOM     58  C   LIG d   1       7.910  -7.643  -4.526  0.00  0.00    -0.058 A 
ATOM     59  H   LIG d   1       9.189  -8.343  -2.963  0.00  0.00     0.062 H 
ATOM     60  H   LIG d   1       8.589  -6.863  -4.837  0.00  0.00     0.062 H 
ENDBRANCH  47  50
ENDBRANCH   7  47
TORSDOF 8
ENDMDL
MODEL 6
REMARK VINA RESULT:      -6.6      6.843     12.945
REMARK  8 active torsions:
REMARK  status: ('A' for Active; 'I' for Inactive)
REMARK    1  A    between atoms: C_1  and  C_2 
REMARK    2  A    between atoms: C_2  and  O_3 
REMARK    3  A    between atoms: O_3  and  C_4 
REMARK    4  A    between atoms: C_7  and  N_10 
REMARK    5  A    between atoms: C_15  and  C_33 
REMARK    6  A    between atoms: C_16  and  C_26 
REMARK    7  A    between atoms: C_21  and  C_25 
REMARK    8  A    between atoms: C_26  and  C_27 
ROOT
ATOM      1  N   LIG d   1       1.636  -3.658 -11.107  0.00  0.00    -0.293 NA
ATOM      2  C   LIG d   1       1.928  -2.613 -10.115  0.00  0.00     0.044 C 
ATOM      3  C   LIG d   1       2.930  -3.133  -9.115  0.00  0.00     0.013 A 
ATOM      4  C   LIG d   1       3.613  -2.244  -8.334  0.00  0.00    -0.043 A 
ATOM      5  C   LIG d   1       4.541  -2.705  -7.395  0.00  0.00     0.022 A 
ATOM      6  C   LIG d   1       5.282  -1.768  -6.547  0.00  0.00    -0.029 A 
ATOM      7  C   LIG d   1       6.168  -2.287  -5.657  0.00  0.00     0.045 A 
ATOM      8  C   LIG d   1       6.341  -3.683  -5.578  0.00  0.00     0.341 A 
ATOM      9  O   LIG d   1       7.140  -4.127  -4.773  0.00  0.00    -0.245 OA
ATOM     10  O   LIG d   1       5.665  -4.540  -6.351  0.00  0.00    -0.422 OA
ATOM     11  C   LIG d   1       4.774  -4.085  -7.253  0.00  0.00     0.146 A 
ATOM     12  C   LIG d   1       4.073  -4.974  -8.055  0.00  0.00     0.035 A 
ATOM     13  C   LIG d   1       3.157  -4.501  -8.982  0.00  0.00     0.134 A 
ATOM     14  O   LIG d   1       2.489  -5.393  -9.760  0.00  0.00    -0.473 OA
ATOM     15  C   LIG d   1       1.316  -4.925 -10.429  0.00  0.00     0.157 C 
ATOM     16  H   LIG d   1       1.009  -2.334  -9.597  0.00  0.00     0.051 H 
ATOM     17  H   LIG d   1       2.339  -1.738 -10.619  0.00  0.00     0.051 H 
ATOM     18  H   LIG d   1       3.435  -1.184  -8.441  0.00  0.00     0.063 H 
ATOM     19  H   LIG d   1       0.994  -5.661 -11.164  0.00  0.00     0.091 H 
ATOM     20  H   LIG d   1       0.520  -4.762  -9.703  0.00  0.00     0.091 H 
ENDROOT
BRANCH   1  21
ATOM     21  C   LIG d   1       0.595  -3.265 -11.955  0.00  0.00     0.033 A 
ATOM     22  C   LIG d   1      -0.380  -4.181 -12.329  0.00  0.00    -0.037 A 
ATOM     23  C   LIG d   1      -1.407  -3.793 -13.167  0.00  0.00    -0.018 A 
ATOM     24  H   LIG d   1      -0.335  -5.196 -11.964  0.00  0.00     0.064 H 
ATOM     25  C   LIG d   1      -1.465  -2.490 -13.635  0.00  0.00     0.121 A 
ATOM     26  H   LIG d   1      -2.165  -4.506 -13.458  0.00  0.00     0.066 H 
ATOM     27  C   LIG d   1      -0.492  -1.573 -13.264  0.00  0.00    -0.018 A 
ATOM     28  C   LIG d   1       0.533  -1.958 -12.421  0.00  0.00    -0.037 A 
ATOM     29  H   LIG d   1      -0.537  -0.558 -13.629  0.00  0.00     0.066 H 
ATOM     30  H   LIG d   1       1.287  -1.244 -12.127  0.00  0.00     0.064 H 
BRANCH  25  31
ATOM     31  O   LIG d   1      -2.477  -2.107 -14.461  0.00  0.00    -0.492 OA
BRANCH  31  32
ATOM     32  C   LIG d   1      -3.062  -0.827 -14.221  0.00  0.00     0.087 C 
ATOM     33  H   LIG d   1      -2.292  -0.132 -13.889  0.00  0.00     0.069 H 
ATOM     34  H   LIG d   1      -3.516  -0.456 -15.141  0.00  0.00     0.069 H 
BRANCH  32  35
ATOM     35  C   LIG d   1      -4.136  -0.953 -13.138  0.00  0.00    -0.031 C 
ATOM     36  H   LIG d   1      -4.724  -0.037 -13.102  0.00  0.00     0.026 H 
ATOM     37  H   LIG d   1      -4.789  -1.794 -13.370  0.00  0.00     0.026 H 
ATOM     38  H   LIG d   1      -3.660  -1.118 -12.171  0.00  0.00     0.026 H 
ENDBRANCH  32  35
ENDBRANCH  31  32
ENDBRANCH  25  31
ENDBRANCH   1  21
BRANCH  12  39
ATOM     39  C   LIG d   1       4.308  -6.457  -7.918  0.00  0.00    -0.033 C 
ATOM     40  H   LIG d   1       3.355  -6.982  -7.980  0.00  0.00     0.028 H 
ATOM     41  H   LIG d   1       4.963  -6.796  -8.720  0.00  0.00     0.028 H 
ATOM     42  H   LIG d   1       4.775  -6.663  -6.955  0.00  0.00     0.028 H 
ENDBRANCH  12  39
BRANCH   6  43
ATOM     43  C   LIG d   1       5.070  -0.280  -6.659  0.00  0.00    -0.038 C 
ATOM     44  H   LIG d   1       5.862   0.241  -6.121  0.00  0.00     0.028 H 
ATOM     45  H   LIG d   1       5.090   0.013  -7.709  0.00  0.00     0.028 H 
ATOM     46  H   LIG d   1       4.104  -0.018  -6.228  0.00  0.00     0.028 H 
ENDBRANCH   6  43
BRANCH   7  47
ATOM     47  C   LIG d   1       6.961  -1.374  -4.757  0.00  0.00     0.005 C 
ATOM     48  H   LIG d   1       7.779  -1.933  -4.302  0.00  0.00     0.036 H 
ATOM     49  H   LIG d   1       7.365  -0.549  -5.343  0.00  0.00     0.036 H 
BRANCH  47  50
ATOM     50  C   LIG d   1       6.063  -0.830  -3.676  0.00  0.00    -0.043 A 
ATOM     51  C   LIG d   1       6.071   0.522  -3.387  0.00  0.00    -0.058 A 
ATOM     52  C   LIG d   1       5.247   1.022  -2.396  0.00  0.00    -0.061 A 
ATOM     53  H   LIG d   1       6.721   1.188  -3.935  0.00  0.00     0.062 H 
ATOM     54  C   LIG d   1       4.415   0.170  -1.695  0.00  0.00    -0.062 A 
ATOM     55  H   LIG d   1       5.253   2.078  -2.169  0.00  0.00     0.062 H 
ATOM     56  C   LIG d   1       4.406  -1.181  -1.984  0.00  0.00    -0.061 A 
ATOM     57  H   LIG d   1       3.771   0.560  -0.919  0.00  0.00     0.062 H 
ATOM     58  C   LIG d   1       5.227  -1.680  -2.978  0.00  0.00    -0.058 A 
ATOM     59  H   LIG d   1       3.756  -1.847  -1.436  0.00  0.00     0.062 H 
ATOM     60  H   LIG d   1       5.217  -2.736  -3.208  0.00  0.00     0.062 H 
ENDBRANCH  47  50
ENDBRANCH   7  47
TORSDOF 8
ENDMDL
MODEL 7
REMARK VINA RESULT:      -6.6      7.067     13.696
REMARK  8 active torsions:
REMARK  status: ('A' for Active; 'I' for Inactive)
REMARK    1  A    between atoms: C_1  and  C_2 
REMARK    2  A    between atoms: C_2  and  O_3 
REMARK    3  A    between atoms: O_3  and  C_4 
REMARK    4  A    between atoms: C_7  and  N_10 
REMARK    5  A    between atoms: C_15  and  C_33 
REMARK    6  A    between atoms: C_16  and  C_26 
REMARK    7  A    between atoms: C_21  and  C_25 
REMARK    8  A    between atoms: C_26  and  C_27 
ROOT
ATOM      1  N   LIG d   1       1.493  -5.220 -10.342  0.00  0.00    -0.293 NA
ATOM      2  C   LIG d   1       2.567  -5.448  -9.363  0.00  0.00     0.044 C 
ATOM      3  C   LIG d   1       3.199  -4.131  -8.992  0.00  0.00     0.013 A 
ATOM      4  C   LIG d   1       3.953  -4.052  -7.854  0.00  0.00    -0.043 A 
ATOM      5  C   LIG d   1       4.554  -2.842  -7.495  0.00  0.00     0.022 A 
ATOM      6  C   LIG d   1       5.368  -2.738  -6.280  0.00  0.00    -0.029 A 
ATOM      7  C   LIG d   1       5.921  -1.530  -5.992  0.00  0.00     0.045 A 
ATOM      8  C   LIG d   1       5.701  -0.439  -6.855  0.00  0.00     0.341 A 
ATOM      9  O   LIG d   1       6.207   0.634  -6.580  0.00  0.00    -0.245 OA
ATOM     10  O   LIG d   1       4.960  -0.532  -7.965  0.00  0.00    -0.422 OA
ATOM     11  C   LIG d   1       4.384  -1.703  -8.302  0.00  0.00     0.146 A 
ATOM     12  C   LIG d   1       3.614  -1.799  -9.452  0.00  0.00     0.035 A 
ATOM     13  C   LIG d   1       3.023  -3.006  -9.794  0.00  0.00     0.134 A 
ATOM     14  O   LIG d   1       2.269  -3.072 -10.923  0.00  0.00    -0.473 OA
ATOM     15  C   LIG d   1       1.983  -4.372 -11.442  0.00  0.00     0.157 C 
ATOM     16  H   LIG d   1       3.324  -6.103  -9.798  0.00  0.00     0.051 H 
ATOM     17  H   LIG d   1       2.151  -5.916  -8.471  0.00  0.00     0.051 H 
ATOM     18  H   LIG d   1       4.086  -4.926  -7.234  0.00  0.00     0.063 H 
ATOM     19  H   LIG d   1       1.218  -4.299 -12.214  0.00  0.00     0.091 H 
ATOM     20  H   LIG d   1       2.889  -4.806 -11.864  0.00  0.00     0.091 H 
ENDROOT
BRANCH   1  21
ATOM     21  C   LIG d   1       0.992  -6.433 -10.827  0.00  0.00     0.033 A 
ATOM     22  C   LIG d   1      -0.071  -7.053 -10.182  0.00  0.00    -0.037 A 
ATOM     23  C   LIG d   1      -0.564  -8.250 -10.661  0.00  0.00    -0.018 A 
ATOM     24  H   LIG d   1      -0.510  -6.598  -9.307  0.00  0.00     0.064 H 
ATOM     25  C   LIG d   1       0.000  -8.834 -11.784  0.00  0.00     0.121 A 
ATOM     26  H   LIG d   1      -1.391  -8.733 -10.159  0.00  0.00     0.066 H 
ATOM     27  C   LIG d   1       1.062  -8.216 -12.429  0.00  0.00    -0.018 A 
ATOM     28  C   LIG d   1       1.553  -7.015 -11.955  0.00  0.00    -0.037 A 
ATOM     29  H   LIG d   1       1.502  -8.671 -13.304  0.00  0.00     0.066 H 
ATOM     30  H   LIG d   1       2.376  -6.532 -12.460  0.00  0.00     0.064 H 
BRANCH  25  31
ATOM     31  O   LIG d   1      -0.486 -10.014 -12.255  0.00  0.00    -0.492 OA
BRANCH  31  32
ATOM     32  C   LIG d   1      -0.850 -10.999 -11.287  0.00  0.00     0.087 C 
ATOM     33  H   LIG d   1      -1.284 -10.509 -10.416  0.00  0.00     0.069 H 
ATOM     34  H   LIG d   1      -1.579 -11.683 -11.721  0.00  0.00     0.069 H 
BRANCH  32  35
ATOM     35  C   LIG d   1       0.395 -11.782 -10.865  0.00  0.00    -0.031 C 
ATOM     36  H   LIG d   1       1.022 -11.966 -11.736  0.00  0.00     0.026 H 
ATOM     37  H   LIG d   1       0.955 -11.205 -10.130  0.00  0.00     0.026 H 
ATOM     38  H   LIG d   1       0.093 -12.735 -10.427  0.00  0.00     0.026 H 
ENDBRANCH  32  35
ENDBRANCH  31  32
ENDBRANCH  25  31
ENDBRANCH   1  21
BRANCH  12  39
ATOM     39  C   LIG d   1       3.419  -0.590 -10.331  0.00  0.00    -0.033 C 
ATOM     40  H   LIG d   1       4.359  -0.045 -10.411  0.00  0.00     0.028 H 
ATOM     41  H   LIG d   1       3.097  -0.909 -11.322  0.00  0.00     0.028 H 
ATOM     42  H   LIG d   1       2.659   0.058  -9.893  0.00  0.00     0.028 H 
ENDBRANCH  12  39
BRANCH   6  43
ATOM     43  C   LIG d   1       5.582  -3.928  -5.381  0.00  0.00    -0.038 C 
ATOM     44  H   LIG d   1       6.450  -3.752  -4.746  0.00  0.00     0.028 H 
ATOM     45  H   LIG d   1       4.700  -4.077  -4.758  0.00  0.00     0.028 H 
ATOM     46  H   LIG d   1       5.751  -4.817  -5.989  0.00  0.00     0.028 H 
ENDBRANCH   6  43
BRANCH   7  47
ATOM     47  C   LIG d   1       6.768  -1.360  -4.758  0.00  0.00     0.005 C 
ATOM     48  H   LIG d   1       7.144  -2.332  -4.437  0.00  0.00     0.036 H 
ATOM     49  H   LIG d   1       7.606  -0.701  -4.980  0.00  0.00     0.036 H 
BRANCH  47  50
ATOM     50  C   LIG d   1       5.934  -0.757  -3.656  0.00  0.00    -0.043 A 
ATOM     51  C   LIG d   1       5.092  -1.559  -2.908  0.00  0.00    -0.058 A 
ATOM     52  C   LIG d   1       4.327  -1.007  -1.898  0.00  0.00    -0.061 A 
ATOM     53  H   LIG d   1       5.031  -2.618  -3.114  0.00  0.00     0.062 H 
ATOM     54  C   LIG d   1       4.405   0.347  -1.635  0.00  0.00    -0.062 A 
ATOM     55  H   LIG d   1       3.670  -1.633  -1.314  0.00  0.00     0.062 H 
ATOM     56  C   LIG d   1       5.248   1.150  -2.382  0.00  0.00    -0.061 A 
ATOM     57  H   LIG d   1       3.808   0.780  -0.846  0.00  0.00     0.062 H 
ATOM     58  C   LIG d   1       6.016   0.596  -3.389  0.00  0.00    -0.058 A 
ATOM     59  H   LIG d   1       5.309   2.208  -2.176  0.00  0.00     0.062 H 
ATOM     60  H   LIG d   1       6.678   1.222  -3.970  0.00  0.00     0.062 H 
ENDBRANCH  47  50
ENDBRANCH   7  47
TORSDOF 8
ENDMDL
MODEL 8
REMARK VINA RESULT:      -6.6      3.816      6.799
REMARK  8 active torsions:
REMARK  status: ('A' for Active; 'I' for Inactive)
REMARK    1  A    between atoms: C_1  and  C_2 
REMARK    2  A    between atoms: C_2  and  O_3 
REMARK    3  A    between atoms: O_3  and  C_4 
REMARK    4  A    between atoms: C_7  and  N_10 
REMARK    5  A    between atoms: C_15  and  C_33 
REMARK    6  A    between atoms: C_16  and  C_26 
REMARK    7  A    between atoms: C_21  and  C_25 
REMARK    8  A    between atoms: C_26  and  C_27 
ROOT
ATOM      1  N   LIG d   1       9.609   5.298  -8.862  0.00  0.00    -0.293 NA
ATOM      2  C   LIG d   1       8.978   4.014  -9.201  0.00  0.00     0.044 C 
ATOM      3  C   LIG d   1       8.828   3.181  -7.954  0.00  0.00     0.013 A 
ATOM      4  C   LIG d   1       7.957   2.127  -7.959  0.00  0.00    -0.043 A 
ATOM      5  C   LIG d   1       7.809   1.336  -6.815  0.00  0.00     0.022 A 
ATOM      6  C   LIG d   1       6.881   0.201  -6.801  0.00  0.00    -0.029 A 
ATOM      7  C   LIG d   1       6.788  -0.523  -5.655  0.00  0.00     0.045 A 
ATOM      8  C   LIG d   1       7.571  -0.167  -4.539  0.00  0.00     0.341 A 
ATOM      9  O   LIG d   1       7.472  -0.830  -3.522  0.00  0.00    -0.245 OA
ATOM     10  O   LIG d   1       8.418   0.868  -4.550  0.00  0.00    -0.422 OA
ATOM     11  C   LIG d   1       8.553   1.624  -5.657  0.00  0.00     0.146 A 
ATOM     12  C   LIG d   1       9.431   2.699  -5.668  0.00  0.00     0.035 A 
ATOM     13  C   LIG d   1       9.566   3.474  -6.810  0.00  0.00     0.134 A 
ATOM     14  O   LIG d   1      10.428   4.525  -6.792  0.00  0.00    -0.473 OA
ATOM     15  C   LIG d   1      10.819   5.069  -8.055  0.00  0.00     0.157 C 
ATOM     16  H   LIG d   1       9.599   3.481  -9.922  0.00  0.00     0.051 H 
ATOM     17  H   LIG d   1       7.995   4.198  -9.636  0.00  0.00     0.051 H 
ATOM     18  H   LIG d   1       7.385   1.904  -8.847  0.00  0.00     0.063 H 
ATOM     19  H   LIG d   1      11.340   6.014  -7.901  0.00  0.00     0.091 H 
ATOM     20  H   LIG d   1      11.476   4.368  -8.569  0.00  0.00     0.091 H 
ENDROOT
BRANCH   1  21
ATOM     21  C   LIG d   1       9.907   6.030 -10.017  0.00  0.00     0.033 A 
ATOM     22  C   LIG d   1      11.067   6.793 -10.076  0.00  0.00    -0.037 A 
ATOM     23  C   LIG d   1      11.359   7.515 -11.216  0.00  0.00    -0.018 A 
ATOM     24  H   LIG d   1      11.738   6.820  -9.231  0.00  0.00     0.064 H 
ATOM     25  C   LIG d   1      10.497   7.480 -12.300  0.00  0.00     0.121 A 
ATOM     26  H   LIG d   1      12.261   8.109 -11.262  0.00  0.00     0.066 H 
ATOM     27  C   LIG d   1       9.338   6.720 -12.243  0.00  0.00    -0.018 A 
ATOM     28  C   LIG d   1       9.046   5.991 -11.106  0.00  0.00    -0.037 A 
ATOM     29  H   LIG d   1       8.666   6.693 -13.087  0.00  0.00     0.066 H 
ATOM     30  H   LIG d   1       8.148   5.395 -11.062  0.00  0.00     0.064 H 
BRANCH  25  31
ATOM     31  O   LIG d   1      10.785   8.193 -13.423  0.00  0.00    -0.492 OA
BRANCH  31  32
ATOM     32  C   LIG d   1      10.532   9.598 -13.383  0.00  0.00     0.087 C 
ATOM     33  H   LIG d   1      10.202   9.880 -12.384  0.00  0.00     0.069 H 
ATOM     34  H   LIG d   1      11.445  10.139 -13.631  0.00  0.00     0.069 H 
BRANCH  32  35
ATOM     35  C   LIG d   1       9.441   9.948 -14.397  0.00  0.00    -0.031 C 
ATOM     36  H   LIG d   1       9.447   9.217 -15.204  0.00  0.00     0.026 H 
ATOM     37  H   LIG d   1       8.469   9.937 -13.904  0.00  0.00     0.026 H 
ATOM     38  H   LIG d   1       9.630  10.942 -14.805  0.00  0.00     0.026 H 
ENDBRANCH  32  35
ENDBRANCH  31  32
ENDBRANCH  25  31
ENDBRANCH   1  21
BRANCH  12  39
ATOM     39  C   LIG d   1      10.238   3.023  -4.438  0.00  0.00    -0.033 C 
ATOM     40  H   LIG d   1       9.609   3.547  -3.718  0.00  0.00     0.028 H 
ATOM     41  H   LIG d   1      10.610   2.101  -3.993  0.00  0.00     0.028 H 
ATOM     42  H   LIG d   1      11.081   3.659  -4.714  0.00  0.00     0.028 H 
ENDBRANCH  12  39
BRANCH   6  43
ATOM     43  C   LIG d   1       6.060  -0.150  -8.015  0.00  0.00    -0.038 C 
ATOM     44  H   LIG d   1       5.666   0.762  -8.463  0.00  0.00     0.028 H 
ATOM     45  H   LIG d   1       6.687  -0.670  -8.740  0.00  0.00     0.028 H 
ATOM     46  H   LIG d   1       5.234  -0.797  -7.719  0.00  0.00     0.028 H 
ENDBRANCH   6  43
BRANCH   7  47
ATOM     47  C   LIG d   1       5.852  -1.702  -5.578  0.00  0.00     0.005 C 
ATOM     48  H   LIG d   1       5.468  -1.927  -6.573  0.00  0.00     0.036 H 
ATOM     49  H   LIG d   1       6.390  -2.567  -5.191  0.00  0.00     0.036 H 
BRANCH  47  50
ATOM     50  C   LIG d   1       4.703  -1.372  -4.660  0.00  0.00    -0.043 A 
ATOM     51  C   LIG d   1       3.841  -0.338  -4.974  0.00  0.00    -0.058 A 
ATOM     52  C   LIG d   1       2.787  -0.036  -4.133  0.00  0.00    -0.061 A 
ATOM     53  H   LIG d   1       3.992   0.234  -5.878  0.00  0.00     0.062 H 
ATOM     54  C   LIG d   1       2.595  -0.768  -2.977  0.00  0.00    -0.062 A 
ATOM     55  H   LIG d   1       2.114   0.771  -4.378  0.00  0.00     0.062 H 
ATOM     56  C   LIG d   1       3.456  -1.803  -2.662  0.00  0.00    -0.061 A 
ATOM     57  H   LIG d   1       1.772  -0.533  -2.318  0.00  0.00     0.062 H 
ATOM     58  C   LIG d   1       4.507  -2.108  -3.506  0.00  0.00    -0.058 A 
ATOM     59  H   LIG d   1       3.306  -2.375  -1.758  0.00  0.00     0.062 H 
ATOM     60  H   LIG d   1       5.178  -2.919  -3.263  0.00  0.00     0.062 H 
ENDBRANCH  47  50
ENDBRANCH   7  47
TORSDOF 8
ENDMDL
MODEL 9
REMARK VINA RESULT:      -6.5      7.939     13.849
REMARK  8 active torsions:
REMARK  status: ('A' for Active; 'I' for Inactive)
REMARK    1  A    between atoms: C_1  and  C_2 
REMARK    2  A    between atoms: C_2  and  O_3 
REMARK    3  A    between atoms: O_3  and  C_4 
REMARK    4  A    between atoms: C_7  and  N_10 
REMARK    5  A    between atoms: C_15  and  C_33 
REMARK    6  A    between atoms: C_16  and  C_26 
REMARK    7  A    between atoms: C_21  and  C_25 
REMARK    8  A    between atoms: C_26  and  C_27 
ROOT
ATOM      1  N   LIG d   1       0.070  -2.118 -12.903  0.00  0.00    -0.293 NA
ATOM      2  C   LIG d   1       0.302  -1.194 -11.783  0.00  0.00     0.044 C 
ATOM      3  C   LIG d   1       1.286  -1.808 -10.819  0.00  0.00     0.013 A 
ATOM      4  C   LIG d   1       1.920  -1.004  -9.914  0.00  0.00    -0.043 A 
ATOM      5  C   LIG d   1       2.830  -1.554  -9.006  0.00  0.00     0.022 A 
ATOM      6  C   LIG d   1       3.519  -0.709  -8.026  0.00  0.00    -0.029 A 
ATOM      7  C   LIG d   1       4.390  -1.311  -7.175  0.00  0.00     0.045 A 
ATOM      8  C   LIG d   1       4.599  -2.702  -7.259  0.00  0.00     0.341 A 
ATOM      9  O   LIG d   1       5.383  -3.222  -6.486  0.00  0.00    -0.245 OA
ATOM     10  O   LIG d   1       3.971  -3.475  -8.151  0.00  0.00    -0.422 OA
ATOM     11  C   LIG d   1       3.096  -2.935  -9.023  0.00  0.00     0.146 A 
ATOM     12  C   LIG d   1       2.446  -3.737  -9.949  0.00  0.00     0.035 A 
ATOM     13  C   LIG d   1       1.546  -3.176 -10.844  0.00  0.00     0.134 A 
ATOM     14  O   LIG d   1       0.927  -3.983 -11.746  0.00  0.00    -0.473 OA
ATOM     15  C   LIG d   1      -0.237  -3.465 -12.394  0.00  0.00     0.157 C 
ATOM     16  H   LIG d   1      -0.639  -1.002 -11.267  0.00  0.00     0.051 H 
ATOM     17  H   LIG d   1       0.705  -0.256 -12.165  0.00  0.00     0.051 H 
ATOM     18  H   LIG d   1       1.716   0.056  -9.899  0.00  0.00     0.063 H 
ATOM     19  H   LIG d   1      -0.514  -4.114 -13.223  0.00  0.00     0.091 H 
ATOM     20  H   LIG d   1      -1.059  -3.409 -11.681  0.00  0.00     0.091 H 
ENDROOT
BRANCH   1  21
ATOM     21  C   LIG d   1      -0.954  -1.650 -13.734  0.00  0.00     0.033 A 
ATOM     22  C   LIG d   1      -1.920  -0.788 -13.228  0.00  0.00    -0.037 A 
ATOM     23  C   LIG d   1      -2.930  -0.328 -14.048  0.00  0.00    -0.018 A 
ATOM     24  H   LIG d   1      -1.879  -0.480 -12.194  0.00  0.00     0.064 H 
ATOM     25  C   LIG d   1      -2.983  -0.724 -15.375  0.00  0.00     0.121 A 
ATOM     26  H   LIG d   1      -3.682   0.342 -13.654  0.00  0.00     0.066 H 
ATOM     27  C   LIG d   1      -2.020  -1.585 -15.882  0.00  0.00    -0.018 A 
ATOM     28  C   LIG d   1      -1.004  -2.042 -15.065  0.00  0.00    -0.037 A 
ATOM     29  H   LIG d   1      -2.061  -1.893 -16.915  0.00  0.00     0.066 H 
ATOM     30  H   LIG d   1      -0.251  -2.707 -15.460  0.00  0.00     0.064 H 
BRANCH  25  31
ATOM     31  O   LIG d   1      -3.980  -0.270 -16.182  0.00  0.00    -0.492 OA
BRANCH  31  32
ATOM     32  C   LIG d   1      -3.590   0.354 -17.407  0.00  0.00     0.087 C 
ATOM     33  H   LIG d   1      -2.764  -0.202 -17.851  0.00  0.00     0.069 H 
ATOM     34  H   LIG d   1      -4.435   0.363 -18.095  0.00  0.00     0.069 H 
BRANCH  32  35
ATOM     35  C   LIG d   1      -3.144   1.791 -17.127  0.00  0.00    -0.031 C 
ATOM     36  H   LIG d   1      -2.068   1.872 -17.273  0.00  0.00     0.026 H 
ATOM     37  H   LIG d   1      -3.656   2.469 -17.811  0.00  0.00     0.026 H 
ATOM     38  H   LIG d   1      -3.393   2.055 -16.099  0.00  0.00     0.026 H 
ENDBRANCH  32  35
ENDBRANCH  31  32
ENDBRANCH  25  31
ENDBRANCH   1  21
BRANCH  12  39
ATOM     39  C   LIG d   1       2.716  -5.219  -9.984  0.00  0.00    -0.033 C 
ATOM     40  H   LIG d   1       3.465  -5.469  -9.232  0.00  0.00     0.028 H 
ATOM     41  H   LIG d   1       1.795  -5.762  -9.774  0.00  0.00     0.028 H 
ATOM     42  H   LIG d   1       3.085  -5.498 -10.972  0.00  0.00     0.028 H 
ENDBRANCH  12  39
BRANCH   6  43
ATOM     43  C   LIG d   1       3.270   0.776  -7.966  0.00  0.00    -0.038 C 
ATOM     44  H   LIG d   1       3.758   1.261  -8.810  0.00  0.00     0.028 H 
ATOM     45  H   LIG d   1       2.197   0.967  -8.008  0.00  0.00     0.028 H 
ATOM     46  H   LIG d   1       3.673   1.174  -7.034  0.00  0.00     0.028 H 
ENDBRANCH   6  43
BRANCH   7  47
ATOM     47  C   LIG d   1       5.129  -0.496  -6.145  0.00  0.00     0.005 C 
ATOM     48  H   LIG d   1       6.188  -0.755  -6.167  0.00  0.00     0.036 H 
ATOM     49  H   LIG d   1       5.010   0.565  -6.368  0.00  0.00     0.036 H 
BRANCH  47  50
ATOM     50  C   LIG d   1       4.569  -0.787  -4.777  0.00  0.00    -0.043 A 
ATOM     51  C   LIG d   1       3.254  -0.472  -4.487  0.00  0.00    -0.058 A 
ATOM     52  C   LIG d   1       2.740  -0.738  -3.232  0.00  0.00    -0.061 A 
ATOM     53  H   LIG d   1       2.629  -0.016  -5.241  0.00  0.00     0.062 H 
ATOM     54  C   LIG d   1       3.540  -1.322  -2.267  0.00  0.00    -0.062 A 
ATOM     55  H   LIG d   1       1.714  -0.492  -3.005  0.00  0.00     0.062 H 
ATOM     56  C   LIG d   1       4.854  -1.638  -2.557  0.00  0.00    -0.061 A 
ATOM     57  H   LIG d   1       3.138  -1.530  -1.286  0.00  0.00     0.062 H 
ATOM     58  C   LIG d   1       5.366  -1.375  -3.814  0.00  0.00    -0.058 A 
ATOM     59  H   LIG d   1       5.479  -2.094  -1.804  0.00  0.00     0.062 H 
ATOM     60  H   LIG d   1       6.392  -1.626  -4.042  0.00  0.00     0.062 H 
ENDBRANCH  47  50
ENDBRANCH   7  47
TORSDOF 8
ENDMDL
