MODEL 1
REMARK VINA RESULT:      -6.1      0.000      0.000
REMARK  14 active torsions:
REMARK  status: ('A' for Active; 'I' for Inactive)
REMARK    1  A    between atoms: C_1  and  C_2 
REMARK    2  A    between atoms: C_2  and  C_4 
REMARK    3  A    between atoms: C_2  and  N_62 
REMARK    4  A    between atoms: C_4  and  N_60 
REMARK    5  A    between atoms: C_5  and  C_6 
REMARK    6  A    between atoms: C_5  and  C_17 
REMARK    7  A    between atoms: C_5  and  N_60 
REMARK    8  A    between atoms: C_11  and  C_12 
REMARK    9  A    between atoms: C_11  and  C_13 
REMARK   10  A    between atoms: C_18  and  C_19 
REMARK   11  A    between atoms: C_18  and  C_30 
REMARK   12  A    between atoms: C_18  and  N_62 
REMARK   13  A    between atoms: C_24  and  C_25 
REMARK   14  A    between atoms: C_24  and  C_26 
ROOT
ATOM      1  C   LIG d   1       8.658  -0.172  -5.838  0.00  0.00     0.208 C 
ATOM      2  H   LIG d   1       8.300   0.536  -5.091  0.00  0.00     0.113 H 
ENDROOT
BRANCH   1   3
ATOM      3  C   LIG d   1      10.169  -0.354  -5.686  0.00  0.00     0.004 C 
ATOM      4  H   LIG d   1      10.485  -1.240  -6.239  0.00  0.00     0.030 H 
ATOM      5  H   LIG d   1      10.681   0.523  -6.081  0.00  0.00     0.030 H 
ATOM      6  H   LIG d   1      10.417  -0.476  -4.631  0.00  0.00     0.030 H 
ENDBRANCH   1   3
BRANCH   1   7
ATOM      7  C   LIG d   1       8.346   0.363  -7.237  0.00  0.00     0.204 C 
ATOM      8  H   LIG d   1       8.967   1.236  -7.439  0.00  0.00     0.109 H 
ATOM      9  H   LIG d   1       8.555  -0.411  -7.977  0.00  0.00     0.109 H 
BRANCH   7  10
ATOM     10  N   LIG d   1       6.889   0.733  -7.255  0.00  0.00    -0.242 N 
ATOM     11  H   LIG d   1       6.518   1.393  -6.561  0.00  0.00     0.445 HD
BRANCH  10  12
ATOM     12  C   LIG d   1       6.038   0.178  -8.217  0.00  0.00     0.161 C 
BRANCH  12  13
ATOM     13  C   LIG d   1       4.965   0.914  -8.600  0.00  0.00     0.101 A 
ATOM     14  C   LIG d   1       5.031   2.206  -9.122  0.00  0.00     0.147 A 
ATOM     15  C   LIG d   1       3.648   2.712  -9.440  0.00  0.00     0.010 A 
ATOM     16  O   LIG d   1       6.057   2.832  -9.299  0.00  0.00    -0.296 OA
ATOM     17  C   LIG d   1       2.663   1.599  -9.057  0.00  0.00    -0.025 A 
ATOM     18  H   LIG d   1       3.557   2.916 -10.414  0.00  0.00     0.035 H 
ATOM     19  H   LIG d   1       3.439   3.610  -8.857  0.00  0.00     0.035 H 
ATOM     20  C   LIG d   1       3.534   0.454  -8.516  0.00  0.00    -0.013 A 
ATOM     21  H   LIG d   1       1.733   1.886  -8.567  0.00  0.00     0.031 H 
ATOM     22  C   LIG d   1       2.741   0.248  -9.808  0.00  0.00    -0.027 A 
ATOM     23  H   LIG d   1       3.240  -0.095  -7.622  0.00  0.00     0.032 H 
ATOM     24  H   LIG d   1       4.768   0.737  -9.564  0.00  0.00     0.049 H 
BRANCH  22  25
ATOM     25  C   LIG d   1       3.528   0.203 -11.119  0.00  0.00    -0.059 C 
ATOM     26  H   LIG d   1       3.242  -0.683 -11.684  0.00  0.00     0.024 H 
ATOM     27  H   LIG d   1       3.307   1.095 -11.705  0.00  0.00     0.024 H 
ATOM     28  H   LIG d   1       4.596   0.168 -10.901  0.00  0.00     0.024 H 
ENDBRANCH  22  25
BRANCH  22  29
ATOM     29  C   LIG d   1       1.512  -0.661  -9.744  0.00  0.00    -0.059 C 
ATOM     30  H   LIG d   1       1.347  -1.119 -10.719  0.00  0.00     0.024 H 
ATOM     31  H   LIG d   1       1.676  -1.440  -9.000  0.00  0.00     0.024 H 
ATOM     32  H   LIG d   1       0.638  -0.072  -9.466  0.00  0.00     0.024 H 
ENDBRANCH  22  29
ENDBRANCH  12  13
BRANCH  12  33
ATOM     33  C   LIG d   1       6.274  -1.182  -8.822  0.00  0.00     0.017 C 
ATOM     34  H   LIG d   1       5.468  -1.855  -8.528  0.00  0.00     0.033 H 
ATOM     35  H   LIG d   1       6.298  -1.097  -9.908  0.00  0.00     0.033 H 
ATOM     36  H   LIG d   1       7.146  -1.545  -8.496  0.00  0.00     0.033 H 
ENDBRANCH  12  33
ENDBRANCH  10  12
ENDBRANCH   7  10
ENDBRANCH   1   7
BRANCH   1  37
ATOM     37  N   LIG d   1       7.972  -1.503  -5.705  0.00  0.00    -0.240 N 
ATOM     38  H   LIG d   1       8.088  -2.216  -6.435  0.00  0.00     0.445 HD
BRANCH  37  39
ATOM     39  C   LIG d   1       7.176  -1.772  -4.586  0.00  0.00     0.161 C 
BRANCH  39  40
ATOM     40  C   LIG d   1       5.938  -1.223  -4.554  0.00  0.00     0.101 A 
ATOM     41  C   LIG d   1       4.836  -1.700  -5.265  0.00  0.00     0.147 A 
ATOM     42  C   LIG d   1       3.626  -0.847  -4.988  0.00  0.00     0.010 A 
ATOM     43  O   LIG d   1       4.850  -2.665  -6.003  0.00  0.00    -0.296 OA
ATOM     44  C   LIG d   1       4.066   0.253  -4.011  0.00  0.00    -0.025 A 
ATOM     45  H   LIG d   1       2.894  -1.387  -4.573  0.00  0.00     0.035 H 
ATOM     46  H   LIG d   1       3.270  -0.399  -5.916  0.00  0.00     0.035 H 
ATOM     47  C   LIG d   1       5.557  -0.008  -3.750  0.00  0.00    -0.013 A 
ATOM     48  H   LIG d   1       3.684   1.262  -4.173  0.00  0.00     0.031 H 
ATOM     49  C   LIG d   1       4.556  -0.158  -2.603  0.00  0.00    -0.027 A 
ATOM     50  H   LIG d   1       6.270   0.814  -3.723  0.00  0.00     0.032 H 
ATOM     51  H   LIG d   1       5.405  -1.643  -3.818  0.00  0.00     0.049 H 
BRANCH  49  52
ATOM     52  C   LIG d   1       4.241  -1.576  -2.121  0.00  0.00    -0.059 C 
ATOM     53  H   LIG d   1       3.271  -1.884  -2.508  0.00  0.00     0.024 H 
ATOM     54  H   LIG d   1       5.010  -2.260  -2.479  0.00  0.00     0.024 H 
ATOM     55  H   LIG d   1       4.219  -1.592  -1.032  0.00  0.00     0.024 H 
ENDBRANCH  49  52
BRANCH  49  56
ATOM     56  C   LIG d   1       4.559   0.922  -1.518  0.00  0.00    -0.059 C 
ATOM     57  H   LIG d   1       3.737   1.615  -1.695  0.00  0.00     0.024 H 
ATOM     58  H   LIG d   1       4.436   0.455  -0.541  0.00  0.00     0.024 H 
ATOM     59  H   LIG d   1       5.504   1.462  -1.547  0.00  0.00     0.024 H 
ENDBRANCH  49  56
ENDBRANCH  39  40
BRANCH  39  60
ATOM     60  C   LIG d   1       7.647  -2.635  -3.443  0.00  0.00     0.017 C 
ATOM     61  H   LIG d   1       7.383  -2.162  -2.498  0.00  0.00     0.033 H 
ATOM     62  H   LIG d   1       7.170  -3.613  -3.505  0.00  0.00     0.033 H 
ATOM     63  H   LIG d   1       8.640  -2.745  -3.496  0.00  0.00     0.033 H 
ENDBRANCH  39  60
ENDBRANCH  37  39
ENDBRANCH   1  37
TORSDOF 14
ENDMDL
MODEL 2
REMARK VINA RESULT:      -6.1      1.216      5.939
REMARK  14 active torsions:
REMARK  status: ('A' for Active; 'I' for Inactive)
REMARK    1  A    between atoms: C_1  and  C_2 
REMARK    2  A    between atoms: C_2  and  C_4 
REMARK    3  A    between atoms: C_2  and  N_62 
REMARK    4  A    between atoms: C_4  and  N_60 
REMARK    5  A    between atoms: C_5  and  C_6 
REMARK    6  A    between atoms: C_5  and  C_17 
REMARK    7  A    between atoms: C_5  and  N_60 
REMARK    8  A    between atoms: C_11  and  C_12 
REMARK    9  A    between atoms: C_11  and  C_13 
REMARK   10  A    between atoms: C_18  and  C_19 
REMARK   11  A    between atoms: C_18  and  C_30 
REMARK   12  A    between atoms: C_18  and  N_62 
REMARK   13  A    between atoms: C_24  and  C_25 
REMARK   14  A    between atoms: C_24  and  C_26 
ROOT
ATOM      1  C   LIG d   1       8.341   0.415  -7.022  0.00  0.00     0.208 C 
ATOM      2  H   LIG d   1       8.320  -0.674  -7.024  0.00  0.00     0.113 H 
ENDROOT
BRANCH   1   3
ATOM      3  C   LIG d   1       9.256   0.911  -8.143  0.00  0.00     0.004 C 
ATOM      4  H   LIG d   1      10.297   0.796  -7.840  0.00  0.00     0.030 H 
ATOM      5  H   LIG d   1       9.073   0.326  -9.045  0.00  0.00     0.030 H 
ATOM      6  H   LIG d   1       9.049   1.962  -8.343  0.00  0.00     0.030 H 
ENDBRANCH   1   3
BRANCH   1   7
ATOM      7  C   LIG d   1       8.871   0.911  -5.675  0.00  0.00     0.204 C 
ATOM      8  H   LIG d   1       9.960   0.952  -5.705  0.00  0.00     0.109 H 
ATOM      9  H   LIG d   1       8.476   1.908  -5.473  0.00  0.00     0.109 H 
BRANCH   7  10
ATOM     10  N   LIG d   1       8.406  -0.065  -4.630  0.00  0.00    -0.242 N 
ATOM     11  H   LIG d   1       9.013  -0.843  -4.347  0.00  0.00     0.445 HD
BRANCH  10  12
ATOM     12  C   LIG d   1       7.144   0.086  -4.043  0.00  0.00     0.161 C 
BRANCH  12  13
ATOM     13  C   LIG d   1       6.270  -0.942  -4.171  0.00  0.00     0.101 A 
ATOM     14  C   LIG d   1       6.616  -2.293  -4.127  0.00  0.00     0.147 A 
ATOM     15  C   LIG d   1       5.392  -3.153  -4.299  0.00  0.00     0.010 A 
ATOM     16  O   LIG d   1       7.745  -2.716  -3.968  0.00  0.00    -0.296 OA
ATOM     17  C   LIG d   1       4.197  -2.204  -4.469  0.00  0.00    -0.025 A 
ATOM     18  H   LIG d   1       5.246  -3.732  -3.497  0.00  0.00     0.035 H 
ATOM     19  H   LIG d   1       5.499  -3.778  -5.186  0.00  0.00     0.035 H 
ATOM     20  C   LIG d   1       4.788  -0.788  -4.387  0.00  0.00    -0.013 A 
ATOM     21  H   LIG d   1       3.441  -2.463  -5.210  0.00  0.00     0.031 H 
ATOM     22  C   LIG d   1       3.823  -1.264  -3.298  0.00  0.00    -0.027 A 
ATOM     23  H   LIG d   1       4.464  -0.008  -5.075  0.00  0.00     0.032 H 
ATOM     24  H   LIG d   1       5.921  -1.196  -3.268  0.00  0.00     0.049 H 
BRANCH  22  25
ATOM     25  C   LIG d   1       4.411  -1.570  -1.919  0.00  0.00    -0.059 C 
ATOM     26  H   LIG d   1       5.485  -1.393  -1.935  0.00  0.00     0.024 H 
ATOM     27  H   LIG d   1       3.946  -0.923  -1.176  0.00  0.00     0.024 H 
ATOM     28  H   LIG d   1       4.218  -2.613  -1.665  0.00  0.00     0.024 H 
ENDBRANCH  22  25
BRANCH  22  29
ATOM     29  C   LIG d   1       2.413  -0.672  -3.298  0.00  0.00    -0.059 C 
ATOM     30  H   LIG d   1       1.683  -1.470  -3.156  0.00  0.00     0.024 H 
ATOM     31  H   LIG d   1       2.322   0.051  -2.487  0.00  0.00     0.024 H 
ATOM     32  H   LIG d   1       2.227  -0.175  -4.250  0.00  0.00     0.024 H 
ENDBRANCH  22  29
ENDBRANCH  12  13
BRANCH  12  33
ATOM     33  C   LIG d   1       6.740   1.330  -3.294  0.00  0.00     0.017 C 
ATOM     34  H   LIG d   1       6.181   1.051  -2.401  0.00  0.00     0.033 H 
ATOM     35  H   LIG d   1       7.633   1.886  -3.006  0.00  0.00     0.033 H 
ATOM     36  H   LIG d   1       6.167   1.901  -3.881  0.00  0.00     0.033 H 
ENDBRANCH  12  33
ENDBRANCH  10  12
ENDBRANCH   7  10
ENDBRANCH   1   7
BRANCH   1  37
ATOM     37  N   LIG d   1       6.964   0.991  -7.200  0.00  0.00    -0.240 N 
ATOM     38  H   LIG d   1       6.754   1.935  -6.855  0.00  0.00     0.445 HD
BRANCH  37  39
ATOM     39  C   LIG d   1       5.968   0.242  -7.837  0.00  0.00     0.161 C 
BRANCH  39  40
ATOM     40  C   LIG d   1       4.946   0.923  -8.409  0.00  0.00     0.101 A 
ATOM     41  C   LIG d   1       5.079   2.124  -9.107  0.00  0.00     0.147 A 
ATOM     42  C   LIG d   1       3.737   2.590  -9.606  0.00  0.00     0.010 A 
ATOM     43  O   LIG d   1       6.128   2.711  -9.285  0.00  0.00    -0.296 OA
ATOM     44  C   LIG d   1       2.701   1.552  -9.149  0.00  0.00    -0.025 A 
ATOM     45  H   LIG d   1       3.727   2.653 -10.604  0.00  0.00     0.035 H 
ATOM     46  H   LIG d   1       3.501   3.564  -9.176  0.00  0.00     0.035 H 
ATOM     47  C   LIG d   1       3.503   0.492  -8.379  0.00  0.00    -0.013 A 
ATOM     48  H   LIG d   1       1.741   1.916  -8.784  0.00  0.00     0.031 H 
ATOM     49  C   LIG d   1       2.813   0.107  -9.689  0.00  0.00    -0.027 A 
ATOM     50  H   LIG d   1       3.127   0.080  -7.444  0.00  0.00     0.032 H 
ATOM     51  H   LIG d   1       4.822   0.610  -9.352  0.00  0.00     0.049 H 
BRANCH  49  52
ATOM     52  C   LIG d   1       3.701  -0.134 -10.911  0.00  0.00    -0.059 C 
ATOM     53  H   LIG d   1       3.989   0.822 -11.345  0.00  0.00     0.024 H 
ATOM     54  H   LIG d   1       4.594  -0.681 -10.608  0.00  0.00     0.024 H 
ATOM     55  H   LIG d   1       3.151  -0.717 -11.649  0.00  0.00     0.024 H 
ENDBRANCH  49  52
BRANCH  49  56
ATOM     56  C   LIG d   1       1.565  -0.773  -9.596  0.00  0.00    -0.059 C 
ATOM     57  H   LIG d   1       1.104  -0.649  -8.617  0.00  0.00     0.024 H 
ATOM     58  H   LIG d   1       0.855  -0.481 -10.371  0.00  0.00     0.024 H 
ATOM     59  H   LIG d   1       1.845  -1.817  -9.737  0.00  0.00     0.024 H 
ENDBRANCH  49  56
ENDBRANCH  39  40
BRANCH  39  60
ATOM     60  C   LIG d   1       6.002  -1.263  -7.903  0.00  0.00     0.017 C 
ATOM     61  H   LIG d   1       7.013  -1.594  -8.137  0.00  0.00     0.033 H 
ATOM     62  H   LIG d   1       5.700  -1.675  -6.940  0.00  0.00     0.033 H 
ATOM     63  H   LIG d   1       5.373  -1.580  -8.612  0.00  0.00     0.033 H 
ENDBRANCH  39  60
ENDBRANCH  37  39
ENDBRANCH   1  37
TORSDOF 14
ENDMDL
MODEL 3
REMARK VINA RESULT:      -6.0      1.203      1.660
REMARK  14 active torsions:
REMARK  status: ('A' for Active; 'I' for Inactive)
REMARK    1  A    between atoms: C_1  and  C_2 
REMARK    2  A    between atoms: C_2  and  C_4 
REMARK    3  A    between atoms: C_2  and  N_62 
REMARK    4  A    between atoms: C_4  and  N_60 
REMARK    5  A    between atoms: C_5  and  C_6 
REMARK    6  A    between atoms: C_5  and  C_17 
REMARK    7  A    between atoms: C_5  and  N_60 
REMARK    8  A    between atoms: C_11  and  C_12 
REMARK    9  A    between atoms: C_11  and  C_13 
REMARK   10  A    between atoms: C_18  and  C_19 
REMARK   11  A    between atoms: C_18  and  C_30 
REMARK   12  A    between atoms: C_18  and  N_62 
REMARK   13  A    between atoms: C_24  and  C_25 
REMARK   14  A    between atoms: C_24  and  C_26 
ROOT
ATOM      1  C   LIG d   1       8.881   0.841  -5.692  0.00  0.00     0.208 C 
ATOM      2  H   LIG d   1       8.510   1.852  -5.529  0.00  0.00     0.113 H 
ENDROOT
BRANCH   1   3
ATOM      3  C   LIG d   1      10.410   0.857  -5.728  0.00  0.00     0.004 C 
ATOM      4  H   LIG d   1      10.788  -0.146  -5.525  0.00  0.00     0.030 H 
ATOM      5  H   LIG d   1      10.746   1.180  -6.713  0.00  0.00     0.030 H 
ATOM      6  H   LIG d   1      10.784   1.546  -4.971  0.00  0.00     0.030 H 
ENDBRANCH   1   3
BRANCH   1   7
ATOM      7  C   LIG d   1       8.345   0.312  -7.025  0.00  0.00     0.204 C 
ATOM      8  H   LIG d   1       9.030   0.588  -7.826  0.00  0.00     0.109 H 
ATOM      9  H   LIG d   1       8.260  -0.774  -6.977  0.00  0.00     0.109 H 
BRANCH   7  10
ATOM     10  N   LIG d   1       6.996   0.941  -7.240  0.00  0.00    -0.242 N 
ATOM     11  H   LIG d   1       6.826   1.907  -6.938  0.00  0.00     0.445 HD
BRANCH  10  12
ATOM     12  C   LIG d   1       5.972   0.208  -7.851  0.00  0.00     0.161 C 
BRANCH  12  13
ATOM     13  C   LIG d   1       4.954   0.906  -8.411  0.00  0.00     0.101 A 
ATOM     14  C   LIG d   1       5.097   2.115  -9.093  0.00  0.00     0.147 A 
ATOM     15  C   LIG d   1       3.758   2.600  -9.582  0.00  0.00     0.010 A 
ATOM     16  O   LIG d   1       6.152   2.692  -9.270  0.00  0.00    -0.296 OA
ATOM     17  C   LIG d   1       2.714   1.568  -9.134  0.00  0.00    -0.025 A 
ATOM     18  H   LIG d   1       3.746   2.674 -10.579  0.00  0.00     0.035 H 
ATOM     19  H   LIG d   1       3.532   3.573  -9.142  0.00  0.00     0.035 H 
ATOM     20  C   LIG d   1       3.507   0.490  -8.380  0.00  0.00    -0.013 A 
ATOM     21  H   LIG d   1       1.759   1.936  -8.761  0.00  0.00     0.031 H 
ATOM     22  C   LIG d   1       2.808   0.128  -9.691  0.00  0.00    -0.027 A 
ATOM     23  H   LIG d   1       3.131   0.071  -7.447  0.00  0.00     0.032 H 
ATOM     24  H   LIG d   1       4.825   0.605  -9.356  0.00  0.00     0.049 H 
BRANCH  22  25
ATOM     25  C   LIG d   1       3.689  -0.108 -10.919  0.00  0.00    -0.059 C 
ATOM     26  H   LIG d   1       4.179   0.824 -11.199  0.00  0.00     0.024 H 
ATOM     27  H   LIG d   1       4.443  -0.859 -10.685  0.00  0.00     0.024 H 
ATOM     28  H   LIG d   1       3.073  -0.458 -11.748  0.00  0.00     0.024 H 
ENDBRANCH  22  25
BRANCH  22  29
ATOM     29  C   LIG d   1       1.551  -0.741  -9.604  0.00  0.00    -0.059 C 
ATOM     30  H   LIG d   1       1.839  -1.782  -9.455  0.00  0.00     0.024 H 
ATOM     31  H   LIG d   1       0.939  -0.410  -8.765  0.00  0.00     0.024 H 
ATOM     32  H   LIG d   1       0.982  -0.649 -10.528  0.00  0.00     0.024 H 
ENDBRANCH  22  29
ENDBRANCH  12  13
BRANCH  12  33
ATOM     33  C   LIG d   1       5.971  -1.299  -7.901  0.00  0.00     0.017 C 
ATOM     34  H   LIG d   1       6.177  -1.628  -8.920  0.00  0.00     0.033 H 
ATOM     35  H   LIG d   1       6.739  -1.685  -7.232  0.00  0.00     0.033 H 
ATOM     36  H   LIG d   1       5.076  -1.641  -7.616  0.00  0.00     0.033 H 
ENDBRANCH  12  33
ENDBRANCH  10  12
ENDBRANCH   7  10
ENDBRANCH   1   7
BRANCH   1  37
ATOM     37  N   LIG d   1       8.409  -0.098  -4.617  0.00  0.00    -0.240 N 
ATOM     38  H   LIG d   1       9.017  -0.863  -4.300  0.00  0.00     0.445 HD
BRANCH  37  39
ATOM     39  C   LIG d   1       7.143   0.071  -4.046  0.00  0.00     0.161 C 
BRANCH  39  40
ATOM     40  C   LIG d   1       6.261  -0.950  -4.172  0.00  0.00     0.101 A 
ATOM     41  C   LIG d   1       6.596  -2.304  -4.127  0.00  0.00     0.147 A 
ATOM     42  C   LIG d   1       5.365  -3.153  -4.298  0.00  0.00     0.010 A 
ATOM     43  O   LIG d   1       7.721  -2.736  -3.970  0.00  0.00    -0.296 OA
ATOM     44  C   LIG d   1       4.177  -2.194  -4.467  0.00  0.00    -0.025 A 
ATOM     45  H   LIG d   1       5.214  -3.733  -3.497  0.00  0.00     0.035 H 
ATOM     46  H   LIG d   1       5.468  -3.777  -5.187  0.00  0.00     0.035 H 
ATOM     47  C   LIG d   1       4.779  -0.784  -4.386  0.00  0.00    -0.013 A 
ATOM     48  H   LIG d   1       3.418  -2.448  -5.208  0.00  0.00     0.031 H 
ATOM     49  C   LIG d   1       3.812  -1.252  -3.297  0.00  0.00    -0.027 A 
ATOM     50  H   LIG d   1       4.460  -0.002  -5.073  0.00  0.00     0.032 H 
ATOM     51  H   LIG d   1       5.910  -1.201  -3.269  0.00  0.00     0.049 H 
BRANCH  49  52
ATOM     52  C   LIG d   1       4.399  -1.563  -1.918  0.00  0.00    -0.059 C 
ATOM     53  H   LIG d   1       4.395  -2.640  -1.756  0.00  0.00     0.024 H 
ATOM     54  H   LIG d   1       5.422  -1.190  -1.866  0.00  0.00     0.024 H 
ATOM     55  H   LIG d   1       3.796  -1.079  -1.150  0.00  0.00     0.024 H 
ENDBRANCH  49  52
BRANCH  49  56
ATOM     56  C   LIG d   1       2.406  -0.648  -3.295  0.00  0.00    -0.059 C 
ATOM     57  H   LIG d   1       2.357   0.162  -4.021  0.00  0.00     0.024 H 
ATOM     58  H   LIG d   1       1.680  -1.417  -3.559  0.00  0.00     0.024 H 
ATOM     59  H   LIG d   1       2.179  -0.261  -2.302  0.00  0.00     0.024 H 
ENDBRANCH  49  56
ENDBRANCH  39  40
BRANCH  39  60
ATOM     60  C   LIG d   1       6.744   1.326  -3.313  0.00  0.00     0.017 C 
ATOM     61  H   LIG d   1       7.483   2.104  -3.497  0.00  0.00     0.033 H 
ATOM     62  H   LIG d   1       5.769   1.660  -3.669  0.00  0.00     0.033 H 
ATOM     63  H   LIG d   1       6.694   1.138  -2.332  0.00  0.00     0.033 H 
ENDBRANCH  39  60
ENDBRANCH  37  39
ENDBRANCH   1  37
TORSDOF 14
ENDMDL
MODEL 4
REMARK VINA RESULT:      -5.6      1.845      6.315
REMARK  14 active torsions:
REMARK  status: ('A' for Active; 'I' for Inactive)
REMARK    1  A    between atoms: C_1  and  C_2 
REMARK    2  A    between atoms: C_2  and  C_4 
REMARK    3  A    between atoms: C_2  and  N_62 
REMARK    4  A    between atoms: C_4  and  N_60 
REMARK    5  A    between atoms: C_5  and  C_6 
REMARK    6  A    between atoms: C_5  and  C_17 
REMARK    7  A    between atoms: C_5  and  N_60 
REMARK    8  A    between atoms: C_11  and  C_12 
REMARK    9  A    between atoms: C_11  and  C_13 
REMARK   10  A    between atoms: C_18  and  C_19 
REMARK   11  A    between atoms: C_18  and  C_30 
REMARK   12  A    between atoms: C_18  and  N_62 
REMARK   13  A    between atoms: C_24  and  C_25 
REMARK   14  A    between atoms: C_24  and  C_26 
ROOT
ATOM      1  C   LIG d   1       6.882   0.908  -8.146  0.00  0.00     0.208 C 
ATOM      2  H   LIG d   1       6.965  -0.052  -8.655  0.00  0.00     0.113 H 
ENDROOT
BRANCH   1   3
ATOM      3  C   LIG d   1       7.576   1.988  -8.979  0.00  0.00     0.004 C 
ATOM      4  H   LIG d   1       7.139   2.961  -8.747  0.00  0.00     0.030 H 
ATOM      5  H   LIG d   1       8.640   2.001  -8.742  0.00  0.00     0.030 H 
ATOM      6  H   LIG d   1       7.442   1.772 -10.039  0.00  0.00     0.030 H 
ENDBRANCH   1   3
BRANCH   1   7
ATOM      7  C   LIG d   1       7.551   0.815  -6.773  0.00  0.00     0.204 C 
ATOM      8  H   LIG d   1       8.334   0.058  -6.801  0.00  0.00     0.109 H 
ATOM      9  H   LIG d   1       7.987   1.781  -6.515  0.00  0.00     0.109 H 
BRANCH   7  10
ATOM     10  N   LIG d   1       6.481   0.436  -5.786  0.00  0.00    -0.242 N 
ATOM     11  H   LIG d   1       5.510   0.731  -5.942  0.00  0.00     0.445 HD
BRANCH  10  12
ATOM     12  C   LIG d   1       6.810  -0.317  -4.653  0.00  0.00     0.161 C 
BRANCH  12  13
ATOM     13  C   LIG d   1       6.052  -0.139  -3.544  0.00  0.00     0.101 A 
ATOM     14  C   LIG d   1       5.708   1.101  -3.004  0.00  0.00     0.147 A 
ATOM     15  C   LIG d   1       4.855   0.918  -1.777  0.00  0.00     0.010 A 
ATOM     16  O   LIG d   1       6.047   2.175  -3.460  0.00  0.00    -0.296 OA
ATOM     17  C   LIG d   1       4.682  -0.593  -1.570  0.00  0.00    -0.025 A 
ATOM     18  H   LIG d   1       3.957   1.342  -1.899  0.00  0.00     0.035 H 
ATOM     19  H   LIG d   1       5.351   1.358  -0.910  0.00  0.00     0.035 H 
ATOM     20  C   LIG d   1       5.464  -1.251  -2.717  0.00  0.00    -0.013 A 
ATOM     21  H   LIG d   1       4.734  -0.978  -0.552  0.00  0.00     0.031 H 
ATOM     22  C   LIG d   1       3.943  -1.411  -2.655  0.00  0.00    -0.027 A 
ATOM     23  H   LIG d   1       6.094  -2.121  -2.534  0.00  0.00     0.032 H 
ATOM     24  H   LIG d   1       5.088  -0.080  -3.806  0.00  0.00     0.049 H 
BRANCH  22  25
ATOM     25  C   LIG d   1       3.112  -0.645  -3.686  0.00  0.00    -0.059 C 
ATOM     26  H   LIG d   1       3.659  -0.589  -4.626  0.00  0.00     0.024 H 
ATOM     27  H   LIG d   1       2.166  -1.164  -3.846  0.00  0.00     0.024 H 
ATOM     28  H   LIG d   1       2.915   0.363  -3.318  0.00  0.00     0.024 H 
ENDBRANCH  22  25
BRANCH  22  29
ATOM     29  C   LIG d   1       3.394  -2.780  -2.249  0.00  0.00    -0.059 C 
ATOM     30  H   LIG d   1       3.626  -2.968  -1.200  0.00  0.00     0.024 H 
ATOM     31  H   LIG d   1       2.313  -2.793  -2.389  0.00  0.00     0.024 H 
ATOM     32  H   LIG d   1       3.850  -3.553  -2.867  0.00  0.00     0.024 H 
ENDBRANCH  22  29
ENDBRANCH  12  13
BRANCH  12  33
ATOM     33  C   LIG d   1       7.956  -1.296  -4.634  0.00  0.00     0.017 C 
ATOM     34  H   LIG d   1       8.231  -1.554  -5.657  0.00  0.00     0.033 H 
ATOM     35  H   LIG d   1       8.811  -0.844  -4.131  0.00  0.00     0.033 H 
ATOM     36  H   LIG d   1       7.681  -2.122  -4.144  0.00  0.00     0.033 H 
ENDBRANCH  12  33
ENDBRANCH  10  12
ENDBRANCH   7  10
ENDBRANCH   1   7
BRANCH   1  37
ATOM     37  N   LIG d   1       5.446   1.288  -7.920  0.00  0.00    -0.240 N 
ATOM     38  H   LIG d   1       5.160   1.705  -7.026  0.00  0.00     0.445 HD
BRANCH  37  39
ATOM     39  C   LIG d   1       4.498   1.074  -8.927  0.00  0.00     0.161 C 
BRANCH  39  40
ATOM     40  C   LIG d   1       4.113  -0.203  -9.161  0.00  0.00     0.101 A 
ATOM     41  C   LIG d   1       3.858  -1.153  -8.171  0.00  0.00     0.147 A 
ATOM     42  C   LIG d   1       3.451  -2.462  -8.795  0.00  0.00     0.010 A 
ATOM     43  O   LIG d   1       3.950  -0.953  -6.976  0.00  0.00    -0.296 OA
ATOM     44  C   LIG d   1       3.474  -2.261 -10.318  0.00  0.00    -0.025 A 
ATOM     45  H   LIG d   1       2.530  -2.725  -8.508  0.00  0.00     0.035 H 
ATOM     46  H   LIG d   1       4.159  -3.241  -8.513  0.00  0.00     0.035 H 
ATOM     47  C   LIG d   1       3.907  -0.802 -10.527  0.00  0.00    -0.013 A 
ATOM     48  H   LIG d   1       3.874  -3.067 -10.932  0.00  0.00     0.031 H 
ATOM     49  C   LIG d   1       2.501  -1.236 -10.945  0.00  0.00    -0.027 A 
ATOM     50  H   LIG d   1       4.629  -0.541 -11.299  0.00  0.00     0.032 H 
ATOM     51  H   LIG d   1       3.115  -0.250  -9.197  0.00  0.00     0.049 H 
BRANCH  49  52
ATOM     52  C   LIG d   1       1.328  -0.748 -10.092  0.00  0.00    -0.059 C 
ATOM     53  H   LIG d   1       0.703  -1.596  -9.814  0.00  0.00     0.024 H 
ATOM     54  H   LIG d   1       1.709  -0.265  -9.193  0.00  0.00     0.024 H 
ATOM     55  H   LIG d   1       0.736  -0.034 -10.664  0.00  0.00     0.024 H 
ENDBRANCH  49  52
BRANCH  49  56
ATOM     56  C   LIG d   1       2.218  -1.365 -12.443  0.00  0.00    -0.059 C 
ATOM     57  H   LIG d   1       1.149  -1.252 -12.622  0.00  0.00     0.024 H 
ATOM     58  H   LIG d   1       2.760  -0.589 -12.984  0.00  0.00     0.024 H 
ATOM     59  H   LIG d   1       2.543  -2.345 -12.791  0.00  0.00     0.024 H 
ENDBRANCH  49  56
ENDBRANCH  39  40
BRANCH  39  60
ATOM     60  C   LIG d   1       3.908   2.200  -9.738  0.00  0.00     0.017 C 
ATOM     61  H   LIG d   1       3.307   1.787 -10.547  0.00  0.00     0.033 H 
ATOM     62  H   LIG d   1       3.278   2.817  -9.097  0.00  0.00     0.033 H 
ATOM     63  H   LIG d   1       4.644   2.758 -10.118  0.00  0.00     0.033 H 
ENDBRANCH  39  60
ENDBRANCH  37  39
ENDBRANCH   1  37
TORSDOF 14
ENDMDL
MODEL 5
REMARK VINA RESULT:      -5.4      2.921      6.202
REMARK  14 active torsions:
REMARK  status: ('A' for Active; 'I' for Inactive)
REMARK    1  A    between atoms: C_1  and  C_2 
REMARK    2  A    between atoms: C_2  and  C_4 
REMARK    3  A    between atoms: C_2  and  N_62 
REMARK    4  A    between atoms: C_4  and  N_60 
REMARK    5  A    between atoms: C_5  and  C_6 
REMARK    6  A    between atoms: C_5  and  C_17 
REMARK    7  A    between atoms: C_5  and  N_60 
REMARK    8  A    between atoms: C_11  and  C_12 
REMARK    9  A    between atoms: C_11  and  C_13 
REMARK   10  A    between atoms: C_18  and  C_19 
REMARK   11  A    between atoms: C_18  and  C_30 
REMARK   12  A    between atoms: C_18  and  N_62 
REMARK   13  A    between atoms: C_24  and  C_25 
REMARK   14  A    between atoms: C_24  and  C_26 
ROOT
ATOM      1  C   LIG d   1       7.150  -0.137  -7.240  0.00  0.00     0.208 C 
ATOM      2  H   LIG d   1       7.834  -0.021  -8.079  0.00  0.00     0.113 H 
ENDROOT
BRANCH   1   3
ATOM      3  C   LIG d   1       7.449  -1.449  -6.513  0.00  0.00     0.004 C 
ATOM      4  H   LIG d   1       8.412  -1.372  -6.006  0.00  0.00     0.030 H 
ATOM      5  H   LIG d   1       6.666  -1.643  -5.779  0.00  0.00     0.030 H 
ATOM      6  H   LIG d   1       7.482  -2.265  -7.234  0.00  0.00     0.030 H 
ENDBRANCH   1   3
BRANCH   1   7
ATOM      7  C   LIG d   1       5.709  -0.157  -7.757  0.00  0.00     0.204 C 
ATOM      8  H   LIG d   1       5.285   0.845  -7.689  0.00  0.00     0.109 H 
ATOM      9  H   LIG d   1       5.701  -0.485  -8.797  0.00  0.00     0.109 H 
BRANCH   7  10
ATOM     10  N   LIG d   1       4.942  -1.117  -6.891  0.00  0.00    -0.242 N 
ATOM     11  H   LIG d   1       5.161  -2.120  -6.917  0.00  0.00     0.445 HD
BRANCH  10  12
ATOM     12  C   LIG d   1       3.929  -0.644  -6.049  0.00  0.00     0.161 C 
BRANCH  12  13
ATOM     13  C   LIG d   1       3.937  -1.073  -4.763  0.00  0.00     0.101 A 
ATOM     14  C   LIG d   1       4.240  -2.373  -4.357  0.00  0.00     0.147 A 
ATOM     15  C   LIG d   1       4.154  -2.487  -2.858  0.00  0.00     0.010 A 
ATOM     16  O   LIG d   1       4.534  -3.283  -5.107  0.00  0.00    -0.296 OA
ATOM     17  C   LIG d   1       3.751  -1.105  -2.325  0.00  0.00    -0.025 A 
ATOM     18  H   LIG d   1       5.036  -2.750  -2.468  0.00  0.00     0.035 H 
ATOM     19  H   LIG d   1       3.399  -3.225  -2.585  0.00  0.00     0.035 H 
ATOM     20  C   LIG d   1       3.614  -0.214  -3.569  0.00  0.00    -0.013 A 
ATOM     21  H   LIG d   1       3.026  -1.062  -1.513  0.00  0.00     0.031 H 
ATOM     22  C   LIG d   1       4.713   0.086  -2.547  0.00  0.00    -0.027 A 
ATOM     23  H   LIG d   1       2.781   0.482  -3.667  0.00  0.00     0.032 H 
ATOM     24  H   LIG d   1       4.849  -0.941  -4.374  0.00  0.00     0.049 H 
BRANCH  22  25
ATOM     25  C   LIG d   1       6.156  -0.225  -2.952  0.00  0.00    -0.059 C 
ATOM     26  H   LIG d   1       6.819  -0.033  -2.109  0.00  0.00     0.024 H 
ATOM     27  H   LIG d   1       6.232  -1.272  -3.244  0.00  0.00     0.024 H 
ATOM     28  H   LIG d   1       6.443   0.408  -3.792  0.00  0.00     0.024 H 
ENDBRANCH  22  25
BRANCH  22  29
ATOM     29  C   LIG d   1       4.529   1.313  -1.653  0.00  0.00    -0.059 C 
ATOM     30  H   LIG d   1       3.759   1.959  -2.075  0.00  0.00     0.024 H 
ATOM     31  H   LIG d   1       4.227   0.993  -0.655  0.00  0.00     0.024 H 
ATOM     32  H   LIG d   1       5.469   1.861  -1.590  0.00  0.00     0.024 H 
ENDBRANCH  22  29
ENDBRANCH  12  13
BRANCH  12  33
ATOM     33  C   LIG d   1       2.857   0.304  -6.522  0.00  0.00     0.017 C 
ATOM     34  H   LIG d   1       2.102   0.415  -5.744  0.00  0.00     0.033 H 
ATOM     35  H   LIG d   1       3.301   1.276  -6.738  0.00  0.00     0.033 H 
ATOM     36  H   LIG d   1       2.432  -0.059  -7.350  0.00  0.00     0.033 H 
ENDBRANCH  12  33
ENDBRANCH  10  12
ENDBRANCH   7  10
ENDBRANCH   1   7
BRANCH   1  37
ATOM     37  N   LIG d   1       7.263   1.013  -6.277  0.00  0.00    -0.240 N 
ATOM     38  H   LIG d   1       6.572   1.122  -5.525  0.00  0.00     0.445 HD
BRANCH  37  39
ATOM     39  C   LIG d   1       8.309   1.933  -6.405  0.00  0.00     0.161 C 
BRANCH  39  40
ATOM     40  C   LIG d   1       8.938   2.323  -5.271  0.00  0.00     0.101 A 
ATOM     41  C   LIG d   1       9.896   1.570  -4.590  0.00  0.00     0.147 A 
ATOM     42  C   LIG d   1      10.382   2.316  -3.376  0.00  0.00     0.010 A 
ATOM     43  O   LIG d   1      10.283   0.470  -4.929  0.00  0.00    -0.296 OA
ATOM     44  C   LIG d   1       9.624   3.651  -3.335  0.00  0.00    -0.025 A 
ATOM     45  H   LIG d   1      11.365   2.492  -3.432  0.00  0.00     0.035 H 
ATOM     46  H   LIG d   1      10.165   1.738  -2.477  0.00  0.00     0.035 H 
ATOM     47  C   LIG d   1       8.700   3.630  -4.561  0.00  0.00    -0.013 A 
ATOM     48  H   LIG d   1       9.277   4.011  -2.366  0.00  0.00     0.031 H 
ATOM     49  C   LIG d   1       9.832   4.657  -4.491  0.00  0.00    -0.027 A 
ATOM     50  H   LIG d   1       7.670   3.976  -4.488  0.00  0.00     0.032 H 
ATOM     51  H   LIG d   1       9.774   2.821  -5.507  0.00  0.00     0.049 H 
BRANCH  49  52
ATOM     52  C   LIG d   1      11.033   4.448  -5.415  0.00  0.00    -0.059 C 
ATOM     53  H   LIG d   1      11.116   5.291  -6.100  0.00  0.00     0.024 H 
ATOM     54  H   LIG d   1      11.942   4.374  -4.818  0.00  0.00     0.024 H 
ATOM     55  H   LIG d   1      10.897   3.529  -5.985  0.00  0.00     0.024 H 
ENDBRANCH  49  52
BRANCH  49  56
ATOM     56  C   LIG d   1       9.447   6.115  -4.229  0.00  0.00    -0.059 C 
ATOM     57  H   LIG d   1       8.494   6.331  -4.710  0.00  0.00     0.024 H 
ATOM     58  H   LIG d   1       9.358   6.280  -3.155  0.00  0.00     0.024 H 
ATOM     59  H   LIG d   1      10.216   6.772  -4.635  0.00  0.00     0.024 H 
ENDBRANCH  49  56
ENDBRANCH  39  40
BRANCH  39  60
ATOM     60  C   LIG d   1       8.744   2.488  -7.737  0.00  0.00     0.017 C 
ATOM     61  H   LIG d   1       8.292   3.468  -7.887  0.00  0.00     0.033 H 
ATOM     62  H   LIG d   1       9.829   2.582  -7.755  0.00  0.00     0.033 H 
ATOM     63  H   LIG d   1       8.451   1.870  -8.467  0.00  0.00     0.033 H 
ENDBRANCH  39  60
ENDBRANCH  37  39
ENDBRANCH   1  37
TORSDOF 14
ENDMDL
MODEL 6
REMARK VINA RESULT:      -5.4      1.985      6.140
REMARK  14 active torsions:
REMARK  status: ('A' for Active; 'I' for Inactive)
REMARK    1  A    between atoms: C_1  and  C_2 
REMARK    2  A    between atoms: C_2  and  C_4 
REMARK    3  A    between atoms: C_2  and  N_62 
REMARK    4  A    between atoms: C_4  and  N_60 
REMARK    5  A    between atoms: C_5  and  C_6 
REMARK    6  A    between atoms: C_5  and  C_17 
REMARK    7  A    between atoms: C_5  and  N_60 
REMARK    8  A    between atoms: C_11  and  C_12 
REMARK    9  A    between atoms: C_11  and  C_13 
REMARK   10  A    between atoms: C_18  and  C_19 
REMARK   11  A    between atoms: C_18  and  C_30 
REMARK   12  A    between atoms: C_18  and  N_62 
REMARK   13  A    between atoms: C_24  and  C_25 
REMARK   14  A    between atoms: C_24  and  C_26 
ROOT
ATOM      1  C   LIG d   1       4.860  -3.039  -6.018  0.00  0.00     0.208 C 
ATOM      2  H   LIG d   1       4.483  -2.135  -5.540  0.00  0.00     0.113 H 
ENDROOT
BRANCH   1   3
ATOM      3  C   LIG d   1       4.709  -4.224  -5.062  0.00  0.00     0.004 C 
ATOM      4  H   LIG d   1       4.734  -5.154  -5.632  0.00  0.00     0.030 H 
ATOM      5  H   LIG d   1       5.528  -4.216  -4.343  0.00  0.00     0.030 H 
ATOM      6  H   LIG d   1       3.759  -4.146  -4.534  0.00  0.00     0.030 H 
ENDBRANCH   1   3
BRANCH   1   7
ATOM      7  C   LIG d   1       6.338  -2.850  -6.366  0.00  0.00     0.204 C 
ATOM      8  H   LIG d   1       6.903  -3.723  -6.039  0.00  0.00     0.109 H 
ATOM      9  H   LIG d   1       6.446  -2.731  -7.445  0.00  0.00     0.109 H 
BRANCH   7  10
ATOM     10  N   LIG d   1       6.808  -1.616  -5.647  0.00  0.00    -0.242 N 
ATOM     11  H   LIG d   1       7.038  -0.768  -6.178  0.00  0.00     0.445 HD
BRANCH  10  12
ATOM     12  C   LIG d   1       6.932  -1.623  -4.253  0.00  0.00     0.161 C 
BRANCH  12  13
ATOM     13  C   LIG d   1       6.215  -0.706  -3.559  0.00  0.00     0.101 A 
ATOM     14  C   LIG d   1       6.524   0.653  -3.478  0.00  0.00     0.147 A 
ATOM     15  C   LIG d   1       5.509   1.370  -2.627  0.00  0.00     0.010 A 
ATOM     16  O   LIG d   1       7.474   1.182  -4.021  0.00  0.00    -0.296 OA
ATOM     17  C   LIG d   1       4.498   0.317  -2.151  0.00  0.00    -0.025 A 
ATOM     18  H   LIG d   1       5.034   2.074  -3.154  0.00  0.00     0.035 H 
ATOM     19  H   LIG d   1       6.002   1.827  -1.768  0.00  0.00     0.035 H 
ATOM     20  C   LIG d   1       4.975  -1.010  -2.760  0.00  0.00    -0.013 A 
ATOM     21  H   LIG d   1       4.146   0.377  -1.121  0.00  0.00     0.031 H 
ATOM     22  C   LIG d   1       3.637  -0.417  -3.206  0.00  0.00    -0.027 A 
ATOM     23  H   LIG d   1       4.976  -1.925  -2.170  0.00  0.00     0.032 H 
ATOM     24  H   LIG d   1       5.510  -0.317  -4.152  0.00  0.00     0.049 H 
BRANCH  22  25
ATOM     25  C   LIG d   1       3.566   0.182  -4.613  0.00  0.00    -0.059 C 
ATOM     26  H   LIG d   1       4.544   0.569  -4.893  0.00  0.00     0.024 H 
ATOM     27  H   LIG d   1       3.263  -0.589  -5.320  0.00  0.00     0.024 H 
ATOM     28  H   LIG d   1       2.837   0.993  -4.626  0.00  0.00     0.024 H 
ENDBRANCH  22  25
BRANCH  22  29
ATOM     29  C   LIG d   1       2.362  -1.105  -2.716  0.00  0.00    -0.059 C 
ATOM     30  H   LIG d   1       1.647  -1.173  -3.536  0.00  0.00     0.024 H 
ATOM     31  H   LIG d   1       2.604  -2.106  -2.361  0.00  0.00     0.024 H 
ATOM     32  H   LIG d   1       1.928  -0.526  -1.901  0.00  0.00     0.024 H 
ENDBRANCH  22  29
ENDBRANCH  12  13
BRANCH  12  33
ATOM     33  C   LIG d   1       7.819  -2.598  -3.522  0.00  0.00     0.017 C 
ATOM     34  H   LIG d   1       8.275  -3.282  -4.238  0.00  0.00     0.033 H 
ATOM     35  H   LIG d   1       8.601  -2.052  -2.993  0.00  0.00     0.033 H 
ATOM     36  H   LIG d   1       7.274  -3.118  -2.866  0.00  0.00     0.033 H 
ENDBRANCH  12  33
ENDBRANCH  10  12
ENDBRANCH   7  10
ENDBRANCH   1   7
BRANCH   1  37
ATOM     37  N   LIG d   1       4.132  -3.327  -7.301  0.00  0.00    -0.240 N 
ATOM     38  H   LIG d   1       3.420  -4.067  -7.332  0.00  0.00     0.445 HD
BRANCH  37  39
ATOM     39  C   LIG d   1       4.422  -2.587  -8.453  0.00  0.00     0.161 C 
BRANCH  39  40
ATOM     40  C   LIG d   1       3.720  -1.446  -8.654  0.00  0.00     0.101 A 
ATOM     41  C   LIG d   1       4.147  -0.171  -8.281  0.00  0.00     0.147 A 
ATOM     42  C   LIG d   1       3.116   0.858  -8.662  0.00  0.00     0.010 A 
ATOM     43  O   LIG d   1       5.200   0.075  -7.727  0.00  0.00    -0.296 OA
ATOM     44  C   LIG d   1       1.955   0.106  -9.329  0.00  0.00    -0.025 A 
ATOM     45  H   LIG d   1       3.495   1.524  -9.306  0.00  0.00     0.035 H 
ATOM     46  H   LIG d   1       2.761   1.374  -7.770  0.00  0.00     0.035 H 
ATOM     47  C   LIG d   1       2.365  -1.373  -9.308  0.00  0.00    -0.013 A 
ATOM     48  H   LIG d   1       0.939   0.419  -9.087  0.00  0.00     0.031 H 
ATOM     49  C   LIG d   1       2.224  -0.652 -10.650  0.00  0.00    -0.027 A 
ATOM     50  H   LIG d   1       1.645  -2.147  -9.047  0.00  0.00     0.032 H 
ATOM     51  H   LIG d   1       3.961  -1.059  -9.545  0.00  0.00     0.049 H 
BRANCH  49  52
ATOM     52  C   LIG d   1       3.507  -0.325 -11.415  0.00  0.00    -0.059 C 
ATOM     53  H   LIG d   1       3.916  -1.238 -11.846  0.00  0.00     0.024 H 
ATOM     54  H   LIG d   1       3.285   0.386 -12.210  0.00  0.00     0.024 H 
ATOM     55  H   LIG d   1       4.236   0.111 -10.731  0.00  0.00     0.024 H 
ENDBRANCH  49  52
BRANCH  49  56
ATOM     56  C   LIG d   1       1.011  -1.003 -11.515  0.00  0.00    -0.059 C 
ATOM     57  H   LIG d   1       0.274  -1.530 -10.910  0.00  0.00     0.024 H 
ATOM     58  H   LIG d   1       0.570  -0.089 -11.911  0.00  0.00     0.024 H 
ATOM     59  H   LIG d   1       1.327  -1.641 -12.341  0.00  0.00     0.024 H 
ENDBRANCH  49  56
ENDBRANCH  39  40
BRANCH  39  60
ATOM     60  C   LIG d   1       5.467  -3.015  -9.450  0.00  0.00     0.017 C 
ATOM     61  H   LIG d   1       6.033  -2.144  -9.779  0.00  0.00     0.033 H 
ATOM     62  H   LIG d   1       6.143  -3.731  -8.984  0.00  0.00     0.033 H 
ATOM     63  H   LIG d   1       5.022  -3.441 -10.237  0.00  0.00     0.033 H 
ENDBRANCH  39  60
ENDBRANCH  37  39
ENDBRANCH   1  37
TORSDOF 14
ENDMDL
MODEL 7
REMARK VINA RESULT:      -5.4      5.733      7.874
REMARK  14 active torsions:
REMARK  status: ('A' for Active; 'I' for Inactive)
REMARK    1  A    between atoms: C_1  and  C_2 
REMARK    2  A    between atoms: C_2  and  C_4 
REMARK    3  A    between atoms: C_2  and  N_62 
REMARK    4  A    between atoms: C_4  and  N_60 
REMARK    5  A    between atoms: C_5  and  C_6 
REMARK    6  A    between atoms: C_5  and  C_17 
REMARK    7  A    between atoms: C_5  and  N_60 
REMARK    8  A    between atoms: C_11  and  C_12 
REMARK    9  A    between atoms: C_11  and  C_13 
REMARK   10  A    between atoms: C_18  and  C_19 
REMARK   11  A    between atoms: C_18  and  C_30 
REMARK   12  A    between atoms: C_18  and  N_62 
REMARK   13  A    between atoms: C_24  and  C_25 
REMARK   14  A    between atoms: C_24  and  C_26 
ROOT
ATOM      1  C   LIG d   1       9.030   3.452  -4.646  0.00  0.00     0.208 C 
ATOM      2  H   LIG d   1       8.061   3.948  -4.590  0.00  0.00     0.113 H 
ENDROOT
BRANCH   1   3
ATOM      3  C   LIG d   1       9.274   2.968  -6.077  0.00  0.00     0.004 C 
ATOM      4  H   LIG d   1       8.781   3.644  -6.778  0.00  0.00     0.030 H 
ATOM      5  H   LIG d   1      10.346   2.955  -6.277  0.00  0.00     0.030 H 
ATOM      6  H   LIG d   1       8.869   1.963  -6.195  0.00  0.00     0.030 H 
ENDBRANCH   1   3
BRANCH   1   7
ATOM      7  C   LIG d   1       9.044   2.254  -3.694  0.00  0.00     0.204 C 
ATOM      8  H   LIG d   1       9.730   1.497  -4.073  0.00  0.00     0.109 H 
ATOM      9  H   LIG d   1       9.371   2.579  -2.706  0.00  0.00     0.109 H 
BRANCH   7  10
ATOM     10  N   LIG d   1       7.641   1.717  -3.638  0.00  0.00    -0.242 N 
ATOM     11  H   LIG d   1       6.861   2.340  -3.396  0.00  0.00     0.445 HD
BRANCH  10  12
ATOM     12  C   LIG d   1       7.397   0.367  -3.917  0.00  0.00     0.161 C 
BRANCH  12  13
ATOM     13  C   LIG d   1       6.335  -0.214  -3.305  0.00  0.00     0.101 A 
ATOM     14  C   LIG d   1       5.376   0.468  -2.556  0.00  0.00     0.147 A 
ATOM     15  C   LIG d   1       4.343  -0.494  -2.031  0.00  0.00     0.010 A 
ATOM     16  O   LIG d   1       5.372   1.667  -2.358  0.00  0.00    -0.296 OA
ATOM     17  C   LIG d   1       4.742  -1.893  -2.519  0.00  0.00    -0.025 A 
ATOM     18  H   LIG d   1       3.433  -0.267  -2.378  0.00  0.00     0.035 H 
ATOM     19  H   LIG d   1       4.333  -0.470  -0.940  0.00  0.00     0.035 H 
ATOM     20  C   LIG d   1       6.028  -1.688  -3.333  0.00  0.00    -0.013 A 
ATOM     21  H   LIG d   1       4.635  -2.726  -1.824  0.00  0.00     0.031 H 
ATOM     22  C   LIG d   1       4.760  -2.171  -4.041  0.00  0.00    -0.027 A 
ATOM     23  H   LIG d   1       6.869  -2.373  -3.230  0.00  0.00     0.032 H 
ATOM     24  H   LIG d   1       5.558  -0.232  -3.934  0.00  0.00     0.049 H 
BRANCH  22  25
ATOM     25  C   LIG d   1       4.043  -1.178  -4.958  0.00  0.00    -0.059 C 
ATOM     26  H   LIG d   1       4.042  -1.561  -5.978  0.00  0.00     0.024 H 
ATOM     27  H   LIG d   1       3.015  -1.048  -4.618  0.00  0.00     0.024 H 
ATOM     28  H   LIG d   1       4.559  -0.218  -4.929  0.00  0.00     0.024 H 
ENDBRANCH  22  25
BRANCH  22  29
ATOM     29  C   LIG d   1       4.716  -3.633  -4.487  0.00  0.00    -0.059 C 
ATOM     30  H   LIG d   1       3.762  -4.074  -4.196  0.00  0.00     0.024 H 
ATOM     31  H   LIG d   1       4.823  -3.686  -5.571  0.00  0.00     0.024 H 
ATOM     32  H   LIG d   1       5.530  -4.182  -4.015  0.00  0.00     0.024 H 
ENDBRANCH  22  29
ENDBRANCH  12  13
BRANCH  12  33
ATOM     33  C   LIG d   1       8.261  -0.438  -4.852  0.00  0.00     0.017 C 
ATOM     34  H   LIG d   1       7.628  -1.017  -5.524  0.00  0.00     0.033 H 
ATOM     35  H   LIG d   1       8.890   0.235  -5.436  0.00  0.00     0.033 H 
ATOM     36  H   LIG d   1       8.839  -1.058  -4.323  0.00  0.00     0.033 H 
ENDBRANCH  12  33
ENDBRANCH  10  12
ENDBRANCH   7  10
ENDBRANCH   1   7
BRANCH   1  37
ATOM     37  N   LIG d   1      10.143   4.371  -4.226  0.00  0.00    -0.240 N 
ATOM     38  H   LIG d   1      11.112   4.032  -4.218  0.00  0.00     0.445 HD
BRANCH  37  39
ATOM     39  C   LIG d   1       9.858   5.687  -3.846  0.00  0.00     0.161 C 
BRANCH  39  40
ATOM     40  C   LIG d   1      10.231   6.072  -2.602  0.00  0.00     0.101 A 
ATOM     41  C   LIG d   1      11.420   5.698  -1.974  0.00  0.00     0.147 A 
ATOM     42  C   LIG d   1      11.502   6.312  -0.602  0.00  0.00     0.010 A 
ATOM     43  O   LIG d   1      12.268   4.980  -2.464  0.00  0.00    -0.296 OA
ATOM     44  C   LIG d   1      10.220   7.133  -0.399  0.00  0.00    -0.025 A 
ATOM     45  H   LIG d   1      12.298   6.913  -0.524  0.00  0.00     0.035 H 
ATOM     46  H   LIG d   1      11.563   5.526   0.152  0.00  0.00     0.035 H 
ATOM     47  C   LIG d   1       9.418   6.959  -1.697  0.00  0.00    -0.013 A 
ATOM     48  H   LIG d   1       9.738   7.093   0.578  0.00  0.00     0.031 H 
ATOM     49  C   LIG d   1       9.958   8.342  -1.327  0.00  0.00    -0.027 A 
ATOM     50  H   LIG d   1       8.342   6.789  -1.668  0.00  0.00     0.032 H 
ATOM     51  H   LIG d   1      10.750   6.925  -2.657  0.00  0.00     0.049 H 
BRANCH  49  52
ATOM     52  C   LIG d   1      11.132   8.883  -2.146  0.00  0.00    -0.059 C 
ATOM     53  H   LIG d   1      10.961   9.933  -2.377  0.00  0.00     0.024 H 
ATOM     54  H   LIG d   1      12.053   8.782  -1.571  0.00  0.00     0.024 H 
ATOM     55  H   LIG d   1      11.220   8.317  -3.073  0.00  0.00     0.024 H 
ENDBRANCH  49  52
BRANCH  49  56
ATOM     56  C   LIG d   1       8.951   9.389  -0.848  0.00  0.00    -0.059 C 
ATOM     57  H   LIG d   1       9.309  10.384  -1.109  0.00  0.00     0.024 H 
ATOM     58  H   LIG d   1       7.988   9.213  -1.327  0.00  0.00     0.024 H 
ATOM     59  H   LIG d   1       8.837   9.315   0.233  0.00  0.00     0.024 H 
ENDBRANCH  49  56
ENDBRANCH  39  40
BRANCH  39  60
ATOM     60  C   LIG d   1       9.166   6.664  -4.761  0.00  0.00     0.017 C 
ATOM     61  H   LIG d   1       8.941   7.578  -4.213  0.00  0.00     0.033 H 
ATOM     62  H   LIG d   1       9.818   6.898  -5.603  0.00  0.00     0.033 H 
ATOM     63  H   LIG d   1       8.317   6.259  -5.100  0.00  0.00     0.033 H 
ENDBRANCH  39  60
ENDBRANCH  37  39
ENDBRANCH   1  37
TORSDOF 14
ENDMDL
MODEL 8
REMARK VINA RESULT:      -5.3      1.585      2.439
REMARK  14 active torsions:
REMARK  status: ('A' for Active; 'I' for Inactive)
REMARK    1  A    between atoms: C_1  and  C_2 
REMARK    2  A    between atoms: C_2  and  C_4 
REMARK    3  A    between atoms: C_2  and  N_62 
REMARK    4  A    between atoms: C_4  and  N_60 
REMARK    5  A    between atoms: C_5  and  C_6 
REMARK    6  A    between atoms: C_5  and  C_17 
REMARK    7  A    between atoms: C_5  and  N_60 
REMARK    8  A    between atoms: C_11  and  C_12 
REMARK    9  A    between atoms: C_11  and  C_13 
REMARK   10  A    between atoms: C_18  and  C_19 
REMARK   11  A    between atoms: C_18  and  C_30 
REMARK   12  A    between atoms: C_18  and  N_62 
REMARK   13  A    between atoms: C_24  and  C_25 
REMARK   14  A    between atoms: C_24  and  C_26 
ROOT
ATOM      1  C   LIG d   1       8.793   0.855  -6.516  0.00  0.00     0.208 C 
ATOM      2  H   LIG d   1       9.392   1.757  -6.630  0.00  0.00     0.113 H 
ENDROOT
BRANCH   1   3
ATOM      3  C   LIG d   1       9.614  -0.217  -5.797  0.00  0.00     0.004 C 
ATOM      4  H   LIG d   1       9.932   0.161  -4.825  0.00  0.00     0.030 H 
ATOM      5  H   LIG d   1       9.003  -1.109  -5.658  0.00  0.00     0.030 H 
ATOM      6  H   LIG d   1      10.490  -0.466  -6.395  0.00  0.00     0.030 H 
ENDBRANCH   1   3
BRANCH   1   7
ATOM      7  C   LIG d   1       8.379   0.340  -7.896  0.00  0.00     0.204 C 
ATOM      8  H   LIG d   1       8.379   1.167  -8.607  0.00  0.00     0.109 H 
ATOM      9  H   LIG d   1       9.084  -0.423  -8.226  0.00  0.00     0.109 H 
BRANCH   7  10
ATOM     10  N   LIG d   1       6.998  -0.238  -7.757  0.00  0.00    -0.242 N 
ATOM     11  H   LIG d   1       6.664  -0.554  -6.839  0.00  0.00     0.445 HD
BRANCH  10  12
ATOM     12  C   LIG d   1       6.169  -0.346  -8.879  0.00  0.00     0.161 C 
BRANCH  12  13
ATOM     13  C   LIG d   1       5.095   0.479  -8.942  0.00  0.00     0.101 A 
ATOM     14  C   LIG d   1       5.158   1.855  -9.168  0.00  0.00     0.147 A 
ATOM     15  C   LIG d   1       3.773   2.447  -9.177  0.00  0.00     0.010 A 
ATOM     16  O   LIG d   1       6.184   2.484  -9.336  0.00  0.00    -0.296 OA
ATOM     17  C   LIG d   1       2.790   1.295  -8.924  0.00  0.00    -0.025 A 
ATOM     18  H   LIG d   1       3.571   2.869 -10.060  0.00  0.00     0.035 H 
ATOM     19  H   LIG d   1       3.683   3.193  -8.387  0.00  0.00     0.035 H 
ATOM     20  C   LIG d   1       3.664   0.041  -8.772  0.00  0.00    -0.013 A 
ATOM     21  H   LIG d   1       1.944   1.483  -8.263  0.00  0.00     0.031 H 
ATOM     22  C   LIG d   1       2.705   0.150  -9.960  0.00  0.00    -0.027 A 
ATOM     23  H   LIG d   1       3.457  -0.691  -7.992  0.00  0.00     0.032 H 
ATOM     24  H   LIG d   1       4.769   0.530  -9.887  0.00  0.00     0.049 H 
BRANCH  22  25
ATOM     25  C   LIG d   1       3.318   0.388 -11.341  0.00  0.00    -0.059 C 
ATOM     26  H   LIG d   1       3.035  -0.424 -12.010  0.00  0.00     0.024 H 
ATOM     27  H   LIG d   1       2.953   1.333 -11.742  0.00  0.00     0.024 H 
ATOM     28  H   LIG d   1       4.405   0.426 -11.256  0.00  0.00     0.024 H 
ENDBRANCH  22  25
BRANCH  22  29
ATOM     29  C   LIG d   1       1.451  -0.726  -9.936  0.00  0.00    -0.059 C 
ATOM     30  H   LIG d   1       0.591  -0.122  -9.645  0.00  0.00     0.024 H 
ATOM     31  H   LIG d   1       1.282  -1.144 -10.928  0.00  0.00     0.024 H 
ATOM     32  H   LIG d   1       1.587  -1.535  -9.219  0.00  0.00     0.024 H 
ENDBRANCH  22  29
ENDBRANCH  12  13
BRANCH  12  33
ATOM     33  C   LIG d   1       6.429  -1.330  -9.991  0.00  0.00     0.017 C 
ATOM     34  H   LIG d   1       6.447  -2.341  -9.584  0.00  0.00     0.033 H 
ATOM     35  H   LIG d   1       5.639  -1.252 -10.737  0.00  0.00     0.033 H 
ATOM     36  H   LIG d   1       7.311  -1.127 -10.415  0.00  0.00     0.033 H 
ENDBRANCH  12  33
ENDBRANCH  10  12
ENDBRANCH   7  10
ENDBRANCH   1   7
BRANCH   1  37
ATOM     37  N   LIG d   1       7.531   1.129  -5.745  0.00  0.00    -0.240 N 
ATOM     38  H   LIG d   1       6.649   1.293  -6.245  0.00  0.00     0.445 HD
BRANCH  37  39
ATOM     39  C   LIG d   1       7.558   1.158  -4.346  0.00  0.00     0.161 C 
BRANCH  39  40
ATOM     40  C   LIG d   1       6.691   0.351  -3.688  0.00  0.00     0.101 A 
ATOM     41  C   LIG d   1       5.587   0.794  -2.959  0.00  0.00     0.147 A 
ATOM     42  C   LIG d   1       4.847  -0.376  -2.367  0.00  0.00     0.010 A 
ATOM     43  O   LIG d   1       5.268   1.958  -2.820  0.00  0.00    -0.296 OA
ATOM     44  C   LIG d   1       5.601  -1.646  -2.792  0.00  0.00    -0.025 A 
ATOM     45  H   LIG d   1       3.908  -0.417  -2.708  0.00  0.00     0.035 H 
ATOM     46  H   LIG d   1       4.839  -0.296  -1.280  0.00  0.00     0.035 H 
ATOM     47  C   LIG d   1       6.783  -1.151  -3.637  0.00  0.00    -0.013 A 
ATOM     48  H   LIG d   1       5.721  -2.439  -2.054  0.00  0.00     0.031 H 
ATOM     49  C   LIG d   1       5.686  -1.988  -4.298  0.00  0.00    -0.027 A 
ATOM     50  H   LIG d   1       7.775  -1.584  -3.515  0.00  0.00     0.032 H 
ATOM     51  H   LIG d   1       5.943   0.095  -4.302  0.00  0.00     0.049 H 
BRANCH  49  52
ATOM     52  C   LIG d   1       4.728  -1.271  -5.250  0.00  0.00    -0.059 C 
ATOM     53  H   LIG d   1       4.061  -0.627  -4.679  0.00  0.00     0.024 H 
ATOM     54  H   LIG d   1       5.300  -0.668  -5.956  0.00  0.00     0.024 H 
ATOM     55  H   LIG d   1       4.140  -2.008  -5.796  0.00  0.00     0.024 H 
ENDBRANCH  49  52
BRANCH  49  56
ATOM     56  C   LIG d   1       6.028  -3.432  -4.669  0.00  0.00    -0.059 C 
ATOM     57  H   LIG d   1       5.270  -4.101  -4.263  0.00  0.00     0.024 H 
ATOM     58  H   LIG d   1       6.056  -3.532  -5.755  0.00  0.00     0.024 H 
ATOM     59  H   LIG d   1       7.002  -3.693  -4.256  0.00  0.00     0.024 H 
ENDBRANCH  49  56
ENDBRANCH  39  40
BRANCH  39  60
ATOM     60  C   LIG d   1       8.502   2.041  -3.571  0.00  0.00     0.017 C 
ATOM     61  H   LIG d   1       9.400   2.219  -4.162  0.00  0.00     0.033 H 
ATOM     62  H   LIG d   1       8.015   2.992  -3.354  0.00  0.00     0.033 H 
ATOM     63  H   LIG d   1       8.750   1.591  -2.713  0.00  0.00     0.033 H 
ENDBRANCH  39  60
ENDBRANCH  37  39
ENDBRANCH   1  37
TORSDOF 14
ENDMDL
MODEL 9
REMARK VINA RESULT:      -5.3      2.366      4.342
REMARK  14 active torsions:
REMARK  status: ('A' for Active; 'I' for Inactive)
REMARK    1  A    between atoms: C_1  and  C_2 
REMARK    2  A    between atoms: C_2  and  C_4 
REMARK    3  A    between atoms: C_2  and  N_62 
REMARK    4  A    between atoms: C_4  and  N_60 
REMARK    5  A    between atoms: C_5  and  C_6 
REMARK    6  A    between atoms: C_5  and  C_17 
REMARK    7  A    between atoms: C_5  and  N_60 
REMARK    8  A    between atoms: C_11  and  C_12 
REMARK    9  A    between atoms: C_11  and  C_13 
REMARK   10  A    between atoms: C_18  and  C_19 
REMARK   11  A    between atoms: C_18  and  C_30 
REMARK   12  A    between atoms: C_18  and  N_62 
REMARK   13  A    between atoms: C_24  and  C_25 
REMARK   14  A    between atoms: C_24  and  C_26 
ROOT
ATOM      1  C   LIG d   1       2.771   0.188  -3.924  0.00  0.00     0.208 C 
ATOM      2  H   LIG d   1       1.849   0.246  -3.348  0.00  0.00     0.113 H 
ENDROOT
BRANCH   1   3
ATOM      3  C   LIG d   1       3.906   0.851  -3.141  0.00  0.00     0.004 C 
ATOM      4  H   LIG d   1       4.725   0.141  -3.018  0.00  0.00     0.030 H 
ATOM      5  H   LIG d   1       4.261   1.725  -3.687  0.00  0.00     0.030 H 
ATOM      6  H   LIG d   1       3.540   1.157  -2.161  0.00  0.00     0.030 H 
ENDBRANCH   1   3
BRANCH   1   7
ATOM      7  C   LIG d   1       2.583   0.911  -5.260  0.00  0.00     0.204 C 
ATOM      8  H   LIG d   1       1.737   1.595  -5.186  0.00  0.00     0.109 H 
ATOM      9  H   LIG d   1       3.486   1.474  -5.499  0.00  0.00     0.109 H 
BRANCH   7  10
ATOM     10  N   LIG d   1       2.324  -0.142  -6.301  0.00  0.00    -0.242 N 
ATOM     11  H   LIG d   1       1.800  -0.990  -6.054  0.00  0.00     0.445 HD
BRANCH  10  12
ATOM     12  C   LIG d   1       2.798   0.033  -7.606  0.00  0.00     0.161 C 
BRANCH  12  13
ATOM     13  C   LIG d   1       2.907  -1.073  -8.383  0.00  0.00     0.101 A 
ATOM     14  C   LIG d   1       2.101  -1.357  -9.485  0.00  0.00     0.147 A 
ATOM     15  C   LIG d   1       2.509  -2.664 -10.110  0.00  0.00     0.010 A 
ATOM     16  O   LIG d   1       1.199  -0.647  -9.887  0.00  0.00    -0.296 OA
ATOM     17  C   LIG d   1       3.679  -3.212  -9.280  0.00  0.00    -0.025 A 
ATOM     18  H   LIG d   1       2.805  -2.533 -11.056  0.00  0.00     0.035 H 
ATOM     19  H   LIG d   1       1.674  -3.366 -10.083  0.00  0.00     0.035 H 
ATOM     20  C   LIG d   1       3.914  -2.173  -8.174  0.00  0.00    -0.013 A 
ATOM     21  H   LIG d   1       3.699  -4.281  -9.070  0.00  0.00     0.031 H 
ATOM     22  C   LIG d   1       4.997  -2.403  -9.230  0.00  0.00    -0.027 A 
ATOM     23  H   LIG d   1       4.103  -2.486  -7.147  0.00  0.00     0.032 H 
ATOM     24  H   LIG d   1       3.544  -0.891  -9.133  0.00  0.00     0.049 H 
BRANCH  22  25
ATOM     25  C   LIG d   1       5.204  -1.308 -10.278  0.00  0.00    -0.059 C 
ATOM     26  H   LIG d   1       4.620  -0.430 -10.005  0.00  0.00     0.024 H 
ATOM     27  H   LIG d   1       6.260  -1.043 -10.322  0.00  0.00     0.024 H 
ATOM     28  H   LIG d   1       4.880  -1.672 -11.254  0.00  0.00     0.024 H 
ENDBRANCH  22  25
BRANCH  22  29
ATOM     29  C   LIG d   1       6.260  -3.147  -8.795  0.00  0.00    -0.059 C 
ATOM     30  H   LIG d   1       5.982  -4.038  -8.231  0.00  0.00     0.024 H 
ATOM     31  H   LIG d   1       6.832  -3.439  -9.676  0.00  0.00     0.024 H 
ATOM     32  H   LIG d   1       6.868  -2.495  -8.168  0.00  0.00     0.024 H 
ENDBRANCH  22  29
ENDBRANCH  12  13
BRANCH  12  33
ATOM     33  C   LIG d   1       3.181   1.382  -8.157  0.00  0.00     0.017 C 
ATOM     34  H   LIG d   1       3.636   1.980  -7.368  0.00  0.00     0.033 H 
ATOM     35  H   LIG d   1       3.893   1.253  -8.972  0.00  0.00     0.033 H 
ATOM     36  H   LIG d   1       2.364   1.847  -8.498  0.00  0.00     0.033 H 
ENDBRANCH  12  33
ENDBRANCH  10  12
ENDBRANCH   7  10
ENDBRANCH   1   7
BRANCH   1  37
ATOM     37  N   LIG d   1       3.136  -1.237  -4.235  0.00  0.00    -0.240 N 
ATOM     38  H   LIG d   1       2.720  -1.708  -5.047  0.00  0.00     0.445 HD
BRANCH  37  39
ATOM     39  C   LIG d   1       4.043  -1.922  -3.419  0.00  0.00     0.161 C 
BRANCH  39  40
ATOM     40  C   LIG d   1       5.224  -2.290  -3.972  0.00  0.00     0.101 A 
ATOM     41  C   LIG d   1       5.394  -3.358  -4.853  0.00  0.00     0.147 A 
ATOM     42  C   LIG d   1       6.837  -3.470  -5.266  0.00  0.00     0.010 A 
ATOM     43  O   LIG d   1       4.504  -4.092  -5.234  0.00  0.00    -0.296 OA
ATOM     44  C   LIG d   1       7.601  -2.349  -4.545  0.00  0.00    -0.025 A 
ATOM     45  H   LIG d   1       6.938  -3.359  -6.255  0.00  0.00     0.035 H 
ATOM     46  H   LIG d   1       7.233  -4.441  -4.966  0.00  0.00     0.035 H 
ATOM     47  C   LIG d   1       6.542  -1.606  -3.717  0.00  0.00    -0.013 A 
ATOM     48  H   LIG d   1       8.584  -2.582  -4.136  0.00  0.00     0.031 H 
ATOM     49  C   LIG d   1       7.239  -0.880  -4.869  0.00  0.00    -0.027 A 
ATOM     50  H   LIG d   1       6.752  -1.297  -2.694  0.00  0.00     0.032 H 
ATOM     51  H   LIG d   1       5.355  -1.802  -4.836  0.00  0.00     0.049 H 
BRANCH  49  52
ATOM     52  C   LIG d   1       6.419  -0.605  -6.130  0.00  0.00    -0.059 C 
ATOM     53  H   LIG d   1       6.861  -1.135  -6.974  0.00  0.00     0.024 H 
ATOM     54  H   LIG d   1       5.396  -0.950  -5.980  0.00  0.00     0.024 H 
ATOM     55  H   LIG d   1       6.416   0.465  -6.335  0.00  0.00     0.024 H 
ENDBRANCH  49  52
BRANCH  49  56
ATOM     56  C   LIG d   1       8.271   0.191  -4.506  0.00  0.00    -0.059 C 
ATOM     57  H   LIG d   1       8.565   0.730  -5.406  0.00  0.00     0.024 H 
ATOM     58  H   LIG d   1       7.834   0.889  -3.791  0.00  0.00     0.024 H 
ATOM     59  H   LIG d   1       9.146  -0.283  -4.063  0.00  0.00     0.024 H 
ENDBRANCH  49  56
ENDBRANCH  39  40
BRANCH  39  60
ATOM     60  C   LIG d   1       3.749  -2.254  -1.979  0.00  0.00     0.017 C 
ATOM     61  H   LIG d   1       4.322  -3.132  -1.684  0.00  0.00     0.033 H 
ATOM     62  H   LIG d   1       4.028  -1.410  -1.347  0.00  0.00     0.033 H 
ATOM     63  H   LIG d   1       2.772  -2.440  -1.873  0.00  0.00     0.033 H 
ENDBRANCH  39  60
ENDBRANCH  37  39
ENDBRANCH   1  37
TORSDOF 14
ENDMDL
MODEL 10
REMARK VINA RESULT:      -5.2      5.965      8.190
REMARK  14 active torsions:
REMARK  status: ('A' for Active; 'I' for Inactive)
REMARK    1  A    between atoms: C_1  and  C_2 
REMARK    2  A    between atoms: C_2  and  C_4 
REMARK    3  A    between atoms: C_2  and  N_62 
REMARK    4  A    between atoms: C_4  and  N_60 
REMARK    5  A    between atoms: C_5  and  C_6 
REMARK    6  A    between atoms: C_5  and  C_17 
REMARK    7  A    between atoms: C_5  and  N_60 
REMARK    8  A    between atoms: C_11  and  C_12 
REMARK    9  A    between atoms: C_11  and  C_13 
REMARK   10  A    between atoms: C_18  and  C_19 
REMARK   11  A    between atoms: C_18  and  C_30 
REMARK   12  A    between atoms: C_18  and  N_62 
REMARK   13  A    between atoms: C_24  and  C_25 
REMARK   14  A    between atoms: C_24  and  C_26 
ROOT
ATOM      1  C   LIG d   1       9.424   1.958  -4.212  0.00  0.00     0.208 C 
ATOM      2  H   LIG d   1      10.079   1.249  -4.717  0.00  0.00     0.113 H 
ENDROOT
BRANCH   1   3
ATOM      3  C   LIG d   1       8.810   2.910  -5.241  0.00  0.00     0.004 C 
ATOM      4  H   LIG d   1       7.843   3.261  -4.878  0.00  0.00     0.030 H 
ATOM      5  H   LIG d   1       9.475   3.761  -5.388  0.00  0.00     0.030 H 
ATOM      6  H   LIG d   1       8.676   2.385  -6.186  0.00  0.00     0.030 H 
ENDBRANCH   1   3
BRANCH   1   7
ATOM      7  C   LIG d   1      10.233   2.762  -3.191  0.00  0.00     0.204 C 
ATOM      8  H   LIG d   1      10.230   2.240  -2.234  0.00  0.00     0.109 H 
ATOM      9  H   LIG d   1      11.259   2.870  -3.544  0.00  0.00     0.109 H 
BRANCH   7  10
ATOM     10  N   LIG d   1       9.572   4.106  -3.064  0.00  0.00    -0.242 N 
ATOM     11  H   LIG d   1       8.556   4.169  -2.931  0.00  0.00     0.445 HD
BRANCH  10  12
ATOM     12  C   LIG d   1      10.342   5.273  -3.127  0.00  0.00     0.161 C 
BRANCH  12  13
ATOM     13  C   LIG d   1      10.328   6.088  -2.044  0.00  0.00     0.101 A 
ATOM     14  C   LIG d   1      10.959   5.813  -0.830  0.00  0.00     0.147 A 
ATOM     15  C   LIG d   1      10.737   6.941   0.143  0.00  0.00     0.010 A 
ATOM     16  O   LIG d   1      11.601   4.808  -0.593  0.00  0.00    -0.296 OA
ATOM     17  C   LIG d   1       9.876   7.990  -0.575  0.00  0.00    -0.025 A 
ATOM     18  H   LIG d   1      11.605   7.354   0.417  0.00  0.00     0.035 H 
ATOM     19  H   LIG d   1      10.214   6.572   1.025  0.00  0.00     0.035 H 
ATOM     20  C   LIG d   1       9.624   7.418  -1.978  0.00  0.00    -0.013 A 
ATOM     21  H   LIG d   1       9.083   8.474  -0.007  0.00  0.00     0.031 H 
ATOM     22  C   LIG d   1      10.453   8.694  -1.826  0.00  0.00    -0.027 A 
ATOM     23  H   LIG d   1       8.637   7.480  -2.436  0.00  0.00     0.032 H 
ATOM     24  H   LIG d   1      11.106   6.716  -2.090  0.00  0.00     0.049 H 
BRANCH  22  25
ATOM     25  C   LIG d   1      11.959   8.590  -2.074  0.00  0.00    -0.059 C 
ATOM     26  H   LIG d   1      12.483   9.297  -1.433  0.00  0.00     0.024 H 
ATOM     27  H   LIG d   1      12.295   7.578  -1.850  0.00  0.00     0.024 H 
ATOM     28  H   LIG d   1      12.173   8.820  -3.119  0.00  0.00     0.024 H 
ENDBRANCH  22  25
BRANCH  22  29
ATOM     29  C   LIG d   1       9.804  10.012  -2.251  0.00  0.00    -0.059 C 
ATOM     30  H   LIG d   1      10.579  10.730  -2.520  0.00  0.00     0.024 H 
ATOM     31  H   LIG d   1       9.157   9.838  -3.111  0.00  0.00     0.024 H 
ATOM     32  H   LIG d   1       9.212  10.408  -1.426  0.00  0.00     0.024 H 
ENDBRANCH  22  29
ENDBRANCH  12  13
BRANCH  12  33
ATOM     33  C   LIG d   1      11.165   5.639  -4.335  0.00  0.00     0.017 C 
ATOM     34  H   LIG d   1      10.569   5.497  -5.237  0.00  0.00     0.033 H 
ATOM     35  H   LIG d   1      11.471   6.683  -4.264  0.00  0.00     0.033 H 
ATOM     36  H   LIG d   1      11.975   5.056  -4.376  0.00  0.00     0.033 H 
ENDBRANCH  12  33
ENDBRANCH  10  12
ENDBRANCH   7  10
ENDBRANCH   1   7
BRANCH   1  37
ATOM     37  N   LIG d   1       8.329   1.253  -3.459  0.00  0.00    -0.240 N 
ATOM     38  H   LIG d   1       8.066   1.571  -2.519  0.00  0.00     0.445 HD
BRANCH  37  39
ATOM     39  C   LIG d   1       7.669   0.164  -4.040  0.00  0.00     0.161 C 
BRANCH  39  40
ATOM     40  C   LIG d   1       6.524  -0.257  -3.450  0.00  0.00     0.101 A 
ATOM     41  C   LIG d   1       5.576   0.579  -2.861  0.00  0.00     0.147 A 
ATOM     42  C   LIG d   1       4.434  -0.232  -2.310  0.00  0.00     0.010 A 
ATOM     43  O   LIG d   1       5.660   1.790  -2.800  0.00  0.00    -0.296 OA
ATOM     44  C   LIG d   1       4.746  -1.707  -2.604  0.00  0.00    -0.025 A 
ATOM     45  H   LIG d   1       3.570   0.020  -2.749  0.00  0.00     0.035 H 
ATOM     46  H   LIG d   1       4.356  -0.076  -1.234  0.00  0.00     0.035 H 
ATOM     47  C   LIG d   1       6.097  -1.697  -3.334  0.00  0.00    -0.013 A 
ATOM     48  H   LIG d   1       4.523  -2.440  -1.828  0.00  0.00     0.031 H 
ATOM     49  C   LIG d   1       4.844  -2.164  -4.078  0.00  0.00    -0.027 A 
ATOM     50  H   LIG d   1       6.867  -2.426  -3.090  0.00  0.00     0.032 H 
ATOM     51  H   LIG d   1       5.792  -0.292  -4.131  0.00  0.00     0.049 H 
BRANCH  49  52
ATOM     52  C   LIG d   1       4.275  -1.238  -5.155  0.00  0.00    -0.059 C 
ATOM     53  H   LIG d   1       4.029  -0.273  -4.711  0.00  0.00     0.024 H 
ATOM     54  H   LIG d   1       5.016  -1.098  -5.942  0.00  0.00     0.024 H 
ATOM     55  H   LIG d   1       3.375  -1.683  -5.577  0.00  0.00     0.024 H 
ENDBRANCH  49  52
BRANCH  49  56
ATOM     56  C   LIG d   1       4.707  -3.662  -4.357  0.00  0.00    -0.059 C 
ATOM     57  H   LIG d   1       4.824  -3.845  -5.425  0.00  0.00     0.024 H 
ATOM     58  H   LIG d   1       5.477  -4.206  -3.810  0.00  0.00     0.024 H 
ATOM     59  H   LIG d   1       3.723  -4.003  -4.036  0.00  0.00     0.024 H 
ENDBRANCH  49  56
ENDBRANCH  39  40
BRANCH  39  60
ATOM     60  C   LIG d   1       8.185  -0.535  -5.271  0.00  0.00     0.017 C 
ATOM     61  H   LIG d   1       9.210  -0.860  -5.101  0.00  0.00     0.033 H 
ATOM     62  H   LIG d   1       7.560  -1.402  -5.485  0.00  0.00     0.033 H 
ATOM     63  H   LIG d   1       8.158   0.094  -6.048  0.00  0.00     0.033 H 
ENDBRANCH  39  60
ENDBRANCH  37  39
ENDBRANCH   1  37
TORSDOF 14
ENDMDL
