MODEL 1
REMARK VINA RESULT:      -5.2      0.000      0.000
REMARK  6 active torsions:
REMARK  status: ('A' for Active; 'I' for Inactive)
REMARK    1  A    between atoms: C_1  and  C_2 
REMARK    2  A    between atoms: C_6  and  C_14 
REMARK    3  A    between atoms: C_8  and  C_12 
REMARK    4  A    between atoms: C_12  and  O_13 
REMARK    5  A    between atoms: C_14  and  C_15 
REMARK    6  A    between atoms: C_14  and  C_16 
ROOT
ATOM      1  C   LIG d   1       3.579  -1.633  -2.569  0.00  0.00     0.015 C 
ATOM      2  H   LIG d   1       3.134  -2.309  -1.981  0.00  0.00     0.037 H 
ATOM      3  C   LIG d   1       4.555  -0.792  -1.740  0.00  0.00    -0.043 C 
ATOM      4  C   LIG d   1       5.332   0.146  -2.666  0.00  0.00    -0.049 C 
ATOM      5  C   LIG d   1       6.183  -0.673  -3.637  0.00  0.00    -0.027 C 
ATOM      6  H   LIG d   1       6.843  -1.335  -3.074  0.00  0.00     0.031 H 
ATOM      7  C   LIG d   1       5.273  -1.510  -4.534  0.00  0.00     0.044 C 
ATOM      8  H   LIG d   1       5.830  -2.111  -5.108  0.00  0.00     0.040 H 
ATOM      9  C   LIG d   1       4.355  -2.337  -3.660  0.00  0.00     0.142 C 
ATOM     10  O   LIG d   1       4.249  -3.528  -3.826  0.00  0.00    -0.297 OA
ATOM     11  H   LIG d   1       4.000  -0.205  -1.009  0.00  0.00     0.027 H 
ATOM     12  H   LIG d   1       5.253  -1.451  -1.222  0.00  0.00     0.027 H 
ATOM     13  H   LIG d   1       4.630   0.760  -3.230  0.00  0.00     0.027 H 
ATOM     14  H   LIG d   1       5.979   0.790  -2.070  0.00  0.00     0.027 H 
ENDROOT
BRANCH   5  15
ATOM     15  C   LIG d   1       7.023   0.271  -4.500  0.00  0.00    -0.043 C 
ATOM     16  H   LIG d   1       6.453   0.562  -5.382  0.00  0.00     0.030 H 
BRANCH  15  17
ATOM     17  C   LIG d   1       7.382   1.519  -3.690  0.00  0.00    -0.062 C 
ATOM     18  H   LIG d   1       8.287   1.969  -4.100  0.00  0.00     0.023 H 
ATOM     19  H   LIG d   1       6.563   2.236  -3.744  0.00  0.00     0.023 H 
ATOM     20  H   LIG d   1       7.554   1.240  -2.651  0.00  0.00     0.023 H 
ENDBRANCH  15  17
BRANCH  15  21
ATOM     21  C   LIG d   1       8.307  -0.441  -4.935  0.00  0.00    -0.062 C 
ATOM     22  H   LIG d   1       8.826  -0.823  -4.055  0.00  0.00     0.023 H 
ATOM     23  H   LIG d   1       8.056  -1.268  -5.598  0.00  0.00     0.023 H 
ATOM     24  H   LIG d   1       8.952   0.264  -5.459  0.00  0.00     0.023 H 
ENDBRANCH  15  21
ENDBRANCH   5  15
BRANCH   7  25
ATOM     25  C   LIG d   1       4.439  -0.584  -5.421  0.00  0.00     0.054 C 
ATOM     26  H   LIG d   1       3.690  -0.076  -4.814  0.00  0.00     0.056 H 
ATOM     27  H   LIG d   1       5.091   0.156  -5.887  0.00  0.00     0.056 H 
BRANCH  25  28
ATOM     28  O   LIG d   1       3.790  -1.352  -6.437  0.00  0.00    -0.394 OA
ATOM     29  H   LIG d   1       2.933  -1.711  -6.172  0.00  0.00     0.209 HD
ENDBRANCH  25  28
ENDBRANCH   7  25
BRANCH   1  30
ATOM     30  C   LIG d   1       2.518  -0.726  -3.196  0.00  0.00    -0.056 C 
ATOM     31  H   LIG d   1       2.084  -1.221  -4.065  0.00  0.00     0.024 H 
ATOM     32  H   LIG d   1       1.736  -0.522  -2.464  0.00  0.00     0.024 H 
ATOM     33  H   LIG d   1       2.979   0.212  -3.506  0.00  0.00     0.024 H 
ENDBRANCH   1  30
TORSDOF 6
ENDMDL
MODEL 2
REMARK VINA RESULT:      -4.9      2.044      3.320
REMARK  6 active torsions:
REMARK  status: ('A' for Active; 'I' for Inactive)
REMARK    1  A    between atoms: C_1  and  C_2 
REMARK    2  A    between atoms: C_6  and  C_14 
REMARK    3  A    between atoms: C_8  and  C_12 
REMARK    4  A    between atoms: C_12  and  O_13 
REMARK    5  A    between atoms: C_14  and  C_15 
REMARK    6  A    between atoms: C_14  and  C_16 
ROOT
ATOM      1  C   LIG d   1       3.371  -0.035  -2.613  0.00  0.00     0.015 C 
ATOM      2  H   LIG d   1       2.552   0.411  -2.252  0.00  0.00     0.037 H 
ATOM      3  C   LIG d   1       3.204  -1.556  -2.543  0.00  0.00    -0.043 C 
ATOM      4  C   LIG d   1       4.399  -2.231  -3.220  0.00  0.00    -0.049 C 
ATOM      5  C   LIG d   1       4.427  -1.866  -4.704  0.00  0.00    -0.027 C 
ATOM      6  H   LIG d   1       3.481  -2.147  -5.166  0.00  0.00     0.031 H 
ATOM      7  C   LIG d   1       4.638  -0.361  -4.857  0.00  0.00     0.044 C 
ATOM      8  H   LIG d   1       4.568  -0.110  -5.822  0.00  0.00     0.040 H 
ATOM      9  C   LIG d   1       3.576   0.362  -4.058  0.00  0.00     0.142 C 
ATOM     10  O   LIG d   1       2.904   1.230  -4.563  0.00  0.00    -0.297 OA
ATOM     11  H   LIG d   1       3.151  -1.869  -1.501  0.00  0.00     0.027 H 
ATOM     12  H   LIG d   1       2.286  -1.844  -3.057  0.00  0.00     0.027 H 
ATOM     13  H   LIG d   1       5.321  -1.893  -2.746  0.00  0.00     0.027 H 
ATOM     14  H   LIG d   1       4.313  -3.312  -3.113  0.00  0.00     0.027 H 
ENDROOT
BRANCH   5  15
ATOM     15  C   LIG d   1       5.572  -2.615  -5.391  0.00  0.00    -0.043 C 
ATOM     16  H   LIG d   1       6.525  -2.190  -5.076  0.00  0.00     0.030 H 
BRANCH  15  17
ATOM     17  C   LIG d   1       5.521  -4.094  -5.002  0.00  0.00    -0.062 C 
ATOM     18  H   LIG d   1       4.964  -4.205  -4.072  0.00  0.00     0.023 H 
ATOM     19  H   LIG d   1       5.028  -4.661  -5.791  0.00  0.00     0.023 H 
ATOM     20  H   LIG d   1       6.536  -4.468  -4.865  0.00  0.00     0.023 H 
ENDBRANCH  15  17
BRANCH  15  21
ATOM     21  C   LIG d   1       5.431  -2.482  -6.909  0.00  0.00    -0.062 C 
ATOM     22  H   LIG d   1       4.384  -2.601  -7.189  0.00  0.00     0.023 H 
ATOM     23  H   LIG d   1       5.781  -1.498  -7.222  0.00  0.00     0.023 H 
ATOM     24  H   LIG d   1       6.027  -3.252  -7.398  0.00  0.00     0.023 H 
ENDBRANCH  15  21
ENDBRANCH   5  15
BRANCH   7  25
ATOM     25  C   LIG d   1       6.023   0.017  -4.329  0.00  0.00     0.054 C 
ATOM     26  H   LIG d   1       5.918   0.588  -3.406  0.00  0.00     0.056 H 
ATOM     27  H   LIG d   1       6.596  -0.890  -4.131  0.00  0.00     0.056 H 
BRANCH  25  28
ATOM     28  O   LIG d   1       6.707   0.807  -5.304  0.00  0.00    -0.394 OA
ATOM     29  H   LIG d   1       6.169   1.514  -5.686  0.00  0.00     0.209 HD
ENDBRANCH  25  28
ENDBRANCH   7  25
BRANCH   1  30
ATOM     30  C   LIG d   1       4.588   0.390  -1.787  0.00  0.00    -0.056 C 
ATOM     31  H   LIG d   1       5.242  -0.469  -1.634  0.00  0.00     0.024 H 
ATOM     32  H   LIG d   1       5.132   1.172  -2.317  0.00  0.00     0.024 H 
ATOM     33  H   LIG d   1       4.256   0.770  -0.821  0.00  0.00     0.024 H 
ENDBRANCH   1  30
TORSDOF 6
ENDMDL
MODEL 3
REMARK VINA RESULT:      -4.9      2.077      2.939
REMARK  6 active torsions:
REMARK  status: ('A' for Active; 'I' for Inactive)
REMARK    1  A    between atoms: C_1  and  C_2 
REMARK    2  A    between atoms: C_6  and  C_14 
REMARK    3  A    between atoms: C_8  and  C_12 
REMARK    4  A    between atoms: C_12  and  O_13 
REMARK    5  A    between atoms: C_14  and  C_15 
REMARK    6  A    between atoms: C_14  and  C_16 
ROOT
ATOM      1  C   LIG d   1       3.630  -0.028  -2.539  0.00  0.00     0.015 C 
ATOM      2  H   LIG d   1       2.679   0.209  -2.343  0.00  0.00     0.037 H 
ATOM      3  C   LIG d   1       3.850  -1.524  -2.292  0.00  0.00    -0.043 C 
ATOM      4  C   LIG d   1       5.267  -1.908  -2.723  0.00  0.00    -0.049 C 
ATOM      5  C   LIG d   1       5.427  -1.690  -4.228  0.00  0.00    -0.027 C 
ATOM      6  H   LIG d   1       4.666  -2.260  -4.762  0.00  0.00     0.031 H 
ATOM      7  C   LIG d   1       5.264  -0.205  -4.550  0.00  0.00     0.044 C 
ATOM      8  H   LIG d   1       5.281  -0.074  -5.541  0.00  0.00     0.040 H 
ATOM      9  C   LIG d   1       3.943   0.273  -3.988  0.00  0.00     0.142 C 
ATOM     10  O   LIG d   1       3.157   0.873  -4.680  0.00  0.00    -0.297 OA
ATOM     11  H   LIG d   1       3.721  -1.740  -1.232  0.00  0.00     0.027 H 
ATOM     12  H   LIG d   1       3.126  -2.098  -2.871  0.00  0.00     0.027 H 
ATOM     13  H   LIG d   1       5.988  -1.288  -2.189  0.00  0.00     0.027 H 
ATOM     14  H   LIG d   1       5.446  -2.956  -2.487  0.00  0.00     0.027 H 
ENDROOT
BRANCH   5  15
ATOM     15  C   LIG d   1       6.816  -2.159  -4.666  0.00  0.00    -0.043 C 
ATOM     16  H   LIG d   1       7.371  -1.317  -5.080  0.00  0.00     0.030 H 
BRANCH  15  17
ATOM     17  C   LIG d   1       7.570  -2.721  -3.459  0.00  0.00    -0.062 C 
ATOM     18  H   LIG d   1       7.074  -2.402  -2.542  0.00  0.00     0.023 H 
ATOM     19  H   LIG d   1       7.577  -3.809  -3.509  0.00  0.00     0.023 H 
ATOM     20  H   LIG d   1       8.595  -2.349  -3.466  0.00  0.00     0.023 H 
ENDBRANCH  15  17
BRANCH  15  21
ATOM     21  C   LIG d   1       6.675  -3.249  -5.731  0.00  0.00    -0.062 C 
ATOM     22  H   LIG d   1       6.242  -2.819  -6.635  0.00  0.00     0.023 H 
ATOM     23  H   LIG d   1       7.657  -3.663  -5.960  0.00  0.00     0.023 H 
ATOM     24  H   LIG d   1       6.025  -4.040  -5.358  0.00  0.00     0.023 H 
ENDBRANCH  15  21
ENDBRANCH   5  15
BRANCH   7  25
ATOM     25  C   LIG d   1       6.409   0.584  -3.911  0.00  0.00     0.054 C 
ATOM     26  H   LIG d   1       6.016   1.213  -3.112  0.00  0.00     0.056 H 
ATOM     27  H   LIG d   1       7.142  -0.110  -3.499  0.00  0.00     0.056 H 
BRANCH  25  28
ATOM     28  O   LIG d   1       7.035   1.404  -4.900  0.00  0.00    -0.394 OA
ATOM     29  H   LIG d   1       6.581   1.407  -5.754  0.00  0.00     0.209 HD
ENDBRANCH  25  28
ENDBRANCH   7  25
BRANCH   1  30
ATOM     30  C   LIG d   1       4.556   0.788  -1.634  0.00  0.00    -0.056 C 
ATOM     31  H   LIG d   1       4.821   1.721  -2.131  0.00  0.00     0.024 H 
ATOM     32  H   LIG d   1       4.045   1.008  -0.696  0.00  0.00     0.024 H 
ATOM     33  H   LIG d   1       5.460   0.216  -1.429  0.00  0.00     0.024 H 
ENDBRANCH   1  30
TORSDOF 6
ENDMDL
MODEL 4
REMARK VINA RESULT:      -4.5      2.221      3.422
REMARK  6 active torsions:
REMARK  status: ('A' for Active; 'I' for Inactive)
REMARK    1  A    between atoms: C_1  and  C_2 
REMARK    2  A    between atoms: C_6  and  C_14 
REMARK    3  A    between atoms: C_8  and  C_12 
REMARK    4  A    between atoms: C_12  and  O_13 
REMARK    5  A    between atoms: C_14  and  C_15 
REMARK    6  A    between atoms: C_14  and  C_16 
ROOT
ATOM      1  C   LIG d   1       3.951  -0.211  -2.356  0.00  0.00     0.015 C 
ATOM      2  H   LIG d   1       3.555   0.343  -1.624  0.00  0.00     0.037 H 
ATOM      3  C   LIG d   1       2.932  -0.373  -3.488  0.00  0.00    -0.043 C 
ATOM      4  C   LIG d   1       3.587  -1.104  -4.662  0.00  0.00    -0.049 C 
ATOM      5  C   LIG d   1       4.729  -0.257  -5.226  0.00  0.00    -0.027 C 
ATOM      6  H   LIG d   1       4.348   0.723  -5.513  0.00  0.00     0.031 H 
ATOM      7  C   LIG d   1       5.813  -0.088  -4.163  0.00  0.00     0.044 C 
ATOM      8  H   LIG d   1       6.517   0.537  -4.501  0.00  0.00     0.040 H 
ATOM      9  C   LIG d   1       5.181   0.475  -2.909  0.00  0.00     0.142 C 
ATOM     10  O   LIG d   1       5.642   1.451  -2.367  0.00  0.00    -0.297 OA
ATOM     11  H   LIG d   1       2.079  -0.950  -3.131  0.00  0.00     0.027 H 
ATOM     12  H   LIG d   1       2.593   0.611  -3.816  0.00  0.00     0.027 H 
ATOM     13  H   LIG d   1       3.981  -2.060  -4.318  0.00  0.00     0.027 H 
ATOM     14  H   LIG d   1       2.845  -1.278  -5.441  0.00  0.00     0.027 H 
ENDROOT
BRANCH   5  15
ATOM     15  C   LIG d   1       5.321  -0.954  -6.454  0.00  0.00    -0.043 C 
ATOM     16  H   LIG d   1       5.973  -1.766  -6.132  0.00  0.00     0.030 H 
BRANCH  15  17
ATOM     17  C   LIG d   1       4.190  -1.520  -7.315  0.00  0.00    -0.062 C 
ATOM     18  H   LIG d   1       4.563  -1.716  -8.320  0.00  0.00     0.023 H 
ATOM     19  H   LIG d   1       3.827  -2.448  -6.875  0.00  0.00     0.023 H 
ATOM     20  H   LIG d   1       3.375  -0.798  -7.364  0.00  0.00     0.023 H 
ENDBRANCH  15  17
BRANCH  15  21
ATOM     21  C   LIG d   1       6.129   0.055  -7.273  0.00  0.00    -0.062 C 
ATOM     22  H   LIG d   1       6.491  -0.423  -8.184  0.00  0.00     0.023 H 
ATOM     23  H   LIG d   1       5.495   0.902  -7.535  0.00  0.00     0.023 H 
ATOM     24  H   LIG d   1       6.978   0.404  -6.684  0.00  0.00     0.023 H 
ENDBRANCH  15  21
ENDBRANCH   5  15
BRANCH   7  25
ATOM     25  C   LIG d   1       6.442  -1.448  -3.854  0.00  0.00     0.054 C 
ATOM     26  H   LIG d   1       5.767  -2.026  -3.222  0.00  0.00     0.056 H 
ATOM     27  H   LIG d   1       6.617  -1.987  -4.786  0.00  0.00     0.056 H 
BRANCH  25  28
ATOM     28  O   LIG d   1       7.685  -1.256  -3.175  0.00  0.00    -0.394 OA
ATOM     29  H   LIG d   1       8.456  -1.256  -3.757  0.00  0.00     0.209 HD
ENDBRANCH  25  28
ENDBRANCH   7  25
BRANCH   1  30
ATOM     30  C   LIG d   1       4.335  -1.585  -1.804  0.00  0.00    -0.056 C 
ATOM     31  H   LIG d   1       5.144  -1.474  -1.082  0.00  0.00     0.024 H 
ATOM     32  H   LIG d   1       3.469  -2.035  -1.316  0.00  0.00     0.024 H 
ATOM     33  H   LIG d   1       4.664  -2.227  -2.621  0.00  0.00     0.024 H 
ENDBRANCH   1  30
TORSDOF 6
ENDMDL
MODEL 5
REMARK VINA RESULT:      -4.3      1.563      3.593
REMARK  6 active torsions:
REMARK  status: ('A' for Active; 'I' for Inactive)
REMARK    1  A    between atoms: C_1  and  C_2 
REMARK    2  A    between atoms: C_6  and  C_14 
REMARK    3  A    between atoms: C_8  and  C_12 
REMARK    4  A    between atoms: C_12  and  O_13 
REMARK    5  A    between atoms: C_14  and  C_15 
REMARK    6  A    between atoms: C_14  and  C_16 
ROOT
ATOM      1  C   LIG d   1       7.525  -1.325  -4.576  0.00  0.00     0.015 C 
ATOM      2  H   LIG d   1       8.393  -1.288  -5.072  0.00  0.00     0.037 H 
ATOM      3  C   LIG d   1       7.338  -0.039  -3.766  0.00  0.00    -0.043 C 
ATOM      4  C   LIG d   1       5.952  -0.041  -3.119  0.00  0.00    -0.049 C 
ATOM      5  C   LIG d   1       4.875  -0.028  -4.205  0.00  0.00    -0.027 C 
ATOM      6  H   LIG d   1       5.024   0.834  -4.856  0.00  0.00     0.031 H 
ATOM      7  C   LIG d   1       4.968  -1.309  -5.033  0.00  0.00     0.044 C 
ATOM      8  H   LIG d   1       4.323  -1.261  -5.796  0.00  0.00     0.040 H 
ATOM      9  C   LIG d   1       6.380  -1.447  -5.558  0.00  0.00     0.142 C 
ATOM     10  O   LIG d   1       6.588  -1.643  -6.731  0.00  0.00    -0.297 OA
ATOM     11  H   LIG d   1       8.101   0.016  -2.990  0.00  0.00     0.027 H 
ATOM     12  H   LIG d   1       7.430   0.823  -4.427  0.00  0.00     0.027 H 
ATOM     13  H   LIG d   1       5.839  -0.937  -2.508  0.00  0.00     0.027 H 
ATOM     14  H   LIG d   1       5.843   0.842  -2.490  0.00  0.00     0.027 H 
ENDROOT
BRANCH   5  15
ATOM     15  C   LIG d   1       3.494   0.059  -3.551  0.00  0.00    -0.043 C 
ATOM     16  H   LIG d   1       3.214  -0.919  -3.159  0.00  0.00     0.030 H 
BRANCH  15  17
ATOM     17  C   LIG d   1       3.533   1.074  -2.407  0.00  0.00    -0.062 C 
ATOM     18  H   LIG d   1       4.562   1.391  -2.239  0.00  0.00     0.023 H 
ATOM     19  H   LIG d   1       2.923   1.939  -2.667  0.00  0.00     0.023 H 
ATOM     20  H   LIG d   1       3.143   0.612  -1.500  0.00  0.00     0.023 H 
ENDBRANCH  15  17
BRANCH  15  21
ATOM     21  C   LIG d   1       2.463   0.504  -4.592  0.00  0.00    -0.062 C 
ATOM     22  H   LIG d   1       2.976   0.964  -5.437  0.00  0.00     0.023 H 
ATOM     23  H   LIG d   1       1.899  -0.362  -4.938  0.00  0.00     0.023 H 
ATOM     24  H   LIG d   1       1.782   1.227  -4.143  0.00  0.00     0.023 H 
ENDBRANCH  15  21
ENDBRANCH   5  15
BRANCH   7  25
ATOM     25  C   LIG d   1       4.628  -2.512  -4.151  0.00  0.00     0.054 C 
ATOM     26  H   LIG d   1       5.533  -2.869  -3.657  0.00  0.00     0.056 H 
ATOM     27  H   LIG d   1       3.897  -2.216  -3.399  0.00  0.00     0.056 H 
BRANCH  25  28
ATOM     28  O   LIG d   1       4.083  -3.557  -4.959  0.00  0.00    -0.394 OA
ATOM     29  H   LIG d   1       4.686  -3.886  -5.639  0.00  0.00     0.209 HD
ENDBRANCH  25  28
ENDBRANCH   7  25
BRANCH   1  30
ATOM     30  C   LIG d   1       7.526  -2.533  -3.637  0.00  0.00    -0.056 C 
ATOM     31  H   LIG d   1       7.785  -3.431  -4.199  0.00  0.00     0.024 H 
ATOM     32  H   LIG d   1       8.259  -2.376  -2.844  0.00  0.00     0.024 H 
ATOM     33  H   LIG d   1       6.536  -2.654  -3.198  0.00  0.00     0.024 H 
ENDBRANCH   1  30
TORSDOF 6
ENDMDL
MODEL 6
REMARK VINA RESULT:      -4.3      1.870      3.852
REMARK  6 active torsions:
REMARK  status: ('A' for Active; 'I' for Inactive)
REMARK    1  A    between atoms: C_1  and  C_2 
REMARK    2  A    between atoms: C_6  and  C_14 
REMARK    3  A    between atoms: C_8  and  C_12 
REMARK    4  A    between atoms: C_12  and  O_13 
REMARK    5  A    between atoms: C_14  and  C_15 
REMARK    6  A    between atoms: C_14  and  C_16 
ROOT
ATOM      1  C   LIG d   1       7.703  -1.830  -5.353  0.00  0.00     0.015 C 
ATOM      2  H   LIG d   1       8.644  -1.881  -5.687  0.00  0.00     0.037 H 
ATOM      3  C   LIG d   1       7.647  -2.301  -3.897  0.00  0.00    -0.043 C 
ATOM      4  C   LIG d   1       6.234  -2.092  -3.348  0.00  0.00    -0.049 C 
ATOM      5  C   LIG d   1       5.899  -0.600  -3.334  0.00  0.00    -0.027 C 
ATOM      6  H   LIG d   1       6.649  -0.064  -2.752  0.00  0.00     0.031 H 
ATOM      7  C   LIG d   1       5.891  -0.065  -4.765  0.00  0.00     0.044 C 
ATOM      8  H   LIG d   1       5.760   0.926  -4.750  0.00  0.00     0.040 H 
ATOM      9  C   LIG d   1       7.215  -0.400  -5.417  0.00  0.00     0.142 C 
ATOM     10  O   LIG d   1       7.867   0.453  -5.969  0.00  0.00    -0.297 OA
ATOM     11  H   LIG d   1       7.905  -3.358  -3.845  0.00  0.00     0.027 H 
ATOM     12  H   LIG d   1       8.357  -1.724  -3.301  0.00  0.00     0.027 H 
ATOM     13  H   LIG d   1       5.520  -2.618  -3.982  0.00  0.00     0.027 H 
ATOM     14  H   LIG d   1       6.177  -2.487  -2.334  0.00  0.00     0.027 H 
ENDROOT
BRANCH   5  15
ATOM     15  C   LIG d   1       4.520  -0.394  -2.703  0.00  0.00    -0.043 C 
ATOM     16  H   LIG d   1       3.797  -0.151  -3.481  0.00  0.00     0.030 H 
BRANCH  15  17
ATOM     17  C   LIG d   1       4.088  -1.676  -1.989  0.00  0.00    -0.062 C 
ATOM     18  H   LIG d   1       4.198  -1.546  -0.912  0.00  0.00     0.023 H 
ATOM     19  H   LIG d   1       3.047  -1.891  -2.225  0.00  0.00     0.023 H 
ATOM     20  H   LIG d   1       4.715  -2.505  -2.320  0.00  0.00     0.023 H 
ENDBRANCH  15  17
BRANCH  15  21
ATOM     21  C   LIG d   1       4.588   0.754  -1.693  0.00  0.00    -0.062 C 
ATOM     22  H   LIG d   1       5.480   1.353  -1.882  0.00  0.00     0.023 H 
ATOM     23  H   LIG d   1       3.702   1.380  -1.794  0.00  0.00     0.023 H 
ATOM     24  H   LIG d   1       4.632   0.347  -0.683  0.00  0.00     0.023 H 
ENDBRANCH  15  21
ENDBRANCH   5  15
BRANCH   7  25
ATOM     25  C   LIG d   1       4.752  -0.720  -5.548  0.00  0.00     0.054 C 
ATOM     26  H   LIG d   1       5.167  -1.399  -6.294  0.00  0.00     0.056 H 
ATOM     27  H   LIG d   1       4.115  -1.279  -4.863  0.00  0.00     0.056 H 
BRANCH  25  28
ATOM     28  O   LIG d   1       3.979   0.290  -6.200  0.00  0.00    -0.394 OA
ATOM     29  H   LIG d   1       3.073   0.022  -6.404  0.00  0.00     0.209 HD
ENDBRANCH  25  28
ENDBRANCH   7  25
BRANCH   1  30
ATOM     30  C   LIG d   1       6.807  -2.718  -6.219  0.00  0.00    -0.056 C 
ATOM     31  H   LIG d   1       6.402  -3.529  -5.612  0.00  0.00     0.024 H 
ATOM     32  H   LIG d   1       5.987  -2.123  -6.623  0.00  0.00     0.024 H 
ATOM     33  H   LIG d   1       7.391  -3.136  -7.038  0.00  0.00     0.024 H 
ENDBRANCH   1  30
TORSDOF 6
ENDMDL
MODEL 7
REMARK VINA RESULT:      -4.3      2.197      3.855
REMARK  6 active torsions:
REMARK  status: ('A' for Active; 'I' for Inactive)
REMARK    1  A    between atoms: C_1  and  C_2 
REMARK    2  A    between atoms: C_6  and  C_14 
REMARK    3  A    between atoms: C_8  and  C_12 
REMARK    4  A    between atoms: C_12  and  O_13 
REMARK    5  A    between atoms: C_14  and  C_15 
REMARK    6  A    between atoms: C_14  and  C_16 
ROOT
ATOM      1  C   LIG d   1       6.532  -3.388  -4.904  0.00  0.00     0.015 C 
ATOM      2  H   LIG d   1       7.013  -4.264  -4.932  0.00  0.00     0.037 H 
ATOM      3  C   LIG d   1       5.050  -3.622  -4.595  0.00  0.00    -0.043 C 
ATOM      4  C   LIG d   1       4.347  -2.275  -4.420  0.00  0.00    -0.049 C 
ATOM      5  C   LIG d   1       4.930  -1.540  -3.212  0.00  0.00    -0.027 C 
ATOM      6  H   LIG d   1       4.841  -2.169  -2.326  0.00  0.00     0.031 H 
ATOM      7  C   LIG d   1       6.404  -1.229  -3.465  0.00  0.00     0.044 C 
ATOM      8  H   LIG d   1       6.807  -0.828  -2.643  0.00  0.00     0.040 H 
ATOM      9  C   LIG d   1       7.119  -2.515  -3.817  0.00  0.00     0.142 C 
ATOM     10  O   LIG d   1       8.129  -2.840  -3.240  0.00  0.00    -0.297 OA
ATOM     11  H   LIG d   1       4.589  -4.169  -5.417  0.00  0.00     0.027 H 
ATOM     12  H   LIG d   1       4.958  -4.202  -3.676  0.00  0.00     0.027 H 
ATOM     13  H   LIG d   1       4.494  -1.671  -5.316  0.00  0.00     0.027 H 
ATOM     14  H   LIG d   1       3.281  -2.439  -4.265  0.00  0.00     0.027 H 
ENDROOT
BRANCH   5  15
ATOM     15  C   LIG d   1       4.162  -0.235  -2.991  0.00  0.00    -0.043 C 
ATOM     16  H   LIG d   1       4.408   0.471  -3.784  0.00  0.00     0.030 H 
BRANCH  15  17
ATOM     17  C   LIG d   1       2.659  -0.517  -3.007  0.00  0.00    -0.062 C 
ATOM     18  H   LIG d   1       2.492  -1.594  -3.034  0.00  0.00     0.023 H 
ATOM     19  H   LIG d   1       2.200  -0.100  -2.111  0.00  0.00     0.023 H 
ATOM     20  H   LIG d   1       2.214  -0.058  -3.891  0.00  0.00     0.023 H 
ENDBRANCH  15  17
BRANCH  15  21
ATOM     21  C   LIG d   1       4.554   0.364  -1.637  0.00  0.00    -0.062 C 
ATOM     22  H   LIG d   1       4.034  -0.168  -0.840  0.00  0.00     0.023 H 
ATOM     23  H   LIG d   1       5.630   0.270  -1.496  0.00  0.00     0.023 H 
ATOM     24  H   LIG d   1       4.274   1.418  -1.612  0.00  0.00     0.023 H 
ENDBRANCH  15  21
ENDBRANCH   5  15
BRANCH   7  25
ATOM     25  C   LIG d   1       6.524  -0.241  -4.627  0.00  0.00     0.054 C 
ATOM     26  H   LIG d   1       7.007  -0.730  -5.473  0.00  0.00     0.056 H 
ATOM     27  H   LIG d   1       5.530   0.097  -4.921  0.00  0.00     0.056 H 
BRANCH  25  28
ATOM     28  O   LIG d   1       7.306   0.884  -4.218  0.00  0.00    -0.394 OA
ATOM     29  H   LIG d   1       8.173   0.936  -4.642  0.00  0.00     0.209 HD
ENDBRANCH  25  28
ENDBRANCH   7  25
BRANCH   1  30
ATOM     30  C   LIG d   1       6.673  -2.687  -6.257  0.00  0.00    -0.056 C 
ATOM     31  H   LIG d   1       7.390  -3.229  -6.875  0.00  0.00     0.024 H 
ATOM     32  H   LIG d   1       5.705  -2.665  -6.758  0.00  0.00     0.024 H 
ATOM     33  H   LIG d   1       7.025  -1.667  -6.104  0.00  0.00     0.024 H 
ENDBRANCH   1  30
TORSDOF 6
ENDMDL
MODEL 8
REMARK VINA RESULT:      -3.9      8.485     10.456
REMARK  6 active torsions:
REMARK  status: ('A' for Active; 'I' for Inactive)
REMARK    1  A    between atoms: C_1  and  C_2 
REMARK    2  A    between atoms: C_6  and  C_14 
REMARK    3  A    between atoms: C_8  and  C_12 
REMARK    4  A    between atoms: C_12  and  O_13 
REMARK    5  A    between atoms: C_14  and  C_15 
REMARK    6  A    between atoms: C_14  and  C_16 
ROOT
ATOM      1  C   LIG d   1      12.148   7.325  -0.094  0.00  0.00     0.015 C 
ATOM      2  H   LIG d   1      12.743   7.016   0.647  0.00  0.00     0.037 H 
ATOM      3  C   LIG d   1      12.829   7.070  -1.443  0.00  0.00    -0.043 C 
ATOM      4  C   LIG d   1      11.861   7.418  -2.576  0.00  0.00    -0.049 C 
ATOM      5  C   LIG d   1      10.646   6.491  -2.522  0.00  0.00    -0.027 C 
ATOM      6  H   LIG d   1      10.977   5.453  -2.568  0.00  0.00     0.031 H 
ATOM      7  C   LIG d   1       9.885   6.721  -1.217  0.00  0.00     0.044 C 
ATOM      8  H   LIG d   1       9.143   6.055  -1.142  0.00  0.00     0.040 H 
ATOM      9  C   LIG d   1      10.845   6.558  -0.059  0.00  0.00     0.142 C 
ATOM     10  O   LIG d   1      10.580   5.829   0.867  0.00  0.00    -0.297 OA
ATOM     11  H   LIG d   1      13.721   7.690  -1.523  0.00  0.00     0.027 H 
ATOM     12  H   LIG d   1      13.109   6.018  -1.514  0.00  0.00     0.027 H 
ATOM     13  H   LIG d   1      11.533   8.452  -2.465  0.00  0.00     0.027 H 
ATOM     14  H   LIG d   1      12.366   7.299  -3.534  0.00  0.00     0.027 H 
ENDROOT
BRANCH   5  15
ATOM     15  C   LIG d   1       9.727   6.787  -3.709  0.00  0.00    -0.043 C 
ATOM     16  H   LIG d   1       8.798   7.228  -3.349  0.00  0.00     0.030 H 
BRANCH  15  17
ATOM     17  C   LIG d   1      10.420   7.764  -4.661  0.00  0.00    -0.062 C 
ATOM     18  H   LIG d   1      11.149   8.354  -4.106  0.00  0.00     0.023 H 
ATOM     19  H   LIG d   1      10.926   7.207  -5.449  0.00  0.00     0.023 H 
ATOM     20  H   LIG d   1       9.676   8.427  -5.103  0.00  0.00     0.023 H 
ENDBRANCH  15  17
BRANCH  15  21
ATOM     21  C   LIG d   1       9.417   5.484  -4.452  0.00  0.00    -0.062 C 
ATOM     22  H   LIG d   1       8.430   5.553  -4.910  0.00  0.00     0.023 H 
ATOM     23  H   LIG d   1      10.166   5.321  -5.226  0.00  0.00     0.023 H 
ATOM     24  H   LIG d   1       9.434   4.652  -3.748  0.00  0.00     0.023 H 
ENDBRANCH  15  21
ENDBRANCH   5  15
BRANCH   7  25
ATOM     25  C   LIG d   1       9.305   8.136  -1.208  0.00  0.00     0.054 C 
ATOM     26  H   LIG d   1       9.813   8.733  -0.450  0.00  0.00     0.056 H 
ATOM     27  H   LIG d   1       9.448   8.594  -2.187  0.00  0.00     0.056 H 
BRANCH  25  28
ATOM     28  O   LIG d   1       7.908   8.078  -0.910  0.00  0.00    -0.394 OA
ATOM     29  H   LIG d   1       7.336   8.167  -1.684  0.00  0.00     0.209 HD
ENDBRANCH  25  28
ENDBRANCH   7  25
BRANCH   1  30
ATOM     30  C   LIG d   1      11.867   8.821   0.068  0.00  0.00    -0.056 C 
ATOM     31  H   LIG d   1      10.829   9.027  -0.194  0.00  0.00     0.024 H 
ATOM     32  H   LIG d   1      12.046   9.113   1.104  0.00  0.00     0.024 H 
ATOM     33  H   LIG d   1      12.527   9.388  -0.588  0.00  0.00     0.024 H 
ENDBRANCH   1  30
TORSDOF 6
ENDMDL
MODEL 9
REMARK VINA RESULT:      -3.8      8.014      9.854
REMARK  6 active torsions:
REMARK  status: ('A' for Active; 'I' for Inactive)
REMARK    1  A    between atoms: C_1  and  C_2 
REMARK    2  A    between atoms: C_6  and  C_14 
REMARK    3  A    between atoms: C_8  and  C_12 
REMARK    4  A    between atoms: C_12  and  O_13 
REMARK    5  A    between atoms: C_14  and  C_15 
REMARK    6  A    between atoms: C_14  and  C_16 
ROOT
ATOM      1  C   LIG d   1       9.956   5.934  -3.234  0.00  0.00     0.015 C 
ATOM      2  H   LIG d   1       9.304   5.634  -3.931  0.00  0.00     0.037 H 
ATOM      3  C   LIG d   1       9.274   6.920  -2.281  0.00  0.00    -0.043 C 
ATOM      4  C   LIG d   1      10.232   7.270  -1.140  0.00  0.00    -0.049 C 
ATOM      5  C   LIG d   1      10.538   6.017  -0.318  0.00  0.00    -0.027 C 
ATOM      6  H   LIG d   1       9.606   5.583   0.045  0.00  0.00     0.031 H 
ATOM      7  C   LIG d   1      11.263   4.996  -1.195  0.00  0.00     0.044 C 
ATOM      8  H   LIG d   1      11.385   4.145  -0.684  0.00  0.00     0.040 H 
ATOM      9  C   LIG d   1      10.434   4.742  -2.434  0.00  0.00     0.142 C 
ATOM     10  O   LIG d   1      10.154   3.617  -2.772  0.00  0.00    -0.297 OA
ATOM     11  H   LIG d   1       9.009   7.827  -2.824  0.00  0.00     0.027 H 
ATOM     12  H   LIG d   1       8.372   6.465  -1.871  0.00  0.00     0.027 H 
ATOM     13  H   LIG d   1      11.159   7.667  -1.555  0.00  0.00     0.027 H 
ATOM     14  H   LIG d   1       9.772   8.021  -0.498  0.00  0.00     0.027 H 
ENDROOT
BRANCH   5  15
ATOM     15  C   LIG d   1      11.425   6.392   0.871  0.00  0.00    -0.043 C 
ATOM     16  H   LIG d   1      12.451   6.082   0.672  0.00  0.00     0.030 H 
BRANCH  15  17
ATOM     17  C   LIG d   1      11.382   7.906   1.083  0.00  0.00    -0.062 C 
ATOM     18  H   LIG d   1      12.394   8.308   1.035  0.00  0.00     0.023 H 
ATOM     19  H   LIG d   1      10.771   8.366   0.306  0.00  0.00     0.023 H 
ATOM     20  H   LIG d   1      10.951   8.124   2.061  0.00  0.00     0.023 H 
ENDBRANCH  15  17
BRANCH  15  21
ATOM     21  C   LIG d   1      10.915   5.686   2.130  0.00  0.00    -0.062 C 
ATOM     22  H   LIG d   1      11.477   4.764   2.283  0.00  0.00     0.023 H 
ATOM     23  H   LIG d   1      11.047   6.340   2.992  0.00  0.00     0.023 H 
ATOM     24  H   LIG d   1       9.857   5.451   2.011  0.00  0.00     0.023 H 
ENDBRANCH  15  21
ENDBRANCH   5  15
BRANCH   7  25
ATOM     25  C   LIG d   1      12.631   5.551  -1.598  0.00  0.00     0.054 C 
ATOM     26  H   LIG d   1      12.618   5.819  -2.654  0.00  0.00     0.056 H 
ATOM     27  H   LIG d   1      12.854   6.436  -1.001  0.00  0.00     0.056 H 
BRANCH  25  28
ATOM     28  O   LIG d   1      13.634   4.559  -1.370  0.00  0.00    -0.394 OA
ATOM     29  H   LIG d   1      13.647   3.853  -2.029  0.00  0.00     0.209 HD
ENDBRANCH  25  28
ENDBRANCH   7  25
BRANCH   1  30
ATOM     30  C   LIG d   1      11.150   6.610  -3.911  0.00  0.00    -0.056 C 
ATOM     31  H   LIG d   1      11.952   6.744  -3.184  0.00  0.00     0.024 H 
ATOM     32  H   LIG d   1      11.504   5.985  -4.732  0.00  0.00     0.024 H 
ATOM     33  H   LIG d   1      10.847   7.581  -4.299  0.00  0.00     0.024 H 
ENDBRANCH   1  30
TORSDOF 6
ENDMDL
MODEL 10
REMARK VINA RESULT:      -3.8      9.358     11.277
REMARK  6 active torsions:
REMARK  status: ('A' for Active; 'I' for Inactive)
REMARK    1  A    between atoms: C_1  and  C_2 
REMARK    2  A    between atoms: C_6  and  C_14 
REMARK    3  A    between atoms: C_8  and  C_12 
REMARK    4  A    between atoms: C_12  and  O_13 
REMARK    5  A    between atoms: C_14  and  C_15 
REMARK    6  A    between atoms: C_14  and  C_16 
ROOT
ATOM      1  C   LIG d   1      11.522   5.211  -0.392  0.00  0.00     0.015 C 
ATOM      2  H   LIG d   1      11.451   4.252  -0.119  0.00  0.00     0.037 H 
ATOM      3  C   LIG d   1      10.648   5.462  -1.625  0.00  0.00    -0.043 C 
ATOM      4  C   LIG d   1      10.653   6.955  -1.957  0.00  0.00    -0.049 C 
ATOM      5  C   LIG d   1      10.018   7.743  -0.810  0.00  0.00    -0.027 C 
ATOM      6  H   LIG d   1       9.013   7.366  -0.622  0.00  0.00     0.031 H 
ATOM      7  C   LIG d   1      10.864   7.578   0.452  0.00  0.00     0.044 C 
ATOM      8  H   LIG d   1      10.403   8.018   1.223  0.00  0.00     0.040 H 
ATOM      9  C   LIG d   1      11.038   6.101   0.731  0.00  0.00     0.142 C 
ATOM     10  O   LIG d   1      10.790   5.643   1.821  0.00  0.00    -0.297 OA
ATOM     11  H   LIG d   1      11.042   4.900  -2.471  0.00  0.00     0.027 H 
ATOM     12  H   LIG d   1       9.627   5.139  -1.418  0.00  0.00     0.027 H 
ATOM     13  H   LIG d   1      11.681   7.290  -2.101  0.00  0.00     0.027 H 
ATOM     14  H   LIG d   1      10.085   7.125  -2.871  0.00  0.00     0.027 H 
ENDROOT
BRANCH   5  15
ATOM     15  C   LIG d   1       9.947   9.224  -1.187  0.00  0.00    -0.043 C 
ATOM     16  H   LIG d   1      10.751   9.766  -0.689  0.00  0.00     0.030 H 
BRANCH  15  17
ATOM     17  C   LIG d   1      10.094   9.373  -2.703  0.00  0.00    -0.062 C 
ATOM     18  H   LIG d   1      11.114   9.676  -2.940  0.00  0.00     0.023 H 
ATOM     19  H   LIG d   1       9.876   8.421  -3.185  0.00  0.00     0.023 H 
ATOM     20  H   LIG d   1       9.397  10.130  -3.062  0.00  0.00     0.023 H 
ENDBRANCH  15  17
BRANCH  15  21
ATOM     21  C   LIG d   1       8.598   9.798  -0.747  0.00  0.00    -0.062 C 
ATOM     22  H   LIG d   1       7.977   9.981  -1.625  0.00  0.00     0.023 H 
ATOM     23  H   LIG d   1       8.097   9.088  -0.089  0.00  0.00     0.023 H 
ATOM     24  H   LIG d   1       8.759  10.736  -0.215  0.00  0.00     0.023 H 
ENDBRANCH  15  21
ENDBRANCH   5  15
BRANCH   7  25
ATOM     25  C   LIG d   1      12.233   8.224   0.237  0.00  0.00     0.054 C 
ATOM     26  H   LIG d   1      12.913   7.497  -0.208  0.00  0.00     0.056 H 
ATOM     27  H   LIG d   1      12.130   9.080  -0.430  0.00  0.00     0.056 H 
BRANCH  25  28
ATOM     28  O   LIG d   1      12.758   8.661   1.493  0.00  0.00    -0.394 OA
ATOM     29  H   LIG d   1      13.716   8.788   1.496  0.00  0.00     0.209 HD
ENDBRANCH  25  28
ENDBRANCH   7  25
BRANCH   1  30
ATOM     30  C   LIG d   1      12.981   5.541  -0.716  0.00  0.00    -0.056 C 
ATOM     31  H   LIG d   1      13.046   5.949  -1.725  0.00  0.00     0.024 H 
ATOM     32  H   LIG d   1      13.354   6.276  -0.001  0.00  0.00     0.024 H 
ATOM     33  H   LIG d   1      13.582   4.635  -0.652  0.00  0.00     0.024 H 
ENDBRANCH   1  30
TORSDOF 6
ENDMDL
