MODEL 1
REMARK VINA RESULT:      -5.8      0.000      0.000
REMARK  8 active torsions:
REMARK  status: ('A' for Active; 'I' for Inactive)
REMARK    1  A    between atoms: C_1  and  C_2 
REMARK    2  A    between atoms: C_3  and  C_12 
REMARK    3  A    between atoms: C_14  and  C_19 
REMARK    4  A    between atoms: C_16  and  C_17 
REMARK    5  A    between atoms: C_16  and  C_18 
REMARK    6  A    between atoms: C_19  and  C_20 
REMARK    7  A    between atoms: C_20  and  N_21 
REMARK       I    between atoms: N_21  and  C_22 
REMARK    8  A    between atoms: C_22  and  C_24 
ROOT
ATOM      1  C   LIG d   1       5.823  -1.799  -6.405  0.00  0.00    -0.005 A 
ATOM      2  H   LIG d   1       6.516  -1.521  -7.198  0.00  0.00     0.036 H 
ATOM      3  C   LIG d   1       4.369  -2.069  -6.800  0.00  0.00    -0.026 A 
ATOM      4  H   LIG d   1       3.592  -1.779  -6.093  0.00  0.00     0.031 H 
ATOM      5  C   LIG d   1       5.284  -3.232  -6.408  0.00  0.00    -0.024 A 
ENDROOT
BRANCH   1   6
ATOM      6  C   LIG d   1       6.070  -1.152  -5.067  0.00  0.00    -0.015 A 
ATOM      7  C   LIG d   1       7.228  -1.140  -4.387  0.00  0.00     0.017 A 
ATOM      8  N   LIG d   1       7.073  -0.457  -3.212  0.00  0.00    -0.358 N 
ATOM      9  C   LIG d   1       5.778  -0.001  -3.104  0.00  0.00     0.047 A 
ATOM     10  H   LIG d   1       7.770  -0.315  -2.553  0.00  0.00     0.166 HD
ATOM     11  C   LIG d   1       5.093  -0.417  -4.261  0.00  0.00     0.003 A 
ATOM     12  C   LIG d   1       5.099   0.736  -2.138  0.00  0.00    -0.038 A 
ATOM     13  C   LIG d   1       3.746  -0.091  -4.427  0.00  0.00    -0.052 A 
ATOM     14  C   LIG d   1       3.097   0.629  -3.464  0.00  0.00    -0.061 A 
ATOM     15  H   LIG d   1       3.216  -0.409  -5.314  0.00  0.00     0.062 H 
ATOM     16  C   LIG d   1       3.769   1.042  -2.320  0.00  0.00    -0.060 A 
ATOM     17  H   LIG d   1       2.055   0.881  -3.592  0.00  0.00     0.062 H 
ATOM     18  H   LIG d   1       3.243   1.612  -1.568  0.00  0.00     0.062 H 
ATOM     19  H   LIG d   1       5.614   1.066  -1.248  0.00  0.00     0.064 H 
BRANCH   7  20
ATOM     20  C   LIG d   1       8.509  -1.785  -4.850  0.00  0.00    -0.024 C 
ATOM     21  H   LIG d   1       9.144  -1.991  -3.988  0.00  0.00     0.029 H 
ATOM     22  H   LIG d   1       8.281  -2.719  -5.364  0.00  0.00     0.029 H 
ATOM     23  H   LIG d   1       9.028  -1.111  -5.532  0.00  0.00     0.029 H 
ENDBRANCH   7  20
ENDBRANCH   1   6
BRANCH   5  24
ATOM     24  C   LIG d   1       5.762  -4.164  -7.523  0.00  0.00    -0.059 C 
ATOM     25  H   LIG d   1       5.698  -3.647  -8.481  0.00  0.00     0.024 H 
ATOM     26  H   LIG d   1       6.795  -4.454  -7.336  0.00  0.00     0.024 H 
ATOM     27  H   LIG d   1       5.132  -5.053  -7.548  0.00  0.00     0.024 H 
ENDBRANCH   5  24
BRANCH   5  28
ATOM     28  C   LIG d   1       5.039  -3.897  -5.052  0.00  0.00    -0.059 C 
ATOM     29  H   LIG d   1       3.971  -3.896  -4.834  0.00  0.00     0.024 H 
ATOM     30  H   LIG d   1       5.404  -4.924  -5.079  0.00  0.00     0.024 H 
ATOM     31  H   LIG d   1       5.569  -3.344  -4.275  0.00  0.00     0.024 H 
ENDBRANCH   5  28
BRANCH   3  32
ATOM     32  C   LIG d   1       4.002  -1.928  -8.279  0.00  0.00    -0.034 C 
ATOM     33  H   LIG d   1       4.874  -1.594  -8.840  0.00  0.00     0.028 H 
ATOM     34  H   LIG d   1       3.669  -2.892  -8.664  0.00  0.00     0.028 H 
BRANCH  32  35
ATOM     35  C   LIG d   1       2.876  -0.904  -8.429  0.00  0.00     0.012 C 
ATOM     36  H   LIG d   1       2.044  -1.354  -8.971  0.00  0.00     0.046 H 
ATOM     37  H   LIG d   1       2.539  -0.588  -7.442  0.00  0.00     0.046 H 
BRANCH  35  38
ATOM     38  N   LIG d   1       3.370   0.260  -9.171  0.00  0.00    -0.316 N 
ATOM     39  C   LIG d   1       3.420   1.468  -8.575  0.00  0.00     0.210 C 
ATOM     40  O   LIG d   1       3.056   1.592  -7.424  0.00  0.00    -0.276 OA
ATOM     41  H   LIG d   1       3.660   0.161 -10.090  0.00  0.00     0.149 HD
BRANCH  39  42
ATOM     42  C   LIG d   1       3.927   2.664  -9.338  0.00  0.00     0.012 C 
ATOM     43  H   LIG d   1       3.144   3.421  -9.388  0.00  0.00     0.032 H 
ATOM     44  H   LIG d   1       4.800   3.075  -8.831  0.00  0.00     0.032 H 
ATOM     45  H   LIG d   1       4.203   2.360 -10.348  0.00  0.00     0.032 H 
ENDBRANCH  39  42
ENDBRANCH  35  38
ENDBRANCH  32  35
ENDBRANCH   3  32
TORSDOF 8
ENDMDL
MODEL 2
REMARK VINA RESULT:      -5.7      1.941      2.766
REMARK  8 active torsions:
REMARK  status: ('A' for Active; 'I' for Inactive)
REMARK    1  A    between atoms: C_1  and  C_2 
REMARK    2  A    between atoms: C_3  and  C_12 
REMARK    3  A    between atoms: C_14  and  C_19 
REMARK    4  A    between atoms: C_16  and  C_17 
REMARK    5  A    between atoms: C_16  and  C_18 
REMARK    6  A    between atoms: C_19  and  C_20 
REMARK    7  A    between atoms: C_20  and  N_21 
REMARK       I    between atoms: N_21  and  C_22 
REMARK    8  A    between atoms: C_22  and  C_24 
ROOT
ATOM      1  C   LIG d   1       6.148  -1.829  -6.510  0.00  0.00    -0.005 A 
ATOM      2  H   LIG d   1       7.054  -2.413  -6.665  0.00  0.00     0.036 H 
ATOM      3  C   LIG d   1       6.112  -0.414  -7.091  0.00  0.00    -0.026 A 
ATOM      4  H   LIG d   1       5.577   0.350  -6.527  0.00  0.00     0.031 H 
ATOM      5  C   LIG d   1       5.283  -1.527  -7.736  0.00  0.00    -0.024 A 
ENDROOT
BRANCH   1   6
ATOM      6  C   LIG d   1       5.440  -2.060  -5.200  0.00  0.00    -0.015 A 
ATOM      7  C   LIG d   1       4.856  -3.200  -4.797  0.00  0.00     0.017 A 
ATOM      8  N   LIG d   1       4.316  -3.034  -3.552  0.00  0.00    -0.358 N 
ATOM      9  C   LIG d   1       4.545  -1.750  -3.110  0.00  0.00     0.047 A 
ATOM     10  H   LIG d   1       3.843  -3.718  -3.053  0.00  0.00     0.166 HD
ATOM     11  C   LIG d   1       5.259  -1.083  -4.123  0.00  0.00     0.003 A 
ATOM     12  C   LIG d   1       4.225  -1.067  -1.940  0.00  0.00    -0.038 A 
ATOM     13  C   LIG d   1       5.634   0.250  -3.949  0.00  0.00    -0.052 A 
ATOM     14  C   LIG d   1       5.306   0.903  -2.795  0.00  0.00    -0.061 A 
ATOM     15  H   LIG d   1       6.182   0.765  -4.725  0.00  0.00     0.062 H 
ATOM     16  C   LIG d   1       4.601   0.249  -1.791  0.00  0.00    -0.060 A 
ATOM     17  H   LIG d   1       5.595   1.934  -2.660  0.00  0.00     0.062 H 
ATOM     18  H   LIG d   1       4.349   0.778  -0.884  0.00  0.00     0.062 H 
ATOM     19  H   LIG d   1       3.682  -1.568  -1.152  0.00  0.00     0.064 H 
BRANCH   7  20
ATOM     20  C   LIG d   1       4.803  -4.474  -5.600  0.00  0.00    -0.024 C 
ATOM     21  H   LIG d   1       5.140  -5.307  -4.983  0.00  0.00     0.029 H 
ATOM     22  H   LIG d   1       3.780  -4.656  -5.927  0.00  0.00     0.029 H 
ATOM     23  H   LIG d   1       5.452  -4.382  -6.471  0.00  0.00     0.029 H 
ENDBRANCH   7  20
ENDBRANCH   1   6
BRANCH   5  24
ATOM     24  C   LIG d   1       5.758  -2.071  -9.085  0.00  0.00    -0.059 C 
ATOM     25  H   LIG d   1       6.137  -3.084  -8.956  0.00  0.00     0.024 H 
ATOM     26  H   LIG d   1       4.923  -2.082  -9.786  0.00  0.00     0.024 H 
ATOM     27  H   LIG d   1       6.551  -1.433  -9.475  0.00  0.00     0.024 H 
ENDBRANCH   5  24
BRANCH   5  28
ATOM     28  C   LIG d   1       3.767  -1.484  -7.538  0.00  0.00    -0.059 C 
ATOM     29  H   LIG d   1       3.355  -0.626  -8.067  0.00  0.00     0.024 H 
ATOM     30  H   LIG d   1       3.323  -2.400  -7.929  0.00  0.00     0.024 H 
ATOM     31  H   LIG d   1       3.542  -1.398  -6.474  0.00  0.00     0.024 H 
ENDBRANCH   5  28
BRANCH   3  32
ATOM     32  C   LIG d   1       7.352   0.071  -7.846  0.00  0.00    -0.034 C 
ATOM     33  H   LIG d   1       8.171   0.221  -7.143  0.00  0.00     0.028 H 
ATOM     34  H   LIG d   1       7.641  -0.676  -8.587  0.00  0.00     0.028 H 
BRANCH  32  35
ATOM     35  C   LIG d   1       7.035   1.391  -8.551  0.00  0.00     0.012 C 
ATOM     36  H   LIG d   1       7.696   2.172  -8.175  0.00  0.00     0.046 H 
ATOM     37  H   LIG d   1       7.182   1.275  -9.624  0.00  0.00     0.046 H 
BRANCH  35  38
ATOM     38  N   LIG d   1       5.642   1.763  -8.287  0.00  0.00    -0.316 N 
ATOM     39  C   LIG d   1       4.743   1.764  -9.292  0.00  0.00     0.210 C 
ATOM     40  O   LIG d   1       5.087   1.458 -10.414  0.00  0.00    -0.276 OA
ATOM     41  H   LIG d   1       5.366   2.008  -7.391  0.00  0.00     0.149 HD
BRANCH  39  42
ATOM     42  C   LIG d   1       3.312   2.147  -9.021  0.00  0.00     0.012 C 
ATOM     43  H   LIG d   1       3.209   2.460  -7.982  0.00  0.00     0.032 H 
ATOM     44  H   LIG d   1       3.024   2.968  -9.678  0.00  0.00     0.032 H 
ATOM     45  H   LIG d   1       2.664   1.290  -9.207  0.00  0.00     0.032 H 
ENDBRANCH  39  42
ENDBRANCH  35  38
ENDBRANCH  32  35
ENDBRANCH   3  32
TORSDOF 8
ENDMDL
MODEL 3
REMARK VINA RESULT:      -5.5      2.492      4.133
REMARK  8 active torsions:
REMARK  status: ('A' for Active; 'I' for Inactive)
REMARK    1  A    between atoms: C_1  and  C_2 
REMARK    2  A    between atoms: C_3  and  C_12 
REMARK    3  A    between atoms: C_14  and  C_19 
REMARK    4  A    between atoms: C_16  and  C_17 
REMARK    5  A    between atoms: C_16  and  C_18 
REMARK    6  A    between atoms: C_19  and  C_20 
REMARK    7  A    between atoms: C_20  and  N_21 
REMARK       I    between atoms: N_21  and  C_22 
REMARK    8  A    between atoms: C_22  and  C_24 
ROOT
ATOM      1  C   LIG d   1       2.860   0.053  -7.035  0.00  0.00    -0.005 A 
ATOM      2  H   LIG d   1       1.883   0.433  -6.739  0.00  0.00     0.036 H 
ATOM      3  C   LIG d   1       3.004  -0.498  -8.455  0.00  0.00    -0.026 A 
ATOM      4  H   LIG d   1       3.672  -1.347  -8.603  0.00  0.00     0.031 H 
ATOM      5  C   LIG d   1       3.638   0.846  -8.088  0.00  0.00    -0.024 A 
ENDROOT
BRANCH   1   6
ATOM      6  C   LIG d   1       3.655  -0.620  -5.946  0.00  0.00    -0.015 A 
ATOM      7  C   LIG d   1       4.365  -1.754  -6.058  0.00  0.00     0.017 A 
ATOM      8  N   LIG d   1       4.952  -2.058  -4.860  0.00  0.00    -0.358 N 
ATOM      9  C   LIG d   1       4.625  -1.103  -3.923  0.00  0.00     0.047 A 
ATOM     10  H   LIG d   1       5.515  -2.830  -4.695  0.00  0.00     0.166 HD
ATOM     11  C   LIG d   1       3.798  -0.161  -4.562  0.00  0.00     0.003 A 
ATOM     12  C   LIG d   1       4.949  -0.927  -2.581  0.00  0.00    -0.038 A 
ATOM     13  C   LIG d   1       3.309   0.934  -3.847  0.00  0.00    -0.052 A 
ATOM     14  C   LIG d   1       3.635   1.085  -2.529  0.00  0.00    -0.061 A 
ATOM     15  H   LIG d   1       2.673   1.659  -4.333  0.00  0.00     0.062 H 
ATOM     16  C   LIG d   1       4.451   0.157  -1.894  0.00  0.00    -0.060 A 
ATOM     17  H   LIG d   1       3.256   1.931  -1.975  0.00  0.00     0.062 H 
ATOM     18  H   LIG d   1       4.701   0.291  -0.851  0.00  0.00     0.062 H 
ATOM     19  H   LIG d   1       5.587  -1.640  -2.080  0.00  0.00     0.064 H 
BRANCH   7  20
ATOM     20  C   LIG d   1       4.496  -2.570  -7.318  0.00  0.00    -0.024 C 
ATOM     21  H   LIG d   1       5.254  -3.341  -7.174  0.00  0.00     0.029 H 
ATOM     22  H   LIG d   1       3.540  -3.040  -7.548  0.00  0.00     0.029 H 
ATOM     23  H   LIG d   1       4.790  -1.921  -8.142  0.00  0.00     0.029 H 
ENDBRANCH   7  20
ENDBRANCH   1   6
BRANCH   5  24
ATOM     24  C   LIG d   1       2.983   2.112  -8.644  0.00  0.00    -0.059 C 
ATOM     25  H   LIG d   1       2.303   1.845  -9.452  0.00  0.00     0.024 H 
ATOM     26  H   LIG d   1       2.426   2.610  -7.851  0.00  0.00     0.024 H 
ATOM     27  H   LIG d   1       3.754   2.783  -9.023  0.00  0.00     0.024 H 
ENDBRANCH   5  24
BRANCH   5  28
ATOM     28  C   LIG d   1       5.161   0.895  -7.953  0.00  0.00    -0.059 C 
ATOM     29  H   LIG d   1       5.484   1.930  -7.850  0.00  0.00     0.024 H 
ATOM     30  H   LIG d   1       5.466   0.329  -7.073  0.00  0.00     0.024 H 
ATOM     31  H   LIG d   1       5.619   0.458  -8.842  0.00  0.00     0.024 H 
ENDBRANCH   5  28
BRANCH   3  32
ATOM     32  C   LIG d   1       1.763  -0.471  -9.351  0.00  0.00    -0.034 C 
ATOM     33  H   LIG d   1       0.901  -0.830  -8.790  0.00  0.00     0.028 H 
ATOM     34  H   LIG d   1       1.580   0.549  -9.687  0.00  0.00     0.028 H 
BRANCH  32  35
ATOM     35  C   LIG d   1       1.993  -1.373 -10.565  0.00  0.00     0.012 C 
ATOM     36  H   LIG d   1       2.108  -0.759 -11.459  0.00  0.00     0.046 H 
ATOM     37  H   LIG d   1       2.895  -1.965 -10.413  0.00  0.00     0.046 H 
BRANCH  35  38
ATOM     38  N   LIG d   1       0.845  -2.269 -10.732  0.00  0.00    -0.316 N 
ATOM     39  C   LIG d   1       0.969  -3.583 -10.460  0.00  0.00     0.210 C 
ATOM     40  O   LIG d   1       2.031  -4.025 -10.076  0.00  0.00    -0.276 OA
ATOM     41  H   LIG d   1      -0.005  -1.916 -11.040  0.00  0.00     0.149 HD
BRANCH  39  42
ATOM     42  C   LIG d   1      -0.211  -4.503 -10.632  0.00  0.00     0.012 C 
ATOM     43  H   LIG d   1      -1.129  -3.967 -10.388  0.00  0.00     0.032 H 
ATOM     44  H   LIG d   1      -0.255  -4.848 -11.665  0.00  0.00     0.032 H 
ATOM     45  H   LIG d   1      -0.104  -5.360  -9.967  0.00  0.00     0.032 H 
ENDBRANCH  39  42
ENDBRANCH  35  38
ENDBRANCH  32  35
ENDBRANCH   3  32
TORSDOF 8
ENDMDL
MODEL 4
REMARK VINA RESULT:      -5.5      9.175     11.393
REMARK  8 active torsions:
REMARK  status: ('A' for Active; 'I' for Inactive)
REMARK    1  A    between atoms: C_1  and  C_2 
REMARK    2  A    between atoms: C_3  and  C_12 
REMARK    3  A    between atoms: C_14  and  C_19 
REMARK    4  A    between atoms: C_16  and  C_17 
REMARK    5  A    between atoms: C_16  and  C_18 
REMARK    6  A    between atoms: C_19  and  C_20 
REMARK    7  A    between atoms: C_20  and  N_21 
REMARK       I    between atoms: N_21  and  C_22 
REMARK    8  A    between atoms: C_22  and  C_24 
ROOT
ATOM      1  C   LIG d   1       9.967   8.327  -0.694  0.00  0.00    -0.005 A 
ATOM      2  H   LIG d   1       9.213   8.499   0.073  0.00  0.00     0.036 H 
ATOM      3  C   LIG d   1      10.098   9.373  -1.802  0.00  0.00    -0.026 A 
ATOM      4  H   LIG d   1      10.352   9.020  -2.802  0.00  0.00     0.031 H 
ATOM      5  C   LIG d   1      11.176   9.266  -0.720  0.00  0.00    -0.024 A 
ENDROOT
BRANCH   1   6
ATOM      6  C   LIG d   1      10.198   6.886  -1.068  0.00  0.00    -0.015 A 
ATOM      7  C   LIG d   1      10.701   5.925  -0.276  0.00  0.00     0.017 A 
ATOM      8  N   LIG d   1      10.764   4.742  -0.959  0.00  0.00    -0.358 N 
ATOM      9  C   LIG d   1      10.292   4.916  -2.241  0.00  0.00     0.047 A 
ATOM     10  H   LIG d   1      11.093   3.905  -0.596  0.00  0.00     0.166 HD
ATOM     11  C   LIG d   1       9.916   6.266  -2.365  0.00  0.00     0.003 A 
ATOM     12  C   LIG d   1      10.132   4.061  -3.327  0.00  0.00    -0.038 A 
ATOM     13  C   LIG d   1       9.394   6.736  -3.572  0.00  0.00    -0.052 A 
ATOM     14  C   LIG d   1       9.250   5.880  -4.628  0.00  0.00    -0.061 A 
ATOM     15  H   LIG d   1       9.105   7.772  -3.671  0.00  0.00     0.062 H 
ATOM     16  C   LIG d   1       9.620   4.546  -4.510  0.00  0.00    -0.060 A 
ATOM     17  H   LIG d   1       8.847   6.243  -5.561  0.00  0.00     0.062 H 
ATOM     18  H   LIG d   1       9.499   3.882  -5.354  0.00  0.00     0.062 H 
ATOM     19  H   LIG d   1      10.411   3.021  -3.244  0.00  0.00     0.064 H 
BRANCH   7  20
ATOM     20  C   LIG d   1      11.133   6.123   1.154  0.00  0.00    -0.024 C 
ATOM     21  H   LIG d   1      11.169   7.189   1.379  0.00  0.00     0.029 H 
ATOM     22  H   LIG d   1      10.421   5.635   1.820  0.00  0.00     0.029 H 
ATOM     23  H   LIG d   1      12.122   5.687   1.298  0.00  0.00     0.029 H 
ENDBRANCH   7  20
ENDBRANCH   1   6
BRANCH   5  24
ATOM     24  C   LIG d   1      11.232  10.373   0.334  0.00  0.00    -0.059 C 
ATOM     25  H   LIG d   1      10.219  10.655   0.619  0.00  0.00     0.024 H 
ATOM     26  H   LIG d   1      11.769  10.013   1.211  0.00  0.00     0.024 H 
ATOM     27  H   LIG d   1      11.748  11.240  -0.077  0.00  0.00     0.024 H 
ENDBRANCH   5  24
BRANCH   5  28
ATOM     28  C   LIG d   1      12.525   8.669  -1.123  0.00  0.00    -0.059 C 
ATOM     29  H   LIG d   1      12.838   9.089  -2.079  0.00  0.00     0.024 H 
ATOM     30  H   LIG d   1      13.269   8.904  -0.362  0.00  0.00     0.024 H 
ATOM     31  H   LIG d   1      12.430   7.586  -1.216  0.00  0.00     0.024 H 
ENDBRANCH   5  28
BRANCH   3  32
ATOM     32  C   LIG d   1       9.161  10.582  -1.747  0.00  0.00    -0.034 C 
ATOM     33  H   LIG d   1       8.180  10.265  -1.393  0.00  0.00     0.028 H 
ATOM     34  H   LIG d   1       9.570  11.328  -1.065  0.00  0.00     0.028 H 
BRANCH  32  35
ATOM     35  C   LIG d   1       9.029  11.188  -3.145  0.00  0.00     0.012 C 
ATOM     36  H   LIG d   1       8.073  11.706  -3.229  0.00  0.00     0.046 H 
ATOM     37  H   LIG d   1       9.841  11.894  -3.314  0.00  0.00     0.046 H 
BRANCH  35  38
ATOM     38  N   LIG d   1       9.094  10.121  -4.148  0.00  0.00    -0.316 N 
ATOM     39  C   LIG d   1       9.447  10.408  -5.417  0.00  0.00     0.210 C 
ATOM     40  O   LIG d   1       9.710  11.551  -5.729  0.00  0.00    -0.276 OA
ATOM     41  H   LIG d   1       8.884   9.208  -3.900  0.00  0.00     0.149 HD
BRANCH  39  42
ATOM     42  C   LIG d   1       9.514   9.312  -6.447  0.00  0.00     0.012 C 
ATOM     43  H   LIG d   1       8.509   8.941  -6.650  0.00  0.00     0.032 H 
ATOM     44  H   LIG d   1       9.949   9.703  -7.367  0.00  0.00     0.032 H 
ATOM     45  H   LIG d   1      10.133   8.497  -6.072  0.00  0.00     0.032 H 
ENDBRANCH  39  42
ENDBRANCH  35  38
ENDBRANCH  32  35
ENDBRANCH   3  32
TORSDOF 8
ENDMDL
MODEL 5
REMARK VINA RESULT:      -5.4      2.948      4.912
REMARK  8 active torsions:
REMARK  status: ('A' for Active; 'I' for Inactive)
REMARK    1  A    between atoms: C_1  and  C_2 
REMARK    2  A    between atoms: C_3  and  C_12 
REMARK    3  A    between atoms: C_14  and  C_19 
REMARK    4  A    between atoms: C_16  and  C_17 
REMARK    5  A    between atoms: C_16  and  C_18 
REMARK    6  A    between atoms: C_19  and  C_20 
REMARK    7  A    between atoms: C_20  and  N_21 
REMARK       I    between atoms: N_21  and  C_22 
REMARK    8  A    between atoms: C_22  and  C_24 
ROOT
ATOM      1  C   LIG d   1       4.594  -1.632  -7.294  0.00  0.00    -0.005 A 
ATOM      2  H   LIG d   1       3.880  -2.108  -7.965  0.00  0.00     0.036 H 
ATOM      3  C   LIG d   1       5.875  -2.400  -6.965  0.00  0.00    -0.026 A 
ATOM      4  H   LIG d   1       6.285  -2.290  -5.961  0.00  0.00     0.031 H 
ATOM      5  C   LIG d   1       5.930  -1.180  -7.889  0.00  0.00    -0.024 A 
ENDROOT
BRANCH   1   6
ATOM      6  C   LIG d   1       3.994  -0.780  -6.205  0.00  0.00    -0.015 A 
ATOM      7  C   LIG d   1       3.219   0.303  -6.372  0.00  0.00     0.017 A 
ATOM      8  N   LIG d   1       2.862   0.815  -5.155  0.00  0.00    -0.358 N 
ATOM      9  C   LIG d   1       3.414   0.054  -4.148  0.00  0.00     0.047 A 
ATOM     10  H   LIG d   1       2.305   1.597  -5.021  0.00  0.00     0.166 HD
ATOM     11  C   LIG d   1       4.147  -0.978  -4.761  0.00  0.00     0.003 A 
ATOM     12  C   LIG d   1       3.367   0.125  -2.759  0.00  0.00    -0.038 A 
ATOM     13  C   LIG d   1       4.821  -1.915  -3.976  0.00  0.00    -0.052 A 
ATOM     14  C   LIG d   1       4.766  -1.824  -2.614  0.00  0.00    -0.061 A 
ATOM     15  H   LIG d   1       5.385  -2.709  -4.443  0.00  0.00     0.062 H 
ATOM     16  C   LIG d   1       4.043  -0.806  -2.003  0.00  0.00    -0.060 A 
ATOM     17  H   LIG d   1       5.288  -2.548  -2.006  0.00  0.00     0.062 H 
ATOM     18  H   LIG d   1       4.009  -0.749  -0.925  0.00  0.00     0.062 H 
ATOM     19  H   LIG d   1       2.803   0.909  -2.275  0.00  0.00     0.064 H 
BRANCH   7  20
ATOM     20  C   LIG d   1       2.804   0.871  -7.705  0.00  0.00    -0.024 C 
ATOM     21  H   LIG d   1       3.656   0.862  -8.385  0.00  0.00     0.029 H 
ATOM     22  H   LIG d   1       2.000   0.265  -8.124  0.00  0.00     0.029 H 
ATOM     23  H   LIG d   1       2.456   1.895  -7.571  0.00  0.00     0.029 H 
ENDBRANCH   7  20
ENDBRANCH   1   6
BRANCH   5  24
ATOM     24  C   LIG d   1       6.161  -1.432  -9.380  0.00  0.00    -0.059 C 
ATOM     25  H   LIG d   1       6.286  -0.480  -9.894  0.00  0.00     0.024 H 
ATOM     26  H   LIG d   1       7.057  -2.037  -9.511  0.00  0.00     0.024 H 
ATOM     27  H   LIG d   1       5.302  -1.960  -9.796  0.00  0.00     0.024 H 
ENDBRANCH   5  24
BRANCH   5  28
ATOM     28  C   LIG d   1       6.554   0.100  -7.331  0.00  0.00    -0.059 C 
ATOM     29  H   LIG d   1       7.640   0.017  -7.356  0.00  0.00     0.024 H 
ATOM     30  H   LIG d   1       6.242   0.951  -7.937  0.00  0.00     0.024 H 
ATOM     31  H   LIG d   1       6.223   0.248  -6.302  0.00  0.00     0.024 H 
ENDBRANCH   5  28
BRANCH   3  32
ATOM     32  C   LIG d   1       6.057  -3.778  -7.605  0.00  0.00    -0.034 C 
ATOM     33  H   LIG d   1       6.244  -3.662  -8.672  0.00  0.00     0.028 H 
ATOM     34  H   LIG d   1       6.902  -4.286  -7.141  0.00  0.00     0.028 H 
BRANCH  32  35
ATOM     35  C   LIG d   1       4.788  -4.607  -7.396  0.00  0.00     0.012 C 
ATOM     36  H   LIG d   1       4.164  -4.133  -6.638  0.00  0.00     0.046 H 
ATOM     37  H   LIG d   1       4.236  -4.670  -8.333  0.00  0.00     0.046 H 
BRANCH  35  38
ATOM     38  N   LIG d   1       5.153  -5.956  -6.954  0.00  0.00    -0.316 N 
ATOM     39  C   LIG d   1       4.712  -6.420  -5.768  0.00  0.00     0.210 C 
ATOM     40  O   LIG d   1       4.011  -5.721  -5.066  0.00  0.00    -0.276 OA
ATOM     41  H   LIG d   1       5.713  -6.515  -7.514  0.00  0.00     0.149 HD
BRANCH  39  42
ATOM     42  C   LIG d   1       5.088  -7.806  -5.314  0.00  0.00     0.012 C 
ATOM     43  H   LIG d   1       5.931  -7.747  -4.625  0.00  0.00     0.032 H 
ATOM     44  H   LIG d   1       4.238  -8.267  -4.810  0.00  0.00     0.032 H 
ATOM     45  H   LIG d   1       5.367  -8.409  -6.179  0.00  0.00     0.032 H 
ENDBRANCH  39  42
ENDBRANCH  35  38
ENDBRANCH  32  35
ENDBRANCH   3  32
TORSDOF 8
ENDMDL
MODEL 6
REMARK VINA RESULT:      -5.2      1.722      2.318
REMARK  8 active torsions:
REMARK  status: ('A' for Active; 'I' for Inactive)
REMARK    1  A    between atoms: C_1  and  C_2 
REMARK    2  A    between atoms: C_3  and  C_12 
REMARK    3  A    between atoms: C_14  and  C_19 
REMARK    4  A    between atoms: C_16  and  C_17 
REMARK    5  A    between atoms: C_16  and  C_18 
REMARK    6  A    between atoms: C_19  and  C_20 
REMARK    7  A    between atoms: C_20  and  N_21 
REMARK       I    between atoms: N_21  and  C_22 
REMARK    8  A    between atoms: C_22  and  C_24 
ROOT
ATOM      1  C   LIG d   1       6.929  -1.978  -5.577  0.00  0.00    -0.005 A 
ATOM      2  H   LIG d   1       7.132  -1.747  -6.623  0.00  0.00     0.036 H 
ATOM      3  C   LIG d   1       6.061  -3.202  -5.280  0.00  0.00    -0.026 A 
ATOM      4  H   LIG d   1       5.389  -3.148  -4.424  0.00  0.00     0.031 H 
ATOM      5  C   LIG d   1       7.565  -3.244  -4.997  0.00  0.00    -0.024 A 
ENDROOT
BRANCH   1   6
ATOM      6  C   LIG d   1       6.790  -0.789  -4.663  0.00  0.00    -0.015 A 
ATOM      7  C   LIG d   1       7.698   0.180  -4.468  0.00  0.00     0.017 A 
ATOM      8  N   LIG d   1       7.221   1.094  -3.568  0.00  0.00    -0.358 N 
ATOM      9  C   LIG d   1       5.962   0.725  -3.151  0.00  0.00     0.047 A 
ATOM     10  H   LIG d   1       7.699   1.883  -3.268  0.00  0.00     0.166 HD
ATOM     11  C   LIG d   1       5.636  -0.470  -3.818  0.00  0.00     0.003 A 
ATOM     12  C   LIG d   1       5.042   1.286  -2.269  0.00  0.00    -0.038 A 
ATOM     13  C   LIG d   1       4.403  -1.082  -3.588  0.00  0.00    -0.052 A 
ATOM     14  C   LIG d   1       3.517  -0.517  -2.715  0.00  0.00    -0.061 A 
ATOM     15  H   LIG d   1       4.149  -2.000  -4.099  0.00  0.00     0.062 H 
ATOM     16  C   LIG d   1       3.834   0.663  -2.053  0.00  0.00    -0.060 A 
ATOM     17  H   LIG d   1       2.563  -0.991  -2.537  0.00  0.00     0.062 H 
ATOM     18  H   LIG d   1       3.122   1.097  -1.366  0.00  0.00     0.062 H 
ATOM     19  H   LIG d   1       5.277   2.206  -1.754  0.00  0.00     0.064 H 
BRANCH   7  20
ATOM     20  C   LIG d   1       9.045   0.251  -5.141  0.00  0.00    -0.024 C 
ATOM     21  H   LIG d   1       9.706   0.899  -4.565  0.00  0.00     0.029 H 
ATOM     22  H   LIG d   1       9.476  -0.748  -5.197  0.00  0.00     0.029 H 
ATOM     23  H   LIG d   1       8.927   0.654  -6.147  0.00  0.00     0.029 H 
ENDBRANCH   7  20
ENDBRANCH   1   6
BRANCH   5  24
ATOM     24  C   LIG d   1       8.437  -4.087  -5.930  0.00  0.00    -0.059 C 
ATOM     25  H   LIG d   1       9.478  -3.780  -5.830  0.00  0.00     0.024 H 
ATOM     26  H   LIG d   1       8.342  -5.139  -5.663  0.00  0.00     0.024 H 
ATOM     27  H   LIG d   1       8.112  -3.942  -6.960  0.00  0.00     0.024 H 
ENDBRANCH   5  24
BRANCH   5  28
ATOM     28  C   LIG d   1       8.010  -3.204  -3.534  0.00  0.00    -0.059 C 
ATOM     29  H   LIG d   1       8.517  -4.135  -3.282  0.00  0.00     0.024 H 
ATOM     30  H   LIG d   1       8.692  -2.367  -3.384  0.00  0.00     0.024 H 
ATOM     31  H   LIG d   1       7.137  -3.079  -2.892  0.00  0.00     0.024 H 
ENDBRANCH   5  28
BRANCH   3  32
ATOM     32  C   LIG d   1       5.545  -4.009  -6.474  0.00  0.00    -0.034 C 
ATOM     33  H   LIG d   1       6.341  -4.651  -6.850  0.00  0.00     0.028 H 
ATOM     34  H   LIG d   1       4.701  -4.622  -6.160  0.00  0.00     0.028 H 
BRANCH  32  35
ATOM     35  C   LIG d   1       5.097  -3.051  -7.579  0.00  0.00     0.012 C 
ATOM     36  H   LIG d   1       5.942  -2.439  -7.896  0.00  0.00     0.046 H 
ATOM     37  H   LIG d   1       4.725  -3.624  -8.428  0.00  0.00     0.046 H 
BRANCH  35  38
ATOM     38  N   LIG d   1       4.030  -2.184  -7.071  0.00  0.00    -0.316 N 
ATOM     39  C   LIG d   1       4.022  -0.872  -7.380  0.00  0.00     0.210 C 
ATOM     40  O   LIG d   1       4.898  -0.408  -8.079  0.00  0.00    -0.276 OA
ATOM     41  H   LIG d   1       3.329  -2.554  -6.512  0.00  0.00     0.149 HD
BRANCH  39  42
ATOM     42  C   LIG d   1       2.926   0.018  -6.858  0.00  0.00     0.012 C 
ATOM     43  H   LIG d   1       2.680  -0.269  -5.835  0.00  0.00     0.032 H 
ATOM     44  H   LIG d   1       3.261   1.056  -6.874  0.00  0.00     0.032 H 
ATOM     45  H   LIG d   1       2.041  -0.086  -7.487  0.00  0.00     0.032 H 
ENDBRANCH  39  42
ENDBRANCH  35  38
ENDBRANCH  32  35
ENDBRANCH   3  32
TORSDOF 8
ENDMDL
MODEL 7
REMARK VINA RESULT:      -5.2      2.067      3.179
REMARK  8 active torsions:
REMARK  status: ('A' for Active; 'I' for Inactive)
REMARK    1  A    between atoms: C_1  and  C_2 
REMARK    2  A    between atoms: C_3  and  C_12 
REMARK    3  A    between atoms: C_14  and  C_19 
REMARK    4  A    between atoms: C_16  and  C_17 
REMARK    5  A    between atoms: C_16  and  C_18 
REMARK    6  A    between atoms: C_19  and  C_20 
REMARK    7  A    between atoms: C_20  and  N_21 
REMARK       I    between atoms: N_21  and  C_22 
REMARK    8  A    between atoms: C_22  and  C_24 
ROOT
ATOM      1  C   LIG d   1       5.565   0.031  -6.880  0.00  0.00    -0.005 A 
ATOM      2  H   LIG d   1       5.044   0.987  -6.927  0.00  0.00     0.036 H 
ATOM      3  C   LIG d   1       6.188  -0.498  -8.173  0.00  0.00    -0.026 A 
ATOM      4  H   LIG d   1       6.181  -1.577  -8.332  0.00  0.00     0.031 H 
ATOM      5  C   LIG d   1       7.086   0.046  -7.058  0.00  0.00    -0.024 A 
ENDROOT
BRANCH   1   6
ATOM      6  C   LIG d   1       4.987  -0.979  -5.922  0.00  0.00    -0.015 A 
ATOM      7  C   LIG d   1       4.496  -2.188  -6.236  0.00  0.00     0.017 A 
ATOM      8  N   LIG d   1       4.061  -2.824  -5.106  0.00  0.00    -0.358 N 
ATOM      9  C   LIG d   1       4.267  -2.018  -4.008  0.00  0.00     0.047 A 
ATOM     10  H   LIG d   1       3.667  -3.709  -5.081  0.00  0.00     0.166 HD
ATOM     11  C   LIG d   1       4.856  -0.827  -4.471  0.00  0.00     0.003 A 
ATOM     12  C   LIG d   1       4.019  -2.172  -2.647  0.00  0.00    -0.038 A 
ATOM     13  C   LIG d   1       5.181   0.186  -3.567  0.00  0.00    -0.052 A 
ATOM     14  C   LIG d   1       4.925   0.017  -2.236  0.00  0.00    -0.061 A 
ATOM     15  H   LIG d   1       5.633   1.102  -3.919  0.00  0.00     0.062 H 
ATOM     16  C   LIG d   1       4.343  -1.157  -1.774  0.00  0.00    -0.060 A 
ATOM     17  H   LIG d   1       5.176   0.800  -1.537  0.00  0.00     0.062 H 
ATOM     18  H   LIG d   1       4.148  -1.277  -0.718  0.00  0.00     0.062 H 
ATOM     19  H   LIG d   1       3.573  -3.083  -2.277  0.00  0.00     0.064 H 
BRANCH   7  20
ATOM     20  C   LIG d   1       4.433  -2.760  -7.629  0.00  0.00    -0.024 C 
ATOM     21  H   LIG d   1       3.588  -2.325  -8.163  0.00  0.00     0.029 H 
ATOM     22  H   LIG d   1       5.356  -2.528  -8.160  0.00  0.00     0.029 H 
ATOM     23  H   LIG d   1       4.309  -3.842  -7.572  0.00  0.00     0.029 H 
ENDBRANCH   7  20
ENDBRANCH   1   6
BRANCH   5  24
ATOM     24  C   LIG d   1       7.756   1.401  -7.289  0.00  0.00    -0.059 C 
ATOM     25  H   LIG d   1       8.241   1.728  -6.369  0.00  0.00     0.024 H 
ATOM     26  H   LIG d   1       8.500   1.309  -8.079  0.00  0.00     0.024 H 
ATOM     27  H   LIG d   1       7.004   2.134  -7.582  0.00  0.00     0.024 H 
ENDBRANCH   5  24
BRANCH   5  28
ATOM     28  C   LIG d   1       7.901  -0.966  -6.251  0.00  0.00    -0.059 C 
ATOM     29  H   LIG d   1       8.947  -0.913  -6.552  0.00  0.00     0.024 H 
ATOM     30  H   LIG d   1       7.817  -0.736  -5.189  0.00  0.00     0.024 H 
ATOM     31  H   LIG d   1       7.519  -1.971  -6.436  0.00  0.00     0.024 H 
ENDBRANCH   5  28
BRANCH   3  32
ATOM     32  C   LIG d   1       6.032   0.356  -9.433  0.00  0.00    -0.034 C 
ATOM     33  H   LIG d   1       6.857   1.066  -9.496  0.00  0.00     0.028 H 
ATOM     34  H   LIG d   1       6.040  -0.289 -10.312  0.00  0.00     0.028 H 
BRANCH  32  35
ATOM     35  C   LIG d   1       4.707   1.116  -9.371  0.00  0.00     0.012 C 
ATOM     36  H   LIG d   1       4.426   1.275  -8.330  0.00  0.00     0.046 H 
ATOM     37  H   LIG d   1       4.816   2.079  -9.869  0.00  0.00     0.046 H 
BRANCH  35  38
ATOM     38  N   LIG d   1       3.664   0.336 -10.044  0.00  0.00    -0.316 N 
ATOM     39  C   LIG d   1       2.561  -0.040  -9.367  0.00  0.00     0.210 C 
ATOM     40  O   LIG d   1       2.431   0.267  -8.200  0.00  0.00    -0.276 OA
ATOM     41  H   LIG d   1       3.768   0.090 -10.976  0.00  0.00     0.149 HD
BRANCH  39  42
ATOM     42  C   LIG d   1       1.490  -0.843 -10.058  0.00  0.00     0.012 C 
ATOM     43  H   LIG d   1       0.562  -0.776  -9.490  0.00  0.00     0.032 H 
ATOM     44  H   LIG d   1       1.331  -0.449 -11.062  0.00  0.00     0.032 H 
ATOM     45  H   LIG d   1       1.801  -1.886 -10.123  0.00  0.00     0.032 H 
ENDBRANCH  39  42
ENDBRANCH  35  38
ENDBRANCH  32  35
ENDBRANCH   3  32
TORSDOF 8
ENDMDL
MODEL 8
REMARK VINA RESULT:      -5.1      1.928      2.421
REMARK  8 active torsions:
REMARK  status: ('A' for Active; 'I' for Inactive)
REMARK    1  A    between atoms: C_1  and  C_2 
REMARK    2  A    between atoms: C_3  and  C_12 
REMARK    3  A    between atoms: C_14  and  C_19 
REMARK    4  A    between atoms: C_16  and  C_17 
REMARK    5  A    between atoms: C_16  and  C_18 
REMARK    6  A    between atoms: C_19  and  C_20 
REMARK    7  A    between atoms: C_20  and  N_21 
REMARK       I    between atoms: N_21  and  C_22 
REMARK    8  A    between atoms: C_22  and  C_24 
ROOT
ATOM      1  C   LIG d   1       7.096  -1.097  -6.118  0.00  0.00    -0.005 A 
ATOM      2  H   LIG d   1       8.115  -0.824  -5.843  0.00  0.00     0.036 H 
ATOM      3  C   LIG d   1       6.509  -0.458  -7.378  0.00  0.00    -0.026 A 
ATOM      4  H   LIG d   1       5.444  -0.223  -7.375  0.00  0.00     0.031 H 
ATOM      5  C   LIG d   1       6.907  -1.937  -7.384  0.00  0.00    -0.024 A 
ENDROOT
BRANCH   1   6
ATOM      6  C   LIG d   1       6.159  -1.353  -4.966  0.00  0.00    -0.015 A 
ATOM      7  C   LIG d   1       6.418  -2.086  -3.872  0.00  0.00     0.017 A 
ATOM      8  N   LIG d   1       5.328  -2.093  -3.045  0.00  0.00    -0.358 N 
ATOM      9  C   LIG d   1       4.315  -1.345  -3.601  0.00  0.00     0.047 A 
ATOM     10  H   LIG d   1       5.277  -2.555  -2.194  0.00  0.00     0.166 HD
ATOM     11  C   LIG d   1       4.790  -0.849  -4.829  0.00  0.00     0.003 A 
ATOM     12  C   LIG d   1       3.025  -1.023  -3.189  0.00  0.00    -0.038 A 
ATOM     13  C   LIG d   1       3.967  -0.047  -5.622  0.00  0.00    -0.052 A 
ATOM     14  C   LIG d   1       2.702   0.253  -5.201  0.00  0.00    -0.061 A 
ATOM     15  H   LIG d   1       4.328   0.336  -6.565  0.00  0.00     0.062 H 
ATOM     16  C   LIG d   1       2.228  -0.235  -3.989  0.00  0.00    -0.060 A 
ATOM     17  H   LIG d   1       2.065   0.873  -5.814  0.00  0.00     0.062 H 
ATOM     18  H   LIG d   1       1.226   0.012  -3.670  0.00  0.00     0.062 H 
ATOM     19  H   LIG d   1       2.649  -1.393  -2.247  0.00  0.00     0.064 H 
BRANCH   7  20
ATOM     20  C   LIG d   1       7.718  -2.797  -3.596  0.00  0.00    -0.024 C 
ATOM     21  H   LIG d   1       7.757  -3.721  -4.174  0.00  0.00     0.029 H 
ATOM     22  H   LIG d   1       8.551  -2.155  -3.882  0.00  0.00     0.029 H 
ATOM     23  H   LIG d   1       7.786  -3.030  -2.533  0.00  0.00     0.029 H 
ENDBRANCH   7  20
ENDBRANCH   1   6
BRANCH   5  24
ATOM     24  C   LIG d   1       8.162  -2.328  -8.166  0.00  0.00    -0.059 C 
ATOM     25  H   LIG d   1       8.167  -1.813  -9.126  0.00  0.00     0.024 H 
ATOM     26  H   LIG d   1       9.047  -2.046  -7.597  0.00  0.00     0.024 H 
ATOM     27  H   LIG d   1       8.165  -3.406  -8.331  0.00  0.00     0.024 H 
ENDBRANCH   5  24
BRANCH   5  28
ATOM     28  C   LIG d   1       5.779  -2.971  -7.382  0.00  0.00    -0.059 C 
ATOM     29  H   LIG d   1       5.889  -3.630  -8.243  0.00  0.00     0.024 H 
ATOM     30  H   LIG d   1       5.827  -3.559  -6.466  0.00  0.00     0.024 H 
ATOM     31  H   LIG d   1       4.817  -2.460  -7.436  0.00  0.00     0.024 H 
ENDBRANCH   5  28
BRANCH   3  32
ATOM     32  C   LIG d   1       7.398   0.514  -8.156  0.00  0.00    -0.034 C 
ATOM     33  H   LIG d   1       7.926   1.163  -7.458  0.00  0.00     0.028 H 
ATOM     34  H   LIG d   1       8.121  -0.048  -8.747  0.00  0.00     0.028 H 
BRANCH  32  35
ATOM     35  C   LIG d   1       6.530   1.363  -9.087  0.00  0.00     0.012 C 
ATOM     36  H   LIG d   1       7.024   2.317  -9.276  0.00  0.00     0.046 H 
ATOM     37  H   LIG d   1       6.384   0.837 -10.029  0.00  0.00     0.046 H 
BRANCH  35  38
ATOM     38  N   LIG d   1       5.229   1.605  -8.456  0.00  0.00    -0.316 N 
ATOM     39  C   LIG d   1       4.156   1.901  -9.216  0.00  0.00     0.210 C 
ATOM     40  O   LIG d   1       4.267   1.968 -10.422  0.00  0.00    -0.276 OA
ATOM     41  H   LIG d   1       5.140   1.552  -7.492  0.00  0.00     0.149 HD
BRANCH  39  42
ATOM     42  C   LIG d   1       2.819   2.149  -8.568  0.00  0.00     0.012 C 
ATOM     43  H   LIG d   1       2.814   3.140  -8.113  0.00  0.00     0.032 H 
ATOM     44  H   LIG d   1       2.033   2.091  -9.321  0.00  0.00     0.032 H 
ATOM     45  H   LIG d   1       2.642   1.397  -7.800  0.00  0.00     0.032 H 
ENDBRANCH  39  42
ENDBRANCH  35  38
ENDBRANCH  32  35
ENDBRANCH   3  32
TORSDOF 8
ENDMDL
MODEL 9
REMARK VINA RESULT:      -5.1      6.927      8.746
REMARK  8 active torsions:
REMARK  status: ('A' for Active; 'I' for Inactive)
REMARK    1  A    between atoms: C_1  and  C_2 
REMARK    2  A    between atoms: C_3  and  C_12 
REMARK    3  A    between atoms: C_14  and  C_19 
REMARK    4  A    between atoms: C_16  and  C_17 
REMARK    5  A    between atoms: C_16  and  C_18 
REMARK    6  A    between atoms: C_19  and  C_20 
REMARK    7  A    between atoms: C_20  and  N_21 
REMARK       I    between atoms: N_21  and  C_22 
REMARK    8  A    between atoms: C_22  and  C_24 
ROOT
ATOM      1  C   LIG d   1       9.379   5.270  -5.190  0.00  0.00    -0.005 A 
ATOM      2  H   LIG d   1       8.366   5.144  -5.571  0.00  0.00     0.036 H 
ATOM      3  C   LIG d   1      10.147   4.007  -4.796  0.00  0.00    -0.026 A 
ATOM      4  H   LIG d   1      10.825   4.074  -3.944  0.00  0.00     0.031 H 
ATOM      5  C   LIG d   1      10.531   4.772  -6.066  0.00  0.00    -0.024 A 
ENDROOT
BRANCH   1   6
ATOM      6  C   LIG d   1       9.616   6.512  -4.370  0.00  0.00    -0.015 A 
ATOM      7  C   LIG d   1       9.546   7.781  -4.803  0.00  0.00     0.017 A 
ATOM      8  N   LIG d   1       9.822   8.641  -3.776  0.00  0.00    -0.358 N 
ATOM      9  C   LIG d   1      10.083   7.929  -2.627  0.00  0.00     0.047 A 
ATOM     10  H   LIG d   1       9.833   9.608  -3.846  0.00  0.00     0.166 HD
ATOM     11  C   LIG d   1       9.965   6.564  -2.949  0.00  0.00     0.003 A 
ATOM     12  C   LIG d   1      10.407   8.297  -1.324  0.00  0.00    -0.038 A 
ATOM     13  C   LIG d   1      10.177   5.596  -1.965  0.00  0.00    -0.052 A 
ATOM     14  C   LIG d   1      10.499   5.979  -0.694  0.00  0.00    -0.061 A 
ATOM     15  H   LIG d   1      10.088   4.547  -2.208  0.00  0.00     0.062 H 
ATOM     16  C   LIG d   1      10.617   7.325  -0.371  0.00  0.00    -0.060 A 
ATOM     17  H   LIG d   1      10.663   5.230   0.067  0.00  0.00     0.062 H 
ATOM     18  H   LIG d   1      10.871   7.612   0.639  0.00  0.00     0.062 H 
ATOM     19  H   LIG d   1      10.495   9.340  -1.062  0.00  0.00     0.064 H 
BRANCH   7  20
ATOM     20  C   LIG d   1       9.214   8.196  -6.213  0.00  0.00    -0.024 C 
ATOM     21  H   LIG d   1       9.767   9.101  -6.466  0.00  0.00     0.029 H 
ATOM     22  H   LIG d   1       9.490   7.397  -6.902  0.00  0.00     0.029 H 
ATOM     23  H   LIG d   1       8.144   8.390  -6.291  0.00  0.00     0.029 H 
ENDBRANCH   7  20
ENDBRANCH   1   6
BRANCH   5  24
ATOM     24  C   LIG d   1      10.171   4.135  -7.410  0.00  0.00    -0.059 C 
ATOM     25  H   LIG d   1       9.865   3.102  -7.252  0.00  0.00     0.024 H 
ATOM     26  H   LIG d   1       9.353   4.691  -7.867  0.00  0.00     0.024 H 
ATOM     27  H   LIG d   1      11.040   4.161  -8.068  0.00  0.00     0.024 H 
ENDBRANCH   5  24
BRANCH   5  28
ATOM     28  C   LIG d   1      11.834   5.573  -6.042  0.00  0.00    -0.059 C 
ATOM     29  H   LIG d   1      11.705   6.459  -5.421  0.00  0.00     0.024 H 
ATOM     30  H   LIG d   1      12.633   4.955  -5.631  0.00  0.00     0.024 H 
ATOM     31  H   LIG d   1      12.094   5.874  -7.057  0.00  0.00     0.024 H 
ENDBRANCH   5  28
BRANCH   3  32
ATOM     32  C   LIG d   1       9.435   2.664  -4.969  0.00  0.00    -0.034 C 
ATOM     33  H   LIG d   1       8.790   2.705  -5.846  0.00  0.00     0.028 H 
ATOM     34  H   LIG d   1      10.175   1.874  -5.099  0.00  0.00     0.028 H 
BRANCH  32  35
ATOM     35  C   LIG d   1       8.591   2.372  -3.727  0.00  0.00     0.012 C 
ATOM     36  H   LIG d   1       9.185   2.555  -2.832  0.00  0.00     0.046 H 
ATOM     37  H   LIG d   1       7.716   3.021  -3.722  0.00  0.00     0.046 H 
BRANCH  35  38
ATOM     38  N   LIG d   1       8.160   0.971  -3.749  0.00  0.00    -0.316 N 
ATOM     39  C   LIG d   1       6.883   0.654  -3.452  0.00  0.00     0.210 C 
ATOM     40  O   LIG d   1       6.092   1.528  -3.168  0.00  0.00    -0.276 OA
ATOM     41  H   LIG d   1       8.792   0.272  -3.975  0.00  0.00     0.149 HD
BRANCH  39  42
ATOM     42  C   LIG d   1       6.440  -0.785  -3.473  0.00  0.00     0.012 C 
ATOM     43  H   LIG d   1       7.015  -1.353  -2.741  0.00  0.00     0.032 H 
ATOM     44  H   LIG d   1       5.380  -0.843  -3.228  0.00  0.00     0.032 H 
ATOM     45  H   LIG d   1       6.606  -1.202  -4.467  0.00  0.00     0.032 H 
ENDBRANCH  39  42
ENDBRANCH  35  38
ENDBRANCH  32  35
ENDBRANCH   3  32
TORSDOF 8
ENDMDL
