MODEL 1
REMARK VINA RESULT:      -6.3      0.000      0.000
REMARK  5 active torsions:
REMARK  status: ('A' for Active; 'I' for Inactive)
REMARK    1  A    between atoms: C_8  and  C_14 
REMARK       I    between atoms: C_14  and  N_16 
REMARK    2  A    between atoms: N_16  and  C_17 
REMARK    3  A    between atoms: C_17  and  C_18 
REMARK    4  A    between atoms: C_18  and  C_19 
REMARK    5  A    between atoms: C_19  and  O_20 
ROOT
ATOM      1  C   LIG d   1       3.924   0.050  -2.029  0.00  0.00    -0.061 A 
ATOM      2  C   LIG d   1       4.912   0.999  -2.269  0.00  0.00    -0.057 A 
ATOM      3  C   LIG d   1       5.964   0.703  -3.107  0.00  0.00    -0.021 A 
ATOM      4  C   LIG d   1       6.013  -0.542  -3.697  0.00  0.00     0.056 A 
ATOM      5  C   LIG d   1       5.030  -1.505  -3.468  0.00  0.00     0.046 A 
ATOM      6  C   LIG d   1       3.969  -1.198  -2.618  0.00  0.00    -0.049 A 
ATOM      7  C   LIG d   1       5.177  -2.806  -4.147  0.00  0.00     0.201 A 
ATOM      8  C   LIG d   1       6.317  -2.974  -4.985  0.00  0.00     0.092 A 
ATOM      9  C   LIG d   1       7.240  -1.943  -5.144  0.00  0.00    -0.020 A 
ATOM     10  O   LIG d   1       8.306  -2.135  -5.944  0.00  0.00    -0.861 OA
ATOM     11  N   LIG d   1       7.093  -0.749  -4.511  0.00  0.00    -0.352 N 
ATOM     12  C   LIG d   1       7.912   0.474  -4.514  0.00  0.00     0.027 A 
ATOM     13  C   LIG d   1       7.180   1.462  -3.582  0.00  0.00    -0.008 A 
ATOM     14  O   LIG d   1       4.360  -3.698  -3.996  0.00  0.00    -0.286 OA
ATOM     15  H   LIG d   1       3.106   0.293  -1.367  0.00  0.00     0.062 H 
ATOM     16  H   LIG d   1       4.854   1.969  -1.797  0.00  0.00     0.062 H 
ATOM     17  H   LIG d   1       3.195  -1.924  -2.423  0.00  0.00     0.062 H 
ATOM     18  H   LIG d   1       8.909   0.261  -4.130  0.00  0.00     0.050 H 
ATOM     19  H   LIG d   1       7.975   0.883  -5.523  0.00  0.00     0.050 H 
ATOM     20  H   LIG d   1       6.881   2.353  -4.133  0.00  0.00     0.033 H 
ATOM     21  H   LIG d   1       7.815   1.731  -2.738  0.00  0.00     0.033 H 
ENDROOT
BRANCH   8  22
ATOM     22  C   LIG d   1       6.521  -4.245  -5.688  0.00  0.00     0.249 C 
ATOM     23  O   LIG d   1       7.135  -5.148  -5.149  0.00  0.00    -0.270 OA
ATOM     24  N   LIG d   1       6.028  -4.415  -6.931  0.00  0.00    -0.311 N 
ATOM     25  H   LIG d   1       5.604  -3.673  -7.390  0.00  0.00     0.149 HD
BRANCH  24  26
ATOM     26  C   LIG d   1       6.133  -5.719  -7.589  0.00  0.00     0.014 C 
ATOM     27  H   LIG d   1       6.482  -5.583  -8.613  0.00  0.00     0.046 H 
ATOM     28  H   LIG d   1       6.839  -6.346  -7.045  0.00  0.00     0.046 H 
BRANCH  26  29
ATOM     29  C   LIG d   1       4.759  -6.393  -7.605  0.00  0.00    -0.014 C 
ATOM     30  H   LIG d   1       4.681  -7.038  -8.480  0.00  0.00     0.030 H 
ATOM     31  H   LIG d   1       4.637  -6.991  -6.702  0.00  0.00     0.030 H 
BRANCH  29  32
ATOM     32  C   LIG d   1       3.667  -5.323  -7.660  0.00  0.00     0.046 C 
ATOM     33  H   LIG d   1       4.090  -4.389  -8.028  0.00  0.00     0.056 H 
ATOM     34  H   LIG d   1       2.870  -5.651  -8.329  0.00  0.00     0.056 H 
BRANCH  32  35
ATOM     35  O   LIG d   1       3.133  -5.120  -6.350  0.00  0.00    -0.395 OA
ATOM     36  H   LIG d   1       3.699  -4.589  -5.773  0.00  0.00     0.209 HD
ENDBRANCH  32  35
ENDBRANCH  29  32
ENDBRANCH  26  29
ENDBRANCH  24  26
ENDBRANCH   8  22
TORSDOF 5
ENDMDL
MODEL 2
REMARK VINA RESULT:      -6.0      2.757      6.102
REMARK  5 active torsions:
REMARK  status: ('A' for Active; 'I' for Inactive)
REMARK    1  A    between atoms: C_8  and  C_14 
REMARK       I    between atoms: C_14  and  N_16 
REMARK    2  A    between atoms: N_16  and  C_17 
REMARK    3  A    between atoms: C_17  and  C_18 
REMARK    4  A    between atoms: C_18  and  C_19 
REMARK    5  A    between atoms: C_19  and  O_20 
ROOT
ATOM      1  C   LIG d   1       4.008   0.574  -1.977  0.00  0.00    -0.061 A 
ATOM      2  C   LIG d   1       3.706  -0.737  -2.332  0.00  0.00    -0.057 A 
ATOM      3  C   LIG d   1       4.577  -1.456  -3.120  0.00  0.00    -0.021 A 
ATOM      4  C   LIG d   1       5.741  -0.854  -3.544  0.00  0.00     0.056 A 
ATOM      5  C   LIG d   1       6.060   0.459  -3.197  0.00  0.00     0.046 A 
ATOM      6  C   LIG d   1       5.175   1.180  -2.400  0.00  0.00    -0.049 A 
ATOM      7  C   LIG d   1       7.331   1.010  -3.703  0.00  0.00     0.201 A 
ATOM      8  C   LIG d   1       8.134   0.151  -4.510  0.00  0.00     0.092 A 
ATOM      9  C   LIG d   1       7.718  -1.147  -4.796  0.00  0.00    -0.020 A 
ATOM     10  O   LIG d   1       8.501  -1.933  -5.561  0.00  0.00    -0.861 OA
ATOM     11  N   LIG d   1       6.544  -1.642  -4.323  0.00  0.00    -0.352 N 
ATOM     12  C   LIG d   1       5.894  -2.954  -4.480  0.00  0.00     0.027 A 
ATOM     13  C   LIG d   1       4.575  -2.856  -3.685  0.00  0.00    -0.008 A 
ATOM     14  O   LIG d   1       7.679   2.149  -3.444  0.00  0.00    -0.286 OA
ATOM     15  H   LIG d   1       3.316   1.129  -1.362  0.00  0.00     0.062 H 
ATOM     16  H   LIG d   1       2.788  -1.190  -1.988  0.00  0.00     0.062 H 
ATOM     17  H   LIG d   1       5.396   2.198  -2.116  0.00  0.00     0.062 H 
ATOM     18  H   LIG d   1       5.687  -3.148  -5.532  0.00  0.00     0.050 H 
ATOM     19  H   LIG d   1       6.527  -3.740  -4.067  0.00  0.00     0.050 H 
ATOM     20  H   LIG d   1       4.562  -3.592  -2.881  0.00  0.00     0.033 H 
ATOM     21  H   LIG d   1       3.720  -3.000  -4.347  0.00  0.00     0.033 H 
ENDROOT
BRANCH   8  22
ATOM     22  C   LIG d   1       9.409   0.640  -5.045  0.00  0.00     0.249 C 
ATOM     23  O   LIG d   1       9.427   1.307  -6.063  0.00  0.00    -0.270 OA
ATOM     24  N   LIG d   1      10.562   0.350  -4.409  0.00  0.00    -0.311 N 
ATOM     25  H   LIG d   1      10.557  -0.242  -3.641  0.00  0.00     0.149 HD
BRANCH  24  26
ATOM     26  C   LIG d   1      11.823   0.930  -4.878  0.00  0.00     0.014 C 
ATOM     27  H   LIG d   1      12.488   0.133  -5.211  0.00  0.00     0.046 H 
ATOM     28  H   LIG d   1      11.625   1.608  -5.708  0.00  0.00     0.046 H 
BRANCH  26  29
ATOM     29  C   LIG d   1      12.484   1.703  -3.735  0.00  0.00    -0.014 C 
ATOM     30  H   LIG d   1      12.579   1.054  -2.865  0.00  0.00     0.030 H 
ATOM     31  H   LIG d   1      13.472   2.039  -4.047  0.00  0.00     0.030 H 
BRANCH  29  32
ATOM     32  C   LIG d   1      11.624   2.916  -3.375  0.00  0.00     0.046 C 
ATOM     33  H   LIG d   1      12.266   3.730  -3.038  0.00  0.00     0.056 H 
ATOM     34  H   LIG d   1      11.061   3.236  -4.253  0.00  0.00     0.056 H 
BRANCH  32  35
ATOM     35  O   LIG d   1      10.715   2.563  -2.330  0.00  0.00    -0.395 OA
ATOM     36  H   LIG d   1       9.835   2.950  -2.427  0.00  0.00     0.209 HD
ENDBRANCH  32  35
ENDBRANCH  29  32
ENDBRANCH  26  29
ENDBRANCH  24  26
ENDBRANCH   8  22
TORSDOF 5
ENDMDL
MODEL 3
REMARK VINA RESULT:      -5.9      4.180      5.357
REMARK  5 active torsions:
REMARK  status: ('A' for Active; 'I' for Inactive)
REMARK    1  A    between atoms: C_8  and  C_14 
REMARK       I    between atoms: C_14  and  N_16 
REMARK    2  A    between atoms: N_16  and  C_17 
REMARK    3  A    between atoms: C_17  and  C_18 
REMARK    4  A    between atoms: C_18  and  C_19 
REMARK    5  A    between atoms: C_19  and  O_20 
ROOT
ATOM      1  C   LIG d   1       7.645  -2.126  -4.229  0.00  0.00    -0.061 A 
ATOM      2  C   LIG d   1       6.924  -2.089  -3.041  0.00  0.00    -0.057 A 
ATOM      3  C   LIG d   1       5.648  -1.570  -3.025  0.00  0.00    -0.021 A 
ATOM      4  C   LIG d   1       5.109  -1.095  -4.201  0.00  0.00     0.056 A 
ATOM      5  C   LIG d   1       5.818  -1.126  -5.401  0.00  0.00     0.046 A 
ATOM      6  C   LIG d   1       7.108  -1.652  -5.410  0.00  0.00    -0.049 A 
ATOM      7  C   LIG d   1       5.151  -0.592  -6.604  0.00  0.00     0.201 A 
ATOM      8  C   LIG d   1       3.829  -0.085  -6.439  0.00  0.00     0.092 A 
ATOM      9  C   LIG d   1       3.212  -0.103  -5.190  0.00  0.00    -0.020 A 
ATOM     10  O   LIG d   1       1.962   0.384  -5.069  0.00  0.00    -0.861 OA
ATOM     11  N   LIG d   1       3.840  -0.597  -4.091  0.00  0.00    -0.352 N 
ATOM     12  C   LIG d   1       3.412  -0.725  -2.687  0.00  0.00     0.027 A 
ATOM     13  C   LIG d   1       4.604  -1.372  -1.952  0.00  0.00    -0.008 A 
ATOM     14  O   LIG d   1       5.706  -0.585  -7.689  0.00  0.00    -0.286 OA
ATOM     15  H   LIG d   1       8.646  -2.532  -4.229  0.00  0.00     0.062 H 
ATOM     16  H   LIG d   1       7.365  -2.466  -2.130  0.00  0.00     0.062 H 
ATOM     17  H   LIG d   1       7.680  -1.688  -6.325  0.00  0.00     0.062 H 
ATOM     18  H   LIG d   1       3.198   0.258  -2.268  0.00  0.00     0.050 H 
ATOM     19  H   LIG d   1       2.532  -1.366  -2.618  0.00  0.00     0.050 H 
ATOM     20  H   LIG d   1       4.310  -2.331  -1.525  0.00  0.00     0.033 H 
ATOM     21  H   LIG d   1       4.978  -0.707  -1.173  0.00  0.00     0.033 H 
ENDROOT
BRANCH   8  22
ATOM     22  C   LIG d   1       3.111   0.460  -7.596  0.00  0.00     0.249 C 
ATOM     23  O   LIG d   1       2.939   1.661  -7.695  0.00  0.00    -0.270 OA
ATOM     24  N   LIG d   1       2.641  -0.368  -8.550  0.00  0.00    -0.311 N 
ATOM     25  H   LIG d   1       2.712  -1.329  -8.436  0.00  0.00     0.149 HD
BRANCH  24  26
ATOM     26  C   LIG d   1       2.024   0.182  -9.759  0.00  0.00     0.014 C 
ATOM     27  H   LIG d   1       0.988  -0.153  -9.822  0.00  0.00     0.046 H 
ATOM     28  H   LIG d   1       2.052   1.271  -9.719  0.00  0.00     0.046 H 
BRANCH  26  29
ATOM     29  C   LIG d   1       2.793  -0.303 -10.989  0.00  0.00    -0.014 C 
ATOM     30  H   LIG d   1       3.197  -1.298 -10.797  0.00  0.00     0.030 H 
ATOM     31  H   LIG d   1       2.121  -0.344 -11.846  0.00  0.00     0.030 H 
BRANCH  29  32
ATOM     32  C   LIG d   1       3.941   0.664 -11.288  0.00  0.00     0.046 C 
ATOM     33  H   LIG d   1       4.885   0.211 -10.987  0.00  0.00     0.056 H 
ATOM     34  H   LIG d   1       3.964   0.881 -12.356  0.00  0.00     0.056 H 
BRANCH  32  35
ATOM     35  O   LIG d   1       3.742   1.878 -10.560  0.00  0.00    -0.395 OA
ATOM     36  H   LIG d   1       2.895   2.308 -10.737  0.00  0.00     0.209 HD
ENDBRANCH  32  35
ENDBRANCH  29  32
ENDBRANCH  26  29
ENDBRANCH  24  26
ENDBRANCH   8  22
TORSDOF 5
ENDMDL
MODEL 4
REMARK VINA RESULT:      -5.8      3.927      4.446
REMARK  5 active torsions:
REMARK  status: ('A' for Active; 'I' for Inactive)
REMARK    1  A    between atoms: C_8  and  C_14 
REMARK       I    between atoms: C_14  and  N_16 
REMARK    2  A    between atoms: N_16  and  C_17 
REMARK    3  A    between atoms: C_17  and  C_18 
REMARK    4  A    between atoms: C_18  and  C_19 
REMARK    5  A    between atoms: C_19  and  O_20 
ROOT
ATOM      1  C   LIG d   1       3.527   0.750  -2.411  0.00  0.00    -0.061 A 
ATOM      2  C   LIG d   1       4.584  -0.035  -1.963  0.00  0.00    -0.057 A 
ATOM      3  C   LIG d   1       5.269  -0.839  -2.848  0.00  0.00    -0.021 A 
ATOM      4  C   LIG d   1       4.886  -0.848  -4.172  0.00  0.00     0.056 A 
ATOM      5  C   LIG d   1       3.829  -0.066  -4.637  0.00  0.00     0.046 A 
ATOM      6  C   LIG d   1       3.141   0.745  -3.738  0.00  0.00    -0.049 A 
ATOM      7  C   LIG d   1       3.499  -0.147  -6.073  0.00  0.00     0.201 A 
ATOM      8  C   LIG d   1       4.292  -1.024  -6.870  0.00  0.00     0.092 A 
ATOM      9  C   LIG d   1       5.328  -1.761  -6.300  0.00  0.00    -0.020 A 
ATOM     10  O   LIG d   1       6.057  -2.579  -7.083  0.00  0.00    -0.861 OA
ATOM     11  N   LIG d   1       5.619  -1.676  -4.976  0.00  0.00    -0.352 N 
ATOM     12  C   LIG d   1       6.643  -2.337  -4.149  0.00  0.00     0.027 A 
ATOM     13  C   LIG d   1       6.429  -1.796  -2.720  0.00  0.00    -0.008 A 
ATOM     14  O   LIG d   1       2.589   0.505  -6.555  0.00  0.00    -0.286 OA
ATOM     15  H   LIG d   1       2.995   1.374  -1.708  0.00  0.00     0.062 H 
ATOM     16  H   LIG d   1       4.868  -0.014  -0.922  0.00  0.00     0.062 H 
ATOM     17  H   LIG d   1       2.319   1.360  -4.070  0.00  0.00     0.062 H 
ATOM     18  H   LIG d   1       6.501  -3.418  -4.168  0.00  0.00     0.050 H 
ATOM     19  H   LIG d   1       7.640  -2.080  -4.506  0.00  0.00     0.050 H 
ATOM     20  H   LIG d   1       7.320  -1.270  -2.377  0.00  0.00     0.033 H 
ATOM     21  H   LIG d   1       6.180  -2.610  -2.038  0.00  0.00     0.033 H 
ENDROOT
BRANCH   8  22
ATOM     22  C   LIG d   1       4.015  -1.150  -8.305  0.00  0.00     0.249 C 
ATOM     23  O   LIG d   1       3.189  -1.955  -8.696  0.00  0.00    -0.270 OA
ATOM     24  N   LIG d   1       4.673  -0.376  -9.190  0.00  0.00    -0.311 N 
ATOM     25  H   LIG d   1       5.382   0.212  -8.886  0.00  0.00     0.149 HD
BRANCH  24  26
ATOM     26  C   LIG d   1       4.317  -0.422 -10.610  0.00  0.00     0.014 C 
ATOM     27  H   LIG d   1       5.222  -0.528 -11.208  0.00  0.00     0.046 H 
ATOM     28  H   LIG d   1       3.659  -1.271 -10.793  0.00  0.00     0.046 H 
BRANCH  26  29
ATOM     29  C   LIG d   1       3.600   0.873 -10.997  0.00  0.00    -0.014 C 
ATOM     30  H   LIG d   1       3.910   1.175 -11.998  0.00  0.00     0.030 H 
ATOM     31  H   LIG d   1       2.522   0.710 -10.985  0.00  0.00     0.030 H 
BRANCH  29  32
ATOM     32  C   LIG d   1       3.959   1.974  -9.997  0.00  0.00     0.046 C 
ATOM     33  H   LIG d   1       4.877   1.705  -9.475  0.00  0.00     0.056 H 
ATOM     34  H   LIG d   1       4.106   2.915 -10.529  0.00  0.00     0.056 H 
BRANCH  32  35
ATOM     35  O   LIG d   1       2.899   2.124  -9.051  0.00  0.00    -0.395 OA
ATOM     36  H   LIG d   1       2.016   2.085  -9.441  0.00  0.00     0.209 HD
ENDBRANCH  32  35
ENDBRANCH  29  32
ENDBRANCH  26  29
ENDBRANCH  24  26
ENDBRANCH   8  22
TORSDOF 5
ENDMDL
MODEL 5
REMARK VINA RESULT:      -5.7      3.781      4.454
REMARK  5 active torsions:
REMARK  status: ('A' for Active; 'I' for Inactive)
REMARK    1  A    between atoms: C_8  and  C_14 
REMARK       I    between atoms: C_14  and  N_16 
REMARK    2  A    between atoms: N_16  and  C_17 
REMARK    3  A    between atoms: C_17  and  C_18 
REMARK    4  A    between atoms: C_18  and  C_19 
REMARK    5  A    between atoms: C_19  and  O_20 
ROOT
ATOM      1  C   LIG d   1       3.909   0.871  -1.939  0.00  0.00    -0.061 A 
ATOM      2  C   LIG d   1       4.745  -0.231  -1.795  0.00  0.00    -0.057 A 
ATOM      3  C   LIG d   1       5.039  -1.021  -2.885  0.00  0.00    -0.021 A 
ATOM      4  C   LIG d   1       4.492  -0.697  -4.107  0.00  0.00     0.056 A 
ATOM      5  C   LIG d   1       3.653   0.405  -4.270  0.00  0.00     0.046 A 
ATOM      6  C   LIG d   1       3.360   1.200  -3.163  0.00  0.00    -0.049 A 
ATOM      7  C   LIG d   1       3.119   0.665  -5.620  0.00  0.00     0.201 A 
ATOM      8  C   LIG d   1       3.507  -0.237  -6.654  0.00  0.00     0.092 A 
ATOM      9  C   LIG d   1       4.353  -1.309  -6.381  0.00  0.00    -0.020 A 
ATOM     10  O   LIG d   1       4.700  -2.142  -7.381  0.00  0.00    -0.861 OA
ATOM     11  N   LIG d   1       4.836  -1.537  -5.131  0.00  0.00    -0.352 N 
ATOM     12  C   LIG d   1       5.728  -2.579  -4.595  0.00  0.00     0.027 A 
ATOM     13  C   LIG d   1       5.879  -2.258  -3.094  0.00  0.00    -0.008 A 
ATOM     14  O   LIG d   1       2.380   1.608  -5.842  0.00  0.00    -0.286 OA
ATOM     15  H   LIG d   1       3.683   1.481  -1.077  0.00  0.00     0.062 H 
ATOM     16  H   LIG d   1       5.163  -0.468  -0.828  0.00  0.00     0.062 H 
ATOM     17  H   LIG d   1       2.713   2.058  -3.260  0.00  0.00     0.062 H 
ATOM     18  H   LIG d   1       5.279  -3.563  -4.728  0.00  0.00     0.050 H 
ATOM     19  H   LIG d   1       6.698  -2.536  -5.090  0.00  0.00     0.050 H 
ATOM     20  H   LIG d   1       6.922  -2.055  -2.852  0.00  0.00     0.033 H 
ATOM     21  H   LIG d   1       5.501  -3.083  -2.488  0.00  0.00     0.033 H 
ENDROOT
BRANCH   8  22
ATOM     22  C   LIG d   1       3.010  -0.033  -8.019  0.00  0.00     0.249 C 
ATOM     23  O   LIG d   1       3.447   0.880  -8.696  0.00  0.00    -0.270 OA
ATOM     24  N   LIG d   1       2.070  -0.856  -8.524  0.00  0.00    -0.311 N 
ATOM     25  H   LIG d   1       1.668  -1.536  -7.961  0.00  0.00     0.149 HD
BRANCH  24  26
ATOM     26  C   LIG d   1       1.655  -0.723  -9.922  0.00  0.00     0.014 C 
ATOM     27  H   LIG d   1       0.598  -0.973 -10.013  0.00  0.00     0.046 H 
ATOM     28  H   LIG d   1       1.814   0.303 -10.254  0.00  0.00     0.046 H 
BRANCH  26  29
ATOM     29  C   LIG d   1       2.481  -1.673 -10.791  0.00  0.00    -0.014 C 
ATOM     30  H   LIG d   1       2.598  -1.246 -11.787  0.00  0.00     0.030 H 
ATOM     31  H   LIG d   1       3.463  -1.818 -10.341  0.00  0.00     0.030 H 
BRANCH  29  32
ATOM     32  C   LIG d   1       1.765  -3.022 -10.895  0.00  0.00     0.046 C 
ATOM     33  H   LIG d   1       1.516  -3.222 -11.937  0.00  0.00     0.056 H 
ATOM     34  H   LIG d   1       2.418  -3.810 -10.519  0.00  0.00     0.056 H 
BRANCH  32  35
ATOM     35  O   LIG d   1       0.567  -2.986 -10.118  0.00  0.00    -0.395 OA
ATOM     36  H   LIG d   1       0.292  -2.096  -9.859  0.00  0.00     0.209 HD
ENDBRANCH  32  35
ENDBRANCH  29  32
ENDBRANCH  26  29
ENDBRANCH  24  26
ENDBRANCH   8  22
TORSDOF 5
ENDMDL
MODEL 6
REMARK VINA RESULT:      -5.6      3.560      6.565
REMARK  5 active torsions:
REMARK  status: ('A' for Active; 'I' for Inactive)
REMARK    1  A    between atoms: C_8  and  C_14 
REMARK       I    between atoms: C_14  and  N_16 
REMARK    2  A    between atoms: N_16  and  C_17 
REMARK    3  A    between atoms: C_17  and  C_18 
REMARK    4  A    between atoms: C_18  and  C_19 
REMARK    5  A    between atoms: C_19  and  O_20 
ROOT
ATOM      1  C   LIG d   1       1.427  -0.768 -10.497  0.00  0.00    -0.061 A 
ATOM      2  C   LIG d   1       1.706  -2.122 -10.646  0.00  0.00    -0.057 A 
ATOM      3  C   LIG d   1       2.533  -2.758  -9.746  0.00  0.00    -0.021 A 
ATOM      4  C   LIG d   1       3.071  -2.029  -8.707  0.00  0.00     0.056 A 
ATOM      5  C   LIG d   1       2.801  -0.670  -8.544  0.00  0.00     0.046 A 
ATOM      6  C   LIG d   1       1.964  -0.034  -9.457  0.00  0.00    -0.049 A 
ATOM      7  C   LIG d   1       3.427   0.018  -7.399  0.00  0.00     0.201 A 
ATOM      8  C   LIG d   1       4.262  -0.765  -6.550  0.00  0.00     0.092 A 
ATOM      9  C   LIG d   1       4.464  -2.120  -6.806  0.00  0.00    -0.020 A 
ATOM     10  O   LIG d   1       5.258  -2.831  -5.983  0.00  0.00    -0.861 OA
ATOM     11  N   LIG d   1       3.881  -2.741  -7.865  0.00  0.00    -0.352 N 
ATOM     12  C   LIG d   1       3.935  -4.133  -8.342  0.00  0.00     0.027 A 
ATOM     13  C   LIG d   1       3.043  -4.172  -9.600  0.00  0.00    -0.008 A 
ATOM     14  O   LIG d   1       3.239   1.204  -7.190  0.00  0.00    -0.286 OA
ATOM     15  H   LIG d   1       0.780  -0.279 -11.211  0.00  0.00     0.062 H 
ATOM     16  H   LIG d   1       1.274  -2.675 -11.466  0.00  0.00     0.062 H 
ATOM     17  H   LIG d   1       1.738   1.017  -9.356  0.00  0.00     0.062 H 
ATOM     18  H   LIG d   1       4.960  -4.404  -8.597  0.00  0.00     0.050 H 
ATOM     19  H   LIG d   1       3.545  -4.808  -7.580  0.00  0.00     0.050 H 
ATOM     20  H   LIG d   1       2.213  -4.863  -9.455  0.00  0.00     0.033 H 
ATOM     21  H   LIG d   1       3.629  -4.458 -10.474  0.00  0.00     0.033 H 
ENDROOT
BRANCH   8  22
ATOM     22  C   LIG d   1       4.914  -0.139  -5.395  0.00  0.00     0.249 C 
ATOM     23  O   LIG d   1       6.099   0.136  -5.440  0.00  0.00    -0.270 OA
ATOM     24  N   LIG d   1       4.202   0.131  -4.283  0.00  0.00    -0.311 N 
ATOM     25  H   LIG d   1       3.277  -0.154  -4.218  0.00  0.00     0.149 HD
BRANCH  24  26
ATOM     26  C   LIG d   1       4.824   0.857  -3.173  0.00  0.00     0.014 C 
ATOM     27  H   LIG d   1       5.908   0.786  -3.256  0.00  0.00     0.046 H 
ATOM     28  H   LIG d   1       4.525   1.904  -3.210  0.00  0.00     0.046 H 
BRANCH  26  29
ATOM     29  C   LIG d   1       4.372   0.243  -1.847  0.00  0.00    -0.014 C 
ATOM     30  H   LIG d   1       4.971   0.654  -1.034  0.00  0.00     0.030 H 
ATOM     31  H   LIG d   1       3.321   0.476  -1.677  0.00  0.00     0.030 H 
BRANCH  29  32
ATOM     32  C   LIG d   1       4.556  -1.275  -1.898  0.00  0.00     0.046 C 
ATOM     33  H   LIG d   1       5.415  -1.516  -2.524  0.00  0.00     0.056 H 
ATOM     34  H   LIG d   1       4.722  -1.656  -0.890  0.00  0.00     0.056 H 
BRANCH  32  35
ATOM     35  O   LIG d   1       3.383  -1.879  -2.447  0.00  0.00    -0.395 OA
ATOM     36  H   LIG d   1       2.875  -2.401  -1.811  0.00  0.00     0.209 HD
ENDBRANCH  32  35
ENDBRANCH  29  32
ENDBRANCH  26  29
ENDBRANCH  24  26
ENDBRANCH   8  22
TORSDOF 5
ENDMDL
MODEL 7
REMARK VINA RESULT:      -5.6      4.407      6.012
REMARK  5 active torsions:
REMARK  status: ('A' for Active; 'I' for Inactive)
REMARK    1  A    between atoms: C_8  and  C_14 
REMARK       I    between atoms: C_14  and  N_16 
REMARK    2  A    between atoms: N_16  and  C_17 
REMARK    3  A    between atoms: C_17  and  C_18 
REMARK    4  A    between atoms: C_18  and  C_19 
REMARK    5  A    between atoms: C_19  and  O_20 
ROOT
ATOM      1  C   LIG d   1       3.152   2.131  -9.798  0.00  0.00    -0.061 A 
ATOM      2  C   LIG d   1       3.918   1.439 -10.731  0.00  0.00    -0.057 A 
ATOM      3  C   LIG d   1       4.626   0.320 -10.348  0.00  0.00    -0.021 A 
ATOM      4  C   LIG d   1       4.558  -0.092  -9.034  0.00  0.00     0.056 A 
ATOM      5  C   LIG d   1       3.794   0.590  -8.087  0.00  0.00     0.046 A 
ATOM      6  C   LIG d   1       3.081   1.720  -8.482  0.00  0.00    -0.049 A 
ATOM      7  C   LIG d   1       3.789   0.067  -6.708  0.00  0.00     0.201 A 
ATOM      8  C   LIG d   1       4.570  -1.099  -6.455  0.00  0.00     0.092 A 
ATOM      9  C   LIG d   1       5.297  -1.702  -7.478  0.00  0.00    -0.020 A 
ATOM     10  O   LIG d   1       6.024  -2.803  -7.205  0.00  0.00    -0.861 OA
ATOM     11  N   LIG d   1       5.293  -1.208  -8.745  0.00  0.00    -0.352 N 
ATOM     12  C   LIG d   1       5.964  -1.654  -9.977  0.00  0.00     0.027 A 
ATOM     13  C   LIG d   1       5.536  -0.648 -11.065  0.00  0.00    -0.008 A 
ATOM     14  O   LIG d   1       3.147   0.608  -5.825  0.00  0.00    -0.286 OA
ATOM     15  H   LIG d   1       2.604   3.008 -10.109  0.00  0.00     0.062 H 
ATOM     16  H   LIG d   1       3.958   1.778 -11.755  0.00  0.00     0.062 H 
ATOM     17  H   LIG d   1       2.482   2.268  -7.769  0.00  0.00     0.062 H 
ATOM     18  H   LIG d   1       7.046  -1.631  -9.846  0.00  0.00     0.050 H 
ATOM     19  H   LIG d   1       5.637  -2.659 -10.242  0.00  0.00     0.050 H 
ATOM     20  H   LIG d   1       4.995  -1.158 -11.863  0.00  0.00     0.033 H 
ATOM     21  H   LIG d   1       6.406  -0.127 -11.467  0.00  0.00     0.033 H 
ENDROOT
BRANCH   8  22
ATOM     22  C   LIG d   1       4.607  -1.668  -5.104  0.00  0.00     0.249 C 
ATOM     23  O   LIG d   1       4.085  -2.746  -4.884  0.00  0.00    -0.270 OA
ATOM     24  N   LIG d   1       5.218  -0.999  -4.107  0.00  0.00    -0.311 N 
ATOM     25  H   LIG d   1       5.569  -0.109  -4.264  0.00  0.00     0.149 HD
BRANCH  24  26
ATOM     26  C   LIG d   1       5.354  -1.617  -2.786  0.00  0.00     0.014 C 
ATOM     27  H   LIG d   1       5.151  -2.685  -2.862  0.00  0.00     0.046 H 
ATOM     28  H   LIG d   1       6.368  -1.466  -2.415  0.00  0.00     0.046 H 
BRANCH  26  29
ATOM     29  C   LIG d   1       4.356  -0.976  -1.819  0.00  0.00    -0.014 C 
ATOM     30  H   LIG d   1       3.417  -1.528  -1.847  0.00  0.00     0.030 H 
ATOM     31  H   LIG d   1       4.762  -1.001  -0.808  0.00  0.00     0.030 H 
BRANCH  29  32
ATOM     32  C   LIG d   1       4.108   0.476  -2.231  0.00  0.00     0.046 C 
ATOM     33  H   LIG d   1       3.845   0.514  -3.289  0.00  0.00     0.056 H 
ATOM     34  H   LIG d   1       3.289   0.888  -1.639  0.00  0.00     0.056 H 
BRANCH  32  35
ATOM     35  O   LIG d   1       5.291   1.245  -2.007  0.00  0.00    -0.395 OA
ATOM     36  H   LIG d   1       6.000   1.069  -2.640  0.00  0.00     0.209 HD
ENDBRANCH  32  35
ENDBRANCH  29  32
ENDBRANCH  26  29
ENDBRANCH  24  26
ENDBRANCH   8  22
TORSDOF 5
ENDMDL
MODEL 8
REMARK VINA RESULT:      -5.6      2.974      6.520
REMARK  5 active torsions:
REMARK  status: ('A' for Active; 'I' for Inactive)
REMARK    1  A    between atoms: C_8  and  C_14 
REMARK       I    between atoms: C_14  and  N_16 
REMARK    2  A    between atoms: N_16  and  C_17 
REMARK    3  A    between atoms: C_17  and  C_18 
REMARK    4  A    between atoms: C_18  and  C_19 
REMARK    5  A    between atoms: C_19  and  O_20 
ROOT
ATOM      1  C   LIG d   1       3.602  -1.561  -2.318  0.00  0.00    -0.061 A 
ATOM      2  C   LIG d   1       3.910  -2.697  -3.059  0.00  0.00    -0.057 A 
ATOM      3  C   LIG d   1       5.013  -2.703  -3.885  0.00  0.00    -0.021 A 
ATOM      4  C   LIG d   1       5.794  -1.570  -3.959  0.00  0.00     0.056 A 
ATOM      5  C   LIG d   1       5.499  -0.423  -3.223  0.00  0.00     0.046 A 
ATOM      6  C   LIG d   1       4.383  -0.424  -2.389  0.00  0.00    -0.049 A 
ATOM      7  C   LIG d   1       6.399   0.737  -3.374  0.00  0.00     0.201 A 
ATOM      8  C   LIG d   1       7.501   0.588  -4.265  0.00  0.00     0.092 A 
ATOM      9  C   LIG d   1       7.703  -0.606  -4.953  0.00  0.00    -0.020 A 
ATOM     10  O   LIG d   1       8.755  -0.713  -5.788  0.00  0.00    -0.861 OA
ATOM     11  N   LIG d   1       6.865  -1.666  -4.804  0.00  0.00    -0.352 N 
ATOM     12  C   LIG d   1       6.862  -3.010  -5.406  0.00  0.00     0.027 A 
ATOM     13  C   LIG d   1       5.632  -3.724  -4.808  0.00  0.00    -0.008 A 
ATOM     14  O   LIG d   1       6.207   1.774  -2.764  0.00  0.00    -0.286 OA
ATOM     15  H   LIG d   1       2.733  -1.566  -1.677  0.00  0.00     0.062 H 
ATOM     16  H   LIG d   1       3.285  -3.574  -2.986  0.00  0.00     0.062 H 
ATOM     17  H   LIG d   1       4.131   0.451  -1.808  0.00  0.00     0.062 H 
ATOM     18  H   LIG d   1       6.767  -2.937  -6.489  0.00  0.00     0.050 H 
ATOM     19  H   LIG d   1       7.775  -3.544  -5.141  0.00  0.00     0.050 H 
ATOM     20  H   LIG d   1       5.941  -4.607  -4.248  0.00  0.00     0.033 H 
ATOM     21  H   LIG d   1       4.931  -4.000  -5.597  0.00  0.00     0.033 H 
ENDROOT
BRANCH   8  22
ATOM     22  C   LIG d   1       8.433   1.705  -4.460  0.00  0.00     0.249 C 
ATOM     23  O   LIG d   1       8.141   2.616  -5.212  0.00  0.00    -0.270 OA
ATOM     24  N   LIG d   1       9.611   1.722  -3.807  0.00  0.00    -0.311 N 
ATOM     25  H   LIG d   1       9.877   0.962  -3.265  0.00  0.00     0.149 HD
BRANCH  24  26
ATOM     26  C   LIG d   1      10.491   2.888  -3.913  0.00  0.00     0.014 C 
ATOM     27  H   LIG d   1      11.529   2.557  -3.958  0.00  0.00     0.046 H 
ATOM     28  H   LIG d   1      10.248   3.445  -4.818  0.00  0.00     0.046 H 
BRANCH  26  29
ATOM     29  C   LIG d   1      10.295   3.787  -2.691  0.00  0.00    -0.014 C 
ATOM     30  H   LIG d   1       9.488   3.391  -2.074  0.00  0.00     0.030 H 
ATOM     31  H   LIG d   1      11.216   3.817  -2.110  0.00  0.00     0.030 H 
BRANCH  29  32
ATOM     32  C   LIG d   1       9.937   5.202  -3.152  0.00  0.00     0.046 C 
ATOM     33  H   LIG d   1       9.305   5.679  -2.403  0.00  0.00     0.056 H 
ATOM     34  H   LIG d   1      10.850   5.784  -3.281  0.00  0.00     0.056 H 
BRANCH  32  35
ATOM     35  O   LIG d   1       9.236   5.136  -4.395  0.00  0.00    -0.395 OA
ATOM     36  H   LIG d   1       8.295   4.934  -4.305  0.00  0.00     0.209 HD
ENDBRANCH  32  35
ENDBRANCH  29  32
ENDBRANCH  26  29
ENDBRANCH  24  26
ENDBRANCH   8  22
TORSDOF 5
ENDMDL
MODEL 9
REMARK VINA RESULT:      -5.5      2.942      6.489
REMARK  5 active torsions:
REMARK  status: ('A' for Active; 'I' for Inactive)
REMARK    1  A    between atoms: C_8  and  C_14 
REMARK       I    between atoms: C_14  and  N_16 
REMARK    2  A    between atoms: N_16  and  C_17 
REMARK    3  A    between atoms: C_17  and  C_18 
REMARK    4  A    between atoms: C_18  and  C_19 
REMARK    5  A    between atoms: C_19  and  O_20 
ROOT
ATOM      1  C   LIG d   1       5.778  -3.972  -5.146  0.00  0.00    -0.061 A 
ATOM      2  C   LIG d   1       4.704  -3.794  -4.280  0.00  0.00    -0.057 A 
ATOM      3  C   LIG d   1       4.553  -2.604  -3.603  0.00  0.00    -0.021 A 
ATOM      4  C   LIG d   1       5.481  -1.605  -3.802  0.00  0.00     0.056 A 
ATOM      5  C   LIG d   1       6.564  -1.766  -4.667  0.00  0.00     0.046 A 
ATOM      6  C   LIG d   1       6.710  -2.973  -5.348  0.00  0.00    -0.049 A 
ATOM      7  C   LIG d   1       7.500  -0.636  -4.808  0.00  0.00     0.201 A 
ATOM      8  C   LIG d   1       7.221   0.536  -4.045  0.00  0.00     0.092 A 
ATOM      9  C   LIG d   1       6.108   0.590  -3.210  0.00  0.00    -0.020 A 
ATOM     10  O   LIG d   1       5.873   1.713  -2.503  0.00  0.00    -0.861 OA
ATOM     11  N   LIG d   1       5.254  -0.460  -3.089  0.00  0.00    -0.352 N 
ATOM     12  C   LIG d   1       4.031  -0.647  -2.289  0.00  0.00     0.027 A 
ATOM     13  C   LIG d   1       3.543  -2.074  -2.614  0.00  0.00    -0.008 A 
ATOM     14  O   LIG d   1       8.470  -0.700  -5.544  0.00  0.00    -0.286 OA
ATOM     15  H   LIG d   1       5.887  -4.911  -5.668  0.00  0.00     0.062 H 
ATOM     16  H   LIG d   1       3.987  -4.590  -4.139  0.00  0.00     0.062 H 
ATOM     17  H   LIG d   1       7.538  -3.126  -6.023  0.00  0.00     0.062 H 
ATOM     18  H   LIG d   1       4.259  -0.559  -1.227  0.00  0.00     0.050 H 
ATOM     19  H   LIG d   1       3.277   0.085  -2.576  0.00  0.00     0.050 H 
ATOM     20  H   LIG d   1       2.550  -2.042  -3.064  0.00  0.00     0.033 H 
ATOM     21  H   LIG d   1       3.533  -2.688  -1.713  0.00  0.00     0.033 H 
ENDROOT
BRANCH   8  22
ATOM     22  C   LIG d   1       8.115   1.695  -4.141  0.00  0.00     0.249 C 
ATOM     23  O   LIG d   1       7.889   2.571  -4.956  0.00  0.00    -0.270 OA
ATOM     24  N   LIG d   1       9.185   1.790  -3.328  0.00  0.00    -0.311 N 
ATOM     25  H   LIG d   1       9.407   1.059  -2.731  0.00  0.00     0.149 HD
BRANCH  24  26
ATOM     26  C   LIG d   1      10.013   2.999  -3.346  0.00  0.00     0.014 C 
ATOM     27  H   LIG d   1       9.768   3.594  -4.225  0.00  0.00     0.046 H 
ATOM     28  H   LIG d   1       9.822   3.584  -2.446  0.00  0.00     0.046 H 
BRANCH  26  29
ATOM     29  C   LIG d   1      11.490   2.603  -3.394  0.00  0.00    -0.014 C 
ATOM     30  H   LIG d   1      12.105   3.501  -3.464  0.00  0.00     0.030 H 
ATOM     31  H   LIG d   1      11.750   2.055  -2.488  0.00  0.00     0.030 H 
BRANCH  29  32
ATOM     32  C   LIG d   1      11.742   1.716  -4.616  0.00  0.00     0.046 C 
ATOM     33  H   LIG d   1      11.145   2.076  -5.454  0.00  0.00     0.056 H 
ATOM     34  H   LIG d   1      12.799   1.752  -4.879  0.00  0.00     0.056 H 
BRANCH  32  35
ATOM     35  O   LIG d   1      11.373   0.370  -4.311  0.00  0.00    -0.395 OA
ATOM     36  H   LIG d   1      11.924  -0.296  -4.744  0.00  0.00     0.209 HD
ENDBRANCH  32  35
ENDBRANCH  29  32
ENDBRANCH  26  29
ENDBRANCH  24  26
ENDBRANCH   8  22
TORSDOF 5
ENDMDL
MODEL 10
REMARK VINA RESULT:      -5.3      3.600      6.586
REMARK  5 active torsions:
REMARK  status: ('A' for Active; 'I' for Inactive)
REMARK    1  A    between atoms: C_8  and  C_14 
REMARK       I    between atoms: C_14  and  N_16 
REMARK    2  A    between atoms: N_16  and  C_17 
REMARK    3  A    between atoms: C_17  and  C_18 
REMARK    4  A    between atoms: C_18  and  C_19 
REMARK    5  A    between atoms: C_19  and  O_20 
ROOT
ATOM      1  C   LIG d   1       3.283  -4.321  -9.997  0.00  0.00    -0.061 A 
ATOM      2  C   LIG d   1       2.473  -3.333 -10.547  0.00  0.00    -0.057 A 
ATOM      3  C   LIG d   1       2.369  -2.105  -9.932  0.00  0.00    -0.021 A 
ATOM      4  C   LIG d   1       3.078  -1.881  -8.771  0.00  0.00     0.056 A 
ATOM      5  C   LIG d   1       3.896  -2.861  -8.207  0.00  0.00     0.046 A 
ATOM      6  C   LIG d   1       3.996  -4.100  -8.835  0.00  0.00    -0.049 A 
ATOM      7  C   LIG d   1       4.612  -2.520  -6.963  0.00  0.00     0.201 A 
ATOM      8  C   LIG d   1       4.409  -1.211  -6.437  0.00  0.00     0.092 A 
ATOM      9  C   LIG d   1       3.568  -0.308  -7.084  0.00  0.00    -0.020 A 
ATOM     10  O   LIG d   1       3.399   0.921  -6.560  0.00  0.00    -0.861 OA
ATOM     11  N   LIG d   1       2.914  -0.636  -8.229  0.00  0.00    -0.352 N 
ATOM     12  C   LIG d   1       1.989   0.124  -9.087  0.00  0.00     0.027 A 
ATOM     13  C   LIG d   1       1.608  -0.836 -10.233  0.00  0.00    -0.008 A 
ATOM     14  O   LIG d   1       5.344  -3.322  -6.411  0.00  0.00    -0.286 OA
ATOM     15  H   LIG d   1       3.354  -5.281 -10.487  0.00  0.00     0.062 H 
ATOM     16  H   LIG d   1       1.926  -3.529 -11.457  0.00  0.00     0.062 H 
ATOM     17  H   LIG d   1       4.621  -4.877  -8.420  0.00  0.00     0.062 H 
ATOM     18  H   LIG d   1       1.101   0.409  -8.522  0.00  0.00     0.050 H 
ATOM     19  H   LIG d   1       2.484   1.009  -9.484  0.00  0.00     0.050 H 
ATOM     20  H   LIG d   1       1.920  -0.424 -11.192  0.00  0.00     0.033 H 
ATOM     21  H   LIG d   1       0.534  -1.026 -10.230  0.00  0.00     0.033 H 
ENDROOT
BRANCH   8  22
ATOM     22  C   LIG d   1       5.092  -0.810  -5.203  0.00  0.00     0.249 C 
ATOM     23  O   LIG d   1       5.854   0.140  -5.209  0.00  0.00    -0.270 OA
ATOM     24  N   LIG d   1       4.878  -1.494  -4.061  0.00  0.00    -0.311 N 
ATOM     25  H   LIG d   1       4.331  -2.295  -4.071  0.00  0.00     0.149 HD
BRANCH  24  26
ATOM     26  C   LIG d   1       5.472  -1.028  -2.806  0.00  0.00     0.014 C 
ATOM     27  H   LIG d   1       5.990  -1.855  -2.320  0.00  0.00     0.046 H 
ATOM     28  H   LIG d   1       6.181  -0.227  -3.014  0.00  0.00     0.046 H 
BRANCH  26  29
ATOM     29  C   LIG d   1       4.368  -0.505  -1.884  0.00  0.00    -0.014 C 
ATOM     30  H   LIG d   1       3.400  -0.860  -2.238  0.00  0.00     0.030 H 
ATOM     31  H   LIG d   1       4.539  -0.868  -0.870  0.00  0.00     0.030 H 
BRANCH  29  32
ATOM     32  C   LIG d   1       4.383   1.025  -1.887  0.00  0.00     0.046 C 
ATOM     33  H   LIG d   1       3.493   1.396  -2.395  0.00  0.00     0.056 H 
ATOM     34  H   LIG d   1       4.394   1.390  -0.859  0.00  0.00     0.056 H 
BRANCH  32  35
ATOM     35  O   LIG d   1       5.550   1.489  -2.569  0.00  0.00    -0.395 OA
ATOM     36  H   LIG d   1       5.775   2.410  -2.381  0.00  0.00     0.209 HD
ENDBRANCH  32  35
ENDBRANCH  29  32
ENDBRANCH  26  29
ENDBRANCH  24  26
ENDBRANCH   8  22
TORSDOF 5
ENDMDL
