MODEL 1
REMARK VINA RESULT:      -5.4      0.000      0.000
REMARK  16 active torsions:
REMARK  status: ('A' for Active; 'I' for Inactive)
REMARK    1  A    between atoms: C_1  and  C_2 
REMARK    2  A    between atoms: C_4  and  N_33 
REMARK    3  A    between atoms: C_8  and  C_32 
REMARK    4  A    between atoms: C_11  and  O_31 
REMARK    5  A    between atoms: C_13  and  C_17 
REMARK    6  A    between atoms: C_17  and  C_19 
REMARK    7  A    between atoms: C_17  and  C_20 
REMARK       I    between atoms: C_20  and  N_22 
REMARK    8  A    between atoms: N_22  and  C_23 
REMARK    9  A    between atoms: N_22  and  C_27 
REMARK   10  A    between atoms: C_23  and  C_24 
REMARK   11  A    between atoms: C_24  and  O_25 
REMARK   12  A    between atoms: O_25  and  C_26 
REMARK   13  A    between atoms: C_27  and  C_28 
REMARK   14  A    between atoms: C_28  and  O_29 
REMARK   15  A    between atoms: O_29  and  C_30 
REMARK       I    between atoms: N_33  and  C_34 
REMARK   16  A    between atoms: C_34  and  C_36 
ROOT
ATOM      1  C   LIG d   1       7.271   0.063  -5.078  0.00  0.00    -0.020 C 
ATOM      2  H   LIG d   1       6.575   0.509  -5.806  0.00  0.00     0.032 H 
ATOM      3  C   LIG d   1       7.550   1.067  -3.958  0.00  0.00     0.026 C 
ATOM      4  H   LIG d   1       8.273   0.655  -3.240  0.00  0.00     0.050 H 
ATOM      5  C   LIG d   1       6.238   1.424  -3.256  0.00  0.00    -0.034 C 
ATOM      6  C   LIG d   1       5.615   0.159  -2.664  0.00  0.00    -0.046 C 
ATOM      7  C   LIG d   1       5.336  -0.844  -3.785  0.00  0.00    -0.026 C 
ATOM      8  C   LIG d   1       6.648  -1.202  -4.486  0.00  0.00    -0.005 C 
ATOM      9  H   LIG d   1       7.342  -1.648  -3.760  0.00  0.00     0.033 H 
ATOM     10  C   LIG d   1       6.369  -2.206  -5.607  0.00  0.00     0.062 C 
ATOM     11  H   LIG d   1       5.723  -1.769  -6.383  0.00  0.00     0.060 H 
ATOM     12  C   LIG d   1       5.746  -3.472  -5.015  0.00  0.00    -0.004 C 
ATOM     13  H   LIG d   1       6.440  -3.917  -4.287  0.00  0.00     0.033 H 
ATOM     14  C   LIG d   1       4.434  -3.114  -4.313  0.00  0.00    -0.047 C 
ATOM     15  C   LIG d   1       4.713  -2.110  -3.193  0.00  0.00    -0.047 C 
ATOM     16  H   LIG d   1       6.438   2.146  -2.451  0.00  0.00     0.028 H 
ATOM     17  H   LIG d   1       5.543   1.870  -3.983  0.00  0.00     0.028 H 
ATOM     18  H   LIG d   1       6.309  -0.286  -1.937  0.00  0.00     0.027 H 
ATOM     19  H   LIG d   1       4.671   0.417  -2.159  0.00  0.00     0.027 H 
ATOM     20  H   LIG d   1       3.738  -2.668  -5.040  0.00  0.00     0.027 H 
ATOM     21  H   LIG d   1       3.986  -4.023  -3.888  0.00  0.00     0.027 H 
ATOM     22  H   LIG d   1       5.407  -2.555  -2.465  0.00  0.00     0.027 H 
ATOM     23  H   LIG d   1       3.769  -1.853  -2.688  0.00  0.00     0.027 H 
ENDROOT
BRANCH  12  24
ATOM     24  C   LIG d   1       5.467  -4.476  -6.135  0.00  0.00     0.038 C 
ATOM     25  H   LIG d   1       6.325  -4.516  -6.822  0.00  0.00     0.040 H 
BRANCH  24  26
ATOM     26  C   LIG d   1       4.209  -4.052  -6.898  0.00  0.00    -0.054 C 
ATOM     27  H   LIG d   1       3.366  -4.690  -6.596  0.00  0.00     0.024 H 
ATOM     28  H   LIG d   1       4.383  -4.162  -7.980  0.00  0.00     0.024 H 
ATOM     29  H   LIG d   1       3.978  -3.002  -6.669  0.00  0.00     0.024 H 
ENDBRANCH  24  26
BRANCH  24  30
ATOM     30  C   LIG d   1       5.257  -5.845  -5.542  0.00  0.00     0.219 C 
ATOM     31  O   LIG d   1       4.181  -6.141  -5.068  0.00  0.00    -0.275 OA
ATOM     32  N   LIG d   1       6.265  -6.740  -5.540  0.00  0.00    -0.297 N 
BRANCH  32  33
ATOM     33  C   LIG d   1       7.596  -6.346  -6.011  0.00  0.00     0.038 C 
ATOM     34  H   LIG d   1       8.014  -7.145  -6.640  0.00  0.00     0.049 H 
ATOM     35  H   LIG d   1       7.517  -5.419  -6.597  0.00  0.00     0.049 H 
BRANCH  33  36
ATOM     36  C   LIG d   1       8.512  -6.112  -4.808  0.00  0.00     0.063 C 
ATOM     37  H   LIG d   1       7.969  -6.349  -3.881  0.00  0.00     0.058 H 
ATOM     38  H   LIG d   1       9.397  -6.758  -4.889  0.00  0.00     0.058 H 
BRANCH  36  39
ATOM     39  O   LIG d   1       8.922  -4.743  -4.780  0.00  0.00    -0.381 OA
BRANCH  39  40
ATOM     40  C   LIG d   1       9.098  -4.215  -3.465  0.00  0.00     0.036 C 
ATOM     41  H   LIG d   1      10.171  -4.083  -3.262  0.00  0.00     0.052 H 
ATOM     42  H   LIG d   1       8.668  -4.911  -2.729  0.00  0.00     0.052 H 
ATOM     43  H   LIG d   1       8.588  -3.243  -3.389  0.00  0.00     0.052 H 
ENDBRANCH  39  40
ENDBRANCH  36  39
ENDBRANCH  33  36
ENDBRANCH  32  33
BRANCH  32  44
ATOM     44  C   LIG d   1       6.030  -8.107  -5.068  0.00  0.00     0.038 C 
ATOM     45  H   LIG d   1       6.983  -8.553  -4.749  0.00  0.00     0.049 H 
ATOM     46  H   LIG d   1       5.331  -8.085  -4.218  0.00  0.00     0.049 H 
BRANCH  44  47
ATOM     47  C   LIG d   1       5.430  -8.941  -6.201  0.00  0.00     0.063 C 
ATOM     48  H   LIG d   1       5.164  -8.282  -7.041  0.00  0.00     0.058 H 
ATOM     49  H   LIG d   1       6.166  -9.686  -6.539  0.00  0.00     0.058 H 
BRANCH  47  50
ATOM     50  O   LIG d   1       4.258  -9.609  -5.731  0.00  0.00    -0.381 OA
BRANCH  50  51
ATOM     51  C   LIG d   1       4.254  -9.859  -4.324  0.00  0.00     0.036 C 
ATOM     52  H   LIG d   1       3.216  -9.931  -3.967  0.00  0.00     0.052 H 
ATOM     53  H   LIG d   1       4.765  -9.035  -3.804  0.00  0.00     0.052 H 
ATOM     54  H   LIG d   1       4.779 -10.803  -4.118  0.00  0.00     0.052 H 
ENDBRANCH  50  51
ENDBRANCH  47  50
ENDBRANCH  44  47
ENDBRANCH  32  44
ENDBRANCH  24  30
ENDBRANCH  12  24
BRANCH  10  55
ATOM     55  O   LIG d   1       7.594  -2.540  -6.262  0.00  0.00    -0.391 OA
ATOM     56  H   LIG d   1       7.897  -1.999  -7.170  0.00  0.00     0.210 HD
ENDBRANCH  10  55
BRANCH   1  57
ATOM     57  C   LIG d   1       8.583  -0.295  -5.780  0.00  0.00    -0.060 C 
ATOM     58  H   LIG d   1       9.431  -0.012  -5.140  0.00  0.00     0.023 H 
ATOM     59  H   LIG d   1       8.646   0.248  -6.735  0.00  0.00     0.023 H 
ATOM     60  H   LIG d   1       8.613  -1.378  -5.971  0.00  0.00     0.023 H 
ENDBRANCH   1  57
BRANCH   7  61
ATOM     61  C   LIG d   1       4.369  -0.225  -4.796  0.00  0.00    -0.059 C 
ATOM     62  H   LIG d   1       4.138   0.808  -4.496  0.00  0.00     0.024 H 
ATOM     63  H   LIG d   1       3.441  -0.815  -4.825  0.00  0.00     0.024 H 
ATOM     64  H   LIG d   1       4.834  -0.222  -5.793  0.00  0.00     0.024 H 
ENDBRANCH   7  61
BRANCH   3  65
ATOM     65  N   LIG d   1       8.147   2.278  -4.525  0.00  0.00    -0.312 N 
ATOM     66  C   LIG d   1       9.325   2.733  -4.054  0.00  0.00     0.216 C 
ATOM     67  O   LIG d   1       9.891   2.139  -3.161  0.00  0.00    -0.276 OA
ATOM     68  H   LIG d   1       7.633   2.817  -5.334  0.00  0.00     0.149 HD
BRANCH  66  69
ATOM     69  C   LIG d   1       9.939   3.979  -4.638  0.00  0.00     0.036 C 
ATOM     70  C   LIG d   1       9.571   4.084  -6.119  0.00  0.00    -0.042 C 
ATOM     71  C   LIG d   1      10.195   5.349  -6.712  0.00  0.00    -0.052 C 
ATOM     72  H   LIG d   1       9.949   3.202  -6.656  0.00  0.00     0.027 H 
ATOM     73  H   LIG d   1       8.476   4.133  -6.221  0.00  0.00     0.027 H 
ATOM     74  C   LIG d   1       9.667   6.576  -5.966  0.00  0.00    -0.053 C 
ATOM     75  H   LIG d   1       9.929   5.425  -7.777  0.00  0.00     0.026 H 
ATOM     76  H   LIG d   1      11.289   5.300  -6.610  0.00  0.00     0.026 H 
ATOM     77  C   LIG d   1      10.037   6.471  -4.484  0.00  0.00    -0.052 C 
ATOM     78  H   LIG d   1       8.574   6.625  -6.067  0.00  0.00     0.026 H 
ATOM     79  H   LIG d   1      10.117   7.486  -6.392  0.00  0.00     0.026 H 
ATOM     80  C   LIG d   1       9.412   5.206  -3.892  0.00  0.00    -0.042 C 
ATOM     81  H   LIG d   1       9.658   7.354  -3.948  0.00  0.00     0.026 H 
ATOM     82  H   LIG d   1      11.132   6.422  -4.382  0.00  0.00     0.026 H 
ATOM     83  H   LIG d   1       8.319   5.254  -3.994  0.00  0.00     0.027 H 
ATOM     84  H   LIG d   1       9.678   5.129  -2.827  0.00  0.00     0.027 H 
ATOM     85  H   LIG d   1      11.033   3.915  -4.528  0.00  0.00     0.039 H 
ENDBRANCH  66  69
ENDBRANCH   3  65
TORSDOF 16
ENDMDL
MODEL 2
REMARK VINA RESULT:      -5.4      4.000     10.871
REMARK  16 active torsions:
REMARK  status: ('A' for Active; 'I' for Inactive)
REMARK    1  A    between atoms: C_1  and  C_2 
REMARK    2  A    between atoms: C_4  and  N_33 
REMARK    3  A    between atoms: C_8  and  C_32 
REMARK    4  A    between atoms: C_11  and  O_31 
REMARK    5  A    between atoms: C_13  and  C_17 
REMARK    6  A    between atoms: C_17  and  C_19 
REMARK    7  A    between atoms: C_17  and  C_20 
REMARK       I    between atoms: C_20  and  N_22 
REMARK    8  A    between atoms: N_22  and  C_23 
REMARK    9  A    between atoms: N_22  and  C_27 
REMARK   10  A    between atoms: C_23  and  C_24 
REMARK   11  A    between atoms: C_24  and  O_25 
REMARK   12  A    between atoms: O_25  and  C_26 
REMARK   13  A    between atoms: C_27  and  C_28 
REMARK   14  A    between atoms: C_28  and  O_29 
REMARK   15  A    between atoms: O_29  and  C_30 
REMARK       I    between atoms: N_33  and  C_34 
REMARK   16  A    between atoms: C_34  and  C_36 
ROOT
ATOM      1  C   LIG d   1       8.381   2.203  -5.266  0.00  0.00    -0.020 C 
ATOM      2  H   LIG d   1       7.654   2.853  -5.778  0.00  0.00     0.032 H 
ATOM      3  C   LIG d   1       8.201   0.762  -5.745  0.00  0.00     0.026 C 
ATOM      4  H   LIG d   1       8.892   0.089  -5.218  0.00  0.00     0.050 H 
ATOM      5  C   LIG d   1       8.433   0.695  -7.256  0.00  0.00    -0.034 C 
ATOM      6  C   LIG d   1       9.853   1.165  -7.576  0.00  0.00    -0.046 C 
ATOM      7  C   LIG d   1      10.032   2.607  -7.097  0.00  0.00    -0.026 C 
ATOM      8  C   LIG d   1       9.800   2.674  -5.586  0.00  0.00    -0.005 C 
ATOM      9  H   LIG d   1      10.526   2.025  -5.074  0.00  0.00     0.033 H 
ATOM     10  C   LIG d   1       9.979   4.116  -5.106  0.00  0.00     0.062 C 
ATOM     11  H   LIG d   1       9.228   4.782  -5.555  0.00  0.00     0.060 H 
ATOM     12  C   LIG d   1      11.399   4.588  -5.425  0.00  0.00    -0.004 C 
ATOM     13  H   LIG d   1      12.125   3.938  -4.915  0.00  0.00     0.033 H 
ATOM     14  C   LIG d   1      11.631   4.520  -6.936  0.00  0.00    -0.047 C 
ATOM     15  C   LIG d   1      11.451   3.079  -7.416  0.00  0.00    -0.047 C 
ATOM     16  H   LIG d   1       8.304  -0.342  -7.601  0.00  0.00     0.028 H 
ATOM     17  H   LIG d   1       7.707   1.344  -7.768  0.00  0.00     0.028 H 
ATOM     18  H   LIG d   1      10.578   0.516  -7.065  0.00  0.00     0.027 H 
ATOM     19  H   LIG d   1      10.019   1.117  -8.663  0.00  0.00     0.027 H 
ATOM     20  H   LIG d   1      10.905   5.170  -7.448  0.00  0.00     0.027 H 
ATOM     21  H   LIG d   1      12.652   4.859  -7.166  0.00  0.00     0.027 H 
ATOM     22  H   LIG d   1      12.178   2.429  -6.905  0.00  0.00     0.027 H 
ATOM     23  H   LIG d   1      11.619   3.031  -8.503  0.00  0.00     0.027 H 
ENDROOT
BRANCH  12  24
ATOM     24  C   LIG d   1      11.579   6.029  -4.946  0.00  0.00     0.038 C 
ATOM     25  H   LIG d   1      10.598   6.474  -4.724  0.00  0.00     0.040 H 
BRANCH  24  26
ATOM     26  C   LIG d   1      12.286   6.844  -6.032  0.00  0.00    -0.054 C 
ATOM     27  H   LIG d   1      11.761   6.711  -6.989  0.00  0.00     0.024 H 
ATOM     28  H   LIG d   1      13.325   6.495  -6.133  0.00  0.00     0.024 H 
ATOM     29  H   LIG d   1      12.283   7.907  -5.753  0.00  0.00     0.024 H 
ENDBRANCH  24  26
BRANCH  24  30
ATOM     30  C   LIG d   1      12.411   6.041  -3.689  0.00  0.00     0.219 C 
ATOM     31  O   LIG d   1      13.415   5.366  -3.621  0.00  0.00    -0.275 OA
ATOM     32  N   LIG d   1      12.038   6.803  -2.642  0.00  0.00    -0.297 N 
BRANCH  32  33
ATOM     33  C   LIG d   1      10.766   7.531  -2.681  0.00  0.00     0.038 C 
ATOM     34  H   LIG d   1      10.896   8.520  -2.219  0.00  0.00     0.049 H 
ATOM     35  H   LIG d   1      10.446   7.652  -3.726  0.00  0.00     0.049 H 
BRANCH  33  36
ATOM     36  C   LIG d   1       9.705   6.743  -1.911  0.00  0.00     0.063 C 
ATOM     37  H   LIG d   1       8.944   6.370  -2.613  0.00  0.00     0.058 H 
ATOM     38  H   LIG d   1      10.178   5.894  -1.398  0.00  0.00     0.058 H 
BRANCH  36  39
ATOM     39  O   LIG d   1       9.084   7.597  -0.947  0.00  0.00    -0.381 OA
BRANCH  39  40
ATOM     40  C   LIG d   1       9.779   8.825  -0.725  0.00  0.00     0.036 C 
ATOM     41  H   LIG d   1       9.977   9.315  -1.690  0.00  0.00     0.052 H 
ATOM     42  H   LIG d   1      10.732   8.621  -0.214  0.00  0.00     0.052 H 
ATOM     43  H   LIG d   1       9.163   9.487  -0.098  0.00  0.00     0.052 H 
ENDBRANCH  39  40
ENDBRANCH  36  39
ENDBRANCH  33  36
ENDBRANCH  32  33
BRANCH  32  44
ATOM     44  C   LIG d   1      12.903   6.904  -1.464  0.00  0.00     0.038 C 
ATOM     45  H   LIG d   1      13.952   6.768  -1.767  0.00  0.00     0.049 H 
ATOM     46  H   LIG d   1      12.780   7.896  -1.004  0.00  0.00     0.049 H 
BRANCH  44  47
ATOM     47  C   LIG d   1      12.518   5.821  -0.455  0.00  0.00     0.063 C 
ATOM     48  H   LIG d   1      11.663   5.247  -0.842  0.00  0.00     0.058 H 
ATOM     49  H   LIG d   1      13.372   5.146  -0.296  0.00  0.00     0.058 H 
BRANCH  47  50
ATOM     50  O   LIG d   1      12.158   6.433   0.786  0.00  0.00    -0.381 OA
BRANCH  50  51
ATOM     51  C   LIG d   1      11.053   5.809   1.443  0.00  0.00     0.036 C 
ATOM     52  H   LIG d   1      10.397   6.581   1.872  0.00  0.00     0.052 H 
ATOM     53  H   LIG d   1      11.425   5.155   2.245  0.00  0.00     0.052 H 
ATOM     54  H   LIG d   1      10.486   5.209   0.716  0.00  0.00     0.052 H 
ENDBRANCH  50  51
ENDBRANCH  47  50
ENDBRANCH  44  47
ENDBRANCH  32  44
ENDBRANCH  24  30
ENDBRANCH  12  24
BRANCH  10  55
ATOM     55  O   LIG d   1       9.763   4.179  -3.695  0.00  0.00    -0.391 OA
ATOM     56  H   LIG d   1      10.512   4.654  -3.045  0.00  0.00     0.210 HD
ENDBRANCH  10  55
BRANCH   1  57
ATOM     57  C   LIG d   1       8.148   2.271  -3.755  0.00  0.00    -0.060 C 
ATOM     58  H   LIG d   1       7.131   2.637  -3.556  0.00  0.00     0.023 H 
ATOM     59  H   LIG d   1       8.881   2.955  -3.302  0.00  0.00     0.023 H 
ATOM     60  H   LIG d   1       8.268   1.267  -3.321  0.00  0.00     0.023 H 
ENDBRANCH   1  57
BRANCH   7  61
ATOM     61  C   LIG d   1       9.023   3.510  -7.808  0.00  0.00    -0.059 C 
ATOM     62  H   LIG d   1       8.602   4.228  -7.088  0.00  0.00     0.024 H 
ATOM     63  H   LIG d   1       8.213   2.896  -8.229  0.00  0.00     0.024 H 
ATOM     64  H   LIG d   1       9.527   4.058  -8.618  0.00  0.00     0.024 H 
ENDBRANCH   7  61
BRANCH   3  65
ATOM     65  N   LIG d   1       6.841   0.311  -5.439  0.00  0.00    -0.312 N 
ATOM     66  C   LIG d   1       6.648  -0.717  -4.589  0.00  0.00     0.216 C 
ATOM     67  O   LIG d   1       7.599  -1.269  -4.078  0.00  0.00    -0.276 OA
ATOM     68  H   LIG d   1       5.979   0.810  -5.903  0.00  0.00     0.149 HD
BRANCH  66  69
ATOM     69  C   LIG d   1       5.249  -1.181  -4.274  0.00  0.00     0.036 C 
ATOM     70  C   LIG d   1       5.185  -1.657  -2.821  0.00  0.00    -0.042 C 
ATOM     71  C   LIG d   1       3.765  -2.127  -2.500  0.00  0.00    -0.052 C 
ATOM     72  H   LIG d   1       5.889  -2.488  -2.675  0.00  0.00     0.027 H 
ATOM     73  H   LIG d   1       5.455  -0.826  -2.152  0.00  0.00     0.027 H 
ATOM     74  C   LIG d   1       2.786  -0.970  -2.702  0.00  0.00    -0.053 C 
ATOM     75  H   LIG d   1       3.719  -2.469  -1.455  0.00  0.00     0.026 H 
ATOM     76  H   LIG d   1       3.494  -2.958  -3.169  0.00  0.00     0.026 H 
ATOM     77  C   LIG d   1       2.849  -0.495  -4.156  0.00  0.00    -0.052 C 
ATOM     78  H   LIG d   1       3.056  -0.140  -2.034  0.00  0.00     0.026 H 
ATOM     79  H   LIG d   1       1.764  -1.309  -2.472  0.00  0.00     0.026 H 
ATOM     80  C   LIG d   1       4.269  -0.024  -4.476  0.00  0.00    -0.042 C 
ATOM     81  H   LIG d   1       2.145   0.337  -4.301  0.00  0.00     0.026 H 
ATOM     82  H   LIG d   1       2.579  -1.326  -4.825  0.00  0.00     0.026 H 
ATOM     83  H   LIG d   1       4.540   0.806  -3.807  0.00  0.00     0.027 H 
ATOM     84  H   LIG d   1       4.316   0.317  -5.521  0.00  0.00     0.027 H 
ATOM     85  H   LIG d   1       4.993  -2.011  -4.950  0.00  0.00     0.039 H 
ENDBRANCH  66  69
ENDBRANCH   3  65
TORSDOF 16
ENDMDL
MODEL 3
REMARK VINA RESULT:      -5.2      8.278     12.210
REMARK  16 active torsions:
REMARK  status: ('A' for Active; 'I' for Inactive)
REMARK    1  A    between atoms: C_1  and  C_2 
REMARK    2  A    between atoms: C_4  and  N_33 
REMARK    3  A    between atoms: C_8  and  C_32 
REMARK    4  A    between atoms: C_11  and  O_31 
REMARK    5  A    between atoms: C_13  and  C_17 
REMARK    6  A    between atoms: C_17  and  C_19 
REMARK    7  A    between atoms: C_17  and  C_20 
REMARK       I    between atoms: C_20  and  N_22 
REMARK    8  A    between atoms: N_22  and  C_23 
REMARK    9  A    between atoms: N_22  and  C_27 
REMARK   10  A    between atoms: C_23  and  C_24 
REMARK   11  A    between atoms: C_24  and  O_25 
REMARK   12  A    between atoms: O_25  and  C_26 
REMARK   13  A    between atoms: C_27  and  C_28 
REMARK   14  A    between atoms: C_28  and  O_29 
REMARK   15  A    between atoms: O_29  and  C_30 
REMARK       I    between atoms: N_33  and  C_34 
REMARK   16  A    between atoms: C_34  and  C_36 
ROOT
ATOM      1  C   LIG d   1      10.331   6.190  -6.476  0.00  0.00    -0.020 C 
ATOM      2  H   LIG d   1      11.418   6.024  -6.520  0.00  0.00     0.032 H 
ATOM      3  C   LIG d   1       9.655   5.439  -7.626  0.00  0.00     0.026 C 
ATOM      4  H   LIG d   1       8.571   5.621  -7.624  0.00  0.00     0.050 H 
ATOM      5  C   LIG d   1       9.949   3.942  -7.499  0.00  0.00    -0.034 C 
ATOM      6  C   LIG d   1       9.408   3.427  -6.165  0.00  0.00    -0.046 C 
ATOM      7  C   LIG d   1      10.084   4.178  -5.016  0.00  0.00    -0.026 C 
ATOM      8  C   LIG d   1       9.789   5.674  -5.142  0.00  0.00    -0.005 C 
ATOM      9  H   LIG d   1       8.703   5.839  -5.099  0.00  0.00     0.033 H 
ATOM     10  C   LIG d   1      10.465   6.425  -3.993  0.00  0.00     0.062 C 
ATOM     11  H   LIG d   1      11.560   6.330  -4.043  0.00  0.00     0.060 H 
ATOM     12  C   LIG d   1       9.923   5.910  -2.658  0.00  0.00    -0.004 C 
ATOM     13  H   LIG d   1       8.836   6.074  -2.615  0.00  0.00     0.033 H 
ATOM     14  C   LIG d   1      10.217   4.414  -2.532  0.00  0.00    -0.047 C 
ATOM     15  C   LIG d   1       9.542   3.663  -3.681  0.00  0.00    -0.047 C 
ATOM     16  H   LIG d   1       9.464   3.402  -8.325  0.00  0.00     0.028 H 
ATOM     17  H   LIG d   1      11.036   3.778  -7.543  0.00  0.00     0.028 H 
ATOM     18  H   LIG d   1       8.322   3.591  -6.122  0.00  0.00     0.027 H 
ATOM     19  H   LIG d   1       9.620   2.351  -6.074  0.00  0.00     0.027 H 
ATOM     20  H   LIG d   1      11.305   4.249  -2.575  0.00  0.00     0.027 H 
ATOM     21  H   LIG d   1       9.828   4.043  -1.573  0.00  0.00     0.027 H 
ATOM     22  H   LIG d   1       8.455   3.827  -3.638  0.00  0.00     0.027 H 
ATOM     23  H   LIG d   1       9.753   2.587  -3.590  0.00  0.00     0.027 H 
ENDROOT
BRANCH  12  24
ATOM     24  C   LIG d   1      10.599   6.661  -1.509  0.00  0.00     0.038 C 
ATOM     25  H   LIG d   1      11.603   6.988  -1.816  0.00  0.00     0.040 H 
BRANCH  24  26
ATOM     26  C   LIG d   1      10.700   5.742  -0.289  0.00  0.00    -0.054 C 
ATOM     27  H   LIG d   1      11.184   6.282   0.537  0.00  0.00     0.024 H 
ATOM     28  H   LIG d   1      11.299   4.855  -0.548  0.00  0.00     0.024 H 
ATOM     29  H   LIG d   1       9.692   5.426   0.016  0.00  0.00     0.024 H 
ENDBRANCH  24  26
BRANCH  24  30
ATOM     30  C   LIG d   1       9.781   7.877  -1.154  0.00  0.00     0.219 C 
ATOM     31  O   LIG d   1       8.581   7.780  -1.014  0.00  0.00    -0.275 OA
ATOM     32  N   LIG d   1      10.386   9.071  -0.992  0.00  0.00    -0.297 N 
BRANCH  32  33
ATOM     33  C   LIG d   1      11.818   9.211  -1.271  0.00  0.00     0.038 C 
ATOM     34  H   LIG d   1      12.221   8.246  -1.612  0.00  0.00     0.049 H 
ATOM     35  H   LIG d   1      11.966   9.968  -2.054  0.00  0.00     0.049 H 
BRANCH  33  36
ATOM     36  C   LIG d   1      12.545   9.646   0.003  0.00  0.00     0.063 C 
ATOM     37  H   LIG d   1      13.588   9.897  -0.238  0.00  0.00     0.058 H 
ATOM     38  H   LIG d   1      12.045  10.528   0.429  0.00  0.00     0.058 H 
BRANCH  36  39
ATOM     39  O   LIG d   1      12.520   8.579   0.953  0.00  0.00    -0.381 OA
BRANCH  39  40
ATOM     40  C   LIG d   1      11.855   8.903   2.176  0.00  0.00     0.036 C 
ATOM     41  H   LIG d   1      10.861   9.318   1.954  0.00  0.00     0.052 H 
ATOM     42  H   LIG d   1      12.448   9.647   2.730  0.00  0.00     0.052 H 
ATOM     43  H   LIG d   1      11.746   7.995   2.786  0.00  0.00     0.052 H 
ENDBRANCH  39  40
ENDBRANCH  36  39
ENDBRANCH  33  36
ENDBRANCH  32  33
BRANCH  32  44
ATOM     44  C   LIG d   1       9.612  10.228  -0.536  0.00  0.00     0.038 C 
ATOM     45  H   LIG d   1       8.570   9.924  -0.356  0.00  0.00     0.049 H 
ATOM     46  H   LIG d   1      10.048  10.616   0.396  0.00  0.00     0.049 H 
BRANCH  44  47
ATOM     47  C   LIG d   1       9.647  11.318  -1.608  0.00  0.00     0.063 C 
ATOM     48  H   LIG d   1       9.503  12.302  -1.136  0.00  0.00     0.058 H 
ATOM     49  H   LIG d   1      10.619  11.297  -2.123  0.00  0.00     0.058 H 
BRANCH  47  50
ATOM     50  O   LIG d   1       8.602  11.089  -2.556  0.00  0.00    -0.381 OA
BRANCH  50  51
ATOM     51  C   LIG d   1       8.931  11.477  -3.891  0.00  0.00     0.036 C 
ATOM     52  H   LIG d   1       8.619  12.519  -4.058  0.00  0.00     0.052 H 
ATOM     53  H   LIG d   1       8.411  10.819  -4.603  0.00  0.00     0.052 H 
ATOM     54  H   LIG d   1      10.017  11.391  -4.040  0.00  0.00     0.052 H 
ENDBRANCH  50  51
ENDBRANCH  47  50
ENDBRANCH  44  47
ENDBRANCH  32  44
ENDBRANCH  24  30
ENDBRANCH  12  24
BRANCH  10  55
ATOM     55  O   LIG d   1      10.190   7.823  -4.111  0.00  0.00    -0.391 OA
ATOM     56  H   LIG d   1      10.902   8.481  -4.631  0.00  0.00     0.210 HD
ENDBRANCH  10  55
BRANCH   1  57
ATOM     57  C   LIG d   1      10.037   7.686  -6.603  0.00  0.00    -0.060 C 
ATOM     58  H   LIG d   1       9.657   7.901  -7.612  0.00  0.00     0.023 H 
ATOM     59  H   LIG d   1      10.961   8.256  -6.429  0.00  0.00     0.023 H 
ATOM     60  H   LIG d   1       9.282   7.975  -5.857  0.00  0.00     0.023 H 
ENDBRANCH   1  57
BRANCH   7  61
ATOM     61  C   LIG d   1      11.595   3.949  -5.076  0.00  0.00    -0.059 C 
ATOM     62  H   LIG d   1      12.117   4.875  -4.795  0.00  0.00     0.024 H 
ATOM     63  H   LIG d   1      11.882   3.661  -6.098  0.00  0.00     0.024 H 
ATOM     64  H   LIG d   1      11.872   3.145  -4.377  0.00  0.00     0.024 H 
ENDBRANCH   7  61
BRANCH   3  65
ATOM     65  N   LIG d   1      10.174   5.932  -8.904  0.00  0.00    -0.312 N 
ATOM     66  C   LIG d   1       9.354   6.040  -9.968  0.00  0.00     0.216 C 
ATOM     67  O   LIG d   1       8.186   5.728  -9.867  0.00  0.00    -0.276 OA
ATOM     68  H   LIG d   1      11.233   6.214  -8.995  0.00  0.00     0.149 HD
BRANCH  66  69
ATOM     69  C   LIG d   1       9.887   6.548 -11.282  0.00  0.00     0.036 C 
ATOM     70  C   LIG d   1       8.845   6.318 -12.379  0.00  0.00    -0.042 C 
ATOM     71  C   LIG d   1       9.386   6.835 -13.713  0.00  0.00    -0.052 C 
ATOM     72  H   LIG d   1       8.629   5.243 -12.461  0.00  0.00     0.027 H 
ATOM     73  H   LIG d   1       7.921   6.859 -12.124  0.00  0.00     0.027 H 
ATOM     74  C   LIG d   1       9.685   8.330 -13.598  0.00  0.00    -0.053 C 
ATOM     75  H   LIG d   1       8.636   6.670 -14.502  0.00  0.00     0.026 H 
ATOM     76  H   LIG d   1      10.310   6.294 -13.968  0.00  0.00     0.026 H 
ATOM     77  C   LIG d   1      10.728   8.560 -12.502  0.00  0.00    -0.052 C 
ATOM     78  H   LIG d   1       8.762   8.871 -13.344  0.00  0.00     0.026 H 
ATOM     79  H   LIG d   1      10.075   8.701 -14.558  0.00  0.00     0.026 H 
ATOM     80  C   LIG d   1      10.186   8.044 -11.168  0.00  0.00    -0.042 C 
ATOM     81  H   LIG d   1      10.944   9.635 -12.420  0.00  0.00     0.026 H 
ATOM     82  H   LIG d   1      11.652   8.019 -12.757  0.00  0.00     0.026 H 
ATOM     83  H   LIG d   1       9.263   8.583 -10.913  0.00  0.00     0.027 H 
ATOM     84  H   LIG d   1      10.936   8.208 -10.379  0.00  0.00     0.027 H 
ATOM     85  H   LIG d   1      10.810   5.999 -11.523  0.00  0.00     0.039 H 
ENDBRANCH  66  69
ENDBRANCH   3  65
TORSDOF 16
ENDMDL
MODEL 4
REMARK VINA RESULT:      -5.2      7.908     12.293
REMARK  16 active torsions:
REMARK  status: ('A' for Active; 'I' for Inactive)
REMARK    1  A    between atoms: C_1  and  C_2 
REMARK    2  A    between atoms: C_4  and  N_33 
REMARK    3  A    between atoms: C_8  and  C_32 
REMARK    4  A    between atoms: C_11  and  O_31 
REMARK    5  A    between atoms: C_13  and  C_17 
REMARK    6  A    between atoms: C_17  and  C_19 
REMARK    7  A    between atoms: C_17  and  C_20 
REMARK       I    between atoms: C_20  and  N_22 
REMARK    8  A    between atoms: N_22  and  C_23 
REMARK    9  A    between atoms: N_22  and  C_27 
REMARK   10  A    between atoms: C_23  and  C_24 
REMARK   11  A    between atoms: C_24  and  O_25 
REMARK   12  A    between atoms: O_25  and  C_26 
REMARK   13  A    between atoms: C_27  and  C_28 
REMARK   14  A    between atoms: C_28  and  O_29 
REMARK   15  A    between atoms: O_29  and  C_30 
REMARK       I    between atoms: N_33  and  C_34 
REMARK   16  A    between atoms: C_34  and  C_36 
ROOT
ATOM      1  C   LIG d   1      10.290   5.520  -6.844  0.00  0.00    -0.020 C 
ATOM      2  H   LIG d   1      11.362   5.269  -6.851  0.00  0.00     0.032 H 
ATOM      3  C   LIG d   1       9.558   4.657  -7.874  0.00  0.00     0.026 C 
ATOM      4  H   LIG d   1       8.490   4.918  -7.909  0.00  0.00     0.050 H 
ATOM      5  C   LIG d   1       9.738   3.179  -7.521  0.00  0.00    -0.034 C 
ATOM      6  C   LIG d   1       9.161   2.912  -6.129  0.00  0.00    -0.046 C 
ATOM      7  C   LIG d   1       9.894   3.775  -5.100  0.00  0.00    -0.026 C 
ATOM      8  C   LIG d   1       9.713   5.253  -5.452  0.00  0.00    -0.005 C 
ATOM      9  H   LIG d   1       8.643   5.504  -5.445  0.00  0.00     0.033 H 
ATOM     10  C   LIG d   1      10.446   6.116  -4.423  0.00  0.00     0.062 C 
ATOM     11  H   LIG d   1      11.530   5.932  -4.447  0.00  0.00     0.060 H 
ATOM     12  C   LIG d   1       9.869   5.850  -3.031  0.00  0.00    -0.004 C 
ATOM     13  H   LIG d   1       8.798   6.100  -3.024  0.00  0.00     0.033 H 
ATOM     14  C   LIG d   1      10.050   4.372  -2.678  0.00  0.00    -0.047 C 
ATOM     15  C   LIG d   1       9.318   3.509  -3.708  0.00  0.00    -0.047 C 
ATOM     16  H   LIG d   1       9.212   2.559  -8.261  0.00  0.00     0.028 H 
ATOM     17  H   LIG d   1      10.809   2.929  -7.529  0.00  0.00     0.028 H 
ATOM     18  H   LIG d   1       8.091   3.163  -6.122  0.00  0.00     0.027 H 
ATOM     19  H   LIG d   1       9.292   1.849  -5.876  0.00  0.00     0.027 H 
ATOM     20  H   LIG d   1      11.121   4.121  -2.686  0.00  0.00     0.027 H 
ATOM     21  H   LIG d   1       9.636   4.180  -1.678  0.00  0.00     0.027 H 
ATOM     22  H   LIG d   1       8.246   3.759  -3.701  0.00  0.00     0.027 H 
ATOM     23  H   LIG d   1       9.447   2.446  -3.454  0.00  0.00     0.027 H 
ENDROOT
BRANCH  12  24
ATOM     24  C   LIG d   1      10.602   6.713  -2.001  0.00  0.00     0.038 C 
ATOM     25  H   LIG d   1      11.475   7.191  -2.468  0.00  0.00     0.040 H 
BRANCH  24  26
ATOM     26  C   LIG d   1      11.053   5.836  -0.831  0.00  0.00    -0.054 C 
ATOM     27  H   LIG d   1      11.361   4.851  -1.208  0.00  0.00     0.024 H 
ATOM     28  H   LIG d   1      10.220   5.713  -0.122  0.00  0.00     0.024 H 
ATOM     29  H   LIG d   1      11.900   6.316  -0.319  0.00  0.00     0.024 H 
ENDBRANCH  24  26
BRANCH  24  30
ATOM     30  C   LIG d   1       9.674   7.787  -1.495  0.00  0.00     0.219 C 
ATOM     31  O   LIG d   1       8.580   7.490  -1.064  0.00  0.00    -0.275 OA
ATOM     32  N   LIG d   1      10.061   9.078  -1.521  0.00  0.00    -0.297 N 
BRANCH  32  33
ATOM     33  C   LIG d   1      11.335   9.449  -2.144  0.00  0.00     0.038 C 
ATOM     34  H   LIG d   1      12.051   9.747  -1.364  0.00  0.00     0.049 H 
ATOM     35  H   LIG d   1      11.734   8.589  -2.700  0.00  0.00     0.049 H 
BRANCH  33  36
ATOM     36  C   LIG d   1      11.110  10.618  -3.105  0.00  0.00     0.063 C 
ATOM     37  H   LIG d   1      10.527  11.401  -2.599  0.00  0.00     0.058 H 
ATOM     38  H   LIG d   1      12.081  11.028  -3.418  0.00  0.00     0.058 H 
BRANCH  36  39
ATOM     39  O   LIG d   1      10.393  10.160  -4.253  0.00  0.00    -0.381 OA
BRANCH  39  40
ATOM     40  C   LIG d   1       9.242  10.943  -4.572  0.00  0.00     0.036 C 
ATOM     41  H   LIG d   1       8.859  11.421  -3.658  0.00  0.00     0.052 H 
ATOM     42  H   LIG d   1       8.464  10.295  -5.001  0.00  0.00     0.052 H 
ATOM     43  H   LIG d   1       9.516  11.718  -5.303  0.00  0.00     0.052 H 
ENDBRANCH  39  40
ENDBRANCH  36  39
ENDBRANCH  33  36
ENDBRANCH  32  33
BRANCH  32  44
ATOM     44  C   LIG d   1       9.209  10.110  -0.926  0.00  0.00     0.038 C 
ATOM     45  H   LIG d   1       9.098  10.946  -1.632  0.00  0.00     0.049 H 
ATOM     46  H   LIG d   1       8.219   9.684  -0.704  0.00  0.00     0.049 H 
BRANCH  44  47
ATOM     47  C   LIG d   1       9.849  10.617   0.368  0.00  0.00     0.063 C 
ATOM     48  H   LIG d   1       9.112  10.569   1.184  0.00  0.00     0.058 H 
ATOM     49  H   LIG d   1      10.716   9.988   0.619  0.00  0.00     0.058 H 
BRANCH  47  50
ATOM     50  O   LIG d   1      10.276  11.969   0.191  0.00  0.00    -0.381 OA
BRANCH  50  51
ATOM     51  C   LIG d   1      11.652  12.191   0.506  0.00  0.00     0.036 C 
ATOM     52  H   LIG d   1      12.264  12.038  -0.395  0.00  0.00     0.052 H 
ATOM     53  H   LIG d   1      11.968  11.485   1.288  0.00  0.00     0.052 H 
ATOM     54  H   LIG d   1      11.783  13.221   0.868  0.00  0.00     0.052 H 
ENDBRANCH  50  51
ENDBRANCH  47  50
ENDBRANCH  44  47
ENDBRANCH  32  44
ENDBRANCH  24  30
ENDBRANCH  12  24
BRANCH  10  55
ATOM     55  O   LIG d   1      10.277   7.496  -4.752  0.00  0.00    -0.391 OA
ATOM     56  H   LIG d   1      11.157   8.125  -4.954  0.00  0.00     0.210 HD
ENDBRANCH  10  55
BRANCH   1  57
ATOM     57  C   LIG d   1      10.110   6.998  -7.197  0.00  0.00    -0.060 C 
ATOM     58  H   LIG d   1       9.637   7.522  -6.353  0.00  0.00     0.023 H 
ATOM     59  H   LIG d   1       9.471   7.086  -8.088  0.00  0.00     0.023 H 
ATOM     60  H   LIG d   1      11.092   7.447  -7.404  0.00  0.00     0.023 H 
ENDBRANCH   1  57
BRANCH   7  61
ATOM     61  C   LIG d   1      11.383   3.427  -5.110  0.00  0.00    -0.059 C 
ATOM     62  H   LIG d   1      11.727   3.316  -6.149  0.00  0.00     0.024 H 
ATOM     63  H   LIG d   1      11.543   2.483  -4.568  0.00  0.00     0.024 H 
ATOM     64  H   LIG d   1      11.952   4.232  -4.620  0.00  0.00     0.024 H 
ENDBRANCH   7  61
BRANCH   3  65
ATOM     65  N   LIG d   1      10.110   4.912  -9.206  0.00  0.00    -0.312 N 
ATOM     66  C   LIG d   1       9.297   5.301 -10.209  0.00  0.00     0.216 C 
ATOM     67  O   LIG d   1       8.109   5.439 -10.009  0.00  0.00    -0.276 OA
ATOM     68  H   LIG d   1      11.187   4.786  -9.388  0.00  0.00     0.149 HD
BRANCH  66  69
ATOM     69  C   LIG d   1       9.865   5.564 -11.580  0.00  0.00     0.036 C 
ATOM     70  C   LIG d   1       8.880   6.411 -12.386  0.00  0.00    -0.042 C 
ATOM     71  C   LIG d   1       9.456   6.679 -13.778  0.00  0.00    -0.052 C 
ATOM     72  H   LIG d   1       7.925   5.874 -12.482  0.00  0.00     0.027 H 
ATOM     73  H   LIG d   1       8.711   7.368 -11.869  0.00  0.00     0.027 H 
ATOM     74  C   LIG d   1      10.783   7.428 -13.645  0.00  0.00    -0.053 C 
ATOM     75  H   LIG d   1       8.747   7.289 -14.358  0.00  0.00     0.026 H 
ATOM     76  H   LIG d   1       9.624   5.722 -14.295  0.00  0.00     0.026 H 
ATOM     77  C   LIG d   1      11.770   6.579 -12.839  0.00  0.00    -0.052 C 
ATOM     78  H   LIG d   1      10.616   8.383 -13.129  0.00  0.00     0.026 H 
ATOM     79  H   LIG d   1      11.198   7.619 -14.646  0.00  0.00     0.026 H 
ATOM     80  C   LIG d   1      11.193   6.312 -11.448  0.00  0.00    -0.042 C 
ATOM     81  H   LIG d   1      12.724   7.117 -12.744  0.00  0.00     0.026 H 
ATOM     82  H   LIG d   1      11.938   5.622 -13.356  0.00  0.00     0.026 H 
ATOM     83  H   LIG d   1      11.024   7.268 -10.931  0.00  0.00     0.027 H 
ATOM     84  H   LIG d   1      11.901   5.702 -10.868  0.00  0.00     0.027 H 
ATOM     85  H   LIG d   1      10.028   4.599 -12.084  0.00  0.00     0.039 H 
ENDBRANCH  66  69
ENDBRANCH   3  65
TORSDOF 16
ENDMDL
MODEL 5
REMARK VINA RESULT:      -5.2      4.493     11.819
REMARK  16 active torsions:
REMARK  status: ('A' for Active; 'I' for Inactive)
REMARK    1  A    between atoms: C_1  and  C_2 
REMARK    2  A    between atoms: C_4  and  N_33 
REMARK    3  A    between atoms: C_8  and  C_32 
REMARK    4  A    between atoms: C_11  and  O_31 
REMARK    5  A    between atoms: C_13  and  C_17 
REMARK    6  A    between atoms: C_17  and  C_19 
REMARK    7  A    between atoms: C_17  and  C_20 
REMARK       I    between atoms: C_20  and  N_22 
REMARK    8  A    between atoms: N_22  and  C_23 
REMARK    9  A    between atoms: N_22  and  C_27 
REMARK   10  A    between atoms: C_23  and  C_24 
REMARK   11  A    between atoms: C_24  and  O_25 
REMARK   12  A    between atoms: O_25  and  C_26 
REMARK   13  A    between atoms: C_27  and  C_28 
REMARK   14  A    between atoms: C_28  and  O_29 
REMARK   15  A    between atoms: O_29  and  C_30 
REMARK       I    between atoms: N_33  and  C_34 
REMARK   16  A    between atoms: C_34  and  C_36 
ROOT
ATOM      1  C   LIG d   1       9.123   3.014  -5.205  0.00  0.00    -0.020 C 
ATOM      2  H   LIG d   1       8.101   2.940  -5.607  0.00  0.00     0.032 H 
ATOM      3  C   LIG d   1       9.625   1.619  -4.827  0.00  0.00     0.026 C 
ATOM      4  H   LIG d   1      10.632   1.674  -4.388  0.00  0.00     0.050 H 
ATOM      5  C   LIG d   1       9.629   0.725  -6.070  0.00  0.00    -0.034 C 
ATOM      6  C   LIG d   1      10.551   1.329  -7.130  0.00  0.00    -0.046 C 
ATOM      7  C   LIG d   1      10.049   2.724  -7.507  0.00  0.00    -0.026 C 
ATOM      8  C   LIG d   1      10.046   3.618  -6.265  0.00  0.00    -0.005 C 
ATOM      9  H   LIG d   1      11.067   3.692  -5.864  0.00  0.00     0.033 H 
ATOM     10  C   LIG d   1       9.543   5.013  -6.642  0.00  0.00     0.062 C 
ATOM     11  H   LIG d   1       8.501   4.981  -6.992  0.00  0.00     0.060 H 
ATOM     12  C   LIG d   1      10.465   5.618  -7.702  0.00  0.00    -0.004 C 
ATOM     13  H   LIG d   1      11.487   5.692  -7.301  0.00  0.00     0.033 H 
ATOM     14  C   LIG d   1      10.469   4.725  -8.945  0.00  0.00    -0.047 C 
ATOM     15  C   LIG d   1      10.971   3.330  -8.567  0.00  0.00    -0.047 C 
ATOM     16  H   LIG d   1       9.990  -0.278  -5.799  0.00  0.00     0.028 H 
ATOM     17  H   LIG d   1       8.607   0.651  -6.471  0.00  0.00     0.028 H 
ATOM     18  H   LIG d   1      11.572   1.403  -6.729  0.00  0.00     0.027 H 
ATOM     19  H   LIG d   1      10.553   0.687  -8.024  0.00  0.00     0.027 H 
ATOM     20  H   LIG d   1       9.447   4.651  -9.347  0.00  0.00     0.027 H 
ATOM     21  H   LIG d   1      11.132   5.159  -9.707  0.00  0.00     0.027 H 
ATOM     22  H   LIG d   1      11.993   3.403  -8.167  0.00  0.00     0.027 H 
ATOM     23  H   LIG d   1      10.974   2.687  -9.461  0.00  0.00     0.027 H 
ENDROOT
BRANCH  12  24
ATOM     24  C   LIG d   1       9.964   7.014  -8.080  0.00  0.00     0.038 C 
ATOM     25  H   LIG d   1       9.114   7.291  -7.439  0.00  0.00     0.040 H 
BRANCH  24  26
ATOM     26  C   LIG d   1       9.533   7.021  -9.548  0.00  0.00    -0.054 C 
ATOM     27  H   LIG d   1      10.384   7.315 -10.179  0.00  0.00     0.024 H 
ATOM     28  H   LIG d   1       8.710   7.739  -9.686  0.00  0.00     0.024 H 
ATOM     29  H   LIG d   1       9.192   6.015  -9.835  0.00  0.00     0.024 H 
ENDBRANCH  24  26
BRANCH  24  30
ATOM     30  C   LIG d   1      11.070   8.017  -7.877  0.00  0.00     0.219 C 
ATOM     31  O   LIG d   1      12.168   7.812  -8.346  0.00  0.00    -0.275 OA
ATOM     32  N   LIG d   1      10.836   9.144  -7.174  0.00  0.00    -0.297 N 
BRANCH  32  33
ATOM     33  C   LIG d   1       9.543   9.340  -6.513  0.00  0.00     0.038 C 
ATOM     34  H   LIG d   1       9.041  10.219  -6.943  0.00  0.00     0.049 H 
ATOM     35  H   LIG d   1       8.916   8.449  -6.662  0.00  0.00     0.049 H 
BRANCH  33  36
ATOM     36  C   LIG d   1       9.766   9.561  -5.015  0.00  0.00     0.063 C 
ATOM     37  H   LIG d   1      10.548  10.320  -4.869  0.00  0.00     0.058 H 
ATOM     38  H   LIG d   1       8.830   9.906  -4.552  0.00  0.00     0.058 H 
BRANCH  36  39
ATOM     39  O   LIG d   1      10.175   8.334  -4.408  0.00  0.00    -0.381 OA
BRANCH  39  40
ATOM     40  C   LIG d   1      10.293   8.400  -2.986  0.00  0.00     0.036 C 
ATOM     41  H   LIG d   1      11.273   8.005  -2.680  0.00  0.00     0.052 H 
ATOM     42  H   LIG d   1       9.495   7.800  -2.522  0.00  0.00     0.052 H 
ATOM     43  H   LIG d   1      10.200   9.446  -2.658  0.00  0.00     0.052 H 
ENDBRANCH  39  40
ENDBRANCH  36  39
ENDBRANCH  33  36
ENDBRANCH  32  33
BRANCH  32  44
ATOM     44  C   LIG d   1      11.874  10.172  -7.072  0.00  0.00     0.038 C 
ATOM     45  H   LIG d   1      12.124  10.337  -6.014  0.00  0.00     0.049 H 
ATOM     46  H   LIG d   1      12.773   9.839  -7.613  0.00  0.00     0.049 H 
BRANCH  44  47
ATOM     47  C   LIG d   1      11.362  11.476  -7.686  0.00  0.00     0.063 C 
ATOM     48  H   LIG d   1      10.460  11.805  -7.147  0.00  0.00     0.058 H 
ATOM     49  H   LIG d   1      12.139  12.250  -7.605  0.00  0.00     0.058 H 
BRANCH  47  50
ATOM     50  O   LIG d   1      11.043  11.262  -9.062  0.00  0.00    -0.381 OA
BRANCH  50  51
ATOM     51  C   LIG d   1      12.185  11.165  -9.916  0.00  0.00     0.036 C 
ATOM     52  H   LIG d   1      13.036  11.683  -9.451  0.00  0.00     0.052 H 
ATOM     53  H   LIG d   1      11.958  11.629 -10.886  0.00  0.00     0.052 H 
ATOM     54  H   LIG d   1      12.439  10.105 -10.068  0.00  0.00     0.052 H 
ENDBRANCH  50  51
ENDBRANCH  47  50
ENDBRANCH  44  47
ENDBRANCH  32  44
ENDBRANCH  24  30
ENDBRANCH  12  24
BRANCH  10  55
ATOM     55  O   LIG d   1       9.540   5.848  -5.482  0.00  0.00    -0.391 OA
ATOM     56  H   LIG d   1       8.863   5.623  -4.645  0.00  0.00     0.210 HD
ENDBRANCH  10  55
BRANCH   1  57
ATOM     57  C   LIG d   1       9.120   3.907  -3.962  0.00  0.00    -0.060 C 
ATOM     58  H   LIG d   1       8.665   3.364  -3.121  0.00  0.00     0.023 H 
ATOM     59  H   LIG d   1       8.538   4.818  -4.169  0.00  0.00     0.023 H 
ATOM     60  H   LIG d   1      10.153   4.182  -3.706  0.00  0.00     0.023 H 
ENDBRANCH   1  57
BRANCH   7  61
ATOM     61  C   LIG d   1       8.628   2.622  -8.065  0.00  0.00    -0.059 C 
ATOM     62  H   LIG d   1       8.222   1.622  -7.852  0.00  0.00     0.024 H 
ATOM     63  H   LIG d   1       8.649   2.785  -9.153  0.00  0.00     0.024 H 
ATOM     64  H   LIG d   1       7.992   3.385  -7.593  0.00  0.00     0.024 H 
ENDBRANCH   7  61
BRANCH   3  65
ATOM     65  N   LIG d   1       8.742   1.040  -3.812  0.00  0.00    -0.312 N 
ATOM     66  C   LIG d   1       7.451   0.788  -4.106  0.00  0.00     0.216 C 
ATOM     67  O   LIG d   1       7.020   1.040  -5.212  0.00  0.00    -0.276 OA
ATOM     68  H   LIG d   1       9.132   0.812  -2.810  0.00  0.00     0.149 HD
BRANCH  66  69
ATOM     69  C   LIG d   1       6.543   0.192  -3.062  0.00  0.00     0.036 C 
ATOM     70  C   LIG d   1       5.461   1.207  -2.687  0.00  0.00    -0.042 C 
ATOM     71  C   LIG d   1       4.539   0.601  -1.627  0.00  0.00    -0.052 C 
ATOM     72  H   LIG d   1       5.933   2.116  -2.287  0.00  0.00     0.027 H 
ATOM     73  H   LIG d   1       4.873   1.462  -3.582  0.00  0.00     0.027 H 
ATOM     74  C   LIG d   1       3.882  -0.663  -2.184  0.00  0.00    -0.053 C 
ATOM     75  H   LIG d   1       3.761   1.331  -1.358  0.00  0.00     0.026 H 
ATOM     76  H   LIG d   1       5.127   0.346  -0.732  0.00  0.00     0.026 H 
ATOM     77  C   LIG d   1       4.964  -1.678  -2.558  0.00  0.00    -0.052 C 
ATOM     78  H   LIG d   1       3.295  -0.408  -3.077  0.00  0.00     0.026 H 
ATOM     79  H   LIG d   1       3.219  -1.098  -1.421  0.00  0.00     0.026 H 
ATOM     80  C   LIG d   1       5.886  -1.073  -3.618  0.00  0.00    -0.042 C 
ATOM     81  H   LIG d   1       4.492  -2.588  -2.958  0.00  0.00     0.026 H 
ATOM     82  H   LIG d   1       5.552  -1.934  -1.663  0.00  0.00     0.026 H 
ATOM     83  H   LIG d   1       5.299  -0.817  -4.512  0.00  0.00     0.027 H 
ATOM     84  H   LIG d   1       6.665  -1.802  -3.887  0.00  0.00     0.027 H 
ATOM     85  H   LIG d   1       7.144  -0.058  -2.175  0.00  0.00     0.039 H 
ENDBRANCH  66  69
ENDBRANCH   3  65
TORSDOF 16
ENDMDL
MODEL 6
REMARK VINA RESULT:      -5.0      4.840     10.878
REMARK  16 active torsions:
REMARK  status: ('A' for Active; 'I' for Inactive)
REMARK    1  A    between atoms: C_1  and  C_2 
REMARK    2  A    between atoms: C_4  and  N_33 
REMARK    3  A    between atoms: C_8  and  C_32 
REMARK    4  A    between atoms: C_11  and  O_31 
REMARK    5  A    between atoms: C_13  and  C_17 
REMARK    6  A    between atoms: C_17  and  C_19 
REMARK    7  A    between atoms: C_17  and  C_20 
REMARK       I    between atoms: C_20  and  N_22 
REMARK    8  A    between atoms: N_22  and  C_23 
REMARK    9  A    between atoms: N_22  and  C_27 
REMARK   10  A    between atoms: C_23  and  C_24 
REMARK   11  A    between atoms: C_24  and  O_25 
REMARK   12  A    between atoms: O_25  and  C_26 
REMARK   13  A    between atoms: C_27  and  C_28 
REMARK   14  A    between atoms: C_28  and  O_29 
REMARK   15  A    between atoms: O_29  and  C_30 
REMARK       I    between atoms: N_33  and  C_34 
REMARK   16  A    between atoms: C_34  and  C_36 
ROOT
ATOM      1  C   LIG d   1       9.042   2.321  -5.820  0.00  0.00    -0.020 C 
ATOM      2  H   LIG d   1       9.890   1.623  -5.742  0.00  0.00     0.032 H 
ATOM      3  C   LIG d   1       8.333   2.413  -4.467  0.00  0.00     0.026 C 
ATOM      4  H   LIG d   1       7.459   3.078  -4.532  0.00  0.00     0.050 H 
ATOM      5  C   LIG d   1       9.316   2.920  -3.409  0.00  0.00    -0.034 C 
ATOM      6  C   LIG d   1       9.830   4.303  -3.811  0.00  0.00    -0.046 C 
ATOM      7  C   LIG d   1      10.540   4.210  -5.164  0.00  0.00    -0.026 C 
ATOM      8  C   LIG d   1       9.557   3.704  -6.222  0.00  0.00    -0.005 C 
ATOM      9  H   LIG d   1       8.710   4.402  -6.299  0.00  0.00     0.033 H 
ATOM     10  C   LIG d   1      10.266   3.611  -7.574  0.00  0.00     0.062 C 
ATOM     11  H   LIG d   1      11.083   2.874  -7.546  0.00  0.00     0.060 H 
ATOM     12  C   LIG d   1      10.780   4.994  -7.977  0.00  0.00    -0.004 C 
ATOM     13  H   LIG d   1       9.934   5.693  -8.053  0.00  0.00     0.033 H 
ATOM     14  C   LIG d   1      11.764   5.501  -6.919  0.00  0.00    -0.047 C 
ATOM     15  C   LIG d   1      11.054   5.593  -5.567  0.00  0.00    -0.047 C 
ATOM     16  H   LIG d   1       8.806   2.987  -2.437  0.00  0.00     0.028 H 
ATOM     17  H   LIG d   1      10.163   2.222  -3.332  0.00  0.00     0.028 H 
ATOM     18  H   LIG d   1       8.984   5.001  -3.889  0.00  0.00     0.027 H 
ATOM     19  H   LIG d   1      10.537   4.667  -3.051  0.00  0.00     0.027 H 
ATOM     20  H   LIG d   1      12.611   4.803  -6.841  0.00  0.00     0.027 H 
ATOM     21  H   LIG d   1      12.133   6.495  -7.208  0.00  0.00     0.027 H 
ATOM     22  H   LIG d   1      10.208   6.292  -5.643  0.00  0.00     0.027 H 
ATOM     23  H   LIG d   1      11.761   5.958  -4.806  0.00  0.00     0.027 H 
ENDROOT
BRANCH  12  24
ATOM     24  C   LIG d   1      11.490   4.902  -9.329  0.00  0.00     0.038 C 
ATOM     25  H   LIG d   1      11.307   3.916  -9.780  0.00  0.00     0.040 H 
BRANCH  24  26
ATOM     26  C   LIG d   1      12.993   5.112  -9.132  0.00  0.00    -0.054 C 
ATOM     27  H   LIG d   1      13.416   5.596 -10.024  0.00  0.00     0.024 H 
ATOM     28  H   LIG d   1      13.482   4.138  -8.977  0.00  0.00     0.024 H 
ATOM     29  H   LIG d   1      13.162   5.750  -8.252  0.00  0.00     0.024 H 
ENDBRANCH  24  26
BRANCH  24  30
ATOM     30  C   LIG d   1      10.952   5.964 -10.252  0.00  0.00     0.219 C 
ATOM     31  O   LIG d   1      10.809   7.099  -9.852  0.00  0.00    -0.275 OA
ATOM     32  N   LIG d   1      10.631   5.652 -11.524  0.00  0.00    -0.297 N 
BRANCH  32  33
ATOM     33  C   LIG d   1      10.698   4.259 -11.975  0.00  0.00     0.038 C 
ATOM     34  H   LIG d   1      10.826   3.598 -11.106  0.00  0.00     0.049 H 
ATOM     35  H   LIG d   1       9.767   3.999 -12.500  0.00  0.00     0.049 H 
BRANCH  33  36
ATOM     36  C   LIG d   1      11.884   4.088 -12.926  0.00  0.00     0.063 C 
ATOM     37  H   LIG d   1      12.486   5.009 -12.931  0.00  0.00     0.058 H 
ATOM     38  H   LIG d   1      12.506   3.246 -12.590  0.00  0.00     0.058 H 
BRANCH  36  39
ATOM     39  O   LIG d   1      11.403   3.828 -14.247  0.00  0.00    -0.381 OA
BRANCH  39  40
ATOM     40  C   LIG d   1      12.031   4.616 -15.260  0.00  0.00     0.036 C 
ATOM     41  H   LIG d   1      11.768   4.217 -16.251  0.00  0.00     0.052 H 
ATOM     42  H   LIG d   1      13.123   4.580 -15.128  0.00  0.00     0.052 H 
ATOM     43  H   LIG d   1      11.687   5.658 -15.180  0.00  0.00     0.052 H 
ENDBRANCH  39  40
ENDBRANCH  36  39
ENDBRANCH  33  36
ENDBRANCH  32  33
BRANCH  32  44
ATOM     44  C   LIG d   1      10.216   6.704 -12.455  0.00  0.00     0.038 C 
ATOM     45  H   LIG d   1      10.122   7.657 -11.913  0.00  0.00     0.049 H 
ATOM     46  H   LIG d   1      10.970   6.808 -13.250  0.00  0.00     0.049 H 
BRANCH  44  47
ATOM     47  C   LIG d   1       8.868   6.334 -13.074  0.00  0.00     0.063 C 
ATOM     48  H   LIG d   1       8.550   5.350 -12.699  0.00  0.00     0.058 H 
ATOM     49  H   LIG d   1       8.117   7.091 -12.801  0.00  0.00     0.058 H 
BRANCH  47  50
ATOM     50  O   LIG d   1       8.995   6.282 -14.497  0.00  0.00    -0.381 OA
BRANCH  50  51
ATOM     51  C   LIG d   1       8.246   5.232 -15.110  0.00  0.00     0.036 C 
ATOM     52  H   LIG d   1       8.191   5.405 -16.195  0.00  0.00     0.052 H 
ATOM     53  H   LIG d   1       7.229   5.212 -14.690  0.00  0.00     0.052 H 
ATOM     54  H   LIG d   1       8.740   4.268 -14.917  0.00  0.00     0.052 H 
ENDBRANCH  50  51
ENDBRANCH  47  50
ENDBRANCH  44  47
ENDBRANCH  32  44
ENDBRANCH  24  30
ENDBRANCH  12  24
BRANCH  10  55
ATOM     55  O   LIG d   1       9.348   3.138  -8.562  0.00  0.00    -0.391 OA
ATOM     56  H   LIG d   1       8.634   2.340  -8.311  0.00  0.00     0.210 HD
ENDBRANCH  10  55
BRANCH   1  57
ATOM     57  C   LIG d   1       8.059   1.814  -6.877  0.00  0.00    -0.060 C 
ATOM     58  H   LIG d   1       8.091   0.716  -6.912  0.00  0.00     0.023 H 
ATOM     59  H   LIG d   1       8.338   2.221  -7.861  0.00  0.00     0.023 H 
ATOM     60  H   LIG d   1       7.042   2.144  -6.619  0.00  0.00     0.023 H 
ENDBRANCH   1  57
BRANCH   7  61
ATOM     61  C   LIG d   1      11.717   3.240  -5.056  0.00  0.00    -0.059 C 
ATOM     62  H   LIG d   1      11.341   2.206  -5.052  0.00  0.00     0.024 H 
ATOM     63  H   LIG d   1      12.269   3.434  -4.124  0.00  0.00     0.024 H 
ATOM     64  H   LIG d   1      12.389   3.381  -5.916  0.00  0.00     0.024 H 
ENDBRANCH   7  61
BRANCH   3  65
ATOM     65  N   LIG d   1       7.840   1.089  -4.082  0.00  0.00    -0.312 N 
ATOM     66  C   LIG d   1       6.646   0.966  -3.470  0.00  0.00     0.216 C 
ATOM     67  O   LIG d   1       5.979   1.951  -3.238  0.00  0.00    -0.276 OA
ATOM     68  H   LIG d   1       8.446   0.195  -4.292  0.00  0.00     0.149 HD
BRANCH  66  69
ATOM     69  C   LIG d   1       6.139  -0.397  -3.074  0.00  0.00     0.036 C 
ATOM     70  C   LIG d   1       4.856  -0.246  -2.254  0.00  0.00    -0.042 C 
ATOM     71  C   LIG d   1       4.341  -1.630  -1.853  0.00  0.00    -0.052 C 
ATOM     72  H   LIG d   1       5.065   0.345  -1.350  0.00  0.00     0.027 H 
ATOM     73  H   LIG d   1       4.094   0.268  -2.859  0.00  0.00     0.027 H 
ATOM     74  C   LIG d   1       4.049  -2.450  -3.110  0.00  0.00    -0.053 C 
ATOM     75  H   LIG d   1       3.418  -1.520  -1.263  0.00  0.00     0.026 H 
ATOM     76  H   LIG d   1       5.103  -2.143  -1.248  0.00  0.00     0.026 H 
ATOM     77  C   LIG d   1       5.333  -2.602  -3.929  0.00  0.00    -0.052 C 
ATOM     78  H   LIG d   1       3.288  -1.938  -3.714  0.00  0.00     0.026 H 
ATOM     79  H   LIG d   1       3.680  -3.445  -2.821  0.00  0.00     0.026 H 
ATOM     80  C   LIG d   1       5.847  -1.219  -4.331  0.00  0.00    -0.042 C 
ATOM     81  H   LIG d   1       5.124  -3.193  -4.834  0.00  0.00     0.026 H 
ATOM     82  H   LIG d   1       6.096  -3.116  -3.324  0.00  0.00     0.026 H 
ATOM     83  H   LIG d   1       5.086  -0.705  -4.935  0.00  0.00     0.027 H 
ATOM     84  H   LIG d   1       6.771  -1.327  -4.920  0.00  0.00     0.027 H 
ATOM     85  H   LIG d   1       6.911  -0.898  -2.471  0.00  0.00     0.039 H 
ENDBRANCH  66  69
ENDBRANCH   3  65
TORSDOF 16
ENDMDL
MODEL 7
REMARK VINA RESULT:      -4.9      4.279      6.461
REMARK  16 active torsions:
REMARK  status: ('A' for Active; 'I' for Inactive)
REMARK    1  A    between atoms: C_1  and  C_2 
REMARK    2  A    between atoms: C_4  and  N_33 
REMARK    3  A    between atoms: C_8  and  C_32 
REMARK    4  A    between atoms: C_11  and  O_31 
REMARK    5  A    between atoms: C_13  and  C_17 
REMARK    6  A    between atoms: C_17  and  C_19 
REMARK    7  A    between atoms: C_17  and  C_20 
REMARK       I    between atoms: C_20  and  N_22 
REMARK    8  A    between atoms: N_22  and  C_23 
REMARK    9  A    between atoms: N_22  and  C_27 
REMARK   10  A    between atoms: C_23  and  C_24 
REMARK   11  A    between atoms: C_24  and  O_25 
REMARK   12  A    between atoms: O_25  and  C_26 
REMARK   13  A    between atoms: C_27  and  C_28 
REMARK   14  A    between atoms: C_28  and  O_29 
REMARK   15  A    between atoms: O_29  and  C_30 
REMARK       I    between atoms: N_33  and  C_34 
REMARK   16  A    between atoms: C_34  and  C_36 
ROOT
ATOM      1  C   LIG d   1       9.230   3.033  -5.353  0.00  0.00    -0.020 C 
ATOM      2  H   LIG d   1      10.137   2.412  -5.289  0.00  0.00     0.032 H 
ATOM      3  C   LIG d   1       9.625   4.511  -5.362  0.00  0.00     0.026 C 
ATOM      4  H   LIG d   1       8.731   5.151  -5.388  0.00  0.00     0.050 H 
ATOM      5  C   LIG d   1      10.521   4.792  -6.571  0.00  0.00    -0.034 C 
ATOM      6  C   LIG d   1       9.763   4.457  -7.857  0.00  0.00    -0.046 C 
ATOM      7  C   LIG d   1       9.369   2.979  -7.846  0.00  0.00    -0.026 C 
ATOM      8  C   LIG d   1       8.472   2.699  -6.639  0.00  0.00    -0.005 C 
ATOM      9  H   LIG d   1       7.567   3.319  -6.702  0.00  0.00     0.033 H 
ATOM     10  C   LIG d   1       8.078   1.221  -6.628  0.00  0.00     0.062 C 
ATOM     11  H   LIG d   1       8.959   0.573  -6.505  0.00  0.00     0.060 H 
ATOM     12  C   LIG d   1       7.320   0.886  -7.914  0.00  0.00    -0.004 C 
ATOM     13  H   LIG d   1       6.414   1.507  -7.978  0.00  0.00     0.033 H 
ATOM     14  C   LIG d   1       8.216   1.166  -9.122  0.00  0.00    -0.047 C 
ATOM     15  C   LIG d   1       8.611   2.644  -9.132  0.00  0.00    -0.047 C 
ATOM     16  H   LIG d   1      10.805   5.854  -6.578  0.00  0.00     0.028 H 
ATOM     17  H   LIG d   1      11.427   4.171  -6.506  0.00  0.00     0.028 H 
ATOM     18  H   LIG d   1       8.858   5.078  -7.920  0.00  0.00     0.027 H 
ATOM     19  H   LIG d   1      10.408   4.659  -8.725  0.00  0.00     0.027 H 
ATOM     20  H   LIG d   1       9.123   0.545  -9.059  0.00  0.00     0.027 H 
ATOM     21  H   LIG d   1       7.671   0.925 -10.047  0.00  0.00     0.027 H 
ATOM     22  H   LIG d   1       7.705   3.265  -9.196  0.00  0.00     0.027 H 
ATOM     23  H   LIG d   1       9.255   2.846 -10.001  0.00  0.00     0.027 H 
ENDROOT
BRANCH  12  24
ATOM     24  C   LIG d   1       6.925  -0.593  -7.904  0.00  0.00     0.038 C 
ATOM     25  H   LIG d   1       6.818  -0.944  -6.868  0.00  0.00     0.040 H 
BRANCH  24  26
ATOM     26  C   LIG d   1       8.000  -1.412  -8.622  0.00  0.00    -0.054 C 
ATOM     27  H   LIG d   1       7.521  -2.189  -9.235  0.00  0.00     0.024 H 
ATOM     28  H   LIG d   1       8.658  -1.886  -7.878  0.00  0.00     0.024 H 
ATOM     29  H   LIG d   1       8.596  -0.750  -9.267  0.00  0.00     0.024 H 
ENDBRANCH  24  26
BRANCH  24  30
ATOM     30  C   LIG d   1       5.606  -0.765  -8.613  0.00  0.00     0.219 C 
ATOM     31  O   LIG d   1       5.509  -0.487  -9.789  0.00  0.00    -0.275 OA
ATOM     32  N   LIG d   1       4.536  -1.231  -7.939  0.00  0.00    -0.297 N 
BRANCH  32  33
ATOM     33  C   LIG d   1       4.623  -1.460  -6.494  0.00  0.00     0.038 C 
ATOM     34  H   LIG d   1       4.176  -2.435  -6.250  0.00  0.00     0.049 H 
ATOM     35  H   LIG d   1       5.678  -1.452  -6.184  0.00  0.00     0.049 H 
BRANCH  33  36
ATOM     36  C   LIG d   1       3.867  -0.353  -5.756  0.00  0.00     0.063 C 
ATOM     37  H   LIG d   1       3.536   0.408  -6.477  0.00  0.00     0.058 H 
ATOM     38  H   LIG d   1       2.991  -0.782  -5.248  0.00  0.00     0.058 H 
BRANCH  36  39
ATOM     39  O   LIG d   1       4.730   0.251  -4.790  0.00  0.00    -0.381 OA
BRANCH  39  40
ATOM     40  C   LIG d   1       4.211   0.242  -3.459  0.00  0.00     0.036 C 
ATOM     41  H   LIG d   1       4.616  -0.623  -2.913  0.00  0.00     0.052 H 
ATOM     42  H   LIG d   1       3.113   0.172  -3.494  0.00  0.00     0.052 H 
ATOM     43  H   LIG d   1       4.502   1.170  -2.946  0.00  0.00     0.052 H 
ENDBRANCH  39  40
ENDBRANCH  36  39
ENDBRANCH  33  36
ENDBRANCH  32  33
BRANCH  32  44
ATOM     44  C   LIG d   1       3.285  -1.506  -8.650  0.00  0.00     0.038 C 
ATOM     45  H   LIG d   1       3.485  -1.575  -9.729  0.00  0.00     0.049 H 
ATOM     46  H   LIG d   1       2.864  -2.458  -8.294  0.00  0.00     0.049 H 
BRANCH  44  47
ATOM     47  C   LIG d   1       2.289  -0.377  -8.386  0.00  0.00     0.063 C 
ATOM     48  H   LIG d   1       1.263  -0.770  -8.451  0.00  0.00     0.058 H 
ATOM     49  H   LIG d   1       2.460   0.037  -7.381  0.00  0.00     0.058 H 
BRANCH  47  50
ATOM     50  O   LIG d   1       2.466   0.653  -9.362  0.00  0.00    -0.381 OA
BRANCH  50  51
ATOM     51  C   LIG d   1       2.863   1.911  -8.814  0.00  0.00     0.036 C 
ATOM     52  H   LIG d   1       3.058   2.622  -9.631  0.00  0.00     0.052 H 
ATOM     53  H   LIG d   1       3.778   1.780  -8.217  0.00  0.00     0.052 H 
ATOM     54  H   LIG d   1       2.060   2.301  -8.172  0.00  0.00     0.052 H 
ENDBRANCH  50  51
ENDBRANCH  47  50
ENDBRANCH  44  47
ENDBRANCH  32  44
ENDBRANCH  24  30
ENDBRANCH  12  24
BRANCH  10  55
ATOM     55  O   LIG d   1       7.241   0.959  -5.500  0.00  0.00    -0.391 OA
ATOM     56  H   LIG d   1       6.253   0.498  -5.644  0.00  0.00     0.210 HD
ENDBRANCH  10  55
BRANCH   1  57
ATOM     57  C   LIG d   1       8.334   2.753  -4.144  0.00  0.00    -0.060 C 
ATOM     58  H   LIG d   1       8.854   2.076  -3.451  0.00  0.00     0.023 H 
ATOM     59  H   LIG d   1       7.399   2.284  -4.484  0.00  0.00     0.023 H 
ATOM     60  H   LIG d   1       8.105   3.698  -3.631  0.00  0.00     0.023 H 
ENDBRANCH   1  57
BRANCH   7  61
ATOM     61  C   LIG d   1      10.629   2.116  -7.758  0.00  0.00    -0.059 C 
ATOM     62  H   LIG d   1      10.365   1.063  -7.939  0.00  0.00     0.024 H 
ATOM     63  H   LIG d   1      11.072   2.216  -6.756  0.00  0.00     0.024 H 
ATOM     64  H   LIG d   1      11.355   2.448  -8.515  0.00  0.00     0.024 H 
ENDBRANCH   7  61
BRANCH   3  65
ATOM     65  N   LIG d   1      10.351   4.831  -4.131  0.00  0.00    -0.312 N 
ATOM     66  C   LIG d   1      10.035   5.939  -3.431  0.00  0.00     0.216 C 
ATOM     67  O   LIG d   1       9.149   6.671  -3.821  0.00  0.00    -0.276 OA
ATOM     68  H   LIG d   1      11.154   4.168  -3.778  0.00  0.00     0.149 HD
BRANCH  66  69
ATOM     69  C   LIG d   1      10.781   6.268  -2.164  0.00  0.00     0.036 C 
ATOM     70  C   LIG d   1       9.888   7.110  -1.250  0.00  0.00    -0.042 C 
ATOM     71  C   LIG d   1      10.645   7.444   0.037  0.00  0.00    -0.052 C 
ATOM     72  H   LIG d   1       9.609   8.041  -1.764  0.00  0.00     0.027 H 
ATOM     73  H   LIG d   1       8.978   6.541  -1.003  0.00  0.00     0.027 H 
ATOM     74  C   LIG d   1      11.032   6.149   0.752  0.00  0.00    -0.053 C 
ATOM     75  H   LIG d   1      10.002   8.049   0.694  0.00  0.00     0.026 H 
ATOM     76  H   LIG d   1      11.554   8.013  -0.210  0.00  0.00     0.026 H 
ATOM     77  C   LIG d   1      11.926   5.308  -0.162  0.00  0.00    -0.052 C 
ATOM     78  H   LIG d   1      10.124   5.581   0.999  0.00  0.00     0.026 H 
ATOM     79  H   LIG d   1      11.577   6.389   1.677  0.00  0.00     0.026 H 
ATOM     80  C   LIG d   1      11.168   4.973  -1.448  0.00  0.00    -0.042 C 
ATOM     81  H   LIG d   1      12.205   4.376   0.353  0.00  0.00     0.026 H 
ATOM     82  H   LIG d   1      12.835   5.876  -0.409  0.00  0.00     0.026 H 
ATOM     83  H   LIG d   1      10.259   4.406  -1.201  0.00  0.00     0.027 H 
ATOM     84  H   LIG d   1      11.810   4.370  -2.106  0.00  0.00     0.027 H 
ATOM     85  H   LIG d   1      11.686   6.836  -2.427  0.00  0.00     0.039 H 
ENDBRANCH  66  69
ENDBRANCH   3  65
TORSDOF 16
ENDMDL
MODEL 8
REMARK VINA RESULT:      -4.9      5.028      6.931
REMARK  16 active torsions:
REMARK  status: ('A' for Active; 'I' for Inactive)
REMARK    1  A    between atoms: C_1  and  C_2 
REMARK    2  A    between atoms: C_4  and  N_33 
REMARK    3  A    between atoms: C_8  and  C_32 
REMARK    4  A    between atoms: C_11  and  O_31 
REMARK    5  A    between atoms: C_13  and  C_17 
REMARK    6  A    between atoms: C_17  and  C_19 
REMARK    7  A    between atoms: C_17  and  C_20 
REMARK       I    between atoms: C_20  and  N_22 
REMARK    8  A    between atoms: N_22  and  C_23 
REMARK    9  A    between atoms: N_22  and  C_27 
REMARK   10  A    between atoms: C_23  and  C_24 
REMARK   11  A    between atoms: C_24  and  O_25 
REMARK   12  A    between atoms: O_25  and  C_26 
REMARK   13  A    between atoms: C_27  and  C_28 
REMARK   14  A    between atoms: C_28  and  O_29 
REMARK   15  A    between atoms: O_29  and  C_30 
REMARK       I    between atoms: N_33  and  C_34 
REMARK   16  A    between atoms: C_34  and  C_36 
ROOT
ATOM      1  C   LIG d   1       4.192  -1.488  -8.301  0.00  0.00    -0.020 C 
ATOM      2  H   LIG d   1       4.963  -1.442  -9.086  0.00  0.00     0.032 H 
ATOM      3  C   LIG d   1       4.255  -0.218  -7.450  0.00  0.00     0.026 C 
ATOM      4  H   LIG d   1       3.518  -0.260  -6.636  0.00  0.00     0.050 H 
ATOM      5  C   LIG d   1       4.007   1.003  -8.339  0.00  0.00    -0.034 C 
ATOM      6  C   LIG d   1       2.626   0.891  -8.986  0.00  0.00    -0.046 C 
ATOM      7  C   LIG d   1       2.563  -0.379  -9.837  0.00  0.00    -0.026 C 
ATOM      8  C   LIG d   1       2.811  -1.600  -8.949  0.00  0.00    -0.005 C 
ATOM      9  H   LIG d   1       2.041  -1.646  -8.165  0.00  0.00     0.033 H 
ATOM     10  C   LIG d   1       2.749  -2.870  -9.799  0.00  0.00     0.062 C 
ATOM     11  H   LIG d   1       3.546  -2.883 -10.557  0.00  0.00     0.060 H 
ATOM     12  C   LIG d   1       1.367  -2.984 -10.447  0.00  0.00    -0.004 C 
ATOM     13  H   LIG d   1       0.597  -3.028  -9.663  0.00  0.00     0.033 H 
ATOM     14  C   LIG d   1       1.119  -1.763 -11.335  0.00  0.00    -0.047 C 
ATOM     15  C   LIG d   1       1.182  -0.492 -10.485  0.00  0.00    -0.047 C 
ATOM     16  H   LIG d   1       4.052   1.917  -7.727  0.00  0.00     0.028 H 
ATOM     17  H   LIG d   1       4.777   1.049  -9.122  0.00  0.00     0.028 H 
ATOM     18  H   LIG d   1       1.856   0.846  -8.202  0.00  0.00     0.027 H 
ATOM     19  H   LIG d   1       2.447   1.769  -9.625  0.00  0.00     0.027 H 
ATOM     20  H   LIG d   1       1.889  -1.717 -12.120  0.00  0.00     0.027 H 
ATOM     21  H   LIG d   1       0.126  -1.843 -11.801  0.00  0.00     0.027 H 
ATOM     22  H   LIG d   1       0.412  -0.537  -9.700  0.00  0.00     0.027 H 
ATOM     23  H   LIG d   1       1.003   0.386 -11.123  0.00  0.00     0.027 H 
ENDROOT
BRANCH  12  24
ATOM     24  C   LIG d   1       1.304  -4.254 -11.298  0.00  0.00     0.038 C 
ATOM     25  H   LIG d   1       2.051  -4.979 -10.942  0.00  0.00     0.040 H 
BRANCH  24  26
ATOM     26  C   LIG d   1       1.578  -3.901 -12.762  0.00  0.00    -0.054 C 
ATOM     27  H   LIG d   1       1.734  -2.816 -12.854  0.00  0.00     0.024 H 
ATOM     28  H   LIG d   1       0.717  -4.201 -13.378  0.00  0.00     0.024 H 
ATOM     29  H   LIG d   1       2.477  -4.433 -13.105  0.00  0.00     0.024 H 
ENDBRANCH  24  26
BRANCH  24  30
ATOM     30  C   LIG d   1      -0.065  -4.871 -11.178  0.00  0.00     0.219 C 
ATOM     31  O   LIG d   1      -1.038  -4.272 -11.585  0.00  0.00    -0.275 OA
ATOM     32  N   LIG d   1      -0.208  -6.090 -10.620  0.00  0.00    -0.297 N 
BRANCH  32  33
ATOM     33  C   LIG d   1       0.950  -6.765 -10.028  0.00  0.00     0.038 C 
ATOM     34  H   LIG d   1       1.802  -6.071  -9.997  0.00  0.00     0.049 H 
ATOM     35  H   LIG d   1       0.703  -7.089  -9.007  0.00  0.00     0.049 H 
BRANCH  33  36
ATOM     36  C   LIG d   1       1.316  -7.985 -10.875  0.00  0.00     0.063 C 
ATOM     37  H   LIG d   1       0.738  -8.856 -10.533  0.00  0.00     0.058 H 
ATOM     38  H   LIG d   1       1.084  -7.783 -11.931  0.00  0.00     0.058 H 
BRANCH  36  39
ATOM     39  O   LIG d   1       2.712  -8.259 -10.738  0.00  0.00    -0.381 OA
BRANCH  39  40
ATOM     40  C   LIG d   1       3.237  -7.969  -9.441  0.00  0.00     0.036 C 
ATOM     41  H   LIG d   1       4.336  -7.935  -9.489  0.00  0.00     0.052 H 
ATOM     42  H   LIG d   1       2.925  -8.754  -8.735  0.00  0.00     0.052 H 
ATOM     43  H   LIG d   1       2.854  -6.997  -9.099  0.00  0.00     0.052 H 
ENDBRANCH  39  40
ENDBRANCH  36  39
ENDBRANCH  33  36
ENDBRANCH  32  33
BRANCH  32  44
ATOM     44  C   LIG d   1      -1.521  -6.740 -10.606  0.00  0.00     0.038 C 
ATOM     45  H   LIG d   1      -2.265  -6.073 -11.065  0.00  0.00     0.049 H 
ATOM     46  H   LIG d   1      -1.470  -7.680 -11.176  0.00  0.00     0.049 H 
BRANCH  44  47
ATOM     47  C   LIG d   1      -1.926  -7.039  -9.162  0.00  0.00     0.063 C 
ATOM     48  H   LIG d   1      -2.553  -7.943  -9.137  0.00  0.00     0.058 H 
ATOM     49  H   LIG d   1      -1.024  -7.202  -8.553  0.00  0.00     0.058 H 
BRANCH  47  50
ATOM     50  O   LIG d   1      -2.663  -5.934  -8.635  0.00  0.00    -0.381 OA
BRANCH  50  51
ATOM     51  C   LIG d   1      -3.619  -5.385  -9.544  0.00  0.00     0.036 C 
ATOM     52  H   LIG d   1      -3.955  -4.404  -9.177  0.00  0.00     0.052 H 
ATOM     53  H   LIG d   1      -4.482  -6.063  -9.622  0.00  0.00     0.052 H 
ATOM     54  H   LIG d   1      -3.156  -5.267 -10.535  0.00  0.00     0.052 H 
ENDBRANCH  50  51
ENDBRANCH  47  50
ENDBRANCH  44  47
ENDBRANCH  32  44
ENDBRANCH  24  30
ENDBRANCH  12  24
BRANCH  10  55
ATOM     55  O   LIG d   1       2.980  -4.011  -8.970  0.00  0.00    -0.391 OA
ATOM     56  H   LIG d   1       3.747  -3.971  -8.182  0.00  0.00     0.210 HD
ENDBRANCH  10  55
BRANCH   1  57
ATOM     57  C   LIG d   1       4.441  -2.709  -7.413  0.00  0.00    -0.060 C 
ATOM     58  H   LIG d   1       5.499  -3.002  -7.479  0.00  0.00     0.023 H 
ATOM     59  H   LIG d   1       3.807  -3.542  -7.751  0.00  0.00     0.023 H 
ATOM     60  H   LIG d   1       4.193  -2.460  -6.370  0.00  0.00     0.023 H 
ENDBRANCH   1  57
BRANCH   7  61
ATOM     61  C   LIG d   1       3.634  -0.316 -10.927  0.00  0.00    -0.059 C 
ATOM     62  H   LIG d   1       4.618  -0.540 -10.489  0.00  0.00     0.024 H 
ATOM     63  H   LIG d   1       3.650   0.692 -11.368  0.00  0.00     0.024 H 
ATOM     64  H   LIG d   1       3.405  -1.055 -11.710  0.00  0.00     0.024 H 
ENDBRANCH   7  61
BRANCH   3  65
ATOM     65  N   LIG d   1       5.578  -0.110  -6.830  0.00  0.00    -0.312 N 
ATOM     66  C   LIG d   1       5.686   0.033  -5.495  0.00  0.00     0.216 C 
ATOM     67  O   LIG d   1       4.689   0.071  -4.806  0.00  0.00    -0.276 OA
ATOM     68  H   LIG d   1       6.482  -0.145  -7.455  0.00  0.00     0.149 HD
BRANCH  66  69
ATOM     69  C   LIG d   1       7.047   0.143  -4.856  0.00  0.00     0.036 C 
ATOM     70  C   LIG d   1       8.121  -0.243  -5.875  0.00  0.00    -0.042 C 
ATOM     71  C   LIG d   1       9.503  -0.131  -5.227  0.00  0.00    -0.052 C 
ATOM     72  H   LIG d   1       7.956  -1.277  -6.210  0.00  0.00     0.027 H 
ATOM     73  H   LIG d   1       8.066   0.436  -6.740  0.00  0.00     0.027 H 
ATOM     74  C   LIG d   1       9.733   1.308  -4.762  0.00  0.00    -0.053 C 
ATOM     75  H   LIG d   1      10.275  -0.408  -5.960  0.00  0.00     0.026 H 
ATOM     76  H   LIG d   1       9.558  -0.810  -4.362  0.00  0.00     0.026 H 
ATOM     77  C   LIG d   1       8.659   1.693  -3.742  0.00  0.00    -0.052 C 
ATOM     78  H   LIG d   1       9.678   1.986  -5.625  0.00  0.00     0.026 H 
ATOM     79  H   LIG d   1      10.727   1.388  -4.295  0.00  0.00     0.026 H 
ATOM     80  C   LIG d   1       7.278   1.582  -4.390  0.00  0.00    -0.042 C 
ATOM     81  H   LIG d   1       8.825   2.728  -3.407  0.00  0.00     0.026 H 
ATOM     82  H   LIG d   1       8.714   1.014  -2.877  0.00  0.00     0.026 H 
ATOM     83  H   LIG d   1       7.222   2.259  -5.255  0.00  0.00     0.027 H 
ATOM     84  H   LIG d   1       6.505   1.857  -3.658  0.00  0.00     0.027 H 
ATOM     85  H   LIG d   1       7.087  -0.541  -3.995  0.00  0.00     0.039 H 
ENDBRANCH  66  69
ENDBRANCH   3  65
TORSDOF 16
ENDMDL
MODEL 9
REMARK VINA RESULT:      -4.9      4.378      8.476
REMARK  16 active torsions:
REMARK  status: ('A' for Active; 'I' for Inactive)
REMARK    1  A    between atoms: C_1  and  C_2 
REMARK    2  A    between atoms: C_4  and  N_33 
REMARK    3  A    between atoms: C_8  and  C_32 
REMARK    4  A    between atoms: C_11  and  O_31 
REMARK    5  A    between atoms: C_13  and  C_17 
REMARK    6  A    between atoms: C_17  and  C_19 
REMARK    7  A    between atoms: C_17  and  C_20 
REMARK       I    between atoms: C_20  and  N_22 
REMARK    8  A    between atoms: N_22  and  C_23 
REMARK    9  A    between atoms: N_22  and  C_27 
REMARK   10  A    between atoms: C_23  and  C_24 
REMARK   11  A    between atoms: C_24  and  O_25 
REMARK   12  A    between atoms: O_25  and  C_26 
REMARK   13  A    between atoms: C_27  and  C_28 
REMARK   14  A    between atoms: C_28  and  O_29 
REMARK   15  A    between atoms: O_29  and  C_30 
REMARK       I    between atoms: N_33  and  C_34 
REMARK   16  A    between atoms: C_34  and  C_36 
ROOT
ATOM      1  C   LIG d   1      10.391   6.656  -2.589  0.00  0.00    -0.020 C 
ATOM      2  H   LIG d   1      11.487   6.649  -2.683  0.00  0.00     0.032 H 
ATOM      3  C   LIG d   1       9.878   8.093  -2.707  0.00  0.00     0.026 C 
ATOM      4  H   LIG d   1       8.787   8.127  -2.578  0.00  0.00     0.050 H 
ATOM      5  C   LIG d   1      10.278   8.666  -4.068  0.00  0.00    -0.034 C 
ATOM      6  C   LIG d   1       9.666   7.813  -5.181  0.00  0.00    -0.046 C 
ATOM      7  C   LIG d   1      10.179   6.377  -5.062  0.00  0.00    -0.026 C 
ATOM      8  C   LIG d   1       9.778   5.803  -3.701  0.00  0.00    -0.005 C 
ATOM      9  H   LIG d   1       8.683   5.810  -3.608  0.00  0.00     0.033 H 
ATOM     10  C   LIG d   1      10.291   4.367  -3.583  0.00  0.00     0.062 C 
ATOM     11  H   LIG d   1      11.391   4.331  -3.612  0.00  0.00     0.060 H 
ATOM     12  C   LIG d   1       9.679   3.513  -4.695  0.00  0.00    -0.004 C 
ATOM     13  H   LIG d   1       8.583   3.521  -4.602  0.00  0.00     0.033 H 
ATOM     14  C   LIG d   1      10.079   4.086  -6.057  0.00  0.00    -0.047 C 
ATOM     15  C   LIG d   1       9.567   5.523  -6.175  0.00  0.00    -0.047 C 
ATOM     16  H   LIG d   1       9.909   9.699  -4.153  0.00  0.00     0.028 H 
ATOM     17  H   LIG d   1      11.374   8.660  -4.161  0.00  0.00     0.028 H 
ATOM     18  H   LIG d   1       8.570   7.821  -5.087  0.00  0.00     0.027 H 
ATOM     19  H   LIG d   1       9.953   8.226  -6.160  0.00  0.00     0.027 H 
ATOM     20  H   LIG d   1      11.176   4.079  -6.150  0.00  0.00     0.027 H 
ATOM     21  H   LIG d   1       9.639   3.473  -6.856  0.00  0.00     0.027 H 
ATOM     22  H   LIG d   1       8.470   5.531  -6.082  0.00  0.00     0.027 H 
ATOM     23  H   LIG d   1       9.854   5.935  -7.154  0.00  0.00     0.027 H 
ENDROOT
BRANCH  12  24
ATOM     24  C   LIG d   1      10.192   2.076  -4.577  0.00  0.00     0.038 C 
ATOM     25  H   LIG d   1      10.104   1.733  -3.536  0.00  0.00     0.040 H 
BRANCH  24  26
ATOM     26  C   LIG d   1      11.655   2.019  -5.022  0.00  0.00    -0.054 C 
ATOM     27  H   LIG d   1      12.042   0.999  -4.879  0.00  0.00     0.024 H 
ATOM     28  H   LIG d   1      12.249   2.723  -4.420  0.00  0.00     0.024 H 
ATOM     29  H   LIG d   1      11.727   2.295  -6.084  0.00  0.00     0.024 H 
ENDBRANCH  24  26
BRANCH  24  30
ATOM     30  C   LIG d   1       9.364   1.174  -5.456  0.00  0.00     0.219 C 
ATOM     31  O   LIG d   1       9.820   0.761  -6.501  0.00  0.00    -0.275 OA
ATOM     32  N   LIG d   1       8.118   0.825  -5.079  0.00  0.00    -0.297 N 
BRANCH  32  33
ATOM     33  C   LIG d   1       7.526   1.412  -3.874  0.00  0.00     0.038 C 
ATOM     34  H   LIG d   1       8.294   1.497  -3.092  0.00  0.00     0.049 H 
ATOM     35  H   LIG d   1       7.129   2.410  -4.109  0.00  0.00     0.049 H 
BRANCH  33  36
ATOM     36  C   LIG d   1       6.389   0.516  -3.377  0.00  0.00     0.063 C 
ATOM     37  H   LIG d   1       6.180  -0.260  -4.127  0.00  0.00     0.058 H 
ATOM     38  H   LIG d   1       6.683   0.041  -2.430  0.00  0.00     0.058 H 
BRANCH  36  39
ATOM     39  O   LIG d   1       5.216   1.306  -3.171  0.00  0.00    -0.381 OA
BRANCH  39  40
ATOM     40  C   LIG d   1       4.545   1.040  -1.937  0.00  0.00     0.036 C 
ATOM     41  H   LIG d   1       4.001   1.939  -1.614  0.00  0.00     0.052 H 
ATOM     42  H   LIG d   1       5.284   0.763  -1.170  0.00  0.00     0.052 H 
ATOM     43  H   LIG d   1       3.836   0.211  -2.077  0.00  0.00     0.052 H 
ENDBRANCH  39  40
ENDBRANCH  36  39
ENDBRANCH  33  36
ENDBRANCH  32  33
BRANCH  32  44
ATOM     44  C   LIG d   1       7.356  -0.141  -5.874  0.00  0.00     0.038 C 
ATOM     45  H   LIG d   1       8.035  -0.913  -6.263  0.00  0.00     0.049 H 
ATOM     46  H   LIG d   1       6.589  -0.611  -5.241  0.00  0.00     0.049 H 
BRANCH  44  47
ATOM     47  C   LIG d   1       6.681   0.580  -7.042  0.00  0.00     0.063 C 
ATOM     48  H   LIG d   1       6.869   1.662  -6.963  0.00  0.00     0.058 H 
ATOM     49  H   LIG d   1       7.091   0.206  -7.992  0.00  0.00     0.058 H 
BRANCH  47  50
ATOM     50  O   LIG d   1       5.273   0.338  -7.003  0.00  0.00    -0.381 OA
BRANCH  50  51
ATOM     51  C   LIG d   1       4.911  -0.883  -6.354  0.00  0.00     0.036 C 
ATOM     52  H   LIG d   1       5.742  -1.221  -5.717  0.00  0.00     0.052 H 
ATOM     53  H   LIG d   1       4.693  -1.650  -7.111  0.00  0.00     0.052 H 
ATOM     54  H   LIG d   1       4.018  -0.716  -5.733  0.00  0.00     0.052 H 
ENDBRANCH  50  51
ENDBRANCH  47  50
ENDBRANCH  44  47
ENDBRANCH  32  44
ENDBRANCH  24  30
ENDBRANCH  12  24
BRANCH  10  55
ATOM     55  O   LIG d   1       9.918   3.831  -2.312  0.00  0.00    -0.391 OA
ATOM     56  H   LIG d   1       9.058   3.150  -2.234  0.00  0.00     0.210 HD
ENDBRANCH  10  55
BRANCH   1  57
ATOM     57  C   LIG d   1       9.991   6.083  -1.227  0.00  0.00    -0.060 C 
ATOM     58  H   LIG d   1      10.508   5.126  -1.066  0.00  0.00     0.023 H 
ATOM     59  H   LIG d   1       8.903   5.921  -1.203  0.00  0.00     0.023 H 
ATOM     60  H   LIG d   1      10.275   6.791  -0.435  0.00  0.00     0.023 H 
ENDBRANCH   1  57
BRANCH   7  61
ATOM     61  C   LIG d   1      11.703   6.367  -5.192  0.00  0.00    -0.059 C 
ATOM     62  H   LIG d   1      12.046   7.345  -5.559  0.00  0.00     0.024 H 
ATOM     63  H   LIG d   1      12.005   5.582  -5.902  0.00  0.00     0.024 H 
ATOM     64  H   LIG d   1      12.153   6.166  -4.209  0.00  0.00     0.024 H 
ENDBRANCH   7  61
BRANCH   3  65
ATOM     65  N   LIG d   1      10.464   8.910  -1.642  0.00  0.00    -0.312 N 
ATOM     66  C   LIG d   1       9.666   9.521  -0.744  0.00  0.00     0.216 C 
ATOM     67  O   LIG d   1       8.462   9.394  -0.818  0.00  0.00    -0.276 OA
ATOM     68  H   LIG d   1      11.556   9.025  -1.575  0.00  0.00     0.149 HD
BRANCH  66  69
ATOM     69  C   LIG d   1      10.269  10.361   0.352  0.00  0.00     0.036 C 
ATOM     70  C   LIG d   1      11.423   9.597   1.004  0.00  0.00    -0.042 C 
ATOM     71  C   LIG d   1      12.035  10.450   2.118  0.00  0.00    -0.052 C 
ATOM     72  H   LIG d   1      11.046   8.655   1.429  0.00  0.00     0.027 H 
ATOM     73  H   LIG d   1      12.190   9.377   0.247  0.00  0.00     0.027 H 
ATOM     74  C   LIG d   1      12.559  11.760   1.527  0.00  0.00    -0.053 C 
ATOM     75  H   LIG d   1      12.865   9.900   2.586  0.00  0.00     0.026 H 
ATOM     76  H   LIG d   1      11.267  10.669   2.875  0.00  0.00     0.026 H 
ATOM     77  C   LIG d   1      11.404  12.524   0.876  0.00  0.00    -0.052 C 
ATOM     78  H   LIG d   1      13.325  11.540   0.771  0.00  0.00     0.026 H 
ATOM     79  H   LIG d   1      12.998  12.373   2.328  0.00  0.00     0.026 H 
ATOM     80  C   LIG d   1      10.793  11.672  -0.238  0.00  0.00    -0.042 C 
ATOM     81  H   LIG d   1      11.781  13.467   0.451  0.00  0.00     0.026 H 
ATOM     82  H   LIG d   1      10.636  12.744   1.633  0.00  0.00     0.026 H 
ATOM     83  H   LIG d   1      11.559  11.451  -0.994  0.00  0.00     0.027 H 
ATOM     84  H   LIG d   1       9.962  12.220  -0.706  0.00  0.00     0.027 H 
ATOM     85  H   LIG d   1       9.490  10.572   1.101  0.00  0.00     0.039 H 
ENDBRANCH  66  69
ENDBRANCH   3  65
TORSDOF 16
ENDMDL
