MODEL 1
REMARK VINA RESULT:      -5.2      0.000      0.000
REMARK  8 active torsions:
REMARK  status: ('A' for Active; 'I' for Inactive)
REMARK    1  A    between atoms: C_2  and  C_3 
REMARK    2  A    between atoms: C_3  and  O_4 
REMARK    3  A    between atoms: O_4  and  C_5 
REMARK    4  A    between atoms: C_5  and  C_7 
REMARK    5  A    between atoms: C_7  and  C_9 
REMARK    6  A    between atoms: C_7  and  N_31 
REMARK    7  A    between atoms: C_9  and  C_10 
REMARK    8  A    between atoms: C_13  and  O_16 
ROOT
ATOM      1  C   LIG d   1       3.961  -1.022  -5.293  0.00  0.00     0.078 C 
ATOM      2  H   LIG d   1       4.120  -1.735  -6.102  0.00  0.00     0.097 H 
ENDROOT
BRANCH   1   3
ATOM      3  C   LIG d   1       5.285  -0.442  -4.867  0.00  0.00     0.356 C 
ATOM      4  O   LIG d   1       6.307  -1.051  -5.078  0.00  0.00    -0.244 OA
BRANCH   3   5
ATOM      5  O   LIG d   1       5.329   0.750  -4.253  0.00  0.00    -0.457 OA
BRANCH   5   6
ATOM      6  C   LIG d   1       5.846   0.776  -2.897  0.00  0.00     0.111 C 
ATOM      7  H   LIG d   1       6.429  -0.127  -2.713  0.00  0.00     0.074 H 
ATOM      8  H   LIG d   1       6.483   1.651  -2.768  0.00  0.00     0.074 H 
BRANCH   6   9
ATOM      9  C   LIG d   1       4.699   0.840  -1.922  0.00  0.00    -0.054 C 
ATOM     10  C   LIG d   1       3.568   1.397  -2.276  0.00  0.00    -0.100 C 
ATOM     11  H   LIG d   1       2.746   1.444  -1.578  0.00  0.00     0.053 H 
ATOM     12  H   LIG d   1       3.458   1.810  -3.268  0.00  0.00     0.053 H 
ATOM     13  H   LIG d   1       4.811   0.427  -0.930  0.00  0.00     0.060 H 
ENDBRANCH   6   9
ENDBRANCH   5   6
ENDBRANCH   3   5
ENDBRANCH   1   3
BRANCH   1  14
ATOM     14  C   LIG d   1       3.043   0.103  -5.775  0.00  0.00     0.026 C 
ATOM     15  H   LIG d   1       2.017  -0.114  -5.482  0.00  0.00     0.037 H 
ATOM     16  H   LIG d   1       3.358   1.045  -5.327  0.00  0.00     0.037 H 
BRANCH  14  17
ATOM     17  C   LIG d   1       3.126   0.209  -7.277  0.00  0.00    -0.041 A 
ATOM     18  C   LIG d   1       3.331  -0.928  -8.037  0.00  0.00    -0.055 A 
ATOM     19  C   LIG d   1       3.408  -0.834  -9.414  0.00  0.00    -0.020 A 
ATOM     20  H   LIG d   1       3.433  -1.889  -7.556  0.00  0.00     0.062 H 
ATOM     21  C   LIG d   1       3.277   0.401 -10.032  0.00  0.00     0.117 A 
ATOM     22  H   LIG d   1       3.569  -1.721 -10.008  0.00  0.00     0.065 H 
ATOM     23  C   LIG d   1       3.070   1.539  -9.266  0.00  0.00    -0.020 A 
ATOM     24  C   LIG d   1       2.990   1.439  -7.891  0.00  0.00    -0.055 A 
ATOM     25  H   LIG d   1       2.969   2.502  -9.745  0.00  0.00     0.065 H 
ATOM     26  H   LIG d   1       2.825   2.325  -7.294  0.00  0.00     0.062 H 
BRANCH  21  27
ATOM     27  O   LIG d   1       3.351   0.495 -11.385  0.00  0.00    -0.507 OA
ATOM     28  H   LIG d   1       2.494   0.458 -11.831  0.00  0.00     0.292 HD
ENDBRANCH  21  27
ENDBRANCH  14  17
ENDBRANCH   1  14
BRANCH   1  29
ATOM     29  N   LIG d   1       3.316  -1.715  -4.163  0.00  0.00     0.229 N 
ATOM     30  H   LIG d   1       3.561  -2.703  -4.173  0.00  0.00     0.200 HD
ATOM     31  H   LIG d   1       3.615  -1.300  -3.282  0.00  0.00     0.200 HD
ATOM     32  H   LIG d   1       2.297  -1.622  -4.249  0.00  0.00     0.200 HD
ENDBRANCH   1  29
TORSDOF 8
ENDMDL
MODEL 2
REMARK VINA RESULT:      -5.1      1.653      2.339
REMARK  8 active torsions:
REMARK  status: ('A' for Active; 'I' for Inactive)
REMARK    1  A    between atoms: C_2  and  C_3 
REMARK    2  A    between atoms: C_3  and  O_4 
REMARK    3  A    between atoms: O_4  and  C_5 
REMARK    4  A    between atoms: C_5  and  C_7 
REMARK    5  A    between atoms: C_7  and  C_9 
REMARK    6  A    between atoms: C_7  and  N_31 
REMARK    7  A    between atoms: C_9  and  C_10 
REMARK    8  A    between atoms: C_13  and  O_16 
ROOT
ATOM      1  C   LIG d   1       3.746  -0.373  -6.638  0.00  0.00     0.078 C 
ATOM      2  H   LIG d   1       4.678   0.116  -6.917  0.00  0.00     0.097 H 
ENDROOT
BRANCH   1   3
ATOM      3  C   LIG d   1       3.426  -0.059  -5.199  0.00  0.00     0.356 C 
ATOM      4  O   LIG d   1       2.846   0.963  -4.918  0.00  0.00    -0.244 OA
BRANCH   3   5
ATOM      5  O   LIG d   1       3.784  -0.915  -4.229  0.00  0.00    -0.457 OA
BRANCH   5   6
ATOM      6  C   LIG d   1       3.179  -0.725  -2.924  0.00  0.00     0.111 C 
ATOM      7  H   LIG d   1       2.452   0.086  -2.974  0.00  0.00     0.074 H 
ATOM      8  H   LIG d   1       2.677  -1.644  -2.619  0.00  0.00     0.074 H 
BRANCH   6   9
ATOM      9  C   LIG d   1       4.247  -0.379  -1.919  0.00  0.00    -0.054 C 
ATOM     10  C   LIG d   1       4.555   0.875  -1.696  0.00  0.00    -0.100 C 
ATOM     11  H   LIG d   1       5.321   1.123  -0.977  0.00  0.00     0.053 H 
ATOM     12  H   LIG d   1       4.044   1.659  -2.232  0.00  0.00     0.053 H 
ATOM     13  H   LIG d   1       4.759  -1.165  -1.384  0.00  0.00     0.060 H 
ENDBRANCH   6   9
ENDBRANCH   5   6
ENDBRANCH   3   5
ENDBRANCH   1   3
BRANCH   1  14
ATOM     14  C   LIG d   1       2.614   0.134  -7.534  0.00  0.00     0.026 C 
ATOM     15  H   LIG d   1       1.752  -0.526  -7.440  0.00  0.00     0.037 H 
ATOM     16  H   LIG d   1       2.333   1.142  -7.228  0.00  0.00     0.037 H 
BRANCH  14  17
ATOM     17  C   LIG d   1       3.080   0.155  -8.967  0.00  0.00    -0.041 A 
ATOM     18  C   LIG d   1       4.242   0.825  -9.304  0.00  0.00    -0.055 A 
ATOM     19  C   LIG d   1       4.672   0.846 -10.617  0.00  0.00    -0.020 A 
ATOM     20  H   LIG d   1       4.813   1.333  -8.542  0.00  0.00     0.062 H 
ATOM     21  C   LIG d   1       3.937   0.194 -11.596  0.00  0.00     0.117 A 
ATOM     22  H   LIG d   1       5.579   1.370 -10.881  0.00  0.00     0.065 H 
ATOM     23  C   LIG d   1       2.772  -0.479 -11.255  0.00  0.00    -0.020 A 
ATOM     24  C   LIG d   1       2.350  -0.500  -9.940  0.00  0.00    -0.055 A 
ATOM     25  H   LIG d   1       2.199  -0.987 -12.016  0.00  0.00     0.065 H 
ATOM     26  H   LIG d   1       1.445  -1.027  -9.673  0.00  0.00     0.062 H 
BRANCH  21  27
ATOM     27  O   LIG d   1       4.358   0.212 -12.888  0.00  0.00    -0.507 OA
ATOM     28  H   LIG d   1       3.849  -0.361 -13.477  0.00  0.00     0.292 HD
ENDBRANCH  21  27
ENDBRANCH  14  17
ENDBRANCH   1  14
BRANCH   1  29
ATOM     29  N   LIG d   1       3.890  -1.827  -6.827  0.00  0.00     0.229 N 
ATOM     30  H   LIG d   1       3.800  -2.062  -7.813  0.00  0.00     0.200 HD
ATOM     31  H   LIG d   1       4.800  -2.136  -6.486  0.00  0.00     0.200 HD
ATOM     32  H   LIG d   1       3.154  -2.311  -6.299  0.00  0.00     0.200 HD
ENDBRANCH   1  29
TORSDOF 8
ENDMDL
MODEL 3
REMARK VINA RESULT:      -5.1      2.268      5.610
REMARK  8 active torsions:
REMARK  status: ('A' for Active; 'I' for Inactive)
REMARK    1  A    between atoms: C_2  and  C_3 
REMARK    2  A    between atoms: C_3  and  O_4 
REMARK    3  A    between atoms: O_4  and  C_5 
REMARK    4  A    between atoms: C_5  and  C_7 
REMARK    5  A    between atoms: C_7  and  C_9 
REMARK    6  A    between atoms: C_7  and  N_31 
REMARK    7  A    between atoms: C_9  and  C_10 
REMARK    8  A    between atoms: C_13  and  O_16 
ROOT
ATOM      1  C   LIG d   1       4.451  -3.180  -5.816  0.00  0.00     0.078 C 
ATOM      2  H   LIG d   1       3.626  -2.514  -5.567  0.00  0.00     0.097 H 
ENDROOT
BRANCH   1   3
ATOM      3  C   LIG d   1       5.190  -2.638  -7.013  0.00  0.00     0.356 C 
ATOM      4  O   LIG d   1       6.021  -3.318  -7.568  0.00  0.00    -0.244 OA
BRANCH   3   5
ATOM      5  O   LIG d   1       4.925  -1.402  -7.462  0.00  0.00    -0.457 OA
BRANCH   5   6
ATOM      6  C   LIG d   1       3.528  -1.021  -7.560  0.00  0.00     0.111 C 
ATOM      7  H   LIG d   1       3.268  -0.853  -8.605  0.00  0.00     0.074 H 
ATOM      8  H   LIG d   1       2.905  -1.819  -7.155  0.00  0.00     0.074 H 
BRANCH   6   9
ATOM      9  C   LIG d   1       3.295   0.245  -6.775  0.00  0.00    -0.054 C 
ATOM     10  C   LIG d   1       2.818   0.182  -5.557  0.00  0.00    -0.100 C 
ATOM     11  H   LIG d   1       2.650   1.089  -4.996  0.00  0.00     0.053 H 
ATOM     12  H   LIG d   1       2.591  -0.776  -5.115  0.00  0.00     0.053 H 
ATOM     13  H   LIG d   1       3.522   1.203  -7.218  0.00  0.00     0.060 H 
ENDBRANCH   6   9
ENDBRANCH   5   6
ENDBRANCH   3   5
ENDBRANCH   1   3
BRANCH   1  14
ATOM     14  C   LIG d   1       5.409  -3.275  -4.626  0.00  0.00     0.026 C 
ATOM     15  H   LIG d   1       5.191  -4.178  -4.055  0.00  0.00     0.037 H 
ATOM     16  H   LIG d   1       6.436  -3.314  -4.989  0.00  0.00     0.037 H 
BRANCH  14  17
ATOM     17  C   LIG d   1       5.233  -2.066  -3.744  0.00  0.00    -0.041 A 
ATOM     18  C   LIG d   1       6.050  -0.964  -3.915  0.00  0.00    -0.055 A 
ATOM     19  C   LIG d   1       5.892   0.147  -3.107  0.00  0.00    -0.020 A 
ATOM     20  H   LIG d   1       6.813  -0.969  -4.680  0.00  0.00     0.062 H 
ATOM     21  C   LIG d   1       4.912   0.154  -2.126  0.00  0.00     0.117 A 
ATOM     22  H   LIG d   1       6.530   1.007  -3.241  0.00  0.00     0.065 H 
ATOM     23  C   LIG d   1       4.093  -0.953  -1.957  0.00  0.00    -0.020 A 
ATOM     24  C   LIG d   1       4.253  -2.058  -2.770  0.00  0.00    -0.055 A 
ATOM     25  H   LIG d   1       3.330  -0.950  -1.193  0.00  0.00     0.065 H 
ATOM     26  H   LIG d   1       3.613  -2.919  -2.642  0.00  0.00     0.062 H 
BRANCH  21  27
ATOM     27  O   LIG d   1       4.754   1.245  -1.331  0.00  0.00    -0.507 OA
ATOM     28  H   LIG d   1       4.727   1.043  -0.386  0.00  0.00     0.292 HD
ENDBRANCH  21  27
ENDBRANCH  14  17
ENDBRANCH   1  14
BRANCH   1  29
ATOM     29  N   LIG d   1       3.915  -4.522  -6.107  0.00  0.00     0.229 N 
ATOM     30  H   LIG d   1       3.090  -4.699  -5.538  0.00  0.00     0.200 HD
ATOM     31  H   LIG d   1       3.669  -4.594  -7.093  0.00  0.00     0.200 HD
ATOM     32  H   LIG d   1       4.631  -5.225  -5.888  0.00  0.00     0.200 HD
ENDBRANCH   1  29
TORSDOF 8
ENDMDL
MODEL 4
REMARK VINA RESULT:      -4.9      1.960      2.530
REMARK  8 active torsions:
REMARK  status: ('A' for Active; 'I' for Inactive)
REMARK    1  A    between atoms: C_2  and  C_3 
REMARK    2  A    between atoms: C_3  and  O_4 
REMARK    3  A    between atoms: O_4  and  C_5 
REMARK    4  A    between atoms: C_5  and  C_7 
REMARK    5  A    between atoms: C_7  and  C_9 
REMARK    6  A    between atoms: C_7  and  N_31 
REMARK    7  A    between atoms: C_9  and  C_10 
REMARK    8  A    between atoms: C_13  and  O_16 
ROOT
ATOM      1  C   LIG d   1       3.468  -0.163  -6.014  0.00  0.00     0.078 C 
ATOM      2  H   LIG d   1       2.724  -0.959  -6.004  0.00  0.00     0.097 H 
ENDROOT
BRANCH   1   3
ATOM      3  C   LIG d   1       4.555  -0.478  -5.019  0.00  0.00     0.356 C 
ATOM      4  O   LIG d   1       5.615   0.097  -5.080  0.00  0.00    -0.244 OA
BRANCH   3   5
ATOM      5  O   LIG d   1       4.344  -1.397  -4.064  0.00  0.00    -0.457 OA
BRANCH   5   6
ATOM      6  C   LIG d   1       3.526  -0.998  -2.933  0.00  0.00     0.111 C 
ATOM      7  H   LIG d   1       2.806  -0.245  -3.253  0.00  0.00     0.074 H 
ATOM      8  H   LIG d   1       2.994  -1.867  -2.545  0.00  0.00     0.074 H 
BRANCH   6   9
ATOM      9  C   LIG d   1       4.406  -0.424  -1.853  0.00  0.00    -0.054 C 
ATOM     10  C   LIG d   1       4.478   0.873  -1.686  0.00  0.00    -0.100 C 
ATOM     11  H   LIG d   1       5.109   1.284  -0.913  0.00  0.00     0.053 H 
ATOM     12  H   LIG d   1       3.907   1.531  -2.324  0.00  0.00     0.053 H 
ATOM     13  H   LIG d   1       4.978  -1.083  -1.216  0.00  0.00     0.060 H 
ENDBRANCH   6   9
ENDBRANCH   5   6
ENDBRANCH   3   5
ENDBRANCH   1   3
BRANCH   1  14
ATOM     14  C   LIG d   1       4.076  -0.050  -7.414  0.00  0.00     0.026 C 
ATOM     15  H   LIG d   1       4.182   1.001  -7.680  0.00  0.00     0.037 H 
ATOM     16  H   LIG d   1       5.055  -0.528  -7.423  0.00  0.00     0.037 H 
BRANCH  14  17
ATOM     17  C   LIG d   1       3.173  -0.734  -8.409  0.00  0.00    -0.041 A 
ATOM     18  C   LIG d   1       2.196  -0.009  -9.064  0.00  0.00    -0.055 A 
ATOM     19  C   LIG d   1       1.367  -0.633  -9.977  0.00  0.00    -0.020 A 
ATOM     20  H   LIG d   1       2.078   1.045  -8.862  0.00  0.00     0.062 H 
ATOM     21  C   LIG d   1       1.518  -1.987 -10.236  0.00  0.00     0.117 A 
ATOM     22  H   LIG d   1       0.603  -0.067 -10.489  0.00  0.00     0.065 H 
ATOM     23  C   LIG d   1       2.501  -2.712  -9.578  0.00  0.00    -0.020 A 
ATOM     24  C   LIG d   1       3.330  -2.082  -8.670  0.00  0.00    -0.055 A 
ATOM     25  H   LIG d   1       2.620  -3.767  -9.778  0.00  0.00     0.065 H 
ATOM     26  H   LIG d   1       4.098  -2.645  -8.160  0.00  0.00     0.062 H 
BRANCH  21  27
ATOM     27  O   LIG d   1       0.705  -2.603 -11.134  0.00  0.00    -0.507 OA
ATOM     28  H   LIG d   1       0.906  -3.539 -11.272  0.00  0.00     0.292 HD
ENDBRANCH  21  27
ENDBRANCH  14  17
ENDBRANCH   1  14
BRANCH   1  29
ATOM     29  N   LIG d   1       2.812   1.112  -5.673  0.00  0.00     0.229 N 
ATOM     30  H   LIG d   1       2.062   1.307  -6.333  0.00  0.00     0.200 HD
ATOM     31  H   LIG d   1       2.430   1.068  -4.729  0.00  0.00     0.200 HD
ATOM     32  H   LIG d   1       3.504   1.869  -5.719  0.00  0.00     0.200 HD
ENDBRANCH   1  29
TORSDOF 8
ENDMDL
MODEL 5
REMARK VINA RESULT:      -4.8      2.744      5.402
REMARK  8 active torsions:
REMARK  status: ('A' for Active; 'I' for Inactive)
REMARK    1  A    between atoms: C_2  and  C_3 
REMARK    2  A    between atoms: C_3  and  O_4 
REMARK    3  A    between atoms: O_4  and  C_5 
REMARK    4  A    between atoms: C_5  and  C_7 
REMARK    5  A    between atoms: C_7  and  C_9 
REMARK    6  A    between atoms: C_7  and  N_31 
REMARK    7  A    between atoms: C_9  and  C_10 
REMARK    8  A    between atoms: C_13  and  O_16 
ROOT
ATOM      1  C   LIG d   1       4.200   0.271  -2.997  0.00  0.00     0.078 C 
ATOM      2  H   LIG d   1       5.098   0.537  -3.555  0.00  0.00     0.097 H 
ENDROOT
BRANCH   1   3
ATOM      3  C   LIG d   1       3.023   0.216  -3.937  0.00  0.00     0.356 C 
ATOM      4  O   LIG d   1       2.082  -0.498  -3.684  0.00  0.00    -0.244 OA
BRANCH   3   5
ATOM      5  O   LIG d   1       3.021   0.959  -5.054  0.00  0.00    -0.457 OA
BRANCH   5   6
ATOM      6  C   LIG d   1       2.905   0.253  -6.316  0.00  0.00     0.111 C 
ATOM      7  H   LIG d   1       2.110  -0.490  -6.246  0.00  0.00     0.074 H 
ATOM      8  H   LIG d   1       2.669   0.963  -7.110  0.00  0.00     0.074 H 
BRANCH   6   9
ATOM      9  C   LIG d   1       4.209  -0.435  -6.629  0.00  0.00    -0.054 C 
ATOM     10  C   LIG d   1       4.222  -1.493  -7.402  0.00  0.00    -0.100 C 
ATOM     11  H   LIG d   1       5.156  -1.987  -7.625  0.00  0.00     0.053 H 
ATOM     12  H   LIG d   1       3.299  -1.872  -7.814  0.00  0.00     0.053 H 
ATOM     13  H   LIG d   1       5.132  -0.056  -6.216  0.00  0.00     0.060 H 
ENDBRANCH   6   9
ENDBRANCH   5   6
ENDBRANCH   3   5
ENDBRANCH   1   3
BRANCH   1  14
ATOM     14  C   LIG d   1       4.393  -1.098  -2.341  0.00  0.00     0.026 C 
ATOM     15  H   LIG d   1       4.876  -0.972  -1.372  0.00  0.00     0.037 H 
ATOM     16  H   LIG d   1       3.423  -1.575  -2.205  0.00  0.00     0.037 H 
BRANCH  14  17
ATOM     17  C   LIG d   1       5.257  -1.961  -3.226  0.00  0.00    -0.041 A 
ATOM     18  C   LIG d   1       4.685  -2.981  -3.963  0.00  0.00    -0.055 A 
ATOM     19  C   LIG d   1       5.474  -3.774  -4.775  0.00  0.00    -0.020 A 
ATOM     20  H   LIG d   1       3.622  -3.160  -3.904  0.00  0.00     0.062 H 
ATOM     21  C   LIG d   1       6.839  -3.544  -4.851  0.00  0.00     0.117 A 
ATOM     22  H   LIG d   1       5.027  -4.571  -5.350  0.00  0.00     0.065 H 
ATOM     23  C   LIG d   1       7.410  -2.519  -4.111  0.00  0.00    -0.020 A 
ATOM     24  C   LIG d   1       6.617  -1.726  -3.304  0.00  0.00    -0.055 A 
ATOM     25  H   LIG d   1       8.473  -2.338  -4.167  0.00  0.00     0.065 H 
ATOM     26  H   LIG d   1       7.060  -0.925  -2.731  0.00  0.00     0.062 H 
BRANCH  21  27
ATOM     27  O   LIG d   1       7.617  -4.322  -5.649  0.00  0.00    -0.507 OA
ATOM     28  H   LIG d   1       7.370  -4.298  -6.583  0.00  0.00     0.292 HD
ENDBRANCH  21  27
ENDBRANCH  14  17
ENDBRANCH   1  14
BRANCH   1  29
ATOM     29  N   LIG d   1       3.972   1.277  -1.945  0.00  0.00     0.229 N 
ATOM     30  H   LIG d   1       3.186   1.873  -2.197  0.00  0.00     0.200 HD
ATOM     31  H   LIG d   1       3.778   0.817  -1.057  0.00  0.00     0.200 HD
ATOM     32  H   LIG d   1       4.813   1.857  -1.845  0.00  0.00     0.200 HD
ENDBRANCH   1  29
TORSDOF 8
ENDMDL
MODEL 6
REMARK VINA RESULT:      -4.8      1.940      2.542
REMARK  8 active torsions:
REMARK  status: ('A' for Active; 'I' for Inactive)
REMARK    1  A    between atoms: C_2  and  C_3 
REMARK    2  A    between atoms: C_3  and  O_4 
REMARK    3  A    between atoms: O_4  and  C_5 
REMARK    4  A    between atoms: C_5  and  C_7 
REMARK    5  A    between atoms: C_7  and  C_9 
REMARK    6  A    between atoms: C_7  and  N_31 
REMARK    7  A    between atoms: C_9  and  C_10 
REMARK    8  A    between atoms: C_13  and  O_16 
ROOT
ATOM      1  C   LIG d   1       4.709  -1.043  -5.494  0.00  0.00     0.078 C 
ATOM      2  H   LIG d   1       3.721  -0.591  -5.567  0.00  0.00     0.097 H 
ENDROOT
BRANCH   1   3
ATOM      3  C   LIG d   1       4.726  -2.034  -4.358  0.00  0.00     0.356 C 
ATOM      4  O   LIG d   1       4.248  -3.133  -4.508  0.00  0.00    -0.244 OA
BRANCH   3   5
ATOM      5  O   LIG d   1       5.272  -1.695  -3.180  0.00  0.00    -0.457 OA
BRANCH   5   6
ATOM      6  C   LIG d   1       4.363  -1.491  -2.066  0.00  0.00     0.111 C 
ATOM      7  H   LIG d   1       3.532  -2.193  -2.141  0.00  0.00     0.074 H 
ATOM      8  H   LIG d   1       4.895  -1.657  -1.129  0.00  0.00     0.074 H 
BRANCH   6   9
ATOM      9  C   LIG d   1       3.833  -0.081  -2.100  0.00  0.00    -0.054 C 
ATOM     10  C   LIG d   1       4.599   0.916  -1.730  0.00  0.00    -0.100 C 
ATOM     11  H   LIG d   1       4.219   1.926  -1.753  0.00  0.00     0.053 H 
ATOM     12  H   LIG d   1       5.609   0.726  -1.400  0.00  0.00     0.053 H 
ATOM     13  H   LIG d   1       2.822   0.108  -2.429  0.00  0.00     0.060 H 
ENDBRANCH   6   9
ENDBRANCH   5   6
ENDBRANCH   3   5
ENDBRANCH   1   3
BRANCH   1  14
ATOM     14  C   LIG d   1       5.040  -1.764  -6.803  0.00  0.00     0.026 C 
ATOM     15  H   LIG d   1       5.961  -1.358  -7.219  0.00  0.00     0.037 H 
ATOM     16  H   LIG d   1       5.167  -2.829  -6.609  0.00  0.00     0.037 H 
BRANCH  14  17
ATOM     17  C   LIG d   1       3.912  -1.564  -7.784  0.00  0.00    -0.041 A 
ATOM     18  C   LIG d   1       3.220  -0.367  -7.802  0.00  0.00    -0.055 A 
ATOM     19  C   LIG d   1       2.186  -0.180  -8.700  0.00  0.00    -0.020 A 
ATOM     20  H   LIG d   1       3.485   0.422  -7.115  0.00  0.00     0.062 H 
ATOM     21  C   LIG d   1       1.845  -1.194  -9.583  0.00  0.00     0.117 A 
ATOM     22  H   LIG d   1       1.645   0.754  -8.714  0.00  0.00     0.065 H 
ATOM     23  C   LIG d   1       2.543  -2.393  -9.563  0.00  0.00    -0.020 A 
ATOM     24  C   LIG d   1       3.578  -2.573  -8.667  0.00  0.00    -0.055 A 
ATOM     25  H   LIG d   1       2.279  -3.184 -10.249  0.00  0.00     0.065 H 
ATOM     26  H   LIG d   1       4.125  -3.505  -8.653  0.00  0.00     0.062 H 
BRANCH  21  27
ATOM     27  O   LIG d   1       0.830  -1.012 -10.468  0.00  0.00    -0.507 OA
ATOM     28  H   LIG d   1       0.100  -1.639 -10.365  0.00  0.00     0.292 HD
ENDBRANCH  21  27
ENDBRANCH  14  17
ENDBRANCH   1  14
BRANCH   1  29
ATOM     29  N   LIG d   1       5.708   0.017  -5.266  0.00  0.00     0.229 N 
ATOM     30  H   LIG d   1       5.258   0.840  -4.872  0.00  0.00     0.200 HD
ATOM     31  H   LIG d   1       6.430  -0.314  -4.628  0.00  0.00     0.200 HD
ATOM     32  H   LIG d   1       6.142   0.268  -6.162  0.00  0.00     0.200 HD
ENDBRANCH   1  29
TORSDOF 8
ENDMDL
MODEL 7
REMARK VINA RESULT:      -4.7      3.179      6.004
REMARK  8 active torsions:
REMARK  status: ('A' for Active; 'I' for Inactive)
REMARK    1  A    between atoms: C_2  and  C_3 
REMARK    2  A    between atoms: C_3  and  O_4 
REMARK    3  A    between atoms: O_4  and  C_5 
REMARK    4  A    between atoms: C_5  and  C_7 
REMARK    5  A    between atoms: C_7  and  C_9 
REMARK    6  A    between atoms: C_7  and  N_31 
REMARK    7  A    between atoms: C_9  and  C_10 
REMARK    8  A    between atoms: C_13  and  O_16 
ROOT
ATOM      1  C   LIG d   1       8.367   0.954  -4.573  0.00  0.00     0.078 C 
ATOM      2  H   LIG d   1       8.242  -0.128  -4.582  0.00  0.00     0.097 H 
ENDROOT
BRANCH   1   3
ATOM      3  C   LIG d   1       8.199   1.491  -5.971  0.00  0.00     0.356 C 
ATOM      4  O   LIG d   1       9.112   2.071  -6.509  0.00  0.00    -0.244 OA
BRANCH   3   5
ATOM      5  O   LIG d   1       7.035   1.325  -6.619  0.00  0.00    -0.457 OA
BRANCH   5   6
ATOM      6  C   LIG d   1       6.669  -0.032  -6.981  0.00  0.00     0.111 C 
ATOM      7  H   LIG d   1       7.199  -0.322  -7.888  0.00  0.00     0.074 H 
ATOM      8  H   LIG d   1       6.941  -0.710  -6.170  0.00  0.00     0.074 H 
BRANCH   6   9
ATOM      9  C   LIG d   1       5.184  -0.106  -7.222  0.00  0.00    -0.054 C 
ATOM     10  C   LIG d   1       4.403  -0.668  -6.333  0.00  0.00    -0.100 C 
ATOM     11  H   LIG d   1       3.339  -0.722  -6.506  0.00  0.00     0.053 H 
ATOM     12  H   LIG d   1       4.825  -1.078  -5.428  0.00  0.00     0.053 H 
ATOM     13  H   LIG d   1       4.763   0.304  -8.128  0.00  0.00     0.060 H 
ENDBRANCH   6   9
ENDBRANCH   5   6
ENDBRANCH   3   5
ENDBRANCH   1   3
BRANCH   1  14
ATOM     14  C   LIG d   1       7.315   1.582  -3.657  0.00  0.00     0.026 C 
ATOM     15  H   LIG d   1       7.802   2.002  -2.777  0.00  0.00     0.037 H 
ATOM     16  H   LIG d   1       6.790   2.372  -4.194  0.00  0.00     0.037 H 
BRANCH  14  17
ATOM     17  C   LIG d   1       6.327   0.526  -3.229  0.00  0.00    -0.041 A 
ATOM     18  C   LIG d   1       5.123   0.898  -2.661  0.00  0.00    -0.055 A 
ATOM     19  C   LIG d   1       4.216  -0.068  -2.267  0.00  0.00    -0.020 A 
ATOM     20  H   LIG d   1       4.891   1.943  -2.522  0.00  0.00     0.062 H 
ATOM     21  C   LIG d   1       4.515  -1.411  -2.445  0.00  0.00     0.117 A 
ATOM     22  H   LIG d   1       3.276   0.223  -1.823  0.00  0.00     0.065 H 
ATOM     23  C   LIG d   1       5.724  -1.781  -3.017  0.00  0.00    -0.020 A 
ATOM     24  C   LIG d   1       6.625  -0.812  -3.412  0.00  0.00    -0.055 A 
ATOM     25  H   LIG d   1       5.959  -2.826  -3.156  0.00  0.00     0.065 H 
ATOM     26  H   LIG d   1       7.564  -1.099  -3.862  0.00  0.00     0.062 H 
BRANCH  21  27
ATOM     27  O   LIG d   1       3.625  -2.362  -2.060  0.00  0.00    -0.507 OA
ATOM     28  H   LIG d   1       4.019  -3.230  -1.901  0.00  0.00     0.292 HD
ENDBRANCH  21  27
ENDBRANCH  14  17
ENDBRANCH   1  14
BRANCH   1  29
ATOM     29  N   LIG d   1       9.708   1.280  -4.055  0.00  0.00     0.229 N 
ATOM     30  H   LIG d   1       9.727   2.239  -3.713  0.00  0.00     0.200 HD
ATOM     31  H   LIG d   1       9.954   0.644  -3.297  0.00  0.00     0.200 HD
ATOM     32  H   LIG d   1      10.395   1.180  -4.812  0.00  0.00     0.200 HD
ENDBRANCH   1  29
TORSDOF 8
ENDMDL
MODEL 8
REMARK VINA RESULT:      -4.5     10.692     12.246
REMARK  8 active torsions:
REMARK  status: ('A' for Active; 'I' for Inactive)
REMARK    1  A    between atoms: C_2  and  C_3 
REMARK    2  A    between atoms: C_3  and  O_4 
REMARK    3  A    between atoms: O_4  and  C_5 
REMARK    4  A    between atoms: C_5  and  C_7 
REMARK    5  A    between atoms: C_7  and  C_9 
REMARK    6  A    between atoms: C_7  and  N_31 
REMARK    7  A    between atoms: C_9  and  C_10 
REMARK    8  A    between atoms: C_13  and  O_16 
ROOT
ATOM      1  C   LIG d   1      11.290   5.961  -0.820  0.00  0.00     0.078 C 
ATOM      2  H   LIG d   1      12.060   6.496  -1.375  0.00  0.00     0.097 H 
ENDROOT
BRANCH   1   3
ATOM      3  C   LIG d   1      11.336   6.373   0.629  0.00  0.00     0.356 C 
ATOM      4  O   LIG d   1      10.640   5.809   1.439  0.00  0.00    -0.244 OA
BRANCH   3   5
ATOM      5  O   LIG d   1      12.151   7.365   1.018  0.00  0.00    -0.457 OA
BRANCH   5   6
ATOM      6  C   LIG d   1      11.533   8.517   1.650  0.00  0.00     0.111 C 
ATOM      7  H   LIG d   1      10.449   8.435   1.573  0.00  0.00     0.074 H 
ATOM      8  H   LIG d   1      11.821   8.553   2.701  0.00  0.00     0.074 H 
BRANCH   6   9
ATOM      9  C   LIG d   1      11.992   9.776   0.960  0.00  0.00    -0.054 C 
ATOM     10  C   LIG d   1      11.515  10.938   1.332  0.00  0.00    -0.100 C 
ATOM     11  H   LIG d   1      11.842  11.839   0.837  0.00  0.00     0.053 H 
ATOM     12  H   LIG d   1      10.792  10.993   2.132  0.00  0.00     0.053 H 
ATOM     13  H   LIG d   1      12.714   9.719   0.159  0.00  0.00     0.060 H 
ENDBRANCH   6   9
ENDBRANCH   5   6
ENDBRANCH   3   5
ENDBRANCH   1   3
BRANCH   1  14
ATOM     14  C   LIG d   1       9.915   6.296  -1.402  0.00  0.00     0.026 C 
ATOM     15  H   LIG d   1       9.814   5.836  -2.385  0.00  0.00     0.037 H 
ATOM     16  H   LIG d   1       9.138   5.912  -0.740  0.00  0.00     0.037 H 
BRANCH  14  17
ATOM     17  C   LIG d   1       9.775   7.791  -1.527  0.00  0.00    -0.041 A 
ATOM     18  C   LIG d   1       8.792   8.453  -0.814  0.00  0.00    -0.055 A 
ATOM     19  C   LIG d   1       8.661   9.824  -0.927  0.00  0.00    -0.020 A 
ATOM     20  H   LIG d   1       8.127   7.899  -0.169  0.00  0.00     0.062 H 
ATOM     21  C   LIG d   1       9.516  10.535  -1.755  0.00  0.00     0.117 A 
ATOM     22  H   LIG d   1       7.893  10.341  -0.370  0.00  0.00     0.065 H 
ATOM     23  C   LIG d   1      10.501   9.869  -2.469  0.00  0.00    -0.020 A 
ATOM     24  C   LIG d   1      10.631   8.499  -2.349  0.00  0.00    -0.055 A 
ATOM     25  H   LIG d   1      11.168  10.420  -3.115  0.00  0.00     0.065 H 
ATOM     26  H   LIG d   1      11.401   7.979  -2.901  0.00  0.00     0.062 H 
BRANCH  21  27
ATOM     27  O   LIG d   1       9.389  11.884  -1.867  0.00  0.00    -0.507 OA
ATOM     28  H   LIG d   1       9.605  12.229  -2.744  0.00  0.00     0.292 HD
ENDBRANCH  21  27
ENDBRANCH  14  17
ENDBRANCH   1  14
BRANCH   1  29
ATOM     29  N   LIG d   1      11.524   4.511  -0.950  0.00  0.00     0.229 N 
ATOM     30  H   LIG d   1      12.350   4.242  -0.419  0.00  0.00     0.200 HD
ATOM     31  H   LIG d   1      10.717   3.994  -0.606  0.00  0.00     0.200 HD
ATOM     32  H   LIG d   1      11.673   4.281  -1.940  0.00  0.00     0.200 HD
ENDBRANCH   1  29
TORSDOF 8
ENDMDL
MODEL 9
REMARK VINA RESULT:      -4.4      3.651      6.267
REMARK  8 active torsions:
REMARK  status: ('A' for Active; 'I' for Inactive)
REMARK    1  A    between atoms: C_2  and  C_3 
REMARK    2  A    between atoms: C_3  and  O_4 
REMARK    3  A    between atoms: O_4  and  C_5 
REMARK    4  A    between atoms: C_5  and  C_7 
REMARK    5  A    between atoms: C_7  and  C_9 
REMARK    6  A    between atoms: C_7  and  N_31 
REMARK    7  A    between atoms: C_9  and  C_10 
REMARK    8  A    between atoms: C_13  and  O_16 
ROOT
ATOM      1  C   LIG d   1       4.590  -3.460  -6.055  0.00  0.00     0.078 C 
ATOM      2  H   LIG d   1       4.213  -2.472  -6.318  0.00  0.00     0.097 H 
ENDROOT
BRANCH   1   3
ATOM      3  C   LIG d   1       5.808  -3.771  -6.885  0.00  0.00     0.356 C 
ATOM      4  O   LIG d   1       5.879  -3.378  -8.025  0.00  0.00    -0.244 OA
BRANCH   3   5
ATOM      5  O   LIG d   1       6.816  -4.483  -6.357  0.00  0.00    -0.457 OA
BRANCH   5   6
ATOM      6  C   LIG d   1       6.904  -5.882  -6.736  0.00  0.00     0.111 C 
ATOM      7  H   LIG d   1       6.200  -6.085  -7.543  0.00  0.00     0.074 H 
ATOM      8  H   LIG d   1       7.917  -6.103  -7.074  0.00  0.00     0.074 H 
BRANCH   6   9
ATOM      9  C   LIG d   1       6.571  -6.747  -5.549  0.00  0.00    -0.054 C 
ATOM     10  C   LIG d   1       5.404  -7.336  -5.474  0.00  0.00    -0.100 C 
ATOM     11  H   LIG d   1       5.165  -7.956  -4.623  0.00  0.00     0.053 H 
ATOM     12  H   LIG d   1       4.680  -7.201  -6.263  0.00  0.00     0.053 H 
ATOM     13  H   LIG d   1       7.296  -6.882  -4.759  0.00  0.00     0.060 H 
ENDBRANCH   6   9
ENDBRANCH   5   6
ENDBRANCH   3   5
ENDBRANCH   1   3
BRANCH   1  14
ATOM     14  C   LIG d   1       4.963  -3.485  -4.571  0.00  0.00     0.026 C 
ATOM     15  H   LIG d   1       4.466  -4.325  -4.085  0.00  0.00     0.037 H 
ATOM     16  H   LIG d   1       6.043  -3.595  -4.471  0.00  0.00     0.037 H 
BRANCH  14  17
ATOM     17  C   LIG d   1       4.527  -2.197  -3.922  0.00  0.00    -0.041 A 
ATOM     18  C   LIG d   1       4.130  -1.130  -4.707  0.00  0.00    -0.055 A 
ATOM     19  C   LIG d   1       3.730   0.053  -4.114  0.00  0.00    -0.020 A 
ATOM     20  H   LIG d   1       4.134  -1.219  -5.783  0.00  0.00     0.062 H 
ATOM     21  C   LIG d   1       3.725   0.168  -2.732  0.00  0.00     0.117 A 
ATOM     22  H   LIG d   1       3.420   0.887  -4.727  0.00  0.00     0.065 H 
ATOM     23  C   LIG d   1       4.122  -0.905  -1.947  0.00  0.00    -0.020 A 
ATOM     24  C   LIG d   1       4.517  -2.086  -2.544  0.00  0.00    -0.055 A 
ATOM     25  H   LIG d   1       4.120  -0.818  -0.871  0.00  0.00     0.065 H 
ATOM     26  H   LIG d   1       4.823  -2.924  -1.934  0.00  0.00     0.062 H 
BRANCH  21  27
ATOM     27  O   LIG d   1       3.330   1.329  -2.147  0.00  0.00    -0.507 OA
ATOM     28  H   LIG d   1       2.595   1.229  -1.527  0.00  0.00     0.292 HD
ENDBRANCH  21  27
ENDBRANCH  14  17
ENDBRANCH   1  14
BRANCH   1  29
ATOM     29  N   LIG d   1       3.533  -4.458  -6.299  0.00  0.00     0.229 N 
ATOM     30  H   LIG d   1       3.335  -4.973  -5.443  0.00  0.00     0.200 HD
ATOM     31  H   LIG d   1       2.684  -3.997  -6.622  0.00  0.00     0.200 HD
ATOM     32  H   LIG d   1       3.851  -5.116  -7.020  0.00  0.00     0.200 HD
ENDBRANCH   1  29
TORSDOF 8
ENDMDL
MODEL 10
REMARK VINA RESULT:      -4.3     10.050     12.384
REMARK  8 active torsions:
REMARK  status: ('A' for Active; 'I' for Inactive)
REMARK    1  A    between atoms: C_2  and  C_3 
REMARK    2  A    between atoms: C_3  and  O_4 
REMARK    3  A    between atoms: O_4  and  C_5 
REMARK    4  A    between atoms: C_5  and  C_7 
REMARK    5  A    between atoms: C_7  and  C_9 
REMARK    6  A    between atoms: C_7  and  N_31 
REMARK    7  A    between atoms: C_9  and  C_10 
REMARK    8  A    between atoms: C_13  and  O_16 
ROOT
ATOM      1  C   LIG d   1       9.863  10.594  -1.491  0.00  0.00     0.078 C 
ATOM      2  H   LIG d   1      10.880  10.202  -1.498  0.00  0.00     0.097 H 
ENDROOT
BRANCH   1   3
ATOM      3  C   LIG d   1       9.434  10.903  -2.902  0.00  0.00     0.356 C 
ATOM      4  O   LIG d   1       8.400  11.495  -3.103  0.00  0.00    -0.244 OA
BRANCH   3   5
ATOM      5  O   LIG d   1      10.200  10.521  -3.936  0.00  0.00    -0.457 OA
BRANCH   5   6
ATOM      6  C   LIG d   1       9.523   9.926  -5.074  0.00  0.00     0.111 C 
ATOM      7  H   LIG d   1       8.452   9.875  -4.875  0.00  0.00     0.074 H 
ATOM      8  H   LIG d   1       9.698  10.536  -5.960  0.00  0.00     0.074 H 
BRANCH   6   9
ATOM      9  C   LIG d   1      10.057   8.536  -5.307  0.00  0.00    -0.054 C 
ATOM     10  C   LIG d   1       9.229   7.538  -5.489  0.00  0.00    -0.100 C 
ATOM     11  H   LIG d   1       9.612   6.542  -5.655  0.00  0.00     0.053 H 
ATOM     12  H   LIG d   1       8.163   7.711  -5.472  0.00  0.00     0.053 H 
ATOM     13  H   LIG d   1      11.123   8.364  -5.323  0.00  0.00     0.060 H 
ENDBRANCH   6   9
ENDBRANCH   5   6
ENDBRANCH   3   5
ENDBRANCH   1   3
BRANCH   1  14
ATOM     14  C   LIG d   1       8.918   9.554  -0.887  0.00  0.00     0.026 C 
ATOM     15  H   LIG d   1       8.629   9.864   0.117  0.00  0.00     0.037 H 
ATOM     16  H   LIG d   1       8.028   9.466  -1.510  0.00  0.00     0.037 H 
BRANCH  14  17
ATOM     17  C   LIG d   1       9.617   8.220  -0.820  0.00  0.00    -0.041 A 
ATOM     18  C   LIG d   1      10.517   7.965   0.198  0.00  0.00    -0.055 A 
ATOM     19  C   LIG d   1      11.161   6.743   0.262  0.00  0.00    -0.020 A 
ATOM     20  H   LIG d   1      10.720   8.719   0.943  0.00  0.00     0.062 H 
ATOM     21  C   LIG d   1      10.901   5.773  -0.695  0.00  0.00     0.117 A 
ATOM     22  H   LIG d   1      11.864   6.543   1.056  0.00  0.00     0.065 H 
ATOM     23  C   LIG d   1       9.996   6.032  -1.715  0.00  0.00    -0.020 A 
ATOM     24  C   LIG d   1       9.353   7.253  -1.772  0.00  0.00    -0.055 A 
ATOM     25  H   LIG d   1       9.792   5.279  -2.462  0.00  0.00     0.065 H 
ATOM     26  H   LIG d   1       8.645   7.454  -2.563  0.00  0.00     0.062 H 
BRANCH  21  27
ATOM     27  O   LIG d   1      11.531   4.571  -0.634  0.00  0.00    -0.507 OA
ATOM     28  H   LIG d   1      10.991   3.861  -0.261  0.00  0.00     0.292 HD
ENDBRANCH  21  27
ENDBRANCH  14  17
ENDBRANCH   1  14
BRANCH   1  29
ATOM     29  N   LIG d   1       9.824  11.813  -0.663  0.00  0.00     0.229 N 
ATOM     30  H   LIG d   1       9.033  11.776  -0.024  0.00  0.00     0.200 HD
ATOM     31  H   LIG d   1      10.688  11.902  -0.130  0.00  0.00     0.200 HD
ATOM     32  H   LIG d   1       9.723  12.632  -1.274  0.00  0.00     0.200 HD
ENDBRANCH   1  29
TORSDOF 8
ENDMDL
