MODEL 1
REMARK VINA RESULT:      -8.1      0.000      0.000
REMARK  7 active torsions:
REMARK  status: ('A' for Active; 'I' for Inactive)
REMARK    1  A    between atoms: C_4  and  C_7 
REMARK    2  A    between atoms: C_7  and  C_8 
REMARK    3  A    between atoms: C_8  and  C_9 
REMARK    4  A    between atoms: C_9  and  N_10 
REMARK    5  A    between atoms: C_19  and  C_21 
REMARK    6  A    between atoms: C_23  and  C_26 
REMARK    7  A    between atoms: C_26  and  C_27 
ROOT
ATOM      1  N   LIG d   1       3.120   0.602  -8.738  0.00  0.00    -0.283 N 
ATOM      2  C   LIG d   1       2.032  -0.390  -8.743  0.00  0.00     0.065 C 
ATOM      3  C   LIG d   1       1.796  -0.827 -10.168  0.00  0.00     0.159 A 
ATOM      4  C   LIG d   1       2.683  -0.613 -11.167  0.00  0.00     0.148 A 
ATOM      5  N   LIG d   1       2.143  -1.132 -12.300  0.00  0.00    -0.247 N 
ATOM      6  H   LIG d   1       2.544  -1.129 -13.183  0.00  0.00     0.310 HD
ATOM      7  C   LIG d   1       0.939  -1.652 -11.962  0.00  0.00     0.243 A 
ATOM      8  N   LIG d   1       0.744  -1.464 -10.683  0.00  0.00    -0.246 N 
ATOM      9  C   LIG d   1       4.007   0.080 -10.969  0.00  0.00     0.037 C 
ATOM     10  C   LIG d   1       4.301   0.110  -9.462  0.00  0.00     0.098 C 
ATOM     11  H   LIG d   1       4.543  -0.896  -9.120  0.00  0.00     0.057 H 
ATOM     12  H   LIG d   1       2.316  -1.250  -8.138  0.00  0.00     0.051 H 
ATOM     13  H   LIG d   1       1.125   0.059  -8.342  0.00  0.00     0.051 H 
ATOM     14  H   LIG d   1       0.255  -2.142 -12.638  0.00  0.00     0.158 H 
ATOM     15  H   LIG d   1       4.791  -0.470 -11.488  0.00  0.00     0.037 H 
ATOM     16  H   LIG d   1       3.951   1.098 -11.355  0.00  0.00     0.037 H 
ATOM     17  H   LIG d   1      -0.042  -1.743 -10.187  0.00  0.00     0.310 HD
ENDROOT
BRANCH   1  18
ATOM     18  C   LIG d   1       3.470   0.994  -7.367  0.00  0.00     0.000 C 
ATOM     19  H   LIG d   1       3.014   1.957  -7.137  0.00  0.00     0.043 H 
ATOM     20  H   LIG d   1       4.553   1.072  -7.276  0.00  0.00     0.043 H 
BRANCH  18  21
ATOM     21  C   LIG d   1       2.950  -0.062  -6.388  0.00  0.00    -0.036 C 
ATOM     22  H   LIG d   1       3.776  -0.695  -6.065  0.00  0.00     0.028 H 
ATOM     23  H   LIG d   1       2.195  -0.674  -6.881  0.00  0.00     0.028 H 
BRANCH  21  24
ATOM     24  C   LIG d   1       2.333   0.631  -5.171  0.00  0.00    -0.026 C 
ATOM     25  H   LIG d   1       1.287   0.336  -5.077  0.00  0.00     0.031 H 
ATOM     26  H   LIG d   1       2.397   1.711  -5.297  0.00  0.00     0.031 H 
BRANCH  24  27
ATOM     27  C   LIG d   1       3.082   0.225  -3.928  0.00  0.00    -0.047 A 
ATOM     28  C   LIG d   1       3.175  -1.110  -3.581  0.00  0.00    -0.059 A 
ATOM     29  C   LIG d   1       3.864  -1.483  -2.443  0.00  0.00    -0.061 A 
ATOM     30  H   LIG d   1       2.709  -1.862  -4.201  0.00  0.00     0.062 H 
ATOM     31  C   LIG d   1       4.461  -0.519  -1.650  0.00  0.00    -0.062 A 
ATOM     32  H   LIG d   1       3.936  -2.525  -2.171  0.00  0.00     0.062 H 
ATOM     33  C   LIG d   1       4.369   0.816  -1.998  0.00  0.00    -0.061 A 
ATOM     34  H   LIG d   1       4.995  -0.809  -0.758  0.00  0.00     0.062 H 
ATOM     35  C   LIG d   1       3.679   1.188  -3.136  0.00  0.00    -0.059 A 
ATOM     36  H   LIG d   1       4.836   1.568  -1.379  0.00  0.00     0.062 H 
ATOM     37  H   LIG d   1       3.607   2.231  -3.407  0.00  0.00     0.062 H 
ENDBRANCH  24  27
ENDBRANCH  21  24
ENDBRANCH  18  21
ENDBRANCH   1  18
BRANCH  10  38
ATOM     38  C   LIG d   1       5.470   1.024  -9.198  0.00  0.00     0.245 A 
ATOM     39  O   LIG d   1       5.543   2.320  -9.531  0.00  0.00    -0.336 OA
ATOM     40  N   LIG d   1       6.813   2.772  -9.086  0.00  0.00    -0.061 NA
ATOM     41  C   LIG d   1       7.401   1.747  -8.541  0.00  0.00     0.176 A 
ATOM     42  N   LIG d   1       6.584   0.690  -8.610  0.00  0.00    -0.194 NA
BRANCH  41  43
ATOM     43  C   LIG d   1       8.779   1.750  -7.930  0.00  0.00     0.036 C 
ATOM     44  H   LIG d   1       9.254   0.782  -8.096  0.00  0.00     0.039 H 
ATOM     45  H   LIG d   1       9.380   2.533  -8.392  0.00  0.00     0.039 H 
BRANCH  43  46
ATOM     46  C   LIG d   1       8.671   2.008  -6.448  0.00  0.00    -0.040 A 
ATOM     47  C   LIG d   1       9.307   3.102  -5.890  0.00  0.00    -0.058 A 
ATOM     48  C   LIG d   1       9.205   3.341  -4.532  0.00  0.00    -0.061 A 
ATOM     49  H   LIG d   1       9.880   3.771  -6.515  0.00  0.00     0.062 H 
ATOM     50  C   LIG d   1       8.475   2.482  -3.732  0.00  0.00    -0.062 A 
ATOM     51  H   LIG d   1       9.698   4.198  -4.097  0.00  0.00     0.062 H 
ATOM     52  C   LIG d   1       7.844   1.386  -4.290  0.00  0.00    -0.061 A 
ATOM     53  H   LIG d   1       8.398   2.668  -2.672  0.00  0.00     0.062 H 
ATOM     54  C   LIG d   1       7.943   1.150  -5.648  0.00  0.00    -0.058 A 
ATOM     55  H   LIG d   1       7.274   0.715  -3.664  0.00  0.00     0.062 H 
ATOM     56  H   LIG d   1       7.450   0.293  -6.084  0.00  0.00     0.062 H 
ENDBRANCH  43  46
ENDBRANCH  41  43
ENDBRANCH  10  38
TORSDOF 7
ENDMDL
MODEL 2
REMARK VINA RESULT:      -8.1      3.936      7.665
REMARK  7 active torsions:
REMARK  status: ('A' for Active; 'I' for Inactive)
REMARK    1  A    between atoms: C_4  and  C_7 
REMARK    2  A    between atoms: C_7  and  C_8 
REMARK    3  A    between atoms: C_8  and  C_9 
REMARK    4  A    between atoms: C_9  and  N_10 
REMARK    5  A    between atoms: C_19  and  C_21 
REMARK    6  A    between atoms: C_23  and  C_26 
REMARK    7  A    between atoms: C_26  and  C_27 
ROOT
ATOM      1  N   LIG d   1       8.085  -1.907  -6.078  0.00  0.00    -0.283 N 
ATOM      2  C   LIG d   1       9.376  -1.849  -6.785  0.00  0.00     0.065 C 
ATOM      3  C   LIG d   1      10.475  -2.125  -5.790  0.00  0.00     0.159 A 
ATOM      4  C   LIG d   1      10.256  -2.686  -4.579  0.00  0.00     0.148 A 
ATOM      5  N   LIG d   1      11.460  -2.780  -3.957  0.00  0.00    -0.247 N 
ATOM      6  H   LIG d   1      11.625  -3.140  -3.072  0.00  0.00     0.310 HD
ATOM      7  C   LIG d   1      12.385  -2.274  -4.807  0.00  0.00     0.243 A 
ATOM      8  N   LIG d   1      11.783  -1.886  -5.901  0.00  0.00    -0.246 N 
ATOM      9  C   LIG d   1       8.892  -3.103  -4.090  0.00  0.00     0.037 C 
ATOM     10  C   LIG d   1       7.952  -3.149  -5.303  0.00  0.00     0.098 C 
ATOM     11  H   LIG d   1       8.214  -4.000  -5.933  0.00  0.00     0.057 H 
ATOM     12  H   LIG d   1       9.397  -2.601  -7.573  0.00  0.00     0.051 H 
ATOM     13  H   LIG d   1       9.512  -0.858  -7.218  0.00  0.00     0.051 H 
ATOM     14  H   LIG d   1      13.444  -2.204  -4.613  0.00  0.00     0.158 H 
ATOM     15  H   LIG d   1       8.952  -4.090  -3.631  0.00  0.00     0.037 H 
ATOM     16  H   LIG d   1       8.523  -2.379  -3.364  0.00  0.00     0.037 H 
ATOM     17  H   LIG d   1      12.218  -1.488  -6.671  0.00  0.00     0.310 HD
ENDROOT
BRANCH   1  18
ATOM     18  C   LIG d   1       6.964  -1.748  -7.013  0.00  0.00     0.000 C 
ATOM     19  H   LIG d   1       6.314  -2.621  -6.953  0.00  0.00     0.043 H 
ATOM     20  H   LIG d   1       7.349  -1.650  -8.028  0.00  0.00     0.043 H 
BRANCH  18  21
ATOM     21  C   LIG d   1       6.168  -0.493  -6.646  0.00  0.00    -0.036 C 
ATOM     22  H   LIG d   1       6.558   0.359  -7.201  0.00  0.00     0.028 H 
ATOM     23  H   LIG d   1       6.262  -0.304  -5.576  0.00  0.00     0.028 H 
BRANCH  21  24
ATOM     24  C   LIG d   1       4.695  -0.703  -7.000  0.00  0.00    -0.026 C 
ATOM     25  H   LIG d   1       4.089  -0.621  -6.098  0.00  0.00     0.031 H 
ATOM     26  H   LIG d   1       4.564  -1.692  -7.438  0.00  0.00     0.031 H 
BRANCH  24  27
ATOM     27  C   LIG d   1       4.263   0.346  -7.993  0.00  0.00    -0.047 A 
ATOM     28  C   LIG d   1       4.979   0.529  -9.161  0.00  0.00    -0.059 A 
ATOM     29  C   LIG d   1       4.583   1.490 -10.072  0.00  0.00    -0.061 A 
ATOM     30  H   LIG d   1       5.848  -0.081  -9.362  0.00  0.00     0.062 H 
ATOM     31  C   LIG d   1       3.470   2.269  -9.814  0.00  0.00    -0.062 A 
ATOM     32  H   LIG d   1       5.142   1.633 -10.984  0.00  0.00     0.062 H 
ATOM     33  C   LIG d   1       2.754   2.086  -8.646  0.00  0.00    -0.061 A 
ATOM     34  H   LIG d   1       3.163   3.022 -10.523  0.00  0.00     0.062 H 
ATOM     35  C   LIG d   1       3.150   1.125  -7.735  0.00  0.00    -0.059 A 
ATOM     36  H   LIG d   1       1.884   2.694  -8.445  0.00  0.00     0.062 H 
ATOM     37  H   LIG d   1       2.591   0.982  -6.822  0.00  0.00     0.062 H 
ENDBRANCH  24  27
ENDBRANCH  21  24
ENDBRANCH  18  21
ENDBRANCH   1  18
BRANCH  10  38
ATOM     38  C   LIG d   1       6.529  -3.296  -4.829  0.00  0.00     0.245 A 
ATOM     39  O   LIG d   1       5.608  -4.114  -5.354  0.00  0.00    -0.336 OA
ATOM     40  N   LIG d   1       4.425  -3.921  -4.594  0.00  0.00    -0.061 NA
ATOM     41  C   LIG d   1       4.706  -3.020  -3.696  0.00  0.00     0.176 A 
ATOM     42  N   LIG d   1       5.981  -2.644  -3.842  0.00  0.00    -0.194 NA
BRANCH  41  43
ATOM     43  C   LIG d   1       3.748  -2.488  -2.661  0.00  0.00     0.036 C 
ATOM     44  H   LIG d   1       2.746  -2.866  -2.863  0.00  0.00     0.039 H 
ATOM     45  H   LIG d   1       4.067  -2.814  -1.670  0.00  0.00     0.039 H 
BRANCH  43  46
ATOM     46  C   LIG d   1       3.737  -0.982  -2.714  0.00  0.00    -0.040 A 
ATOM     47  C   LIG d   1       3.065  -0.332  -3.732  0.00  0.00    -0.058 A 
ATOM     48  C   LIG d   1       3.050   1.050  -3.779  0.00  0.00    -0.061 A 
ATOM     49  H   LIG d   1       2.548  -0.903  -4.490  0.00  0.00     0.062 H 
ATOM     50  C   LIG d   1       3.715   1.781  -2.812  0.00  0.00    -0.062 A 
ATOM     51  H   LIG d   1       2.521   1.557  -4.572  0.00  0.00     0.062 H 
ATOM     52  C   LIG d   1       4.391   1.130  -1.797  0.00  0.00    -0.061 A 
ATOM     53  H   LIG d   1       3.705   2.859  -2.850  0.00  0.00     0.062 H 
ATOM     54  C   LIG d   1       4.402  -0.251  -1.748  0.00  0.00    -0.058 A 
ATOM     55  H   LIG d   1       4.910   1.702  -1.041  0.00  0.00     0.062 H 
ATOM     56  H   LIG d   1       4.930  -0.759  -0.954  0.00  0.00     0.062 H 
ENDBRANCH  43  46
ENDBRANCH  41  43
ENDBRANCH  10  38
TORSDOF 7
ENDMDL
MODEL 3
REMARK VINA RESULT:      -8.0      2.207      4.376
REMARK  7 active torsions:
REMARK  status: ('A' for Active; 'I' for Inactive)
REMARK    1  A    between atoms: C_4  and  C_7 
REMARK    2  A    between atoms: C_7  and  C_8 
REMARK    3  A    between atoms: C_8  and  C_9 
REMARK    4  A    between atoms: C_9  and  N_10 
REMARK    5  A    between atoms: C_19  and  C_21 
REMARK    6  A    between atoms: C_23  and  C_26 
REMARK    7  A    between atoms: C_26  and  C_27 
ROOT
ATOM      1  N   LIG d   1       4.620   0.232  -9.481  0.00  0.00    -0.283 N 
ATOM      2  C   LIG d   1       5.115   0.283 -10.867  0.00  0.00     0.065 C 
ATOM      3  C   LIG d   1       4.114  -0.416 -11.754  0.00  0.00     0.159 A 
ATOM      4  C   LIG d   1       2.845  -0.687 -11.370  0.00  0.00     0.148 A 
ATOM      5  N   LIG d   1       2.239  -1.318 -12.409  0.00  0.00    -0.247 N 
ATOM      6  H   LIG d   1       1.324  -1.638 -12.434  0.00  0.00     0.310 HD
ATOM      7  C   LIG d   1       3.155  -1.414 -13.402  0.00  0.00     0.243 A 
ATOM      8  N   LIG d   1       4.273  -0.870 -12.997  0.00  0.00    -0.246 N 
ATOM      9  C   LIG d   1       2.288  -0.316 -10.020  0.00  0.00     0.037 C 
ATOM     10  C   LIG d   1       3.234   0.713  -9.386  0.00  0.00     0.098 C 
ATOM     11  H   LIG d   1       3.143   1.663  -9.913  0.00  0.00     0.057 H 
ATOM     12  H   LIG d   1       5.222   1.321 -11.182  0.00  0.00     0.051 H 
ATOM     13  H   LIG d   1       6.078  -0.222 -10.931  0.00  0.00     0.051 H 
ATOM     14  H   LIG d   1       2.989  -1.866 -14.368  0.00  0.00     0.158 H 
ATOM     15  H   LIG d   1       1.295   0.118 -10.138  0.00  0.00     0.037 H 
ATOM     16  H   LIG d   1       2.231  -1.204  -9.389  0.00  0.00     0.037 H 
ATOM     17  H   LIG d   1       5.089  -0.807 -13.519  0.00  0.00     0.310 HD
ENDROOT
BRANCH   1  18
ATOM     18  C   LIG d   1       5.501   0.986  -8.580  0.00  0.00     0.000 C 
ATOM     19  H   LIG d   1       4.897   1.542  -7.863  0.00  0.00     0.043 H 
ATOM     20  H   LIG d   1       6.107   1.680  -9.161  0.00  0.00     0.043 H 
BRANCH  18  21
ATOM     21  C   LIG d   1       6.416   0.014  -7.830  0.00  0.00    -0.036 C 
ATOM     22  H   LIG d   1       7.456   0.258  -8.042  0.00  0.00     0.028 H 
ATOM     23  H   LIG d   1       6.208  -1.005  -8.157  0.00  0.00     0.028 H 
BRANCH  21  24
ATOM     24  C   LIG d   1       6.160   0.131  -6.326  0.00  0.00    -0.026 C 
ATOM     25  H   LIG d   1       5.271   0.738  -6.155  0.00  0.00     0.031 H 
ATOM     26  H   LIG d   1       7.019   0.599  -5.847  0.00  0.00     0.031 H 
BRANCH  24  27
ATOM     27  C   LIG d   1       5.949  -1.244  -5.745  0.00  0.00    -0.047 A 
ATOM     28  C   LIG d   1       4.966  -2.069  -6.259  0.00  0.00    -0.059 A 
ATOM     29  C   LIG d   1       4.774  -3.330  -5.728  0.00  0.00    -0.061 A 
ATOM     30  H   LIG d   1       4.349  -1.727  -7.077  0.00  0.00     0.062 H 
ATOM     31  C   LIG d   1       5.565  -3.767  -4.681  0.00  0.00    -0.062 A 
ATOM     32  H   LIG d   1       4.006  -3.974  -6.129  0.00  0.00     0.062 H 
ATOM     33  C   LIG d   1       6.548  -2.942  -4.167  0.00  0.00    -0.061 A 
ATOM     34  H   LIG d   1       5.412  -4.750  -4.263  0.00  0.00     0.062 H 
ATOM     35  C   LIG d   1       6.740  -1.681  -4.698  0.00  0.00    -0.059 A 
ATOM     36  H   LIG d   1       7.166  -3.283  -3.350  0.00  0.00     0.062 H 
ATOM     37  H   LIG d   1       7.508  -1.036  -4.297  0.00  0.00     0.062 H 
ENDBRANCH  24  27
ENDBRANCH  21  24
ENDBRANCH  18  21
ENDBRANCH   1  18
BRANCH  10  38
ATOM     38  C   LIG d   1       2.868   0.906  -7.937  0.00  0.00     0.245 A 
ATOM     39  O   LIG d   1       2.865   2.072  -7.279  0.00  0.00    -0.336 OA
ATOM     40  N   LIG d   1       2.454   1.777  -5.952  0.00  0.00    -0.061 NA
ATOM     41  C   LIG d   1       2.253   0.492  -5.904  0.00  0.00     0.176 A 
ATOM     42  N   LIG d   1       2.505  -0.032  -7.108  0.00  0.00    -0.194 NA
BRANCH  41  43
ATOM     43  C   LIG d   1       1.808  -0.280  -4.688  0.00  0.00     0.036 C 
ATOM     44  H   LIG d   1       0.872   0.135  -4.315  0.00  0.00     0.039 H 
ATOM     45  H   LIG d   1       1.660  -1.327  -4.956  0.00  0.00     0.039 H 
BRANCH  43  46
ATOM     46  C   LIG d   1       2.864  -0.182  -3.616  0.00  0.00    -0.040 A 
ATOM     47  C   LIG d   1       3.408   1.047  -3.294  0.00  0.00    -0.058 A 
ATOM     48  C   LIG d   1       4.373   1.138  -2.308  0.00  0.00    -0.061 A 
ATOM     49  H   LIG d   1       3.078   1.937  -3.809  0.00  0.00     0.062 H 
ATOM     50  C   LIG d   1       4.800  -0.001  -1.651  0.00  0.00    -0.062 A 
ATOM     51  H   LIG d   1       4.795   2.099  -2.053  0.00  0.00     0.062 H 
ATOM     52  C   LIG d   1       4.258  -1.230  -1.978  0.00  0.00    -0.061 A 
ATOM     53  H   LIG d   1       5.555   0.070  -0.884  0.00  0.00     0.062 H 
ATOM     54  C   LIG d   1       3.291  -1.320  -2.960  0.00  0.00    -0.058 A 
ATOM     55  H   LIG d   1       4.592  -2.121  -1.464  0.00  0.00     0.062 H 
ATOM     56  H   LIG d   1       2.868  -2.282  -3.215  0.00  0.00     0.062 H 
ENDBRANCH  43  46
ENDBRANCH  41  43
ENDBRANCH  10  38
TORSDOF 7
ENDMDL
MODEL 4
REMARK VINA RESULT:      -8.0      3.161      4.724
REMARK  7 active torsions:
REMARK  status: ('A' for Active; 'I' for Inactive)
REMARK    1  A    between atoms: C_4  and  C_7 
REMARK    2  A    between atoms: C_7  and  C_8 
REMARK    3  A    between atoms: C_8  and  C_9 
REMARK    4  A    between atoms: C_9  and  N_10 
REMARK    5  A    between atoms: C_19  and  C_21 
REMARK    6  A    between atoms: C_23  and  C_26 
REMARK    7  A    between atoms: C_26  and  C_27 
ROOT
ATOM      1  N   LIG d   1       3.313  -2.566  -9.481  0.00  0.00    -0.283 N 
ATOM      2  C   LIG d   1       3.314  -3.151 -10.833  0.00  0.00     0.065 C 
ATOM      3  C   LIG d   1       2.083  -2.668 -11.559  0.00  0.00     0.159 A 
ATOM      4  C   LIG d   1       1.347  -1.609 -11.150  0.00  0.00     0.148 A 
ATOM      5  N   LIG d   1       0.324  -1.468 -12.032  0.00  0.00    -0.247 N 
ATOM      6  H   LIG d   1      -0.373  -0.795 -12.003  0.00  0.00     0.310 HD
ATOM      7  C   LIG d   1       0.463  -2.445 -12.959  0.00  0.00     0.243 A 
ATOM      8  N   LIG d   1       1.520  -3.157 -12.665  0.00  0.00    -0.246 N 
ATOM      9  C   LIG d   1       1.678  -0.789  -9.930  0.00  0.00     0.037 C 
ATOM     10  C   LIG d   1       3.124  -1.109  -9.525  0.00  0.00     0.098 C 
ATOM     11  H   LIG d   1       3.808  -0.676 -10.255  0.00  0.00     0.057 H 
ATOM     12  H   LIG d   1       4.206  -2.831 -11.371  0.00  0.00     0.051 H 
ATOM     13  H   LIG d   1       3.297  -4.238 -10.762  0.00  0.00     0.051 H 
ATOM     14  H   LIG d   1      -0.192  -2.610 -13.802  0.00  0.00     0.158 H 
ATOM     15  H   LIG d   1       1.585   0.272 -10.163  0.00  0.00     0.037 H 
ATOM     16  H   LIG d   1       1.000  -1.050  -9.116  0.00  0.00     0.037 H 
ATOM     17  H   LIG d   1       1.843  -3.919 -13.171  0.00  0.00     0.310 HD
ENDROOT
BRANCH   1  18
ATOM     18  C   LIG d   1       4.541  -2.915  -8.755  0.00  0.00     0.000 C 
ATOM     19  H   LIG d   1       4.910  -2.038  -8.222  0.00  0.00     0.043 H 
ATOM     20  H   LIG d   1       5.297  -3.256  -9.463  0.00  0.00     0.043 H 
BRANCH  18  21
ATOM     21  C   LIG d   1       4.240  -4.032  -7.753  0.00  0.00    -0.036 C 
ATOM     22  H   LIG d   1       4.995  -4.813  -7.842  0.00  0.00     0.028 H 
ATOM     23  H   LIG d   1       3.256  -4.453  -7.962  0.00  0.00     0.028 H 
BRANCH  21  24
ATOM     24  C   LIG d   1       4.261  -3.462  -6.333  0.00  0.00    -0.026 C 
ATOM     25  H   LIG d   1       3.471  -3.928  -5.743  0.00  0.00     0.031 H 
ATOM     26  H   LIG d   1       4.099  -2.385  -6.372  0.00  0.00     0.031 H 
BRANCH  24  27
ATOM     27  C   LIG d   1       5.597  -3.747  -5.698  0.00  0.00    -0.047 A 
ATOM     28  C   LIG d   1       6.204  -2.790  -4.906  0.00  0.00    -0.059 A 
ATOM     29  C   LIG d   1       7.429  -3.052  -4.322  0.00  0.00    -0.061 A 
ATOM     30  H   LIG d   1       5.721  -1.839  -4.743  0.00  0.00     0.062 H 
ATOM     31  C   LIG d   1       8.048  -4.271  -4.530  0.00  0.00    -0.062 A 
ATOM     32  H   LIG d   1       7.904  -2.305  -3.704  0.00  0.00     0.062 H 
ATOM     33  C   LIG d   1       7.440  -5.228  -5.321  0.00  0.00    -0.061 A 
ATOM     34  H   LIG d   1       9.007  -4.474  -4.078  0.00  0.00     0.062 H 
ATOM     35  C   LIG d   1       6.216  -4.966  -5.906  0.00  0.00    -0.059 A 
ATOM     36  H   LIG d   1       7.923  -6.181  -5.483  0.00  0.00     0.062 H 
ATOM     37  H   LIG d   1       5.741  -5.714  -6.524  0.00  0.00     0.062 H 
ENDBRANCH  24  27
ENDBRANCH  21  24
ENDBRANCH  18  21
ENDBRANCH   1  18
BRANCH  10  38
ATOM     38  C   LIG d   1       3.405  -0.525  -8.165  0.00  0.00     0.245 A 
ATOM     39  O   LIG d   1       4.608  -0.160  -7.702  0.00  0.00    -0.336 OA
ATOM     40  N   LIG d   1       4.394   0.335  -6.388  0.00  0.00    -0.061 NA
ATOM     41  C   LIG d   1       3.117   0.229  -6.157  0.00  0.00     0.176 A 
ATOM     42  N   LIG d   1       2.522  -0.292  -7.235  0.00  0.00    -0.194 NA
BRANCH  41  43
ATOM     43  C   LIG d   1       2.423   0.630  -4.880  0.00  0.00     0.036 C 
ATOM     44  H   LIG d   1       2.399   1.717  -4.804  0.00  0.00     0.039 H 
ATOM     45  H   LIG d   1       1.404   0.243  -4.883  0.00  0.00     0.039 H 
BRANCH  43  46
ATOM     46  C   LIG d   1       3.171   0.060  -3.701  0.00  0.00    -0.040 A 
ATOM     47  C   LIG d   1       3.880   0.900  -2.863  0.00  0.00    -0.058 A 
ATOM     48  C   LIG d   1       4.563   0.379  -1.779  0.00  0.00    -0.061 A 
ATOM     49  H   LIG d   1       3.899   1.963  -3.051  0.00  0.00     0.062 H 
ATOM     50  C   LIG d   1       4.543  -0.983  -1.540  0.00  0.00    -0.062 A 
ATOM     51  H   LIG d   1       5.113   1.035  -1.121  0.00  0.00     0.062 H 
ATOM     52  C   LIG d   1       3.838  -1.822  -2.382  0.00  0.00    -0.061 A 
ATOM     53  H   LIG d   1       5.078  -1.390  -0.696  0.00  0.00     0.062 H 
ATOM     54  C   LIG d   1       3.152  -1.300  -3.462  0.00  0.00    -0.058 A 
ATOM     55  H   LIG d   1       3.823  -2.886  -2.194  0.00  0.00     0.062 H 
ATOM     56  H   LIG d   1       2.601  -1.957  -4.120  0.00  0.00     0.062 H 
ENDBRANCH  43  46
ENDBRANCH  41  43
ENDBRANCH  10  38
TORSDOF 7
ENDMDL
MODEL 5
REMARK VINA RESULT:      -7.7      3.187      6.472
REMARK  7 active torsions:
REMARK  status: ('A' for Active; 'I' for Inactive)
REMARK    1  A    between atoms: C_4  and  C_7 
REMARK    2  A    between atoms: C_7  and  C_8 
REMARK    3  A    between atoms: C_8  and  C_9 
REMARK    4  A    between atoms: C_9  and  N_10 
REMARK    5  A    between atoms: C_19  and  C_21 
REMARK    6  A    between atoms: C_23  and  C_26 
REMARK    7  A    between atoms: C_26  and  C_27 
ROOT
ATOM      1  N   LIG d   1       5.537  -1.979  -8.020  0.00  0.00    -0.283 N 
ATOM      2  C   LIG d   1       6.222  -1.768  -9.307  0.00  0.00     0.065 C 
ATOM      3  C   LIG d   1       7.534  -1.074  -9.037  0.00  0.00     0.159 A 
ATOM      4  C   LIG d   1       8.105  -1.017  -7.812  0.00  0.00     0.148 A 
ATOM      5  N   LIG d   1       9.264  -0.320  -7.942  0.00  0.00    -0.247 N 
ATOM      6  H   LIG d   1       9.894  -0.112  -7.235  0.00  0.00     0.310 HD
ATOM      7  C   LIG d   1       9.371   0.029  -9.246  0.00  0.00     0.243 A 
ATOM      8  N   LIG d   1       8.329  -0.429  -9.891  0.00  0.00    -0.246 N 
ATOM      9  C   LIG d   1       7.499  -1.644  -6.582  0.00  0.00     0.037 C 
ATOM     10  C   LIG d   1       6.418  -2.632  -7.042  0.00  0.00     0.098 C 
ATOM     11  H   LIG d   1       6.892  -3.499  -7.502  0.00  0.00     0.057 H 
ATOM     12  H   LIG d   1       6.407  -2.728  -9.787  0.00  0.00     0.051 H 
ATOM     13  H   LIG d   1       5.604  -1.146  -9.954  0.00  0.00     0.051 H 
ATOM     14  H   LIG d   1      10.182   0.593  -9.681  0.00  0.00     0.158 H 
ATOM     15  H   LIG d   1       8.270  -2.173  -6.021  0.00  0.00     0.037 H 
ATOM     16  H   LIG d   1       7.052  -0.871  -5.957  0.00  0.00     0.037 H 
ATOM     17  H   LIG d   1       8.162  -0.316 -10.840  0.00  0.00     0.310 HD
ENDROOT
BRANCH   1  18
ATOM     18  C   LIG d   1       4.296  -2.743  -8.204  0.00  0.00     0.000 C 
ATOM     19  H   LIG d   1       3.581  -2.465  -7.429  0.00  0.00     0.043 H 
ATOM     20  H   LIG d   1       4.512  -3.809  -8.134  0.00  0.00     0.043 H 
BRANCH  18  21
ATOM     21  C   LIG d   1       3.704  -2.431  -9.580  0.00  0.00    -0.036 C 
ATOM     22  H   LIG d   1       3.431  -3.361 -10.077  0.00  0.00     0.028 H 
ATOM     23  H   LIG d   1       4.443  -1.901 -10.182  0.00  0.00     0.028 H 
BRANCH  21  24
ATOM     24  C   LIG d   1       2.459  -1.557  -9.414  0.00  0.00    -0.026 C 
ATOM     25  H   LIG d   1       1.980  -1.785  -8.461  0.00  0.00     0.031 H 
ATOM     26  H   LIG d   1       1.764  -1.756 -10.228  0.00  0.00     0.031 H 
BRANCH  24  27
ATOM     27  C   LIG d   1       2.860  -0.104  -9.440  0.00  0.00    -0.047 A 
ATOM     28  C   LIG d   1       3.452   0.430 -10.569  0.00  0.00    -0.059 A 
ATOM     29  C   LIG d   1       3.818   1.763 -10.593  0.00  0.00    -0.061 A 
ATOM     30  H   LIG d   1       3.628  -0.194 -11.432  0.00  0.00     0.062 H 
ATOM     31  C   LIG d   1       3.592   2.562  -9.487  0.00  0.00    -0.062 A 
ATOM     32  H   LIG d   1       4.281   2.180 -11.474  0.00  0.00     0.062 H 
ATOM     33  C   LIG d   1       2.999   2.028  -8.358  0.00  0.00    -0.061 A 
ATOM     34  H   LIG d   1       3.881   3.602  -9.504  0.00  0.00     0.062 H 
ATOM     35  C   LIG d   1       2.634   0.695  -8.334  0.00  0.00    -0.059 A 
ATOM     36  H   LIG d   1       2.822   2.652  -7.494  0.00  0.00     0.062 H 
ATOM     37  H   LIG d   1       2.171   0.278  -7.452  0.00  0.00     0.062 H 
ENDBRANCH  24  27
ENDBRANCH  21  24
ENDBRANCH  18  21
ENDBRANCH   1  18
BRANCH  10  38
ATOM     38  C   LIG d   1       5.606  -3.076  -5.853  0.00  0.00     0.245 A 
ATOM     39  O   LIG d   1       5.092  -4.299  -5.667  0.00  0.00    -0.336 OA
ATOM     40  N   LIG d   1       4.414  -4.259  -4.420  0.00  0.00    -0.061 NA
ATOM     41  C   LIG d   1       4.556  -3.049  -3.960  0.00  0.00     0.176 A 
ATOM     42  N   LIG d   1       5.278  -2.336  -4.831  0.00  0.00    -0.194 NA
BRANCH  41  43
ATOM     43  C   LIG d   1       3.998  -2.536  -2.657  0.00  0.00     0.036 C 
ATOM     44  H   LIG d   1       3.016  -2.978  -2.483  0.00  0.00     0.039 H 
ATOM     45  H   LIG d   1       4.668  -2.808  -1.842  0.00  0.00     0.039 H 
BRANCH  43  46
ATOM     46  C   LIG d   1       3.868  -1.036  -2.722  0.00  0.00    -0.040 A 
ATOM     47  C   LIG d   1       3.097  -0.451  -3.709  0.00  0.00    -0.058 A 
ATOM     48  C   LIG d   1       2.976   0.925  -3.766  0.00  0.00    -0.061 A 
ATOM     49  H   LIG d   1       2.587  -1.068  -4.434  0.00  0.00     0.062 H 
ATOM     50  C   LIG d   1       3.632   1.716  -2.841  0.00  0.00    -0.062 A 
ATOM     51  H   LIG d   1       2.369   1.382  -4.534  0.00  0.00     0.062 H 
ATOM     52  C   LIG d   1       4.406   1.130  -1.858  0.00  0.00    -0.061 A 
ATOM     53  H   LIG d   1       3.538   2.790  -2.888  0.00  0.00     0.062 H 
ATOM     54  C   LIG d   1       4.525  -0.245  -1.799  0.00  0.00    -0.058 A 
ATOM     55  H   LIG d   1       4.919   1.749  -1.135  0.00  0.00     0.062 H 
ATOM     56  H   LIG d   1       5.131  -0.702  -1.030  0.00  0.00     0.062 H 
ENDBRANCH  43  46
ENDBRANCH  41  43
ENDBRANCH  10  38
TORSDOF 7
ENDMDL
MODEL 6
REMARK VINA RESULT:      -7.7      4.346      6.608
REMARK  7 active torsions:
REMARK  status: ('A' for Active; 'I' for Inactive)
REMARK    1  A    between atoms: C_4  and  C_7 
REMARK    2  A    between atoms: C_7  and  C_8 
REMARK    3  A    between atoms: C_8  and  C_9 
REMARK    4  A    between atoms: C_9  and  N_10 
REMARK    5  A    between atoms: C_19  and  C_21 
REMARK    6  A    between atoms: C_23  and  C_26 
REMARK    7  A    between atoms: C_26  and  C_27 
ROOT
ATOM      1  N   LIG d   1       4.424  -4.391  -7.810  0.00  0.00    -0.283 N 
ATOM      2  C   LIG d   1       3.615  -5.089  -8.824  0.00  0.00     0.065 C 
ATOM      3  C   LIG d   1       3.831  -6.573  -8.663  0.00  0.00     0.159 A 
ATOM      4  C   LIG d   1       4.370  -7.129  -7.554  0.00  0.00     0.148 A 
ATOM      5  N   LIG d   1       4.416  -8.471  -7.760  0.00  0.00    -0.247 N 
ATOM      6  H   LIG d   1       4.754  -9.138  -7.142  0.00  0.00     0.310 HD
ATOM      7  C   LIG d   1       3.901  -8.700  -8.991  0.00  0.00     0.243 A 
ATOM      8  N   LIG d   1       3.554  -7.556  -9.521  0.00  0.00    -0.246 N 
ATOM      9  C   LIG d   1       4.809  -6.331  -6.353  0.00  0.00     0.037 C 
ATOM     10  C   LIG d   1       4.185  -4.932  -6.464  0.00  0.00     0.098 C 
ATOM     11  H   LIG d   1       3.111  -4.999  -6.285  0.00  0.00     0.057 H 
ATOM     12  H   LIG d   1       2.561  -4.854  -8.678  0.00  0.00     0.051 H 
ATOM     13  H   LIG d   1       3.927  -4.777  -9.820  0.00  0.00     0.051 H 
ATOM     14  H   LIG d   1       3.795  -9.667  -9.457  0.00  0.00     0.158 H 
ATOM     15  H   LIG d   1       4.464  -6.818  -5.441  0.00  0.00     0.037 H 
ATOM     16  H   LIG d   1       5.896  -6.250  -6.341  0.00  0.00     0.037 H 
ATOM     17  H   LIG d   1       3.159  -7.440 -10.400  0.00  0.00     0.310 HD
ENDROOT
BRANCH   1  18
ATOM     18  C   LIG d   1       4.178  -2.943  -7.846  0.00  0.00     0.000 C 
ATOM     19  H   LIG d   1       5.099  -2.413  -7.600  0.00  0.00     0.043 H 
ATOM     20  H   LIG d   1       3.406  -2.688  -7.121  0.00  0.00     0.043 H 
BRANCH  18  21
ATOM     21  C   LIG d   1       3.717  -2.540  -9.248  0.00  0.00    -0.036 C 
ATOM     22  H   LIG d   1       3.466  -3.433  -9.819  0.00  0.00     0.028 H 
ATOM     23  H   LIG d   1       4.518  -1.999  -9.753  0.00  0.00     0.028 H 
BRANCH  21  24
ATOM     24  C   LIG d   1       2.483  -1.640  -9.139  0.00  0.00    -0.026 C 
ATOM     25  H   LIG d   1       2.036  -1.755  -8.152  0.00  0.00     0.031 H 
ATOM     26  H   LIG d   1       1.759  -1.924  -9.902  0.00  0.00     0.031 H 
BRANCH  24  27
ATOM     27  C   LIG d   1       2.891  -0.204  -9.344  0.00  0.00    -0.047 A 
ATOM     28  C   LIG d   1       3.457   0.191 -10.541  0.00  0.00    -0.059 A 
ATOM     29  C   LIG d   1       3.829   1.509 -10.729  0.00  0.00    -0.061 A 
ATOM     30  H   LIG d   1       3.608  -0.531 -11.330  0.00  0.00     0.062 H 
ATOM     31  C   LIG d   1       3.635   2.432  -9.718  0.00  0.00    -0.062 A 
ATOM     32  H   LIG d   1       4.272   1.817 -11.664  0.00  0.00     0.062 H 
ATOM     33  C   LIG d   1       3.068   2.038  -8.521  0.00  0.00    -0.061 A 
ATOM     34  H   LIG d   1       3.929   3.461  -9.863  0.00  0.00     0.062 H 
ATOM     35  C   LIG d   1       2.696   0.720  -8.333  0.00  0.00    -0.059 A 
ATOM     36  H   LIG d   1       2.916   2.760  -7.732  0.00  0.00     0.062 H 
ATOM     37  H   LIG d   1       2.253   0.411  -7.397  0.00  0.00     0.062 H 
ENDBRANCH  24  27
ENDBRANCH  21  24
ENDBRANCH  18  21
ENDBRANCH   1  18
BRANCH  10  38
ATOM     38  C   LIG d   1       4.808  -4.021  -5.438  0.00  0.00     0.245 A 
ATOM     39  O   LIG d   1       6.061  -3.550  -5.467  0.00  0.00    -0.336 OA
ATOM     40  N   LIG d   1       6.205  -2.738  -4.311  0.00  0.00    -0.061 NA
ATOM     41  C   LIG d   1       5.066  -2.782  -3.683  0.00  0.00     0.176 A 
ATOM     42  N   LIG d   1       4.222  -3.561  -4.368  0.00  0.00    -0.194 NA
BRANCH  41  43
ATOM     43  C   LIG d   1       4.749  -2.072  -2.392  0.00  0.00     0.036 C 
ATOM     44  H   LIG d   1       4.004  -2.640  -1.836  0.00  0.00     0.039 H 
ATOM     45  H   LIG d   1       5.657  -1.982  -1.794  0.00  0.00     0.039 H 
BRANCH  43  46
ATOM     46  C   LIG d   1       4.210  -0.697  -2.694  0.00  0.00    -0.040 A 
ATOM     47  C   LIG d   1       3.441  -0.490  -3.824  0.00  0.00    -0.058 A 
ATOM     48  C   LIG d   1       2.943   0.770  -4.099  0.00  0.00    -0.061 A 
ATOM     49  H   LIG d   1       3.227  -1.312  -4.490  0.00  0.00     0.062 H 
ATOM     50  C   LIG d   1       3.220   1.824  -3.249  0.00  0.00    -0.062 A 
ATOM     51  H   LIG d   1       2.338   0.931  -4.979  0.00  0.00     0.062 H 
ATOM     52  C   LIG d   1       3.994   1.617  -2.122  0.00  0.00    -0.061 A 
ATOM     53  H   LIG d   1       2.833   2.808  -3.465  0.00  0.00     0.062 H 
ATOM     54  C   LIG d   1       4.488   0.357  -1.845  0.00  0.00    -0.058 A 
ATOM     55  H   LIG d   1       4.211   2.442  -1.458  0.00  0.00     0.062 H 
ATOM     56  H   LIG d   1       5.093   0.196  -0.964  0.00  0.00     0.062 H 
ENDBRANCH  43  46
ENDBRANCH  41  43
ENDBRANCH  10  38
TORSDOF 7
ENDMDL
MODEL 7
REMARK VINA RESULT:      -7.7      2.689      5.002
REMARK  7 active torsions:
REMARK  status: ('A' for Active; 'I' for Inactive)
REMARK    1  A    between atoms: C_4  and  C_7 
REMARK    2  A    between atoms: C_7  and  C_8 
REMARK    3  A    between atoms: C_8  and  C_9 
REMARK    4  A    between atoms: C_9  and  N_10 
REMARK    5  A    between atoms: C_19  and  C_21 
REMARK    6  A    between atoms: C_23  and  C_26 
REMARK    7  A    between atoms: C_26  and  C_27 
ROOT
ATOM      1  N   LIG d   1       6.275  -0.438  -8.265  0.00  0.00    -0.283 N 
ATOM      2  C   LIG d   1       7.271  -0.748  -9.305  0.00  0.00     0.065 C 
ATOM      3  C   LIG d   1       6.797  -1.958 -10.071  0.00  0.00     0.159 A 
ATOM      4  C   LIG d   1       5.523  -2.410 -10.030  0.00  0.00     0.148 A 
ATOM      5  N   LIG d   1       5.461  -3.506 -10.829  0.00  0.00    -0.247 N 
ATOM      6  H   LIG d   1       4.677  -4.050 -11.001  0.00  0.00     0.310 HD
ATOM      7  C   LIG d   1       6.701  -3.694 -11.340  0.00  0.00     0.243 A 
ATOM      8  N   LIG d   1       7.492  -2.760 -10.879  0.00  0.00    -0.246 N 
ATOM      9  C   LIG d   1       4.434  -1.753  -9.221  0.00  0.00     0.037 C 
ATOM     10  C   LIG d   1       4.920  -0.351  -8.828  0.00  0.00     0.098 C 
ATOM     11  H   LIG d   1       4.933   0.289  -9.711  0.00  0.00     0.057 H 
ATOM     12  H   LIG d   1       7.371   0.100  -9.983  0.00  0.00     0.051 H 
ATOM     13  H   LIG d   1       8.233  -0.961  -8.839  0.00  0.00     0.051 H 
ATOM     14  H   LIG d   1       6.989  -4.485 -12.016  0.00  0.00     0.158 H 
ATOM     15  H   LIG d   1       3.526  -1.676  -9.820  0.00  0.00     0.037 H 
ATOM     16  H   LIG d   1       4.236  -2.341  -8.324  0.00  0.00     0.037 H 
ATOM     17  H   LIG d   1       8.434  -2.666 -11.090  0.00  0.00     0.310 HD
ENDROOT
BRANCH   1  18
ATOM     18  C   LIG d   1       6.627   0.794  -7.548  0.00  0.00     0.000 C 
ATOM     19  H   LIG d   1       5.716   1.307  -7.238  0.00  0.00     0.043 H 
ATOM     20  H   LIG d   1       7.205   1.444  -8.205  0.00  0.00     0.043 H 
BRANCH  18  21
ATOM     21  C   LIG d   1       7.461   0.444  -6.314  0.00  0.00    -0.036 C 
ATOM     22  H   LIG d   1       7.986   1.334  -5.966  0.00  0.00     0.028 H 
ATOM     23  H   LIG d   1       8.187  -0.327  -6.572  0.00  0.00     0.028 H 
BRANCH  21  24
ATOM     24  C   LIG d   1       6.540  -0.071  -5.206  0.00  0.00    -0.026 C 
ATOM     25  H   LIG d   1       5.501   0.080  -5.498  0.00  0.00     0.031 H 
ATOM     26  H   LIG d   1       6.742   0.474  -4.283  0.00  0.00     0.031 H 
BRANCH  24  27
ATOM     27  C   LIG d   1       6.792  -1.540  -4.987  0.00  0.00    -0.047 A 
ATOM     28  C   LIG d   1       7.867  -1.951  -4.220  0.00  0.00    -0.059 A 
ATOM     29  C   LIG d   1       8.097  -3.299  -4.018  0.00  0.00    -0.061 A 
ATOM     30  H   LIG d   1       8.526  -1.218  -3.779  0.00  0.00     0.062 H 
ATOM     31  C   LIG d   1       7.252  -4.237  -4.583  0.00  0.00    -0.062 A 
ATOM     32  H   LIG d   1       8.936  -3.620  -3.421  0.00  0.00     0.062 H 
ATOM     33  C   LIG d   1       6.177  -3.826  -5.349  0.00  0.00    -0.061 A 
ATOM     34  H   LIG d   1       7.434  -5.289  -4.429  0.00  0.00     0.062 H 
ATOM     35  C   LIG d   1       5.947  -2.478  -5.552  0.00  0.00    -0.059 A 
ATOM     36  H   LIG d   1       5.517  -4.558  -5.790  0.00  0.00     0.062 H 
ATOM     37  H   LIG d   1       5.107  -2.157  -6.150  0.00  0.00     0.062 H 
ENDBRANCH  24  27
ENDBRANCH  21  24
ENDBRANCH  18  21
ENDBRANCH   1  18
BRANCH  10  38
ATOM     38  C   LIG d   1       3.986   0.234  -7.800  0.00  0.00     0.245 A 
ATOM     39  O   LIG d   1       3.526   1.492  -7.784  0.00  0.00    -0.336 OA
ATOM     40  N   LIG d   1       2.683   1.592  -6.646  0.00  0.00    -0.061 NA
ATOM     41  C   LIG d   1       2.701   0.425  -6.069  0.00  0.00     0.176 A 
ATOM     42  N   LIG d   1       3.491  -0.395  -6.771  0.00  0.00    -0.194 NA
BRANCH  41  43
ATOM     43  C   LIG d   1       1.951   0.057  -4.814  0.00  0.00     0.036 C 
ATOM     44  H   LIG d   1       1.267   0.863  -4.549  0.00  0.00     0.039 H 
ATOM     45  H   LIG d   1       1.385  -0.859  -4.983  0.00  0.00     0.039 H 
BRANCH  43  46
ATOM     46  C   LIG d   1       2.931  -0.160  -3.689  0.00  0.00    -0.040 A 
ATOM     47  C   LIG d   1       3.519   0.926  -3.066  0.00  0.00    -0.058 A 
ATOM     48  C   LIG d   1       4.415   0.726  -2.032  0.00  0.00    -0.061 A 
ATOM     49  H   LIG d   1       3.276   1.928  -3.385  0.00  0.00     0.062 H 
ATOM     50  C   LIG d   1       4.729  -0.557  -1.626  0.00  0.00    -0.062 A 
ATOM     51  H   LIG d   1       4.870   1.575  -1.542  0.00  0.00     0.062 H 
ATOM     52  C   LIG d   1       4.144  -1.642  -2.253  0.00  0.00    -0.061 A 
ATOM     53  H   LIG d   1       5.430  -0.712  -0.821  0.00  0.00     0.062 H 
ATOM     54  C   LIG d   1       3.246  -1.443  -3.284  0.00  0.00    -0.058 A 
ATOM     55  H   LIG d   1       4.390  -2.645  -1.936  0.00  0.00     0.062 H 
ATOM     56  H   LIG d   1       2.790  -2.291  -3.774  0.00  0.00     0.062 H 
ENDBRANCH  43  46
ENDBRANCH  41  43
ENDBRANCH  10  38
TORSDOF 7
ENDMDL
MODEL 8
REMARK VINA RESULT:      -7.7      4.820      6.915
REMARK  7 active torsions:
REMARK  status: ('A' for Active; 'I' for Inactive)
REMARK    1  A    between atoms: C_4  and  C_7 
REMARK    2  A    between atoms: C_7  and  C_8 
REMARK    3  A    between atoms: C_8  and  C_9 
REMARK    4  A    between atoms: C_9  and  N_10 
REMARK    5  A    between atoms: C_19  and  C_21 
REMARK    6  A    between atoms: C_23  and  C_26 
REMARK    7  A    between atoms: C_26  and  C_27 
ROOT
ATOM      1  N   LIG d   1       6.268  -1.786  -6.741  0.00  0.00    -0.283 N 
ATOM      2  C   LIG d   1       6.574  -0.350  -6.849  0.00  0.00     0.065 C 
ATOM      3  C   LIG d   1       5.591   0.274  -7.809  0.00  0.00     0.159 A 
ATOM      4  C   LIG d   1       4.437  -0.325  -8.182  0.00  0.00     0.148 A 
ATOM      5  N   LIG d   1       3.812   0.515  -9.048  0.00  0.00    -0.247 N 
ATOM      6  H   LIG d   1       2.962   0.361  -9.488  0.00  0.00     0.310 HD
ATOM      7  C   LIG d   1       4.602   1.607  -9.179  0.00  0.00     0.243 A 
ATOM      8  N   LIG d   1       5.664   1.451  -8.432  0.00  0.00    -0.246 N 
ATOM      9  C   LIG d   1       4.000  -1.676  -7.678  0.00  0.00     0.037 C 
ATOM     10  C   LIG d   1       4.847  -2.013  -6.443  0.00  0.00     0.098 C 
ATOM     11  H   LIG d   1       4.545  -1.376  -5.611  0.00  0.00     0.057 H 
ATOM     12  H   LIG d   1       6.479   0.121  -5.870  0.00  0.00     0.051 H 
ATOM     13  H   LIG d   1       7.589  -0.218  -7.224  0.00  0.00     0.051 H 
ATOM     14  H   LIG d   1       4.390   2.465  -9.799  0.00  0.00     0.158 H 
ATOM     15  H   LIG d   1       2.945  -1.644  -7.406  0.00  0.00     0.037 H 
ATOM     16  H   LIG d   1       4.160  -2.427  -8.452  0.00  0.00     0.037 H 
ATOM     17  H   LIG d   1       6.389   2.089  -8.345  0.00  0.00     0.310 HD
ENDROOT
BRANCH   1  18
ATOM     18  C   LIG d   1       7.126  -2.434  -5.741  0.00  0.00     0.000 C 
ATOM     19  H   LIG d   1       8.027  -2.813  -6.226  0.00  0.00     0.043 H 
ATOM     20  H   LIG d   1       6.586  -3.260  -5.279  0.00  0.00     0.043 H 
BRANCH  18  21
ATOM     21  C   LIG d   1       7.516  -1.415  -4.667  0.00  0.00    -0.036 C 
ATOM     22  H   LIG d   1       7.142  -0.431  -4.949  0.00  0.00     0.028 H 
ATOM     23  H   LIG d   1       8.601  -1.379  -4.577  0.00  0.00     0.028 H 
BRANCH  21  24
ATOM     24  C   LIG d   1       6.905  -1.829  -3.327  0.00  0.00    -0.026 C 
ATOM     25  H   LIG d   1       7.669  -1.784  -2.550  0.00  0.00     0.031 H 
ATOM     26  H   LIG d   1       6.520  -2.845  -3.402  0.00  0.00     0.031 H 
BRANCH  24  27
ATOM     27  C   LIG d   1       5.779  -0.890  -2.978  0.00  0.00    -0.047 A 
ATOM     28  C   LIG d   1       4.543  -1.395  -2.618  0.00  0.00    -0.059 A 
ATOM     29  C   LIG d   1       3.511  -0.534  -2.297  0.00  0.00    -0.061 A 
ATOM     30  H   LIG d   1       4.386  -2.463  -2.588  0.00  0.00     0.062 H 
ATOM     31  C   LIG d   1       3.715   0.833  -2.335  0.00  0.00    -0.062 A 
ATOM     32  H   LIG d   1       2.546  -0.928  -2.017  0.00  0.00     0.062 H 
ATOM     33  C   LIG d   1       4.950   1.339  -2.693  0.00  0.00    -0.061 A 
ATOM     34  H   LIG d   1       2.907   1.506  -2.088  0.00  0.00     0.062 H 
ATOM     35  C   LIG d   1       5.982   0.478  -3.016  0.00  0.00    -0.059 A 
ATOM     36  H   LIG d   1       5.109   2.407  -2.723  0.00  0.00     0.062 H 
ATOM     37  H   LIG d   1       6.948   0.872  -3.296  0.00  0.00     0.062 H 
ENDBRANCH  24  27
ENDBRANCH  21  24
ENDBRANCH  18  21
ENDBRANCH   1  18
BRANCH  10  38
ATOM     38  C   LIG d   1       4.637  -3.458  -6.069  0.00  0.00     0.245 A 
ATOM     39  O   LIG d   1       4.160  -3.904  -4.900  0.00  0.00    -0.336 OA
ATOM     40  N   LIG d   1       4.132  -5.321  -4.998  0.00  0.00    -0.061 NA
ATOM     41  C   LIG d   1       4.588  -5.619  -6.180  0.00  0.00     0.176 A 
ATOM     42  N   LIG d   1       4.893  -4.488  -6.826  0.00  0.00    -0.194 NA
BRANCH  41  43
ATOM     43  C   LIG d   1       4.746  -7.013  -6.732  0.00  0.00     0.036 C 
ATOM     44  H   LIG d   1       3.763  -7.430  -6.954  0.00  0.00     0.039 H 
ATOM     45  H   LIG d   1       5.340  -6.978  -7.645  0.00  0.00     0.039 H 
BRANCH  43  46
ATOM     46  C   LIG d   1       5.441  -7.880  -5.714  0.00  0.00    -0.040 A 
ATOM     47  C   LIG d   1       6.775  -7.667  -5.421  0.00  0.00    -0.058 A 
ATOM     48  C   LIG d   1       7.412  -8.460  -4.485  0.00  0.00    -0.061 A 
ATOM     49  H   LIG d   1       7.319  -6.879  -5.921  0.00  0.00     0.062 H 
ATOM     50  C   LIG d   1       6.718  -9.471  -3.848  0.00  0.00    -0.062 A 
ATOM     51  H   LIG d   1       8.454  -8.290  -4.253  0.00  0.00     0.062 H 
ATOM     52  C   LIG d   1       5.385  -9.687  -4.145  0.00  0.00    -0.061 A 
ATOM     53  H   LIG d   1       7.216 -10.092  -3.119  0.00  0.00     0.062 H 
ATOM     54  C   LIG d   1       4.748  -8.892  -5.078  0.00  0.00    -0.058 A 
ATOM     55  H   LIG d   1       4.843 -10.478  -3.647  0.00  0.00     0.062 H 
ATOM     56  H   LIG d   1       3.706  -9.061  -5.310  0.00  0.00     0.062 H 
ENDBRANCH  43  46
ENDBRANCH  41  43
ENDBRANCH  10  38
TORSDOF 7
ENDMDL
MODEL 9
REMARK VINA RESULT:      -7.6      3.068      7.404
REMARK  7 active torsions:
REMARK  status: ('A' for Active; 'I' for Inactive)
REMARK    1  A    between atoms: C_4  and  C_7 
REMARK    2  A    between atoms: C_7  and  C_8 
REMARK    3  A    between atoms: C_8  and  C_9 
REMARK    4  A    between atoms: C_9  and  N_10 
REMARK    5  A    between atoms: C_19  and  C_21 
REMARK    6  A    between atoms: C_23  and  C_26 
REMARK    7  A    between atoms: C_26  and  C_27 
ROOT
ATOM      1  N   LIG d   1       6.198  -0.682  -5.564  0.00  0.00    -0.283 N 
ATOM      2  C   LIG d   1       6.715   0.097  -4.426  0.00  0.00     0.065 C 
ATOM      3  C   LIG d   1       5.618   0.216  -3.396  0.00  0.00     0.159 A 
ATOM      4  C   LIG d   1       4.519  -0.573  -3.388  0.00  0.00     0.148 A 
ATOM      5  N   LIG d   1       3.756  -0.185  -2.332  0.00  0.00    -0.247 N 
ATOM      6  H   LIG d   1       2.904  -0.565  -2.068  0.00  0.00     0.310 HD
ATOM      7  C   LIG d   1       4.412   0.830  -1.722  0.00  0.00     0.243 A 
ATOM      8  N   LIG d   1       5.526   1.061  -2.368  0.00  0.00    -0.246 N 
ATOM      9  C   LIG d   1       4.269  -1.661  -4.400  0.00  0.00     0.037 C 
ATOM     10  C   LIG d   1       5.594  -1.947  -5.121  0.00  0.00     0.098 C 
ATOM     11  H   LIG d   1       6.276  -2.455  -4.437  0.00  0.00     0.057 H 
ATOM     12  H   LIG d   1       7.573  -0.414  -3.990  0.00  0.00     0.051 H 
ATOM     13  H   LIG d   1       7.010   1.089  -4.765  0.00  0.00     0.051 H 
ATOM     14  H   LIG d   1       4.071   1.362  -0.847  0.00  0.00     0.158 H 
ATOM     15  H   LIG d   1       3.921  -2.562  -3.894  0.00  0.00     0.037 H 
ATOM     16  H   LIG d   1       3.521  -1.329  -5.120  0.00  0.00     0.037 H 
ATOM     17  H   LIG d   1       6.180   1.738  -2.137  0.00  0.00     0.310 HD
ENDROOT
BRANCH   1  18
ATOM     18  C   LIG d   1       7.251  -0.922  -6.559  0.00  0.00     0.000 C 
ATOM     19  H   LIG d   1       7.075  -1.880  -7.050  0.00  0.00     0.043 H 
ATOM     20  H   LIG d   1       8.222  -0.940  -6.064  0.00  0.00     0.043 H 
BRANCH  18  21
ATOM     21  C   LIG d   1       7.231   0.198  -7.602  0.00  0.00    -0.036 C 
ATOM     22  H   LIG d   1       8.238   0.353  -7.987  0.00  0.00     0.028 H 
ATOM     23  H   LIG d   1       6.872   1.118  -7.141  0.00  0.00     0.028 H 
BRANCH  21  24
ATOM     24  C   LIG d   1       6.300  -0.194  -8.752  0.00  0.00    -0.026 C 
ATOM     25  H   LIG d   1       6.015  -1.241  -8.648  0.00  0.00     0.031 H 
ATOM     26  H   LIG d   1       6.815  -0.050  -9.701  0.00  0.00     0.031 H 
BRANCH  24  27
ATOM     27  C   LIG d   1       5.065   0.669  -8.714  0.00  0.00    -0.047 A 
ATOM     28  C   LIG d   1       4.008   0.329  -7.892  0.00  0.00    -0.059 A 
ATOM     29  C   LIG d   1       2.876   1.121  -7.856  0.00  0.00    -0.061 A 
ATOM     30  H   LIG d   1       4.067  -0.557  -7.277  0.00  0.00     0.062 H 
ATOM     31  C   LIG d   1       2.802   2.256  -8.644  0.00  0.00    -0.062 A 
ATOM     32  H   LIG d   1       2.050   0.855  -7.215  0.00  0.00     0.062 H 
ATOM     33  C   LIG d   1       3.860   2.597  -9.466  0.00  0.00    -0.061 A 
ATOM     34  H   LIG d   1       1.917   2.873  -8.619  0.00  0.00     0.062 H 
ATOM     35  C   LIG d   1       4.991   1.804  -9.502  0.00  0.00    -0.059 A 
ATOM     36  H   LIG d   1       3.802   3.483 -10.081  0.00  0.00     0.062 H 
ATOM     37  H   LIG d   1       5.818   2.070 -10.144  0.00  0.00     0.062 H 
ENDBRANCH  24  27
ENDBRANCH  21  24
ENDBRANCH  18  21
ENDBRANCH   1  18
BRANCH  10  38
ATOM     38  C   LIG d   1       5.336  -2.826  -6.316  0.00  0.00     0.245 A 
ATOM     39  O   LIG d   1       6.171  -3.754  -6.803  0.00  0.00    -0.336 OA
ATOM     40  N   LIG d   1       5.514  -4.330  -7.922  0.00  0.00    -0.061 NA
ATOM     41  C   LIG d   1       4.368  -3.722  -8.033  0.00  0.00     0.176 A 
ATOM     42  N   LIG d   1       4.264  -2.812  -7.059  0.00  0.00    -0.194 NA
BRANCH  41  43
ATOM     43  C   LIG d   1       3.328  -4.000  -9.088  0.00  0.00     0.036 C 
ATOM     44  H   LIG d   1       3.669  -4.812  -9.730  0.00  0.00     0.039 H 
ATOM     45  H   LIG d   1       2.391  -4.284  -8.609  0.00  0.00     0.039 H 
BRANCH  43  46
ATOM     46  C   LIG d   1       3.111  -2.761  -9.918  0.00  0.00    -0.040 A 
ATOM     47  C   LIG d   1       1.923  -2.061  -9.817  0.00  0.00    -0.058 A 
ATOM     48  C   LIG d   1       1.726  -0.922 -10.576  0.00  0.00    -0.061 A 
ATOM     49  H   LIG d   1       1.151  -2.402  -9.144  0.00  0.00     0.062 H 
ATOM     50  C   LIG d   1       2.713  -0.488 -11.441  0.00  0.00    -0.062 A 
ATOM     51  H   LIG d   1       0.799  -0.373 -10.494  0.00  0.00     0.062 H 
ATOM     52  C   LIG d   1       3.898  -1.192 -11.545  0.00  0.00    -0.061 A 
ATOM     53  H   LIG d   1       2.557   0.399 -12.035  0.00  0.00     0.062 H 
ATOM     54  C   LIG d   1       4.097  -2.327 -10.784  0.00  0.00    -0.058 A 
ATOM     55  H   LIG d   1       4.669  -0.852 -12.222  0.00  0.00     0.062 H 
ATOM     56  H   LIG d   1       5.024  -2.877 -10.866  0.00  0.00     0.062 H 
ENDBRANCH  43  46
ENDBRANCH  41  43
ENDBRANCH  10  38
TORSDOF 7
ENDMDL
MODEL 10
REMARK VINA RESULT:      -7.6      2.579      5.593
REMARK  7 active torsions:
REMARK  status: ('A' for Active; 'I' for Inactive)
REMARK    1  A    between atoms: C_4  and  C_7 
REMARK    2  A    between atoms: C_7  and  C_8 
REMARK    3  A    between atoms: C_8  and  C_9 
REMARK    4  A    between atoms: C_9  and  N_10 
REMARK    5  A    between atoms: C_19  and  C_21 
REMARK    6  A    between atoms: C_23  and  C_26 
REMARK    7  A    between atoms: C_26  and  C_27 
ROOT
ATOM      1  N   LIG d   1       6.603  -1.856  -8.043  0.00  0.00    -0.283 N 
ATOM      2  C   LIG d   1       8.047  -2.075  -8.231  0.00  0.00     0.065 C 
ATOM      3  C   LIG d   1       8.502  -1.251  -9.411  0.00  0.00     0.159 A 
ATOM      4  C   LIG d   1       7.776  -0.235  -9.930  0.00  0.00     0.148 A 
ATOM      5  N   LIG d   1       8.484   0.271 -10.973  0.00  0.00    -0.247 N 
ATOM      6  H   LIG d   1       8.221   1.009 -11.545  0.00  0.00     0.310 HD
ATOM      7  C   LIG d   1       9.627  -0.450 -11.062  0.00  0.00     0.243 A 
ATOM      8  N   LIG d   1       9.626  -1.358 -10.121  0.00  0.00    -0.246 N 
ATOM      9  C   LIG d   1       6.438   0.194  -9.385  0.00  0.00     0.037 C 
ATOM     10  C   LIG d   1       6.278  -0.424  -7.989  0.00  0.00     0.098 C 
ATOM     11  H   LIG d   1       6.952   0.076  -7.293  0.00  0.00     0.057 H 
ATOM     12  H   LIG d   1       8.586  -1.762  -7.337  0.00  0.00     0.051 H 
ATOM     13  H   LIG d   1       8.236  -3.130  -8.425  0.00  0.00     0.051 H 
ATOM     14  H   LIG d   1      10.409  -0.300 -11.791  0.00  0.00     0.158 H 
ATOM     15  H   LIG d   1       6.400   1.281  -9.316  0.00  0.00     0.037 H 
ATOM     16  H   LIG d   1       5.642  -0.162 -10.040  0.00  0.00     0.037 H 
ATOM     17  H   LIG d   1      10.330  -2.007  -9.965  0.00  0.00     0.310 HD
ENDROOT
BRANCH   1  18
ATOM     18  C   LIG d   1       6.117  -2.551  -6.844  0.00  0.00     0.000 C 
ATOM     19  H   LIG d   1       5.780  -3.552  -7.117  0.00  0.00     0.043 H 
ATOM     20  H   LIG d   1       5.288  -1.992  -6.411  0.00  0.00     0.043 H 
BRANCH  18  21
ATOM     21  C   LIG d   1       7.252  -2.657  -5.821  0.00  0.00    -0.036 C 
ATOM     22  H   LIG d   1       8.163  -2.236  -6.246  0.00  0.00     0.028 H 
ATOM     23  H   LIG d   1       7.418  -3.704  -5.570  0.00  0.00     0.028 H 
BRANCH  21  24
ATOM     24  C   LIG d   1       6.872  -1.881  -4.558  0.00  0.00    -0.026 C 
ATOM     25  H   LIG d   1       7.111  -2.480  -3.679  0.00  0.00     0.031 H 
ATOM     26  H   LIG d   1       5.804  -1.666  -4.572  0.00  0.00     0.031 H 
BRANCH  24  27
ATOM     27  C   LIG d   1       7.645  -0.589  -4.511  0.00  0.00    -0.047 A 
ATOM     28  C   LIG d   1       7.110   0.514  -3.873  0.00  0.00    -0.059 A 
ATOM     29  C   LIG d   1       7.820   1.700  -3.829  0.00  0.00    -0.061 A 
ATOM     30  H   LIG d   1       6.138   0.449  -3.407  0.00  0.00     0.062 H 
ATOM     31  C   LIG d   1       9.066   1.781  -4.424  0.00  0.00    -0.062 A 
ATOM     32  H   LIG d   1       7.402   2.561  -3.331  0.00  0.00     0.062 H 
ATOM     33  C   LIG d   1       9.601   0.678  -5.062  0.00  0.00    -0.061 A 
ATOM     34  H   LIG d   1       9.618   2.708  -4.394  0.00  0.00     0.062 H 
ATOM     35  C   LIG d   1       8.891  -0.507  -5.107  0.00  0.00    -0.059 A 
ATOM     36  H   LIG d   1      10.574   0.742  -5.527  0.00  0.00     0.062 H 
ATOM     37  H   LIG d   1       9.308  -1.369  -5.605  0.00  0.00     0.062 H 
ENDBRANCH  24  27
ENDBRANCH  21  24
ENDBRANCH  18  21
ENDBRANCH   1  18
BRANCH  10  38
ATOM     38  C   LIG d   1       4.856  -0.249  -7.522  0.00  0.00     0.245 A 
ATOM     39  O   LIG d   1       3.758  -0.444  -8.264  0.00  0.00    -0.336 OA
ATOM     40  N   LIG d   1       2.653  -0.166  -7.416  0.00  0.00    -0.061 NA
ATOM     41  C   LIG d   1       3.148   0.175  -6.262  0.00  0.00     0.176 A 
ATOM     42  N   LIG d   1       4.483   0.124  -6.330  0.00  0.00    -0.194 NA
BRANCH  41  43
ATOM     43  C   LIG d   1       2.347   0.564  -5.046  0.00  0.00     0.036 C 
ATOM     44  H   LIG d   1       2.188   1.643  -5.044  0.00  0.00     0.039 H 
ATOM     45  H   LIG d   1       1.383   0.055  -5.067  0.00  0.00     0.039 H 
BRANCH  43  46
ATOM     46  C   LIG d   1       3.098   0.166  -3.801  0.00  0.00    -0.040 A 
ATOM     47  C   LIG d   1       3.633   1.138  -2.977  0.00  0.00    -0.058 A 
ATOM     48  C   LIG d   1       4.319   0.772  -1.833  0.00  0.00    -0.061 A 
ATOM     49  H   LIG d   1       3.515   2.182  -3.224  0.00  0.00     0.062 H 
ATOM     50  C   LIG d   1       4.475  -0.565  -1.518  0.00  0.00    -0.062 A 
ATOM     51  H   LIG d   1       4.733   1.531  -1.186  0.00  0.00     0.062 H 
ATOM     52  C   LIG d   1       3.943  -1.536  -2.346  0.00  0.00    -0.061 A 
ATOM     53  H   LIG d   1       5.012  -0.850  -0.626  0.00  0.00     0.062 H 
ATOM     54  C   LIG d   1       3.255  -1.171  -3.487  0.00  0.00    -0.058 A 
ATOM     55  H   LIG d   1       4.066  -2.581  -2.099  0.00  0.00     0.062 H 
ATOM     56  H   LIG d   1       2.840  -1.930  -4.133  0.00  0.00     0.062 H 
ENDBRANCH  43  46
ENDBRANCH  41  43
ENDBRANCH  10  38
TORSDOF 7
ENDMDL
