MODEL 1
REMARK VINA RESULT:      -6.3      0.000      0.000
REMARK  9 active torsions:
REMARK  status: ('A' for Active; 'I' for Inactive)
REMARK    1  A    between atoms: C_1  and  O_2 
REMARK    2  A    between atoms: O_2  and  C_3 
REMARK    3  A    between atoms: C_6  and  N_11 
REMARK    4  A    between atoms: C_7  and  O_9 
REMARK    5  A    between atoms: O_9  and  C_10 
REMARK    6  A    between atoms: N_11  and  C_12 
REMARK    7  A    between atoms: C_20  and  C_23 
REMARK    8  A    between atoms: C_28  and  O_29 
REMARK    9  A    between atoms: O_29  and  C_30 
ROOT
ATOM      1  C   LIG d   1       2.690  -1.740 -10.580  0.00  0.00     0.035 A 
ATOM      2  C   LIG d   1       2.194  -0.456 -10.348  0.00  0.00    -0.040 A 
ATOM      3  C   LIG d   1       2.369   0.142  -9.133  0.00  0.00    -0.046 A 
ATOM      4  C   LIG d   1       3.055  -0.533  -8.121  0.00  0.00     0.065 A 
ATOM      5  C   LIG d   1       3.564  -1.825  -8.345  0.00  0.00     0.140 A 
ATOM      6  C   LIG d   1       3.374  -2.422  -9.584  0.00  0.00     0.003 A 
ATOM      7  O   LIG d   1       4.227  -2.474  -7.367  0.00  0.00    -0.462 OA
ATOM      8  C   LIG d   1       4.441  -1.953  -6.156  0.00  0.00     0.104 A 
ATOM      9  C   LIG d   1       4.005  -0.715  -5.806  0.00  0.00     0.068 A 
ATOM     10  C   LIG d   1       3.267   0.083  -6.800  0.00  0.00     0.200 A 
ATOM     11  O   LIG d   1       2.851   1.200  -6.542  0.00  0.00    -0.286 OA
ATOM     12  H   LIG d   1       1.666   0.066 -11.133  0.00  0.00     0.064 H 
ATOM     13  H   LIG d   1       1.981   1.133  -8.956  0.00  0.00     0.063 H 
ATOM     14  H   LIG d   1       3.759  -3.413  -9.772  0.00  0.00     0.067 H 
ATOM     15  H   LIG d   1       4.981  -2.538  -5.427  0.00  0.00     0.104 H 
ENDROOT
BRANCH   1  16
ATOM     16  N   LIG d   1       2.500  -2.339 -11.821  0.00  0.00    -0.311 N 
ATOM     17  H   LIG d   1       3.250  -2.441 -12.429  0.00  0.00     0.152 HD
BRANCH  16  18
ATOM     18  C   LIG d   1       1.228  -2.794 -12.192  0.00  0.00     0.074 A 
ATOM     19  C   LIG d   1       0.328  -1.928 -12.796  0.00  0.00    -0.034 A 
ATOM     20  C   LIG d   1      -0.928  -2.375 -13.157  0.00  0.00    -0.018 A 
ATOM     21  H   LIG d   1       0.610  -0.901 -12.981  0.00  0.00     0.064 H 
ATOM     22  C   LIG d   1      -1.289  -3.695 -12.926  0.00  0.00     0.124 A 
ATOM     23  H   LIG d   1      -1.628  -1.698 -13.623  0.00  0.00     0.066 H 
ATOM     24  C   LIG d   1      -0.394  -4.564 -12.322  0.00  0.00     0.024 A 
ATOM     25  C   LIG d   1       0.864  -4.118 -11.955  0.00  0.00     0.145 A 
ATOM     26  H   LIG d   1      -0.678  -5.590 -12.139  0.00  0.00     0.069 H 
BRANCH  22  27
ATOM     27  O   LIG d   1      -2.524  -4.134 -13.288  0.00  0.00    -0.495 OA
BRANCH  27  28
ATOM     28  C   LIG d   1      -3.612  -3.793 -12.425  0.00  0.00     0.079 C 
ATOM     29  H   LIG d   1      -4.538  -3.765 -13.000  0.00  0.00     0.066 H 
ATOM     30  H   LIG d   1      -3.698  -4.541 -11.636  0.00  0.00     0.066 H 
ATOM     31  H   LIG d   1      -3.430  -2.816 -11.980  0.00  0.00     0.066 H 
ENDBRANCH  27  28
ENDBRANCH  22  27
BRANCH  25  32
ATOM     32  O   LIG d   1       1.744  -4.969 -11.362  0.00  0.00    -0.493 OA
BRANCH  32  33
ATOM     33  C   LIG d   1       1.262  -5.730 -10.252  0.00  0.00     0.079 C 
ATOM     34  H   LIG d   1       1.584  -5.259  -9.322  0.00  0.00     0.066 H 
ATOM     35  H   LIG d   1       0.173  -5.767 -10.283  0.00  0.00     0.066 H 
ATOM     36  H   LIG d   1       1.662  -6.743 -10.304  0.00  0.00     0.066 H 
ENDBRANCH  32  33
ENDBRANCH  25  32
ENDBRANCH  16  18
ENDBRANCH   1  16
BRANCH   9  37
ATOM     37  C   LIG d   1       4.267  -0.178  -4.449  0.00  0.00     0.030 A 
ATOM     38  C   LIG d   1       5.497   0.418  -4.155  0.00  0.00     0.128 A 
ATOM     39  C   LIG d   1       5.732   0.922  -2.885  0.00  0.00    -0.019 A 
ATOM     40  C   LIG d   1       4.756   0.826  -1.912  0.00  0.00    -0.058 A 
ATOM     41  H   LIG d   1       6.680   1.386  -2.656  0.00  0.00     0.065 H 
ATOM     42  C   LIG d   1       3.538   0.233  -2.199  0.00  0.00    -0.061 A 
ATOM     43  H   LIG d   1       4.943   1.216  -0.922  0.00  0.00     0.062 H 
ATOM     44  C   LIG d   1       3.291  -0.269  -3.460  0.00  0.00    -0.050 A 
ATOM     45  H   LIG d   1       2.781   0.163  -1.433  0.00  0.00     0.062 H 
ATOM     46  H   LIG d   1       2.340  -0.731  -3.680  0.00  0.00     0.062 H 
BRANCH  38  47
ATOM     47  O   LIG d   1       6.458   0.507  -5.112  0.00  0.00    -0.494 OA
BRANCH  47  48
ATOM     48  C   LIG d   1       7.640  -0.272  -4.918  0.00  0.00     0.079 C 
ATOM     49  H   LIG d   1       8.440   0.118  -5.546  0.00  0.00     0.066 H 
ATOM     50  H   LIG d   1       7.942  -0.222  -3.871  0.00  0.00     0.066 H 
ATOM     51  H   LIG d   1       7.440  -1.310  -5.189  0.00  0.00     0.066 H 
ENDBRANCH  47  48
ENDBRANCH  38  47
ENDBRANCH   9  37
TORSDOF 9
ENDMDL
MODEL 2
REMARK VINA RESULT:      -6.2      2.814      3.619
REMARK  9 active torsions:
REMARK  status: ('A' for Active; 'I' for Inactive)
REMARK    1  A    between atoms: C_1  and  O_2 
REMARK    2  A    between atoms: O_2  and  C_3 
REMARK    3  A    between atoms: C_6  and  N_11 
REMARK    4  A    between atoms: C_7  and  O_9 
REMARK    5  A    between atoms: O_9  and  C_10 
REMARK    6  A    between atoms: N_11  and  C_12 
REMARK    7  A    between atoms: C_20  and  C_23 
REMARK    8  A    between atoms: C_28  and  O_29 
REMARK    9  A    between atoms: O_29  and  C_30 
ROOT
ATOM      1  C   LIG d   1       4.194   0.306 -10.790  0.00  0.00     0.035 A 
ATOM      2  C   LIG d   1       3.171   1.033 -10.179  0.00  0.00    -0.040 A 
ATOM      3  C   LIG d   1       2.999   0.978  -8.826  0.00  0.00    -0.046 A 
ATOM      4  C   LIG d   1       3.857   0.197  -8.050  0.00  0.00     0.065 A 
ATOM      5  C   LIG d   1       4.895  -0.536  -8.653  0.00  0.00     0.140 A 
ATOM      6  C   LIG d   1       5.054  -0.474 -10.030  0.00  0.00     0.003 A 
ATOM      7  O   LIG d   1       5.723  -1.288  -7.901  0.00  0.00    -0.462 OA
ATOM      8  C   LIG d   1       5.620  -1.388  -6.573  0.00  0.00     0.104 A 
ATOM      9  C   LIG d   1       4.665  -0.733  -5.864  0.00  0.00     0.068 A 
ATOM     10  C   LIG d   1       3.704   0.119  -6.586  0.00  0.00     0.200 A 
ATOM     11  O   LIG d   1       2.826   0.729  -6.002  0.00  0.00    -0.286 OA
ATOM     12  H   LIG d   1       2.509   1.639 -10.781  0.00  0.00     0.064 H 
ATOM     13  H   LIG d   1       2.204   1.539  -8.358  0.00  0.00     0.063 H 
ATOM     14  H   LIG d   1       5.846  -1.030 -10.510  0.00  0.00     0.067 H 
ATOM     15  H   LIG d   1       6.323  -2.013  -6.043  0.00  0.00     0.104 H 
ENDROOT
BRANCH   1  16
ATOM     16  N   LIG d   1       4.354   0.367 -12.170  0.00  0.00    -0.311 N 
ATOM     17  H   LIG d   1       4.645   1.193 -12.588  0.00  0.00     0.152 HD
BRANCH  16  18
ATOM     18  C   LIG d   1       4.096  -0.764 -12.957  0.00  0.00     0.074 A 
ATOM     19  C   LIG d   1       2.846  -1.364 -12.922  0.00  0.00    -0.034 A 
ATOM     20  C   LIG d   1       2.594  -2.482 -13.693  0.00  0.00    -0.018 A 
ATOM     21  H   LIG d   1       2.071  -0.959 -12.288  0.00  0.00     0.064 H 
ATOM     22  C   LIG d   1       3.586  -3.002 -14.511  0.00  0.00     0.124 A 
ATOM     23  H   LIG d   1       1.622  -2.951 -13.661  0.00  0.00     0.066 H 
ATOM     24  C   LIG d   1       4.837  -2.405 -14.549  0.00  0.00     0.024 A 
ATOM     25  C   LIG d   1       5.096  -1.287 -13.774  0.00  0.00     0.145 A 
ATOM     26  H   LIG d   1       5.611  -2.813 -15.184  0.00  0.00     0.069 H 
BRANCH  22  27
ATOM     27  O   LIG d   1       3.333  -4.099 -15.274  0.00  0.00    -0.495 OA
BRANCH  27  28
ATOM     28  C   LIG d   1       2.144  -4.835 -14.977  0.00  0.00     0.079 C 
ATOM     29  H   LIG d   1       2.237  -5.294 -13.993  0.00  0.00     0.066 H 
ATOM     30  H   LIG d   1       1.289  -4.159 -14.984  0.00  0.00     0.066 H 
ATOM     31  H   LIG d   1       2.000  -5.610 -15.729  0.00  0.00     0.066 H 
ENDBRANCH  27  28
ENDBRANCH  22  27
BRANCH  25  32
ATOM     32  O   LIG d   1       6.322  -0.701 -13.810  0.00  0.00    -0.493 OA
BRANCH  32  33
ATOM     33  C   LIG d   1       6.941  -0.570 -15.091  0.00  0.00     0.079 C 
ATOM     34  H   LIG d   1       7.772  -1.272 -15.167  0.00  0.00     0.066 H 
ATOM     35  H   LIG d   1       6.211  -0.787 -15.871  0.00  0.00     0.066 H 
ATOM     36  H   LIG d   1       7.313   0.447 -15.214  0.00  0.00     0.066 H 
ENDBRANCH  32  33
ENDBRANCH  25  32
ENDBRANCH  16  18
ENDBRANCH   1  16
BRANCH   9  37
ATOM     37  C   LIG d   1       4.590  -0.874  -4.389  0.00  0.00     0.030 A 
ATOM     38  C   LIG d   1       5.211   0.066  -3.561  0.00  0.00     0.128 A 
ATOM     39  C   LIG d   1       5.132  -0.070  -2.185  0.00  0.00    -0.019 A 
ATOM     40  C   LIG d   1       4.449  -1.137  -1.633  0.00  0.00    -0.058 A 
ATOM     41  H   LIG d   1       5.609   0.656  -1.543  0.00  0.00     0.065 H 
ATOM     42  C   LIG d   1       3.837  -2.072  -2.450  0.00  0.00    -0.061 A 
ATOM     43  H   LIG d   1       4.393  -1.243  -0.559  0.00  0.00     0.062 H 
ATOM     44  C   LIG d   1       3.904  -1.945  -3.822  0.00  0.00    -0.050 A 
ATOM     45  H   LIG d   1       3.304  -2.903  -2.011  0.00  0.00     0.062 H 
ATOM     46  H   LIG d   1       3.425  -2.676  -4.457  0.00  0.00     0.062 H 
BRANCH  38  47
ATOM     47  O   LIG d   1       5.887   1.113  -4.105  0.00  0.00    -0.494 OA
BRANCH  47  48
ATOM     48  C   LIG d   1       7.287   1.192  -3.833  0.00  0.00     0.079 C 
ATOM     49  H   LIG d   1       7.733   1.977  -4.443  0.00  0.00     0.066 H 
ATOM     50  H   LIG d   1       7.441   1.420  -2.778  0.00  0.00     0.066 H 
ATOM     51  H   LIG d   1       7.758   0.237  -4.070  0.00  0.00     0.066 H 
ENDBRANCH  47  48
ENDBRANCH  38  47
ENDBRANCH   9  37
TORSDOF 9
ENDMDL
MODEL 3
REMARK VINA RESULT:      -6.0      2.652      3.746
REMARK  9 active torsions:
REMARK  status: ('A' for Active; 'I' for Inactive)
REMARK    1  A    between atoms: C_1  and  O_2 
REMARK    2  A    between atoms: O_2  and  C_3 
REMARK    3  A    between atoms: C_6  and  N_11 
REMARK    4  A    between atoms: C_7  and  O_9 
REMARK    5  A    between atoms: O_9  and  C_10 
REMARK    6  A    between atoms: N_11  and  C_12 
REMARK    7  A    between atoms: C_20  and  C_23 
REMARK    8  A    between atoms: C_28  and  O_29 
REMARK    9  A    between atoms: O_29  and  C_30 
ROOT
ATOM      1  C   LIG d   1       2.783  -1.776 -10.566  0.00  0.00     0.035 A 
ATOM      2  C   LIG d   1       2.265  -0.499 -10.340  0.00  0.00    -0.040 A 
ATOM      3  C   LIG d   1       2.416   0.100  -9.123  0.00  0.00    -0.046 A 
ATOM      4  C   LIG d   1       3.099  -0.566  -8.103  0.00  0.00     0.065 A 
ATOM      5  C   LIG d   1       3.628  -1.850  -8.321  0.00  0.00     0.140 A 
ATOM      6  C   LIG d   1       3.464  -2.448  -9.562  0.00  0.00     0.003 A 
ATOM      7  O   LIG d   1       4.288  -2.490  -7.335  0.00  0.00    -0.462 OA
ATOM      8  C   LIG d   1       4.480  -1.966  -6.120  0.00  0.00     0.104 A 
ATOM      9  C   LIG d   1       4.021  -0.735  -5.776  0.00  0.00     0.068 A 
ATOM     10  C   LIG d   1       3.284   0.053  -6.779  0.00  0.00     0.200 A 
ATOM     11  O   LIG d   1       2.850   1.163  -6.526  0.00  0.00    -0.286 OA
ATOM     12  H   LIG d   1       1.740   0.015 -11.132  0.00  0.00     0.064 H 
ATOM     13  H   LIG d   1       2.011   1.086  -8.951  0.00  0.00     0.063 H 
ATOM     14  H   LIG d   1       3.865  -3.434  -9.746  0.00  0.00     0.067 H 
ATOM     15  H   LIG d   1       5.019  -2.544  -5.385  0.00  0.00     0.104 H 
ENDROOT
BRANCH   1  16
ATOM     16  N   LIG d   1       2.618  -2.377 -11.810  0.00  0.00    -0.311 N 
ATOM     17  H   LIG d   1       2.047  -3.156 -11.900  0.00  0.00     0.152 HD
BRANCH  16  18
ATOM     18  C   LIG d   1       3.276  -1.855 -12.933  0.00  0.00     0.074 A 
ATOM     19  C   LIG d   1       4.565  -1.357 -12.814  0.00  0.00    -0.034 A 
ATOM     20  C   LIG d   1       5.210  -0.838 -13.919  0.00  0.00    -0.018 A 
ATOM     21  H   LIG d   1       5.063  -1.372 -11.855  0.00  0.00     0.064 H 
ATOM     22  C   LIG d   1       4.576  -0.823 -15.153  0.00  0.00     0.124 A 
ATOM     23  H   LIG d   1       6.213  -0.446 -13.824  0.00  0.00     0.066 H 
ATOM     24  C   LIG d   1       3.287  -1.319 -15.276  0.00  0.00     0.024 A 
ATOM     25  C   LIG d   1       2.635  -1.836 -14.169  0.00  0.00     0.145 A 
ATOM     26  H   LIG d   1       2.792  -1.303 -16.236  0.00  0.00     0.069 H 
BRANCH  22  27
ATOM     27  O   LIG d   1       5.216  -0.316 -16.240  0.00  0.00    -0.495 OA
BRANCH  27  28
ATOM     28  C   LIG d   1       6.605  -0.015 -16.093  0.00  0.00     0.079 C 
ATOM     29  H   LIG d   1       7.049   0.144 -17.076  0.00  0.00     0.066 H 
ATOM     30  H   LIG d   1       6.719   0.888 -15.493  0.00  0.00     0.066 H 
ATOM     31  H   LIG d   1       7.107  -0.846 -15.598  0.00  0.00     0.066 H 
ENDBRANCH  27  28
ENDBRANCH  22  27
BRANCH  25  32
ATOM     32  O   LIG d   1       1.371  -2.323 -14.289  0.00  0.00    -0.493 OA
BRANCH  32  33
ATOM     33  C   LIG d   1       1.174  -3.394 -15.213  0.00  0.00     0.079 C 
ATOM     34  H   LIG d   1       0.719  -3.008 -16.126  0.00  0.00     0.066 H 
ATOM     35  H   LIG d   1       2.135  -3.851 -15.451  0.00  0.00     0.066 H 
ATOM     36  H   LIG d   1       0.516  -4.142 -14.769  0.00  0.00     0.066 H 
ENDBRANCH  32  33
ENDBRANCH  25  32
ENDBRANCH  16  18
ENDBRANCH   1  16
BRANCH   9  37
ATOM     37  C   LIG d   1       4.258  -0.195  -4.415  0.00  0.00     0.030 A 
ATOM     38  C   LIG d   1       5.474   0.422  -4.106  0.00  0.00     0.128 A 
ATOM     39  C   LIG d   1       5.685   0.928  -2.833  0.00  0.00    -0.019 A 
ATOM     40  C   LIG d   1       4.699   0.814  -1.871  0.00  0.00    -0.058 A 
ATOM     41  H   LIG d   1       6.622   1.408  -2.592  0.00  0.00     0.065 H 
ATOM     42  C   LIG d   1       3.496   0.201  -2.173  0.00  0.00    -0.061 A 
ATOM     43  H   LIG d   1       4.868   1.207  -0.879  0.00  0.00     0.062 H 
ATOM     44  C   LIG d   1       3.271  -0.304  -3.438  0.00  0.00    -0.050 A 
ATOM     45  H   LIG d   1       2.730   0.116  -1.416  0.00  0.00     0.062 H 
ATOM     46  H   LIG d   1       2.331  -0.782  -3.670  0.00  0.00     0.062 H 
BRANCH  38  47
ATOM     47  O   LIG d   1       6.444   0.528  -5.051  0.00  0.00    -0.494 OA
BRANCH  47  48
ATOM     48  C   LIG d   1       7.725   0.991  -4.617  0.00  0.00     0.079 C 
ATOM     49  H   LIG d   1       8.269   1.402  -5.466  0.00  0.00     0.066 H 
ATOM     50  H   LIG d   1       7.595   1.764  -3.859  0.00  0.00     0.066 H 
ATOM     51  H   LIG d   1       8.287   0.158  -4.194  0.00  0.00     0.066 H 
ENDBRANCH  47  48
ENDBRANCH  38  47
ENDBRANCH   9  37
TORSDOF 9
ENDMDL
MODEL 4
REMARK VINA RESULT:      -6.0      5.227      8.226
REMARK  9 active torsions:
REMARK  status: ('A' for Active; 'I' for Inactive)
REMARK    1  A    between atoms: C_1  and  O_2 
REMARK    2  A    between atoms: O_2  and  C_3 
REMARK    3  A    between atoms: C_6  and  N_11 
REMARK    4  A    between atoms: C_7  and  O_9 
REMARK    5  A    between atoms: O_9  and  C_10 
REMARK    6  A    between atoms: N_11  and  C_12 
REMARK    7  A    between atoms: C_20  and  C_23 
REMARK    8  A    between atoms: C_28  and  O_29 
REMARK    9  A    between atoms: O_29  and  C_30 
ROOT
ATOM      1  C   LIG d   1       4.523  -6.156  -6.467  0.00  0.00     0.035 A 
ATOM      2  C   LIG d   1       4.753  -5.319  -5.374  0.00  0.00    -0.040 A 
ATOM      3  C   LIG d   1       4.710  -3.963  -5.523  0.00  0.00    -0.046 A 
ATOM      4  C   LIG d   1       4.425  -3.412  -6.774  0.00  0.00     0.065 A 
ATOM      5  C   LIG d   1       4.186  -4.245  -7.881  0.00  0.00     0.140 A 
ATOM      6  C   LIG d   1       4.238  -5.622  -7.716  0.00  0.00     0.003 A 
ATOM      7  O   LIG d   1       3.910  -3.710  -9.087  0.00  0.00    -0.462 OA
ATOM      8  C   LIG d   1       3.845  -2.394  -9.309  0.00  0.00     0.104 A 
ATOM      9  C   LIG d   1       4.054  -1.478  -8.329  0.00  0.00     0.068 A 
ATOM     10  C   LIG d   1       4.365  -1.953  -6.969  0.00  0.00     0.200 A 
ATOM     11  O   LIG d   1       4.562  -1.176  -6.050  0.00  0.00    -0.286 OA
ATOM     12  H   LIG d   1       4.971  -5.747  -4.406  0.00  0.00     0.064 H 
ATOM     13  H   LIG d   1       4.892  -3.319  -4.676  0.00  0.00     0.063 H 
ATOM     14  H   LIG d   1       4.057  -6.276  -8.556  0.00  0.00     0.067 H 
ATOM     15  H   LIG d   1       3.619  -2.046 -10.306  0.00  0.00     0.104 H 
ENDROOT
BRANCH   1  16
ATOM     16  N   LIG d   1       4.575  -7.536  -6.303  0.00  0.00    -0.311 N 
ATOM     17  H   LIG d   1       3.954  -8.105  -6.785  0.00  0.00     0.152 HD
BRANCH  16  18
ATOM     18  C   LIG d   1       5.523  -8.104  -5.441  0.00  0.00     0.074 A 
ATOM     19  C   LIG d   1       6.855  -7.724  -5.526  0.00  0.00    -0.034 A 
ATOM     20  C   LIG d   1       7.790  -8.289  -4.680  0.00  0.00    -0.018 A 
ATOM     21  H   LIG d   1       7.161  -6.989  -6.257  0.00  0.00     0.064 H 
ATOM     22  C   LIG d   1       7.399  -9.228  -3.737  0.00  0.00     0.124 A 
ATOM     23  H   LIG d   1       8.828  -7.996  -4.751  0.00  0.00     0.066 H 
ATOM     24  C   LIG d   1       6.070  -9.611  -3.649  0.00  0.00     0.024 A 
ATOM     25  C   LIG d   1       5.130  -9.051  -4.498  0.00  0.00     0.145 A 
ATOM     26  H   LIG d   1       5.767 -10.346  -2.917  0.00  0.00     0.069 H 
BRANCH  22  27
ATOM     27  O   LIG d   1       8.321  -9.778  -2.902  0.00  0.00    -0.495 OA
BRANCH  27  28
ATOM     28  C   LIG d   1       8.088  -9.641  -1.499  0.00  0.00     0.079 C 
ATOM     29  H   LIG d   1       7.592 -10.536  -1.123  0.00  0.00     0.066 H 
ATOM     30  H   LIG d   1       9.040  -9.510  -0.984  0.00  0.00     0.066 H 
ATOM     31  H   LIG d   1       7.456  -8.772  -1.319  0.00  0.00     0.066 H 
ENDBRANCH  27  28
ENDBRANCH  22  27
BRANCH  25  32
ATOM     32  O   LIG d   1       3.825  -9.425  -4.413  0.00  0.00    -0.493 OA
BRANCH  32  33
ATOM     33  C   LIG d   1       3.423 -10.106  -3.223  0.00  0.00     0.079 C 
ATOM     34  H   LIG d   1       4.048  -9.782  -2.390  0.00  0.00     0.066 H 
ATOM     35  H   LIG d   1       2.380  -9.872  -3.005  0.00  0.00     0.066 H 
ATOM     36  H   LIG d   1       3.533 -11.182  -3.363  0.00  0.00     0.066 H 
ENDBRANCH  32  33
ENDBRANCH  25  32
ENDBRANCH  16  18
ENDBRANCH   1  16
BRANCH   9  37
ATOM     37  C   LIG d   1       3.972  -0.026  -8.622  0.00  0.00     0.030 A 
ATOM     38  C   LIG d   1       5.126   0.689  -8.954  0.00  0.00     0.128 A 
ATOM     39  C   LIG d   1       5.040   2.044  -9.231  0.00  0.00    -0.019 A 
ATOM     40  C   LIG d   1       3.818   2.687  -9.168  0.00  0.00    -0.058 A 
ATOM     41  H   LIG d   1       5.929   2.600  -9.491  0.00  0.00     0.065 H 
ATOM     42  C   LIG d   1       2.674   1.982  -8.835  0.00  0.00    -0.061 A 
ATOM     43  H   LIG d   1       3.755   3.745  -9.380  0.00  0.00     0.062 H 
ATOM     44  C   LIG d   1       2.746   0.631  -8.562  0.00  0.00    -0.050 A 
ATOM     45  H   LIG d   1       1.723   2.491  -8.789  0.00  0.00     0.062 H 
ATOM     46  H   LIG d   1       1.852   0.084  -8.302  0.00  0.00     0.062 H 
BRANCH  38  47
ATOM     47  O   LIG d   1       6.328   0.057  -9.011  0.00  0.00    -0.494 OA
BRANCH  47  48
ATOM     48  C   LIG d   1       7.263   0.349  -7.970  0.00  0.00     0.079 C 
ATOM     49  H   LIG d   1       6.757   0.880  -7.165  0.00  0.00     0.066 H 
ATOM     50  H   LIG d   1       7.681  -0.582  -7.584  0.00  0.00     0.066 H 
ATOM     51  H   LIG d   1       8.067   0.970  -8.366  0.00  0.00     0.066 H 
ENDBRANCH  47  48
ENDBRANCH  38  47
ENDBRANCH   9  37
TORSDOF 9
ENDMDL
MODEL 5
REMARK VINA RESULT:      -5.9      5.837      9.245
REMARK  9 active torsions:
REMARK  status: ('A' for Active; 'I' for Inactive)
REMARK    1  A    between atoms: C_1  and  O_2 
REMARK    2  A    between atoms: O_2  and  C_3 
REMARK    3  A    between atoms: C_6  and  N_11 
REMARK    4  A    between atoms: C_7  and  O_9 
REMARK    5  A    between atoms: O_9  and  C_10 
REMARK    6  A    between atoms: N_11  and  C_12 
REMARK    7  A    between atoms: C_20  and  C_23 
REMARK    8  A    between atoms: C_28  and  O_29 
REMARK    9  A    between atoms: O_29  and  C_30 
ROOT
ATOM      1  C   LIG d   1       9.741   3.188  -6.924  0.00  0.00     0.035 A 
ATOM      2  C   LIG d   1       9.635   3.639  -5.607  0.00  0.00    -0.040 A 
ATOM      3  C   LIG d   1       8.766   3.041  -4.741  0.00  0.00    -0.046 A 
ATOM      4  C   LIG d   1       7.986   1.966  -5.174  0.00  0.00     0.065 A 
ATOM      5  C   LIG d   1       8.088   1.500  -6.497  0.00  0.00     0.140 A 
ATOM      6  C   LIG d   1       8.973   2.121  -7.367  0.00  0.00     0.003 A 
ATOM      7  O   LIG d   1       7.335   0.462  -6.912  0.00  0.00    -0.462 OA
ATOM      8  C   LIG d   1       6.467  -0.177  -6.122  0.00  0.00     0.104 A 
ATOM      9  C   LIG d   1       6.270   0.169  -4.824  0.00  0.00     0.068 A 
ATOM     10  C   LIG d   1       7.042   1.293  -4.265  0.00  0.00     0.200 A 
ATOM     11  O   LIG d   1       6.906   1.649  -3.107  0.00  0.00    -0.286 OA
ATOM     12  H   LIG d   1      10.241   4.469  -5.273  0.00  0.00     0.064 H 
ATOM     13  H   LIG d   1       8.684   3.395  -3.725  0.00  0.00     0.063 H 
ATOM     14  H   LIG d   1       9.064   1.775  -8.386  0.00  0.00     0.067 H 
ATOM     15  H   LIG d   1       5.901  -1.000  -6.532  0.00  0.00     0.104 H 
ENDROOT
BRANCH   1  16
ATOM     16  N   LIG d   1      10.627   3.810  -7.796  0.00  0.00    -0.311 N 
ATOM     17  H   LIG d   1      11.577   3.822  -7.596  0.00  0.00     0.152 HD
BRANCH  16  18
ATOM     18  C   LIG d   1      10.149   4.419  -8.966  0.00  0.00     0.074 A 
ATOM     19  C   LIG d   1       9.243   5.466  -8.883  0.00  0.00    -0.034 A 
ATOM     20  C   LIG d   1       8.768   6.061 -10.035  0.00  0.00    -0.018 A 
ATOM     21  H   LIG d   1       8.906   5.813  -7.917  0.00  0.00     0.064 H 
ATOM     22  C   LIG d   1       9.203   5.621 -11.277  0.00  0.00     0.124 A 
ATOM     23  H   LIG d   1       8.058   6.873  -9.969  0.00  0.00     0.066 H 
ATOM     24  C   LIG d   1      10.108   4.575 -11.364  0.00  0.00     0.024 A 
ATOM     25  C   LIG d   1      10.583   3.972 -10.212  0.00  0.00     0.145 A 
ATOM     26  H   LIG d   1      10.443   4.230 -12.331  0.00  0.00     0.069 H 
BRANCH  22  27
ATOM     27  O   LIG d   1       8.737   6.213 -12.409  0.00  0.00    -0.495 OA
BRANCH  27  28
ATOM     28  C   LIG d   1       9.669   6.389 -13.479  0.00  0.00     0.079 C 
ATOM     29  H   LIG d   1      10.555   5.781 -13.293  0.00  0.00     0.066 H 
ATOM     30  H   LIG d   1       9.207   6.081 -14.417  0.00  0.00     0.066 H 
ATOM     31  H   LIG d   1       9.955   7.438 -13.543  0.00  0.00     0.066 H 
ENDBRANCH  27  28
ENDBRANCH  22  27
BRANCH  25  32
ATOM     32  O   LIG d   1      11.471   2.945 -10.295  0.00  0.00    -0.493 OA
BRANCH  32  33
ATOM     33  C   LIG d   1      12.554   3.099 -11.215  0.00  0.00     0.079 C 
ATOM     34  H   LIG d   1      12.707   2.163 -11.755  0.00  0.00     0.066 H 
ATOM     35  H   LIG d   1      12.319   3.893 -11.925  0.00  0.00     0.066 H 
ATOM     36  H   LIG d   1      13.462   3.356 -10.669  0.00  0.00     0.066 H 
ENDBRANCH  32  33
ENDBRANCH  25  32
ENDBRANCH  16  18
ENDBRANCH   1  16
BRANCH   9  37
ATOM     37  C   LIG d   1       5.295  -0.569  -3.985  0.00  0.00     0.030 A 
ATOM     38  C   LIG d   1       3.936  -0.247  -4.040  0.00  0.00     0.128 A 
ATOM     39  C   LIG d   1       3.031  -0.945  -3.255  0.00  0.00    -0.019 A 
ATOM     40  C   LIG d   1       3.474  -1.948  -2.415  0.00  0.00    -0.058 A 
ATOM     41  H   LIG d   1       1.980  -0.700  -3.297  0.00  0.00     0.065 H 
ATOM     42  C   LIG d   1       4.820  -2.267  -2.356  0.00  0.00    -0.061 A 
ATOM     43  H   LIG d   1       2.767  -2.488  -1.802  0.00  0.00     0.062 H 
ATOM     44  C   LIG d   1       5.731  -1.582  -3.135  0.00  0.00    -0.050 A 
ATOM     45  H   LIG d   1       5.158  -3.053  -1.697  0.00  0.00     0.062 H 
ATOM     46  H   LIG d   1       6.780  -1.833  -3.086  0.00  0.00     0.062 H 
BRANCH  38  47
ATOM     47  O   LIG d   1       3.503   0.744  -4.862  0.00  0.00    -0.494 OA
BRANCH  47  48
ATOM     48  C   LIG d   1       2.746   0.350  -6.009  0.00  0.00     0.079 C 
ATOM     49  H   LIG d   1       2.720  -0.737  -6.072  0.00  0.00     0.066 H 
ATOM     50  H   LIG d   1       1.729   0.734  -5.924  0.00  0.00     0.066 H 
ATOM     51  H   LIG d   1       3.213   0.754  -6.909  0.00  0.00     0.066 H 
ENDBRANCH  47  48
ENDBRANCH  38  47
ENDBRANCH   9  37
TORSDOF 9
ENDMDL
MODEL 6
REMARK VINA RESULT:      -5.9      6.138     10.498
REMARK  9 active torsions:
REMARK  status: ('A' for Active; 'I' for Inactive)
REMARK    1  A    between atoms: C_1  and  O_2 
REMARK    2  A    between atoms: O_2  and  C_3 
REMARK    3  A    between atoms: C_6  and  N_11 
REMARK    4  A    between atoms: C_7  and  O_9 
REMARK    5  A    between atoms: O_9  and  C_10 
REMARK    6  A    between atoms: N_11  and  C_12 
REMARK    7  A    between atoms: C_20  and  C_23 
REMARK    8  A    between atoms: C_28  and  O_29 
REMARK    9  A    between atoms: O_29  and  C_30 
ROOT
ATOM      1  C   LIG d   1       9.684   3.225  -6.951  0.00  0.00     0.035 A 
ATOM      2  C   LIG d   1       9.632   3.649  -5.622  0.00  0.00    -0.040 A 
ATOM      3  C   LIG d   1       8.791   3.040  -4.736  0.00  0.00    -0.046 A 
ATOM      4  C   LIG d   1       7.985   1.982  -5.162  0.00  0.00     0.065 A 
ATOM      5  C   LIG d   1       8.032   1.543  -6.497  0.00  0.00     0.140 A 
ATOM      6  C   LIG d   1       8.888   2.175  -7.387  0.00  0.00     0.003 A 
ATOM      7  O   LIG d   1       7.253   0.521  -6.904  0.00  0.00    -0.462 OA
ATOM      8  C   LIG d   1       6.409  -0.127  -6.095  0.00  0.00     0.104 A 
ATOM      9  C   LIG d   1       6.265   0.194  -4.784  0.00  0.00     0.068 A 
ATOM     10  C   LIG d   1       7.069   1.298  -4.231  0.00  0.00     0.200 A 
ATOM     11  O   LIG d   1       6.981   1.630  -3.062  0.00  0.00    -0.286 OA
ATOM     12  H   LIG d   1      10.259   4.466  -5.294  0.00  0.00     0.064 H 
ATOM     13  H   LIG d   1       8.752   3.373  -3.710  0.00  0.00     0.063 H 
ATOM     14  H   LIG d   1       8.937   1.850  -8.416  0.00  0.00     0.067 H 
ATOM     15  H   LIG d   1       5.820  -0.935  -6.500  0.00  0.00     0.104 H 
ENDROOT
BRANCH   1  16
ATOM     16  N   LIG d   1      10.542   3.857  -7.844  0.00  0.00    -0.311 N 
ATOM     17  H   LIG d   1      11.238   3.349  -8.290  0.00  0.00     0.152 HD
BRANCH  16  18
ATOM     18  C   LIG d   1      10.402   5.229  -8.100  0.00  0.00     0.074 A 
ATOM     19  C   LIG d   1       9.302   5.695  -8.805  0.00  0.00    -0.034 A 
ATOM     20  C   LIG d   1       9.168   7.046  -9.062  0.00  0.00    -0.018 A 
ATOM     21  H   LIG d   1       8.553   5.001  -9.158  0.00  0.00     0.064 H 
ATOM     22  C   LIG d   1      10.125   7.940  -8.607  0.00  0.00     0.124 A 
ATOM     23  H   LIG d   1       8.313   7.407  -9.616  0.00  0.00     0.066 H 
ATOM     24  C   LIG d   1      11.226   7.478  -7.901  0.00  0.00     0.024 A 
ATOM     25  C   LIG d   1      11.367   6.125  -7.646  0.00  0.00     0.145 A 
ATOM     26  H   LIG d   1      11.973   8.175  -7.551  0.00  0.00     0.069 H 
BRANCH  22  27
ATOM     27  O   LIG d   1       9.987   9.270  -8.856  0.00  0.00    -0.495 OA
BRANCH  27  28
ATOM     28  C   LIG d   1      10.298  10.166  -7.787  0.00  0.00     0.079 C 
ATOM     29  H   LIG d   1      11.326  10.003  -7.462  0.00  0.00     0.066 H 
ATOM     30  H   LIG d   1      10.185  11.194  -8.130  0.00  0.00     0.066 H 
ATOM     31  H   LIG d   1       9.621   9.985  -6.953  0.00  0.00     0.066 H 
ENDBRANCH  27  28
ENDBRANCH  22  27
BRANCH  25  32
ATOM     32  O   LIG d   1      12.446   5.670  -6.954  0.00  0.00    -0.493 OA
BRANCH  32  33
ATOM     33  C   LIG d   1      12.524   6.021  -5.571  0.00  0.00     0.079 C 
ATOM     34  H   LIG d   1      11.926   5.323  -4.985  0.00  0.00     0.066 H 
ATOM     35  H   LIG d   1      13.563   5.975  -5.243  0.00  0.00     0.066 H 
ATOM     36  H   LIG d   1      12.143   7.033  -5.431  0.00  0.00     0.066 H 
ENDBRANCH  32  33
ENDBRANCH  25  32
ENDBRANCH  16  18
ENDBRANCH   1  16
BRANCH   9  37
ATOM     37  C   LIG d   1       5.316  -0.553  -3.923  0.00  0.00     0.030 A 
ATOM     38  C   LIG d   1       3.975  -0.164  -3.854  0.00  0.00     0.128 A 
ATOM     39  C   LIG d   1       3.094  -0.870  -3.051  0.00  0.00    -0.019 A 
ATOM     40  C   LIG d   1       3.543  -1.949  -2.314  0.00  0.00    -0.058 A 
ATOM     41  H   LIG d   1       2.057  -0.573  -2.998  0.00  0.00     0.065 H 
ATOM     42  C   LIG d   1       4.871  -2.335  -2.377  0.00  0.00    -0.061 A 
ATOM     43  H   LIG d   1       2.854  -2.495  -1.686  0.00  0.00     0.062 H 
ATOM     44  C   LIG d   1       5.758  -1.642  -3.177  0.00  0.00    -0.050 A 
ATOM     45  H   LIG d   1       5.214  -3.180  -1.799  0.00  0.00     0.062 H 
ATOM     46  H   LIG d   1       6.793  -1.946  -3.223  0.00  0.00     0.062 H 
BRANCH  38  47
ATOM     47  O   LIG d   1       3.536   0.901  -4.575  0.00  0.00    -0.494 OA
BRANCH  47  48
ATOM     48  C   LIG d   1       2.429   0.679  -5.451  0.00  0.00     0.079 C 
ATOM     49  H   LIG d   1       2.687  -0.094  -6.174  0.00  0.00     0.066 H 
ATOM     50  H   LIG d   1       1.564   0.360  -4.870  0.00  0.00     0.066 H 
ATOM     51  H   LIG d   1       2.191   1.604  -5.978  0.00  0.00     0.066 H 
ENDBRANCH  47  48
ENDBRANCH  38  47
ENDBRANCH   9  37
TORSDOF 9
ENDMDL
MODEL 7
REMARK VINA RESULT:      -5.8      6.950     11.356
REMARK  9 active torsions:
REMARK  status: ('A' for Active; 'I' for Inactive)
REMARK    1  A    between atoms: C_1  and  O_2 
REMARK    2  A    between atoms: O_2  and  C_3 
REMARK    3  A    between atoms: C_6  and  N_11 
REMARK    4  A    between atoms: C_7  and  O_9 
REMARK    5  A    between atoms: O_9  and  C_10 
REMARK    6  A    between atoms: N_11  and  C_12 
REMARK    7  A    between atoms: C_20  and  C_23 
REMARK    8  A    between atoms: C_28  and  O_29 
REMARK    9  A    between atoms: O_29  and  C_30 
ROOT
ATOM      1  C   LIG d   1      10.042   4.087  -6.327  0.00  0.00     0.035 A 
ATOM      2  C   LIG d   1       9.570   3.410  -7.453  0.00  0.00    -0.040 A 
ATOM      3  C   LIG d   1       8.707   2.361  -7.316  0.00  0.00    -0.046 A 
ATOM      4  C   LIG d   1       8.287   1.972  -6.042  0.00  0.00     0.065 A 
ATOM      5  C   LIG d   1       8.752   2.651  -4.901  0.00  0.00     0.140 A 
ATOM      6  C   LIG d   1       9.633   3.711  -5.056  0.00  0.00     0.003 A 
ATOM      7  O   LIG d   1       8.344   2.273  -3.673  0.00  0.00    -0.462 OA
ATOM      8  C   LIG d   1       7.497   1.261  -3.459  0.00  0.00     0.104 A 
ATOM      9  C   LIG d   1       6.973   0.523  -4.471  0.00  0.00     0.068 A 
ATOM     10  C   LIG d   1       7.352   0.849  -5.857  0.00  0.00     0.200 A 
ATOM     11  O   LIG d   1       6.913   0.220  -6.804  0.00  0.00    -0.286 OA
ATOM     12  H   LIG d   1       9.894   3.714  -8.438  0.00  0.00     0.064 H 
ATOM     13  H   LIG d   1       8.348   1.838  -8.189  0.00  0.00     0.063 H 
ATOM     14  H   LIG d   1       9.998   4.243  -4.190  0.00  0.00     0.067 H 
ATOM     15  H   LIG d   1       7.221   1.022  -2.444  0.00  0.00     0.104 H 
ENDROOT
BRANCH   1  16
ATOM     16  N   LIG d   1      10.925   5.150  -6.482  0.00  0.00    -0.311 N 
ATOM     17  H   LIG d   1      11.841   4.984  -6.756  0.00  0.00     0.152 HD
BRANCH  16  18
ATOM     18  C   LIG d   1      10.491   6.462  -6.242  0.00  0.00     0.074 A 
ATOM     19  C   LIG d   1       9.676   7.104  -7.163  0.00  0.00    -0.034 A 
ATOM     20  C   LIG d   1       9.254   8.398  -6.930  0.00  0.00    -0.018 A 
ATOM     21  H   LIG d   1       9.374   6.591  -8.065  0.00  0.00     0.064 H 
ATOM     22  C   LIG d   1       9.636   9.056  -5.770  0.00  0.00     0.124 A 
ATOM     23  H   LIG d   1       8.623   8.898  -7.650  0.00  0.00     0.066 H 
ATOM     24  C   LIG d   1      10.452   8.419  -4.847  0.00  0.00     0.024 A 
ATOM     25  C   LIG d   1      10.880   7.123  -5.080  0.00  0.00     0.145 A 
ATOM     26  H   LIG d   1      10.752   8.934  -3.946  0.00  0.00     0.069 H 
BRANCH  22  27
ATOM     27  O   LIG d   1       9.215  10.329  -5.540  0.00  0.00    -0.495 OA
BRANCH  27  28
ATOM     28  C   LIG d   1       9.241  10.785  -4.185  0.00  0.00     0.079 C 
ATOM     29  H   LIG d   1       8.254  11.157  -3.908  0.00  0.00     0.066 H 
ATOM     30  H   LIG d   1       9.515   9.959  -3.529  0.00  0.00     0.066 H 
ATOM     31  H   LIG d   1       9.972  11.586  -4.086  0.00  0.00     0.066 H 
ENDBRANCH  27  28
ENDBRANCH  22  27
BRANCH  25  32
ATOM     32  O   LIG d   1      11.680   6.497  -4.176  0.00  0.00    -0.493 OA
BRANCH  32  33
ATOM     33  C   LIG d   1      11.498   6.842  -2.801  0.00  0.00     0.079 C 
ATOM     34  H   LIG d   1      11.700   5.969  -2.178  0.00  0.00     0.066 H 
ATOM     35  H   LIG d   1      12.184   7.646  -2.533  0.00  0.00     0.066 H 
ATOM     36  H   LIG d   1      10.471   7.171  -2.641  0.00  0.00     0.066 H 
ENDBRANCH  32  33
ENDBRANCH  25  32
ENDBRANCH  16  18
ENDBRANCH   1  16
BRANCH   9  37
ATOM     37  C   LIG d   1       6.037  -0.592  -4.186  0.00  0.00     0.030 A 
ATOM     38  C   LIG d   1       4.702  -0.324  -3.870  0.00  0.00     0.128 A 
ATOM     39  C   LIG d   1       3.833  -1.371  -3.609  0.00  0.00    -0.019 A 
ATOM     40  C   LIG d   1       4.288  -2.675  -3.653  0.00  0.00    -0.058 A 
ATOM     41  H   LIG d   1       2.800  -1.167  -3.368  0.00  0.00     0.065 H 
ATOM     42  C   LIG d   1       5.610  -2.943  -3.961  0.00  0.00    -0.061 A 
ATOM     43  H   LIG d   1       3.609  -3.489  -3.445  0.00  0.00     0.062 H 
ATOM     44  C   LIG d   1       6.485  -1.910  -4.227  0.00  0.00    -0.050 A 
ATOM     45  H   LIG d   1       5.958  -3.965  -3.994  0.00  0.00     0.062 H 
ATOM     46  H   LIG d   1       7.516  -2.122  -4.467  0.00  0.00     0.062 H 
BRANCH  38  47
ATOM     47  O   LIG d   1       4.257   0.960  -3.822  0.00  0.00    -0.494 OA
BRANCH  47  48
ATOM     48  C   LIG d   1       3.699   1.407  -2.585  0.00  0.00     0.079 C 
ATOM     49  H   LIG d   1       2.613   1.443  -2.668  0.00  0.00     0.066 H 
ATOM     50  H   LIG d   1       3.980   0.718  -1.788  0.00  0.00     0.066 H 
ATOM     51  H   LIG d   1       4.078   2.403  -2.354  0.00  0.00     0.066 H 
ENDBRANCH  47  48
ENDBRANCH  38  47
ENDBRANCH   9  37
TORSDOF 9
ENDMDL
MODEL 8
REMARK VINA RESULT:      -5.8      7.645     11.057
REMARK  9 active torsions:
REMARK  status: ('A' for Active; 'I' for Inactive)
REMARK    1  A    between atoms: C_1  and  O_2 
REMARK    2  A    between atoms: O_2  and  C_3 
REMARK    3  A    between atoms: C_6  and  N_11 
REMARK    4  A    between atoms: C_7  and  O_9 
REMARK    5  A    between atoms: O_9  and  C_10 
REMARK    6  A    between atoms: N_11  and  C_12 
REMARK    7  A    between atoms: C_20  and  C_23 
REMARK    8  A    between atoms: C_28  and  O_29 
REMARK    9  A    between atoms: O_29  and  C_30 
ROOT
ATOM      1  C   LIG d   1       9.154   2.295  -4.252  0.00  0.00     0.035 A 
ATOM      2  C   LIG d   1       8.823   3.321  -5.139  0.00  0.00    -0.040 A 
ATOM      3  C   LIG d   1       9.235   4.600  -4.898  0.00  0.00    -0.046 A 
ATOM      4  C   LIG d   1       9.998   4.880  -3.762  0.00  0.00     0.065 A 
ATOM      5  C   LIG d   1      10.342   3.853  -2.864  0.00  0.00     0.140 A 
ATOM      6  C   LIG d   1       9.912   2.559  -3.120  0.00  0.00     0.003 A 
ATOM      7  O   LIG d   1      11.079   4.126  -1.770  0.00  0.00    -0.462 OA
ATOM      8  C   LIG d   1      11.523   5.350  -1.470  0.00  0.00     0.104 A 
ATOM      9  C   LIG d   1      11.264   6.431  -2.250  0.00  0.00     0.068 A 
ATOM     10  C   LIG d   1      10.464   6.247  -3.474  0.00  0.00     0.200 A 
ATOM     11  O   LIG d   1      10.201   7.181  -4.211  0.00  0.00    -0.286 OA
ATOM     12  H   LIG d   1       8.235   3.102  -6.018  0.00  0.00     0.064 H 
ATOM     13  H   LIG d   1       8.974   5.391  -5.584  0.00  0.00     0.063 H 
ATOM     14  H   LIG d   1      10.167   1.759  -2.441  0.00  0.00     0.067 H 
ATOM     15  H   LIG d   1      12.108   5.485  -0.573  0.00  0.00     0.104 H 
ENDROOT
BRANCH   1  16
ATOM     16  N   LIG d   1       8.724   0.998  -4.507  0.00  0.00    -0.311 N 
ATOM     17  H   LIG d   1       9.228   0.430  -5.111  0.00  0.00     0.152 HD
BRANCH  16  18
ATOM     18  C   LIG d   1       7.562   0.510  -3.892  0.00  0.00     0.074 A 
ATOM     19  C   LIG d   1       6.650   1.392  -3.332  0.00  0.00    -0.034 A 
ATOM     20  C   LIG d   1       5.508   0.911  -2.720  0.00  0.00    -0.018 A 
ATOM     21  H   LIG d   1       6.834   2.456  -3.371  0.00  0.00     0.064 H 
ATOM     22  C   LIG d   1       5.266  -0.454  -2.674  0.00  0.00     0.124 A 
ATOM     23  H   LIG d   1       4.801   1.599  -2.280  0.00  0.00     0.066 H 
ATOM     24  C   LIG d   1       6.175  -1.340  -3.232  0.00  0.00     0.024 A 
ATOM     25  C   LIG d   1       7.323  -0.861  -3.841  0.00  0.00     0.145 A 
ATOM     26  H   LIG d   1       5.988  -2.403  -3.191  0.00  0.00     0.069 H 
BRANCH  22  27
ATOM     27  O   LIG d   1       4.139  -0.925  -2.076  0.00  0.00    -0.495 OA
BRANCH  27  28
ATOM     28  C   LIG d   1       3.691  -2.224  -2.469  0.00  0.00     0.079 C 
ATOM     29  H   LIG d   1       4.285  -2.983  -1.959  0.00  0.00     0.066 H 
ATOM     30  H   LIG d   1       2.641  -2.343  -2.199  0.00  0.00     0.066 H 
ATOM     31  H   LIG d   1       3.804  -2.337  -3.546  0.00  0.00     0.066 H 
ENDBRANCH  27  28
ENDBRANCH  22  27
BRANCH  25  32
ATOM     32  O   LIG d   1       8.216  -1.729  -4.389  0.00  0.00    -0.493 OA
BRANCH  32  33
ATOM     33  C   LIG d   1       8.223  -3.062  -3.876  0.00  0.00     0.079 C 
ATOM     34  H   LIG d   1       8.448  -3.040  -2.809  0.00  0.00     0.066 H 
ATOM     35  H   LIG d   1       7.244  -3.516  -4.031  0.00  0.00     0.066 H 
ATOM     36  H   LIG d   1       8.982  -3.648  -4.395  0.00  0.00     0.066 H 
ENDBRANCH  32  33
ENDBRANCH  25  32
ENDBRANCH  16  18
ENDBRANCH   1  16
BRANCH   9  37
ATOM     37  C   LIG d   1      11.777   7.772  -1.877  0.00  0.00     0.030 A 
ATOM     38  C   LIG d   1      10.990   8.637  -1.112  0.00  0.00     0.128 A 
ATOM     39  C   LIG d   1      11.478   9.886  -0.764  0.00  0.00    -0.019 A 
ATOM     40  C   LIG d   1      12.736  10.278  -1.182  0.00  0.00    -0.058 A 
ATOM     41  H   LIG d   1      10.873  10.556  -0.171  0.00  0.00     0.065 H 
ATOM     42  C   LIG d   1      13.516   9.425  -1.943  0.00  0.00    -0.061 A 
ATOM     43  H   LIG d   1      13.112  11.254  -0.913  0.00  0.00     0.062 H 
ATOM     44  C   LIG d   1      13.043   8.177  -2.292  0.00  0.00    -0.050 A 
ATOM     45  H   LIG d   1      14.498   9.738  -2.265  0.00  0.00     0.062 H 
ATOM     46  H   LIG d   1      13.654   7.514  -2.887  0.00  0.00     0.062 H 
BRANCH  38  47
ATOM     47  O   LIG d   1       9.751   8.253  -0.707  0.00  0.00    -0.494 OA
BRANCH  47  48
ATOM     48  C   LIG d   1       8.710   9.229  -0.787  0.00  0.00     0.079 C 
ATOM     49  H   LIG d   1       9.132  10.185  -1.096  0.00  0.00     0.066 H 
ATOM     50  H   LIG d   1       7.965   8.908  -1.515  0.00  0.00     0.066 H 
ATOM     51  H   LIG d   1       8.239   9.339   0.190  0.00  0.00     0.066 H 
ENDBRANCH  47  48
ENDBRANCH  38  47
ENDBRANCH   9  37
TORSDOF 9
ENDMDL
MODEL 9
REMARK VINA RESULT:      -5.7      1.499      2.683
REMARK  9 active torsions:
REMARK  status: ('A' for Active; 'I' for Inactive)
REMARK    1  A    between atoms: C_1  and  O_2 
REMARK    2  A    between atoms: O_2  and  C_3 
REMARK    3  A    between atoms: C_6  and  N_11 
REMARK    4  A    between atoms: C_7  and  O_9 
REMARK    5  A    between atoms: O_9  and  C_10 
REMARK    6  A    between atoms: N_11  and  C_12 
REMARK    7  A    between atoms: C_20  and  C_23 
REMARK    8  A    between atoms: C_28  and  O_29 
REMARK    9  A    between atoms: O_29  and  C_30 
ROOT
ATOM      1  C   LIG d   1       2.695  -1.666 -10.599  0.00  0.00     0.035 A 
ATOM      2  C   LIG d   1       2.200  -0.385 -10.345  0.00  0.00    -0.040 A 
ATOM      3  C   LIG d   1       2.372   0.190  -9.119  0.00  0.00    -0.046 A 
ATOM      4  C   LIG d   1       3.055  -0.503  -8.118  0.00  0.00     0.065 A 
ATOM      5  C   LIG d   1       3.563  -1.791  -8.364  0.00  0.00     0.140 A 
ATOM      6  C   LIG d   1       3.376  -2.366  -9.613  0.00  0.00     0.003 A 
ATOM      7  O   LIG d   1       4.223  -2.458  -7.396  0.00  0.00    -0.462 OA
ATOM      8  C   LIG d   1       4.435  -1.959  -6.174  0.00  0.00     0.104 A 
ATOM      9  C   LIG d   1       3.999  -0.727  -5.804  0.00  0.00     0.068 A 
ATOM     10  C   LIG d   1       3.264   0.090  -6.786  0.00  0.00     0.200 A 
ATOM     11  O   LIG d   1       2.848   1.202  -6.509  0.00  0.00    -0.286 OA
ATOM     12  H   LIG d   1       1.674   0.151 -11.122  0.00  0.00     0.064 H 
ATOM     13  H   LIG d   1       1.984   1.179  -8.926  0.00  0.00     0.063 H 
ATOM     14  H   LIG d   1       3.760  -3.354  -9.818  0.00  0.00     0.067 H 
ATOM     15  H   LIG d   1       4.972  -2.557  -5.455  0.00  0.00     0.104 H 
ENDROOT
BRANCH   1  16
ATOM     16  N   LIG d   1       2.509  -2.242 -11.850  0.00  0.00    -0.311 N 
ATOM     17  H   LIG d   1       2.265  -1.687 -12.608  0.00  0.00     0.152 HD
BRANCH  16  18
ATOM     18  C   LIG d   1       2.672  -3.624 -12.018  0.00  0.00     0.074 A 
ATOM     19  C   LIG d   1       3.924  -4.145 -12.313  0.00  0.00    -0.034 A 
ATOM     20  C   LIG d   1       4.084  -5.506 -12.484  0.00  0.00    -0.018 A 
ATOM     21  H   LIG d   1       4.773  -3.484 -12.414  0.00  0.00     0.064 H 
ATOM     22  C   LIG d   1       2.996  -6.357 -12.350  0.00  0.00     0.124 A 
ATOM     23  H   LIG d   1       5.058  -5.910 -12.719  0.00  0.00     0.066 H 
ATOM     24  C   LIG d   1       1.743  -5.841 -12.055  0.00  0.00     0.024 A 
ATOM     25  C   LIG d   1       1.578  -4.476 -11.888  0.00  0.00     0.145 A 
ATOM     26  H   LIG d   1       0.896  -6.504 -11.956  0.00  0.00     0.069 H 
BRANCH  22  27
ATOM     27  O   LIG d   1       3.157  -7.698 -12.513  0.00  0.00    -0.495 OA
BRANCH  27  28
ATOM     28  C   LIG d   1       3.547  -8.448 -11.361  0.00  0.00     0.079 C 
ATOM     29  H   LIG d   1       4.631  -8.409 -11.250  0.00  0.00     0.066 H 
ATOM     30  H   LIG d   1       3.077  -8.023 -10.474  0.00  0.00     0.066 H 
ATOM     31  H   LIG d   1       3.231  -9.484 -11.478  0.00  0.00     0.066 H 
ENDBRANCH  27  28
ENDBRANCH  22  27
BRANCH  25  32
ATOM     32  O   LIG d   1       0.350  -3.968 -11.599  0.00  0.00    -0.493 OA
BRANCH  32  33
ATOM     33  C   LIG d   1      -0.378  -4.596 -10.542  0.00  0.00     0.079 C 
ATOM     34  H   LIG d   1      -0.786  -3.832  -9.878  0.00  0.00     0.066 H 
ATOM     35  H   LIG d   1      -1.193  -5.185 -10.962  0.00  0.00     0.066 H 
ATOM     36  H   LIG d   1       0.289  -5.248  -9.977  0.00  0.00     0.066 H 
ENDBRANCH  32  33
ENDBRANCH  25  32
ENDBRANCH  16  18
ENDBRANCH   1  16
BRANCH   9  37
ATOM     37  C   LIG d   1       4.257  -0.214  -4.437  0.00  0.00     0.030 A 
ATOM     38  C   LIG d   1       5.476   0.400  -4.136  0.00  0.00     0.128 A 
ATOM     39  C   LIG d   1       5.708   0.881  -2.857  0.00  0.00    -0.019 A 
ATOM     40  C   LIG d   1       4.740   0.744  -1.881  0.00  0.00    -0.058 A 
ATOM     41  H   LIG d   1       6.648   1.359  -2.623  0.00  0.00     0.065 H 
ATOM     42  C   LIG d   1       3.533   0.132  -2.174  0.00  0.00    -0.061 A 
ATOM     43  H   LIG d   1       4.925   1.116  -0.884  0.00  0.00     0.062 H 
ATOM     44  C   LIG d   1       3.289  -0.347  -3.445  0.00  0.00    -0.050 A 
ATOM     45  H   LIG d   1       2.782   0.029  -1.406  0.00  0.00     0.062 H 
ATOM     46  H   LIG d   1       2.346  -0.824  -3.670  0.00  0.00     0.062 H 
BRANCH  38  47
ATOM     47  O   LIG d   1       6.429   0.530  -5.096  0.00  0.00    -0.494 OA
BRANCH  47  48
ATOM     48  C   LIG d   1       7.751   0.103  -4.760  0.00  0.00     0.079 C 
ATOM     49  H   LIG d   1       7.729  -0.436  -3.813  0.00  0.00     0.066 H 
ATOM     50  H   LIG d   1       8.132  -0.554  -5.543  0.00  0.00     0.066 H 
ATOM     51  H   LIG d   1       8.402   0.973  -4.667  0.00  0.00     0.066 H 
ENDBRANCH  47  48
ENDBRANCH  38  47
ENDBRANCH   9  37
TORSDOF 9
ENDMDL
MODEL 10
REMARK VINA RESULT:      -5.7      7.900     11.403
REMARK  9 active torsions:
REMARK  status: ('A' for Active; 'I' for Inactive)
REMARK    1  A    between atoms: C_1  and  O_2 
REMARK    2  A    between atoms: O_2  and  C_3 
REMARK    3  A    between atoms: C_6  and  N_11 
REMARK    4  A    between atoms: C_7  and  O_9 
REMARK    5  A    between atoms: O_9  and  C_10 
REMARK    6  A    between atoms: N_11  and  C_12 
REMARK    7  A    between atoms: C_20  and  C_23 
REMARK    8  A    between atoms: C_28  and  O_29 
REMARK    9  A    between atoms: O_29  and  C_30 
ROOT
ATOM      1  C   LIG d   1       8.880  -3.878  -4.221  0.00  0.00     0.035 A 
ATOM      2  C   LIG d   1       9.636  -3.755  -3.054  0.00  0.00    -0.040 A 
ATOM      3  C   LIG d   1       9.937  -4.858  -2.308  0.00  0.00    -0.046 A 
ATOM      4  C   LIG d   1       9.493  -6.116  -2.722  0.00  0.00     0.065 A 
ATOM      5  C   LIG d   1       8.735  -6.252  -3.898  0.00  0.00     0.140 A 
ATOM      6  C   LIG d   1       8.433  -5.121  -4.644  0.00  0.00     0.003 A 
ATOM      7  O   LIG d   1       8.309  -7.468  -4.295  0.00  0.00    -0.462 OA
ATOM      8  C   LIG d   1       8.568  -8.592  -3.622  0.00  0.00     0.104 A 
ATOM      9  C   LIG d   1       9.288  -8.604  -2.471  0.00  0.00     0.068 A 
ATOM     10  C   LIG d   1       9.804  -7.328  -1.944  0.00  0.00     0.200 A 
ATOM     11  O   LIG d   1      10.456  -7.278  -0.915  0.00  0.00    -0.286 OA
ATOM     12  H   LIG d   1       9.981  -2.781  -2.737  0.00  0.00     0.064 H 
ATOM     13  H   LIG d   1      10.518  -4.758  -1.404  0.00  0.00     0.063 H 
ATOM     14  H   LIG d   1       7.853  -5.209  -5.550  0.00  0.00     0.067 H 
ATOM     15  H   LIG d   1       8.189  -9.527  -4.007  0.00  0.00     0.104 H 
ENDROOT
BRANCH   1  16
ATOM     16  N   LIG d   1       8.577  -2.745  -4.969  0.00  0.00    -0.311 N 
ATOM     17  H   LIG d   1       8.881  -2.675  -5.888  0.00  0.00     0.152 HD
BRANCH  16  18
ATOM     18  C   LIG d   1       7.831  -1.705  -4.396  0.00  0.00     0.074 A 
ATOM     19  C   LIG d   1       6.761  -1.995  -3.562  0.00  0.00    -0.034 A 
ATOM     20  C   LIG d   1       6.023  -0.971  -3.002  0.00  0.00    -0.018 A 
ATOM     21  H   LIG d   1       6.503  -3.024  -3.354  0.00  0.00     0.064 H 
ATOM     22  C   LIG d   1       6.356   0.350  -3.264  0.00  0.00     0.124 A 
ATOM     23  H   LIG d   1       5.187  -1.198  -2.357  0.00  0.00     0.066 H 
ATOM     24  C   LIG d   1       7.424   0.645  -4.097  0.00  0.00     0.024 A 
ATOM     25  C   LIG d   1       8.163  -0.379  -4.664  0.00  0.00     0.145 A 
ATOM     26  H   LIG d   1       7.680   1.674  -4.303  0.00  0.00     0.069 H 
BRANCH  22  27
ATOM     27  O   LIG d   1       5.631   1.357  -2.706  0.00  0.00    -0.495 OA
BRANCH  27  28
ATOM     28  C   LIG d   1       4.583   0.982  -1.809  0.00  0.00     0.079 C 
ATOM     29  H   LIG d   1       4.157   1.876  -1.354  0.00  0.00     0.066 H 
ATOM     30  H   LIG d   1       3.808   0.449  -2.360  0.00  0.00     0.066 H 
ATOM     31  H   LIG d   1       4.986   0.335  -1.031  0.00  0.00     0.066 H 
ENDBRANCH  27  28
ENDBRANCH  22  27
BRANCH  25  32
ATOM     32  O   LIG d   1       9.212  -0.092  -5.481  0.00  0.00    -0.493 OA
BRANCH  32  33
ATOM     33  C   LIG d   1      10.239   0.746  -4.947  0.00  0.00     0.079 C 
ATOM     34  H   LIG d   1       9.928   1.127  -3.974  0.00  0.00     0.066 H 
ATOM     35  H   LIG d   1      11.157   0.169  -4.835  0.00  0.00     0.066 H 
ATOM     36  H   LIG d   1      10.415   1.582  -5.625  0.00  0.00     0.066 H 
ENDBRANCH  32  33
ENDBRANCH  25  32
ENDBRANCH  16  18
ENDBRANCH   1  16
BRANCH   9  37
ATOM     37  C   LIG d   1       9.551  -9.877  -1.756  0.00  0.00     0.030 A 
ATOM     38  C   LIG d   1       8.553 -10.459  -0.968  0.00  0.00     0.128 A 
ATOM     39  C   LIG d   1       8.805 -11.650  -0.308  0.00  0.00    -0.019 A 
ATOM     40  C   LIG d   1      10.042 -12.255  -0.421  0.00  0.00    -0.058 A 
ATOM     41  H   LIG d   1       8.035 -12.104   0.299  0.00  0.00     0.065 H 
ATOM     42  C   LIG d   1      11.033 -11.680  -1.197  0.00  0.00    -0.061 A 
ATOM     43  H   LIG d   1      10.237 -13.183   0.099  0.00  0.00     0.062 H 
ATOM     44  C   LIG d   1      10.794 -10.495  -1.863  0.00  0.00    -0.050 A 
ATOM     45  H   LIG d   1      11.997 -12.159  -1.281  0.00  0.00     0.062 H 
ATOM     46  H   LIG d   1      11.569 -10.049  -2.467  0.00  0.00     0.062 H 
BRANCH  38  47
ATOM     47  O   LIG d   1       7.338  -9.860  -0.854  0.00  0.00    -0.494 OA
BRANCH  47  48
ATOM     48  C   LIG d   1       6.219 -10.552  -1.410  0.00  0.00     0.079 C 
ATOM     49  H   LIG d   1       6.215 -11.582  -1.055  0.00  0.00     0.066 H 
ATOM     50  H   LIG d   1       5.296 -10.059  -1.103  0.00  0.00     0.066 H 
ATOM     51  H   LIG d   1       6.290 -10.544  -2.498  0.00  0.00     0.066 H 
ENDBRANCH  47  48
ENDBRANCH  38  47
ENDBRANCH   9  37
TORSDOF 9
ENDMDL
