MODEL 1
REMARK VINA RESULT:      -6.6      0.000      0.000
REMARK  1 active torsions:
REMARK  status: ('A' for Active; 'I' for Inactive)
REMARK    1  A    between atoms: C_6  and  C_9 
ROOT
ATOM      1  C   LIG d   1       4.123   0.813  -1.757  0.00  0.00    -0.052 A 
ATOM      2  C   LIG d   1       4.728  -0.454  -1.761  0.00  0.00    -0.045 A 
ATOM      3  C   LIG d   1       4.800  -1.171  -2.901  0.00  0.00     0.015 A 
ATOM      4  N   LIG d   1       4.276  -0.683  -4.064  0.00  0.00    -0.264 N 
ATOM      5  C   LIG d   1       4.211  -1.193  -5.331  0.00  0.00     0.087 A 
ATOM      6  C   LIG d   1       3.574  -0.269  -6.102  0.00  0.00     0.232 A 
ATOM      7  C   LIG d   1       3.674   0.549  -4.091  0.00  0.00     0.288 A 
ATOM      8  C   LIG d   1       3.596   1.312  -2.909  0.00  0.00     0.029 A 
ATOM      9  H   LIG d   1       4.070   1.387  -0.844  0.00  0.00     0.062 H 
ATOM     10  H   LIG d   1       5.142  -0.854  -0.847  0.00  0.00     0.063 H 
ATOM     11  H   LIG d   1       5.272  -2.143  -2.894  0.00  0.00     0.081 H 
ATOM     12  H   LIG d   1       4.592  -2.149  -5.658  0.00  0.00     0.088 H 
ATOM     13  H   LIG d   1       3.125   2.284  -2.916  0.00  0.00     0.070 H 
ATOM     14  N   LIG d   1       3.258   0.779  -5.326  0.00  0.00    -0.188 N 
ATOM     15  H   LIG d   1       2.771   1.626  -5.641  0.00  0.00     0.455 HD
ENDROOT
BRANCH   6  16
ATOM     16  C   LIG d   1       3.278  -0.400  -7.550  0.00  0.00     0.049 A 
ATOM     17  C   LIG d   1       3.480  -1.617  -8.197  0.00  0.00    -0.029 A 
ATOM     18  C   LIG d   1       3.198  -1.736  -9.544  0.00  0.00     0.060 A 
ATOM     19  H   LIG d   1       3.851  -2.468  -7.645  0.00  0.00     0.064 H 
ATOM     20  C   LIG d   1       2.727  -0.643 -10.254  0.00  0.00     0.059 A 
ATOM     21 CL   LIG d   1       3.442  -3.254 -10.350  0.00  0.00    -0.082 Cl
ATOM     22  C   LIG d   1       2.531   0.570  -9.616  0.00  0.00    -0.041 A 
ATOM     23 CL   LIG d   1       2.383  -0.795 -11.949  0.00  0.00    -0.082 Cl
ATOM     24  C   LIG d   1       2.804   0.696  -8.269  0.00  0.00    -0.047 A 
ATOM     25  H   LIG d   1       2.164   1.419 -10.173  0.00  0.00     0.063 H 
ATOM     26  H   LIG d   1       2.650   1.643  -7.773  0.00  0.00     0.063 H 
ENDBRANCH   6  16
TORSDOF 1
ENDMDL
MODEL 2
REMARK VINA RESULT:      -6.3      3.481      6.613
REMARK  1 active torsions:
REMARK  status: ('A' for Active; 'I' for Inactive)
REMARK    1  A    between atoms: C_6  and  C_9 
ROOT
ATOM      1  C   LIG d   1       1.789  -0.907 -11.525  0.00  0.00    -0.052 A 
ATOM      2  C   LIG d   1       3.156  -0.790 -11.823  0.00  0.00    -0.045 A 
ATOM      3  C   LIG d   1       4.054  -0.599 -10.835  0.00  0.00     0.015 A 
ATOM      4  N   LIG d   1       3.648  -0.504  -9.535  0.00  0.00    -0.264 N 
ATOM      5  C   LIG d   1       4.333  -0.311  -8.367  0.00  0.00     0.087 A 
ATOM      6  C   LIG d   1       3.415  -0.301  -7.361  0.00  0.00     0.232 A 
ATOM      7  C   LIG d   1       2.320  -0.609  -9.213  0.00  0.00     0.288 A 
ATOM      8  C   LIG d   1       1.370  -0.814 -10.234  0.00  0.00     0.029 A 
ATOM      9  H   LIG d   1       1.072  -1.064 -12.318  0.00  0.00     0.062 H 
ATOM     10  H   LIG d   1       3.491  -0.858 -12.847  0.00  0.00     0.063 H 
ATOM     11  H   LIG d   1       5.104  -0.515 -11.074  0.00  0.00     0.081 H 
ATOM     12  H   LIG d   1       5.401  -0.189  -8.262  0.00  0.00     0.088 H 
ATOM     13  H   LIG d   1       0.320  -0.899  -9.994  0.00  0.00     0.070 H 
ATOM     14  N   LIG d   1       2.200  -0.484  -7.901  0.00  0.00    -0.188 N 
ATOM     15  H   LIG d   1       1.318  -0.521  -7.378  0.00  0.00     0.455 HD
ENDROOT
BRANCH   6  16
ATOM     16  C   LIG d   1       3.708  -0.119  -5.918  0.00  0.00     0.049 A 
ATOM     17  C   LIG d   1       4.945  -0.497  -5.403  0.00  0.00    -0.029 A 
ATOM     18  C   LIG d   1       5.215  -0.321  -4.060  0.00  0.00     0.060 A 
ATOM     19  H   LIG d   1       5.695  -0.925  -6.054  0.00  0.00     0.064 H 
ATOM     20  C   LIG d   1       4.254   0.222  -3.224  0.00  0.00     0.059 A 
ATOM     21 CL   LIG d   1       6.760  -0.785  -3.418  0.00  0.00    -0.082 Cl
ATOM     22  C   LIG d   1       3.020   0.594  -3.731  0.00  0.00    -0.041 A 
ATOM     23 CL   LIG d   1       4.595   0.435  -1.535  0.00  0.00    -0.082 Cl
ATOM     24  C   LIG d   1       2.743   0.427  -5.073  0.00  0.00    -0.047 A 
ATOM     25  H   LIG d   1       2.273   1.017  -3.076  0.00  0.00     0.063 H 
ATOM     26  H   LIG d   1       1.781   0.718  -5.466  0.00  0.00     0.063 H 
ENDBRANCH   6  16
TORSDOF 1
ENDMDL
MODEL 3
REMARK VINA RESULT:      -6.1      1.249      2.311
REMARK  1 active torsions:
REMARK  status: ('A' for Active; 'I' for Inactive)
REMARK    1  A    between atoms: C_6  and  C_9 
ROOT
ATOM      1  C   LIG d   1       4.314  -1.599  -1.922  0.00  0.00    -0.052 A 
ATOM      2  C   LIG d   1       4.243  -0.197  -1.960  0.00  0.00    -0.045 A 
ATOM      3  C   LIG d   1       4.093   0.445  -3.137  0.00  0.00     0.015 A 
ATOM      4  N   LIG d   1       4.021  -0.254  -4.307  0.00  0.00    -0.264 N 
ATOM      5  C   LIG d   1       3.877   0.138  -5.608  0.00  0.00     0.087 A 
ATOM      6  C   LIG d   1       3.865  -0.991  -6.369  0.00  0.00     0.232 A 
ATOM      7  C   LIG d   1       4.092  -1.624  -4.302  0.00  0.00     0.288 A 
ATOM      8  C   LIG d   1       4.243  -2.309  -3.080  0.00  0.00     0.029 A 
ATOM      9  H   LIG d   1       4.431  -2.111  -0.977  0.00  0.00     0.062 H 
ATOM     10  H   LIG d   1       4.304   0.370  -1.043  0.00  0.00     0.063 H 
ATOM     11  H   LIG d   1       4.035   1.524  -3.154  0.00  0.00     0.081 H 
ATOM     12  H   LIG d   1       3.790   1.154  -5.966  0.00  0.00     0.088 H 
ATOM     13  H   LIG d   1       4.301  -3.388  -3.062  0.00  0.00     0.070 H 
ATOM     14  N   LIG d   1       3.997  -2.047  -5.553  0.00  0.00    -0.188 N 
ATOM     15  H   LIG d   1       4.020  -3.029  -5.851  0.00  0.00     0.455 HD
ENDROOT
BRANCH   6  16
ATOM     16  C   LIG d   1       3.730  -1.044  -7.846  0.00  0.00     0.049 A 
ATOM     17  C   LIG d   1       3.835   0.123  -8.598  0.00  0.00    -0.029 A 
ATOM     18  C   LIG d   1       3.714   0.069  -9.974  0.00  0.00     0.060 A 
ATOM     19  H   LIG d   1       4.016   1.069  -8.108  0.00  0.00     0.064 H 
ATOM     20  C   LIG d   1       3.477  -1.143 -10.602  0.00  0.00     0.059 A 
ATOM     21 CL   LIG d   1       3.852   1.521 -10.915  0.00  0.00    -0.082 Cl
ATOM     22  C   LIG d   1       3.366  -2.304  -9.857  0.00  0.00    -0.041 A 
ATOM     23 CL   LIG d   1       3.318  -1.205 -12.330  0.00  0.00    -0.082 Cl
ATOM     24  C   LIG d   1       3.492  -2.260  -8.483  0.00  0.00    -0.047 A 
ATOM     25  H   LIG d   1       3.181  -3.246 -10.351  0.00  0.00     0.063 H 
ATOM     26  H   LIG d   1       3.405  -3.167  -7.903  0.00  0.00     0.063 H 
ENDBRANCH   6  16
TORSDOF 1
ENDMDL
MODEL 4
REMARK VINA RESULT:      -5.9      5.543      6.677
REMARK  1 active torsions:
REMARK  status: ('A' for Active; 'I' for Inactive)
REMARK    1  A    between atoms: C_6  and  C_9 
ROOT
ATOM      1  C   LIG d   1       3.461  -0.741  -2.330  0.00  0.00    -0.052 A 
ATOM      2  C   LIG d   1       4.234  -1.895  -2.543  0.00  0.00    -0.045 A 
ATOM      3  C   LIG d   1       5.499  -1.792  -2.999  0.00  0.00     0.015 A 
ATOM      4  N   LIG d   1       6.043  -0.570  -3.273  0.00  0.00    -0.264 N 
ATOM      5  C   LIG d   1       7.271  -0.191  -3.739  0.00  0.00     0.087 A 
ATOM      6  C   LIG d   1       7.267   1.168  -3.822  0.00  0.00     0.232 A 
ATOM      7  C   LIG d   1       5.312   0.574  -3.080  0.00  0.00     0.288 A 
ATOM      8  C   LIG d   1       3.990   0.484  -2.598  0.00  0.00     0.029 A 
ATOM      9  H   LIG d   1       2.450  -0.826  -1.961  0.00  0.00     0.062 H 
ATOM     10  H   LIG d   1       3.815  -2.868  -2.336  0.00  0.00     0.063 H 
ATOM     11  H   LIG d   1       6.086  -2.685  -3.155  0.00  0.00     0.081 H 
ATOM     12  H   LIG d   1       8.091  -0.847  -3.993  0.00  0.00     0.088 H 
ATOM     13  H   LIG d   1       3.404   1.377  -2.441  0.00  0.00     0.070 H 
ATOM     14  N   LIG d   1       6.066   1.609  -3.417  0.00  0.00    -0.188 N 
ATOM     15  H   LIG d   1       5.778   2.593  -3.374  0.00  0.00     0.455 HD
ENDROOT
BRANCH   6  16
ATOM     16  C   LIG d   1       8.394   2.015  -4.283  0.00  0.00     0.049 A 
ATOM     17  C   LIG d   1       8.451   2.442  -5.607  0.00  0.00    -0.029 A 
ATOM     18  C   LIG d   1       9.500   3.235  -6.031  0.00  0.00     0.060 A 
ATOM     19  H   LIG d   1       7.674   2.157  -6.302  0.00  0.00     0.064 H 
ATOM     20  C   LIG d   1      10.500   3.596  -5.143  0.00  0.00     0.059 A 
ATOM     21 CL   LIG d   1       9.569   3.774  -7.680  0.00  0.00    -0.082 Cl
ATOM     22  C   LIG d   1      10.450   3.169  -3.827  0.00  0.00    -0.041 A 
ATOM     23 CL   LIG d   1      11.820   4.586  -5.681  0.00  0.00    -0.082 Cl
ATOM     24  C   LIG d   1       9.403   2.382  -3.393  0.00  0.00    -0.047 A 
ATOM     25  H   LIG d   1      11.232   3.453  -3.137  0.00  0.00     0.063 H 
ATOM     26  H   LIG d   1       9.366   2.049  -2.367  0.00  0.00     0.063 H 
ENDBRANCH   6  16
TORSDOF 1
ENDMDL
MODEL 5
REMARK VINA RESULT:      -5.8      4.874      7.161
REMARK  1 active torsions:
REMARK  status: ('A' for Active; 'I' for Inactive)
REMARK    1  A    between atoms: C_6  and  C_9 
ROOT
ATOM      1  C   LIG d   1       4.669  -7.076  -7.909  0.00  0.00    -0.052 A 
ATOM      2  C   LIG d   1       5.991  -7.287  -7.485  0.00  0.00    -0.045 A 
ATOM      3  C   LIG d   1       6.548  -6.474  -6.564  0.00  0.00     0.015 A 
ATOM      4  N   LIG d   1       5.843  -5.430  -6.039  0.00  0.00    -0.264 N 
ATOM      5  C   LIG d   1       6.161  -4.473  -5.116  0.00  0.00     0.087 A 
ATOM      6  C   LIG d   1       5.067  -3.677  -4.969  0.00  0.00     0.232 A 
ATOM      7  C   LIG d   1       4.552  -5.196  -6.436  0.00  0.00     0.288 A 
ATOM      8  C   LIG d   1       3.953  -6.039  -7.394  0.00  0.00     0.029 A 
ATOM      9  H   LIG d   1       4.223  -7.731  -8.644  0.00  0.00     0.062 H 
ATOM     10  H   LIG d   1       6.563  -8.106  -7.895  0.00  0.00     0.063 H 
ATOM     11  H   LIG d   1       7.565  -6.648  -6.242  0.00  0.00     0.081 H 
ATOM     12  H   LIG d   1       7.105  -4.368  -4.601  0.00  0.00     0.088 H 
ATOM     13  H   LIG d   1       2.937  -5.866  -7.716  0.00  0.00     0.070 H 
ATOM     14  N   LIG d   1       4.103  -4.136  -5.782  0.00  0.00    -0.188 N 
ATOM     15  H   LIG d   1       3.165  -3.731  -5.879  0.00  0.00     0.455 HD
ENDROOT
BRANCH   6  16
ATOM     16  C   LIG d   1       4.959  -2.504  -4.068  0.00  0.00     0.049 A 
ATOM     17  C   LIG d   1       5.809  -1.413  -4.236  0.00  0.00    -0.029 A 
ATOM     18  C   LIG d   1       5.701  -0.321  -3.398  0.00  0.00     0.060 A 
ATOM     19  H   LIG d   1       6.548  -1.420  -5.024  0.00  0.00     0.064 H 
ATOM     20  C   LIG d   1       4.758  -0.313  -2.384  0.00  0.00     0.059 A 
ATOM     21 CL   LIG d   1       6.755   1.043  -3.611  0.00  0.00    -0.082 Cl
ATOM     22  C   LIG d   1       3.915  -1.398  -2.209  0.00  0.00    -0.041 A 
ATOM     23 CL   LIG d   1       4.632   1.058  -1.328  0.00  0.00    -0.082 Cl
ATOM     24  C   LIG d   1       4.011  -2.492  -3.046  0.00  0.00    -0.047 A 
ATOM     25  H   LIG d   1       3.180  -1.388  -1.418  0.00  0.00     0.063 H 
ATOM     26  H   LIG d   1       3.353  -3.336  -2.909  0.00  0.00     0.063 H 
ENDBRANCH   6  16
TORSDOF 1
ENDMDL
MODEL 6
REMARK VINA RESULT:      -5.8      5.981      7.491
REMARK  1 active torsions:
REMARK  status: ('A' for Active; 'I' for Inactive)
REMARK    1  A    between atoms: C_6  and  C_9 
ROOT
ATOM      1  C   LIG d   1      12.227   3.130  -5.390  0.00  0.00    -0.052 A 
ATOM      2  C   LIG d   1      11.353   4.198  -5.650  0.00  0.00    -0.045 A 
ATOM      3  C   LIG d   1      10.033   4.072  -5.405  0.00  0.00     0.015 A 
ATOM      4  N   LIG d   1       9.524   2.904  -4.913  0.00  0.00    -0.264 N 
ATOM      5  C   LIG d   1       8.255   2.516  -4.587  0.00  0.00     0.087 A 
ATOM      6  C   LIG d   1       8.330   1.233  -4.139  0.00  0.00     0.232 A 
ATOM      7  C   LIG d   1      10.352   1.842  -4.654  0.00  0.00     0.288 A 
ATOM      8  C   LIG d   1      11.735   1.960  -4.900  0.00  0.00     0.029 A 
ATOM      9  H   LIG d   1      13.285   3.234  -5.583  0.00  0.00     0.062 H 
ATOM     10  H   LIG d   1      11.741   5.126  -6.044  0.00  0.00     0.063 H 
ATOM     11  H   LIG d   1       9.370   4.901  -5.604  0.00  0.00     0.081 H 
ATOM     12  H   LIG d   1       7.359   3.116  -4.670  0.00  0.00     0.088 H 
ATOM     13  H   LIG d   1      12.398   1.131  -4.699  0.00  0.00     0.070 H 
ATOM     14  N   LIG d   1       9.613   0.846  -4.190  0.00  0.00    -0.188 N 
ATOM     15  H   LIG d   1       9.967  -0.076  -3.911  0.00  0.00     0.455 HD
ENDROOT
BRANCH   6  16
ATOM     16  C   LIG d   1       7.189   0.405  -3.676  0.00  0.00     0.049 A 
ATOM     17  C   LIG d   1       6.037   1.015  -3.185  0.00  0.00    -0.029 A 
ATOM     18  C   LIG d   1       4.975   0.239  -2.760  0.00  0.00     0.060 A 
ATOM     19  H   LIG d   1       5.972   2.092  -3.141  0.00  0.00     0.064 H 
ATOM     20  C   LIG d   1       5.060  -1.142  -2.812  0.00  0.00     0.059 A 
ATOM     21 CL   LIG d   1       3.536   0.998  -2.155  0.00  0.00    -0.082 Cl
ATOM     22  C   LIG d   1       6.205  -1.752  -3.294  0.00  0.00    -0.041 A 
ATOM     23 CL   LIG d   1       3.726  -2.112  -2.270  0.00  0.00    -0.082 Cl
ATOM     24  C   LIG d   1       7.269  -0.986  -3.726  0.00  0.00    -0.047 A 
ATOM     25  H   LIG d   1       6.267  -2.830  -3.333  0.00  0.00     0.063 H 
ATOM     26  H   LIG d   1       8.161  -1.463  -4.102  0.00  0.00     0.063 H 
ENDBRANCH   6  16
TORSDOF 1
ENDMDL
MODEL 7
REMARK VINA RESULT:      -5.2      5.579      6.924
REMARK  1 active torsions:
REMARK  status: ('A' for Active; 'I' for Inactive)
REMARK    1  A    between atoms: C_6  and  C_9 
ROOT
ATOM      1  C   LIG d   1      10.669   4.885  -5.338  0.00  0.00    -0.052 A 
ATOM      2  C   LIG d   1      11.603   3.835  -5.340  0.00  0.00    -0.045 A 
ATOM      3  C   LIG d   1      11.218   2.582  -5.021  0.00  0.00     0.015 A 
ATOM      4  N   LIG d   1       9.923   2.317  -4.681  0.00  0.00    -0.264 N 
ATOM      5  C   LIG d   1       9.283   1.165  -4.319  0.00  0.00     0.087 A 
ATOM      6  C   LIG d   1       7.979   1.485  -4.090  0.00  0.00     0.232 A 
ATOM      7  C   LIG d   1       8.990   3.321  -4.665  0.00  0.00     0.288 A 
ATOM      8  C   LIG d   1       9.375   4.635  -5.001  0.00  0.00     0.029 A 
ATOM      9  H   LIG d   1      10.979   5.887  -5.597  0.00  0.00     0.062 H 
ATOM     10  H   LIG d   1      12.632   4.032  -5.602  0.00  0.00     0.063 H 
ATOM     11  H   LIG d   1      11.943   1.781  -5.030  0.00  0.00     0.081 H 
ATOM     12  H   LIG d   1       9.727   0.184  -4.231  0.00  0.00     0.088 H 
ATOM     13  H   LIG d   1       8.650   5.436  -4.993  0.00  0.00     0.070 H 
ATOM     14  N   LIG d   1       7.827   2.801  -4.306  0.00  0.00    -0.188 N 
ATOM     15  H   LIG d   1       6.948   3.321  -4.209  0.00  0.00     0.455 HD
ENDROOT
BRANCH   6  16
ATOM     16  C   LIG d   1       6.912   0.544  -3.671  0.00  0.00     0.049 A 
ATOM     17  C   LIG d   1       6.916  -0.768  -4.139  0.00  0.00    -0.029 A 
ATOM     18  C   LIG d   1       5.923  -1.643  -3.742  0.00  0.00     0.060 A 
ATOM     19  H   LIG d   1       7.696  -1.103  -4.807  0.00  0.00     0.064 H 
ATOM     20  C   LIG d   1       4.919  -1.214  -2.889  0.00  0.00     0.059 A 
ATOM     21 CL   LIG d   1       5.930  -3.281  -4.318  0.00  0.00    -0.082 Cl
ATOM     22  C   LIG d   1       4.909   0.090  -2.427  0.00  0.00    -0.041 A 
ATOM     23 CL   LIG d   1       3.670  -2.315  -2.400  0.00  0.00    -0.082 Cl
ATOM     24  C   LIG d   1       5.900   0.970  -2.813  0.00  0.00    -0.047 A 
ATOM     25  H   LIG d   1       4.125   0.421  -1.762  0.00  0.00     0.063 H 
ATOM     26  H   LIG d   1       5.890   1.987  -2.451  0.00  0.00     0.063 H 
ENDBRANCH   6  16
TORSDOF 1
ENDMDL
MODEL 8
REMARK VINA RESULT:      -5.1      8.119      9.312
REMARK  1 active torsions:
REMARK  status: ('A' for Active; 'I' for Inactive)
REMARK    1  A    between atoms: C_6  and  C_9 
ROOT
ATOM      1  C   LIG d   1      11.269   7.233   0.990  0.00  0.00    -0.052 A 
ATOM      2  C   LIG d   1      10.700   8.289   0.260  0.00  0.00    -0.045 A 
ATOM      3  C   LIG d   1      10.156   8.062  -0.954  0.00  0.00     0.015 A 
ATOM      4  N   LIG d   1      10.161   6.809  -1.495  0.00  0.00    -0.264 N 
ATOM      5  C   LIG d   1       9.692   6.315  -2.681  0.00  0.00     0.087 A 
ATOM      6  C   LIG d   1       9.967   4.982  -2.696  0.00  0.00     0.232 A 
ATOM      7  C   LIG d   1      10.714   5.759  -0.809  0.00  0.00     0.288 A 
ATOM      8  C   LIG d   1      11.282   5.979   0.463  0.00  0.00     0.029 A 
ATOM      9  H   LIG d   1      11.701   7.417   1.963  0.00  0.00     0.062 H 
ATOM     10  H   LIG d   1      10.693   9.286   0.674  0.00  0.00     0.063 H 
ATOM     11  H   LIG d   1       9.716   8.881  -1.505  0.00  0.00     0.081 H 
ATOM     12  H   LIG d   1       9.197   6.878  -3.459  0.00  0.00     0.088 H 
ATOM     13  H   LIG d   1      11.720   5.160   1.014  0.00  0.00     0.070 H 
ATOM     14  N   LIG d   1      10.588   4.668  -1.549  0.00  0.00    -0.188 N 
ATOM     15  H   LIG d   1      10.913   3.731  -1.286  0.00  0.00     0.455 HD
ENDROOT
BRANCH   6  16
ATOM     16  C   LIG d   1       9.639   4.039  -3.794  0.00  0.00     0.049 A 
ATOM     17  C   LIG d   1       9.741   4.449  -5.121  0.00  0.00    -0.029 A 
ATOM     18  C   LIG d   1       9.439   3.565  -6.140  0.00  0.00     0.060 A 
ATOM     19  H   LIG d   1      10.060   5.454  -5.354  0.00  0.00     0.064 H 
ATOM     20  C   LIG d   1       9.025   2.278  -5.842  0.00  0.00     0.059 A 
ATOM     21 CL   LIG d   1       9.573   4.072  -7.795  0.00  0.00    -0.082 Cl
ATOM     22  C   LIG d   1       8.916   1.868  -4.524  0.00  0.00    -0.041 A 
ATOM     23 CL   LIG d   1       8.639   1.174  -7.125  0.00  0.00    -0.082 Cl
ATOM     24  C   LIG d   1       9.221   2.742  -3.500  0.00  0.00    -0.047 A 
ATOM     25  H   LIG d   1       8.593   0.863  -4.296  0.00  0.00     0.063 H 
ATOM     26  H   LIG d   1       9.136   2.421  -2.472  0.00  0.00     0.063 H 
ENDBRANCH   6  16
TORSDOF 1
ENDMDL
MODEL 9
REMARK VINA RESULT:      -5.0     10.539     12.447
REMARK  1 active torsions:
REMARK  status: ('A' for Active; 'I' for Inactive)
REMARK    1  A    between atoms: C_6  and  C_9 
ROOT
ATOM      1  C   LIG d   1       9.083   8.381  -8.315  0.00  0.00    -0.052 A 
ATOM      2  C   LIG d   1       9.417   7.034  -8.535  0.00  0.00    -0.045 A 
ATOM      3  C   LIG d   1       9.773   6.243  -7.502  0.00  0.00     0.015 A 
ATOM      4  N   LIG d   1       9.827   6.740  -6.232  0.00  0.00    -0.264 N 
ATOM      5  C   LIG d   1      10.155   6.171  -5.033  0.00  0.00     0.087 A 
ATOM      6  C   LIG d   1      10.035   7.140  -4.083  0.00  0.00     0.232 A 
ATOM      7  C   LIG d   1       9.513   8.052  -5.985  0.00  0.00     0.288 A 
ATOM      8  C   LIG d   1       9.133   8.890  -7.054  0.00  0.00     0.029 A 
ATOM      9  H   LIG d   1       8.794   9.011  -9.143  0.00  0.00     0.062 H 
ATOM     10  H   LIG d   1       9.383   6.629  -9.536  0.00  0.00     0.063 H 
ATOM     11  H   LIG d   1      10.024   5.208  -7.682  0.00  0.00     0.081 H 
ATOM     12  H   LIG d   1      10.453   5.146  -4.869  0.00  0.00     0.088 H 
ATOM     13  H   LIG d   1       8.881   9.925  -6.874  0.00  0.00     0.070 H 
ATOM     14  N   LIG d   1       9.644   8.273  -4.687  0.00  0.00    -0.188 N 
ATOM     15  H   LIG d   1       9.473   9.168  -4.216  0.00  0.00     0.455 HD
ENDROOT
BRANCH   6  16
ATOM     16  C   LIG d   1      10.293   6.972  -2.632  0.00  0.00     0.049 A 
ATOM     17  C   LIG d   1      10.420   8.091  -1.812  0.00  0.00    -0.029 A 
ATOM     18  C   LIG d   1      10.656   7.930  -0.460  0.00  0.00     0.060 A 
ATOM     19  H   LIG d   1      10.330   9.083  -2.231  0.00  0.00     0.064 H 
ATOM     20  C   LIG d   1      10.777   6.659   0.078  0.00  0.00     0.059 A 
ATOM     21 CL   LIG d   1      10.807   9.323   0.566  0.00  0.00    -0.082 Cl
ATOM     22  C   LIG d   1      10.658   5.545  -0.735  0.00  0.00    -0.041 A 
ATOM     23 CL   LIG d   1      11.082   6.462   1.775  0.00  0.00    -0.082 Cl
ATOM     24  C   LIG d   1      10.416   5.696  -2.086  0.00  0.00    -0.047 A 
ATOM     25  H   LIG d   1      10.753   4.556  -0.313  0.00  0.00     0.063 H 
ATOM     26  H   LIG d   1      10.323   4.826  -2.719  0.00  0.00     0.063 H 
ENDBRANCH   6  16
TORSDOF 1
ENDMDL
MODEL 10
REMARK VINA RESULT:      -5.0      4.745      7.007
REMARK  1 active torsions:
REMARK  status: ('A' for Active; 'I' for Inactive)
REMARK    1  A    between atoms: C_6  and  C_9 
ROOT
ATOM      1  C   LIG d   1       3.390  -7.043  -9.181  0.00  0.00    -0.052 A 
ATOM      2  C   LIG d   1       4.002  -7.841  -8.201  0.00  0.00    -0.045 A 
ATOM      3  C   LIG d   1       4.512  -7.279  -7.086  0.00  0.00     0.015 A 
ATOM      4  N   LIG d   1       4.453  -5.927  -6.898  0.00  0.00    -0.264 N 
ATOM      5  C   LIG d   1       4.886  -5.117  -5.886  0.00  0.00     0.087 A 
ATOM      6  C   LIG d   1       4.559  -3.840  -6.226  0.00  0.00     0.232 A 
ATOM      7  C   LIG d   1       3.866  -5.121  -7.839  0.00  0.00     0.288 A 
ATOM      8  C   LIG d   1       3.324  -5.695  -9.008  0.00  0.00     0.029 A 
ATOM      9  H   LIG d   1       2.979  -7.496 -10.071  0.00  0.00     0.062 H 
ATOM     10  H   LIG d   1       4.061  -8.911  -8.338  0.00  0.00     0.063 H 
ATOM     11  H   LIG d   1       4.977  -7.902  -6.336  0.00  0.00     0.081 H 
ATOM     12  H   LIG d   1       5.394  -5.431  -4.985  0.00  0.00     0.088 H 
ATOM     13  H   LIG d   1       2.858  -5.072  -9.757  0.00  0.00     0.070 H 
ATOM     14  N   LIG d   1       3.941  -3.869  -7.417  0.00  0.00    -0.188 N 
ATOM     15  H   LIG d   1       3.582  -3.050  -7.920  0.00  0.00     0.455 HD
ENDROOT
BRANCH   6  16
ATOM     16  C   LIG d   1       4.839  -2.626  -5.421  0.00  0.00     0.049 A 
ATOM     17  C   LIG d   1       4.518  -2.598  -4.066  0.00  0.00    -0.029 A 
ATOM     18  C   LIG d   1       4.786  -1.467  -3.318  0.00  0.00     0.060 A 
ATOM     19  H   LIG d   1       4.066  -3.461  -3.599  0.00  0.00     0.064 H 
ATOM     20  C   LIG d   1       5.361  -0.359  -3.918  0.00  0.00     0.059 A 
ATOM     21 CL   LIG d   1       4.394  -1.433  -1.627  0.00  0.00    -0.082 Cl
ATOM     22  C   LIG d   1       5.676  -0.381  -5.266  0.00  0.00    -0.041 A 
ATOM     23 CL   LIG d   1       5.688   1.063  -2.976  0.00  0.00    -0.082 Cl
ATOM     24  C   LIG d   1       5.418  -1.508  -6.019  0.00  0.00    -0.047 A 
ATOM     25  H   LIG d   1       6.124   0.485  -5.729  0.00  0.00     0.063 H 
ATOM     26  H   LIG d   1       5.664  -1.524  -7.070  0.00  0.00     0.063 H 
ENDBRANCH   6  16
TORSDOF 1
ENDMDL
