MODEL 1
REMARK VINA RESULT:      -5.0      0.000      0.000
REMARK  3 active torsions:
REMARK  status: ('A' for Active; 'I' for Inactive)
REMARK    1  A    between atoms: C_1  and  C_2 
REMARK    2  A    between atoms: C_2  and  C_4 
REMARK    3  A    between atoms: C_5  and  N_14 
ROOT
ATOM      1  C   LIG d   1       6.135  -2.368  -4.333  0.00  0.00     0.121 A 
ATOM      2  C   LIG d   1       4.834  -2.907  -4.279  0.00  0.00     0.134 A 
ATOM      3  N   LIG d   1       3.859  -2.192  -3.715  0.00  0.00    -0.218 NA
ATOM      4  C   LIG d   1       4.067  -1.000  -3.206  0.00  0.00     0.114 A 
ATOM      5  N   LIG d   1       5.286  -0.428  -3.221  0.00  0.00    -0.296 N 
ATOM      6  C   LIG d   1       6.339  -1.078  -3.776  0.00  0.00     0.266 A 
ATOM      7  O   LIG d   1       7.443  -0.563  -3.797  0.00  0.00    -0.267 OA
ATOM      8  C   LIG d   1       5.259   0.900  -2.584  0.00  0.00     0.028 C 
ATOM      9  C   LIG d   1       3.771   1.308  -2.544  0.00  0.00    -0.028 C 
ATOM     10  C   LIG d   1       3.070  -0.068  -2.540  0.00  0.00     0.007 C 
ATOM     11  H   LIG d   1       5.830   1.614  -3.176  0.00  0.00     0.049 H 
ATOM     12  H   LIG d   1       5.660   0.840  -1.573  0.00  0.00     0.049 H 
ATOM     13  H   LIG d   1       3.501   1.882  -3.431  0.00  0.00     0.029 H 
ATOM     14  H   LIG d   1       3.543   1.866  -1.637  0.00  0.00     0.029 H 
ATOM     15  H   LIG d   1       2.145  -0.025  -3.115  0.00  0.00     0.034 H 
ATOM     16  H   LIG d   1       2.870  -0.390  -1.518  0.00  0.00     0.034 H 
ENDROOT
BRANCH   1  17
ATOM     17  C   LIG d   1       7.201  -3.088  -4.917  0.00  0.00     0.169 C 
ATOM     18  O   LIG d   1       7.305  -3.146  -6.126  0.00  0.00    -0.292 OA
BRANCH  17  19
ATOM     19  C   LIG d   1       8.211  -3.783  -4.041  0.00  0.00    -0.001 C 
ATOM     20  H   LIG d   1       8.971  -4.110  -4.603  0.00  0.00     0.031 H 
ATOM     21  H   LIG d   1       8.588  -3.083  -3.294  0.00  0.00     0.031 H 
ATOM     22  H   LIG d   1       7.739  -4.629  -3.541  0.00  0.00     0.031 H 
ENDBRANCH  17  19
ENDBRANCH   1  17
BRANCH   2  23
ATOM     23  N   LIG d   1       4.575  -4.149  -4.797  0.00  0.00    -0.342 N 
ATOM     24  H   LIG d   1       4.837  -4.944  -4.306  0.00  0.00     0.144 HD
ATOM     25  H   LIG d   1       4.129  -4.233  -5.654  0.00  0.00     0.144 HD
ENDBRANCH   2  23
TORSDOF 3
ENDMDL
MODEL 2
REMARK VINA RESULT:      -4.9      3.603      4.302
REMARK  3 active torsions:
REMARK  status: ('A' for Active; 'I' for Inactive)
REMARK    1  A    between atoms: C_1  and  C_2 
REMARK    2  A    between atoms: C_2  and  C_4 
REMARK    3  A    between atoms: C_5  and  N_14 
ROOT
ATOM      1  C   LIG d   1       3.498  -0.289  -6.581  0.00  0.00     0.121 A 
ATOM      2  C   LIG d   1       4.420  -1.351  -6.668  0.00  0.00     0.134 A 
ATOM      3  N   LIG d   1       4.978  -1.819  -5.550  0.00  0.00    -0.218 NA
ATOM      4  C   LIG d   1       4.698  -1.324  -4.366  0.00  0.00     0.114 A 
ATOM      5  N   LIG d   1       3.830  -0.307  -4.212  0.00  0.00    -0.296 N 
ATOM      6  C   LIG d   1       3.211   0.232  -5.292  0.00  0.00     0.266 A 
ATOM      7  O   LIG d   1       2.420   1.150  -5.157  0.00  0.00    -0.267 OA
ATOM      8  C   LIG d   1       3.697   0.070  -2.794  0.00  0.00     0.028 C 
ATOM      9  C   LIG d   1       4.257  -1.126  -1.996  0.00  0.00    -0.028 C 
ATOM     10  C   LIG d   1       5.241  -1.747  -3.012  0.00  0.00     0.007 C 
ATOM     11  H   LIG d   1       2.649   0.231  -2.544  0.00  0.00     0.049 H 
ATOM     12  H   LIG d   1       4.278   0.967  -2.587  0.00  0.00     0.049 H 
ATOM     13  H   LIG d   1       3.465  -1.830  -1.740  0.00  0.00     0.029 H 
ATOM     14  H   LIG d   1       4.780  -0.788  -1.102  0.00  0.00     0.029 H 
ATOM     15  H   LIG d   1       5.244  -2.833  -2.924  0.00  0.00     0.034 H 
ATOM     16  H   LIG d   1       6.245  -1.348  -2.862  0.00  0.00     0.034 H 
ENDROOT
BRANCH   1  17
ATOM     17  C   LIG d   1       2.884   0.243  -7.736  0.00  0.00     0.169 C 
ATOM     18  O   LIG d   1       2.044  -0.404  -8.331  0.00  0.00    -0.292 OA
BRANCH  17  19
ATOM     19  C   LIG d   1       3.268   1.614  -8.232  0.00  0.00    -0.001 C 
ATOM     20  H   LIG d   1       4.219   1.601  -8.541  0.00  0.00     0.031 H 
ATOM     21  H   LIG d   1       2.620   1.894  -9.063  0.00  0.00     0.031 H 
ATOM     22  H   LIG d   1       3.157   2.337  -7.425  0.00  0.00     0.031 H 
ENDBRANCH  17  19
ENDBRANCH   1  17
BRANCH   2  23
ATOM     23  N   LIG d   1       4.741  -1.894  -7.884  0.00  0.00    -0.342 N 
ATOM     24  H   LIG d   1       5.349  -2.648  -7.934  0.00  0.00     0.144 HD
ATOM     25  H   LIG d   1       4.358  -1.525  -8.696  0.00  0.00     0.144 HD
ENDBRANCH   2  23
TORSDOF 3
ENDMDL
MODEL 3
REMARK VINA RESULT:      -4.9      3.098      4.533
REMARK  3 active torsions:
REMARK  status: ('A' for Active; 'I' for Inactive)
REMARK    1  A    between atoms: C_1  and  C_2 
REMARK    2  A    between atoms: C_2  and  C_4 
REMARK    3  A    between atoms: C_5  and  N_14 
ROOT
ATOM      1  C   LIG d   1       4.764  -0.375  -3.704  0.00  0.00     0.121 A 
ATOM      2  C   LIG d   1       6.052  -0.601  -4.229  0.00  0.00     0.134 A 
ATOM      3  N   LIG d   1       6.217  -0.631  -5.553  0.00  0.00    -0.218 NA
ATOM      4  C   LIG d   1       5.219  -0.458  -6.388  0.00  0.00     0.114 A 
ATOM      5  N   LIG d   1       3.962  -0.241  -5.953  0.00  0.00    -0.296 N 
ATOM      6  C   LIG d   1       3.699  -0.191  -4.624  0.00  0.00     0.266 A 
ATOM      7  O   LIG d   1       2.565   0.010  -4.226  0.00  0.00    -0.267 OA
ATOM      8  C   LIG d   1       3.028  -0.088  -7.082  0.00  0.00     0.028 C 
ATOM      9  C   LIG d   1       3.911   0.207  -8.312  0.00  0.00    -0.028 C 
ATOM     10  C   LIG d   1       5.244  -0.459  -7.907  0.00  0.00     0.007 C 
ATOM     11  H   LIG d   1       2.348   0.743  -6.898  0.00  0.00     0.049 H 
ATOM     12  H   LIG d   1       2.466  -1.009  -7.233  0.00  0.00     0.049 H 
ATOM     13  H   LIG d   1       4.038   1.281  -8.452  0.00  0.00     0.029 H 
ATOM     14  H   LIG d   1       3.499  -0.255  -9.208  0.00  0.00     0.029 H 
ATOM     15  H   LIG d   1       6.088   0.123  -8.275  0.00  0.00     0.034 H 
ATOM     16  H   LIG d   1       5.290  -1.480  -8.286  0.00  0.00     0.034 H 
ENDROOT
BRANCH   1  17
ATOM     17  C   LIG d   1       4.539  -0.337  -2.310  0.00  0.00     0.169 C 
ATOM     18  O   LIG d   1       4.374  -1.371  -1.693  0.00  0.00    -0.292 OA
BRANCH  17  19
ATOM     19  C   LIG d   1       4.505   0.984  -1.586  0.00  0.00    -0.001 C 
ATOM     20  H   LIG d   1       3.568   1.181  -1.297  0.00  0.00     0.031 H 
ATOM     21  H   LIG d   1       5.152   0.936  -0.710  0.00  0.00     0.031 H 
ATOM     22  H   LIG d   1       4.852   1.773  -2.253  0.00  0.00     0.031 H 
ENDBRANCH  17  19
ENDBRANCH   1  17
BRANCH   2  23
ATOM     23  N   LIG d   1       7.120  -0.789  -3.392  0.00  0.00    -0.342 N 
ATOM     24  H   LIG d   1       7.778  -1.473  -3.590  0.00  0.00     0.144 HD
ATOM     25  H   LIG d   1       7.219  -0.236  -2.601  0.00  0.00     0.144 HD
ENDBRANCH   2  23
TORSDOF 3
ENDMDL
MODEL 4
REMARK VINA RESULT:      -4.9      2.685      4.453
REMARK  3 active torsions:
REMARK  status: ('A' for Active; 'I' for Inactive)
REMARK    1  A    between atoms: C_1  and  C_2 
REMARK    2  A    between atoms: C_2  and  C_4 
REMARK    3  A    between atoms: C_5  and  N_14 
ROOT
ATOM      1  C   LIG d   1       4.778  -0.260  -3.503  0.00  0.00     0.121 A 
ATOM      2  C   LIG d   1       5.192   0.815  -2.691  0.00  0.00     0.134 A 
ATOM      3  N   LIG d   1       6.271   1.516  -3.043  0.00  0.00    -0.218 NA
ATOM      4  C   LIG d   1       6.966   1.239  -4.122  0.00  0.00     0.114 A 
ATOM      5  N   LIG d   1       6.629   0.222  -4.939  0.00  0.00    -0.296 N 
ATOM      6  C   LIG d   1       5.545  -0.544  -4.664  0.00  0.00     0.266 A 
ATOM      7  O   LIG d   1       5.233  -1.461  -5.402  0.00  0.00    -0.267 OA
ATOM      8  C   LIG d   1       7.568   0.114  -6.068  0.00  0.00     0.028 C 
ATOM      9  C   LIG d   1       8.307   1.468  -6.122  0.00  0.00    -0.028 C 
ATOM     10  C   LIG d   1       8.205   1.938  -4.655  0.00  0.00     0.007 C 
ATOM     11  H   LIG d   1       7.024  -0.055  -6.996  0.00  0.00     0.049 H 
ATOM     12  H   LIG d   1       8.277  -0.695  -5.893  0.00  0.00     0.049 H 
ATOM     13  H   LIG d   1       7.799   2.163  -6.792  0.00  0.00     0.029 H 
ATOM     14  H   LIG d   1       9.347   1.334  -6.418  0.00  0.00     0.029 H 
ATOM     15  H   LIG d   1       8.081   3.020  -4.610  0.00  0.00     0.034 H 
ATOM     16  H   LIG d   1       9.088   1.632  -4.095  0.00  0.00     0.034 H 
ENDROOT
BRANCH   1  17
ATOM     17  C   LIG d   1       3.644  -1.034  -3.170  0.00  0.00     0.169 C 
ATOM     18  O   LIG d   1       2.537  -0.667  -3.512  0.00  0.00    -0.292 OA
BRANCH  17  19
ATOM     19  C   LIG d   1       3.806  -2.315  -2.393  0.00  0.00    -0.001 C 
ATOM     20  H   LIG d   1       4.108  -3.042  -3.009  0.00  0.00     0.031 H 
ATOM     21  H   LIG d   1       4.549  -2.172  -1.608  0.00  0.00     0.031 H 
ATOM     22  H   LIG d   1       2.851  -2.591  -1.945  0.00  0.00     0.031 H 
ENDBRANCH  17  19
ENDBRANCH   1  17
BRANCH   2  23
ATOM     23  N   LIG d   1       4.495   1.136  -1.556  0.00  0.00    -0.342 N 
ATOM     24  H   LIG d   1       4.141   2.032  -1.440  0.00  0.00     0.144 HD
ATOM     25  H   LIG d   1       4.355   0.467  -0.868  0.00  0.00     0.144 HD
ENDBRANCH   2  23
TORSDOF 3
ENDMDL
MODEL 5
REMARK VINA RESULT:      -4.8      2.623      3.031
REMARK  3 active torsions:
REMARK  status: ('A' for Active; 'I' for Inactive)
REMARK    1  A    between atoms: C_1  and  C_2 
REMARK    2  A    between atoms: C_2  and  C_4 
REMARK    3  A    between atoms: C_5  and  N_14 
ROOT
ATOM      1  C   LIG d   1       4.376  -1.057  -6.049  0.00  0.00     0.121 A 
ATOM      2  C   LIG d   1       3.384  -0.061  -6.152  0.00  0.00     0.134 A 
ATOM      3  N   LIG d   1       3.058   0.646  -5.069  0.00  0.00    -0.218 NA
ATOM      4  C   LIG d   1       3.629   0.446  -3.904  0.00  0.00     0.114 A 
ATOM      5  N   LIG d   1       4.581  -0.492  -3.734  0.00  0.00    -0.296 N 
ATOM      6  C   LIG d   1       4.980  -1.257  -4.780  0.00  0.00     0.266 A 
ATOM      7  O   LIG d   1       5.844  -2.103  -4.632  0.00  0.00    -0.267 OA
ATOM      8  C   LIG d   1       5.053  -0.523  -2.339  0.00  0.00     0.028 C 
ATOM      9  C   LIG d   1       4.601   0.815  -1.719  0.00  0.00    -0.028 C 
ATOM     10  C   LIG d   1       3.373   1.164  -2.589  0.00  0.00     0.007 C 
ATOM     11  H   LIG d   1       6.139  -0.604  -2.310  0.00  0.00     0.049 H 
ATOM     12  H   LIG d   1       4.598  -1.358  -1.806  0.00  0.00     0.049 H 
ATOM     13  H   LIG d   1       5.378   1.574  -1.819  0.00  0.00     0.029 H 
ATOM     14  H   LIG d   1       4.316   0.686  -0.675  0.00  0.00     0.029 H 
ATOM     15  H   LIG d   1       3.312   2.240  -2.748  0.00  0.00     0.034 H 
ATOM     16  H   LIG d   1       2.460   0.794  -2.124  0.00  0.00     0.034 H 
ENDROOT
BRANCH   1  17
ATOM     17  C   LIG d   1       4.753  -1.833  -7.167  0.00  0.00     0.169 C 
ATOM     18  O   LIG d   1       4.092  -2.801  -7.486  0.00  0.00    -0.292 OA
BRANCH  17  19
ATOM     19  C   LIG d   1       5.975  -1.461  -7.966  0.00  0.00    -0.001 C 
ATOM     20  H   LIG d   1       6.789  -1.553  -7.392  0.00  0.00     0.031 H 
ATOM     21  H   LIG d   1       6.062  -2.124  -8.828  0.00  0.00     0.031 H 
ATOM     22  H   LIG d   1       5.887  -0.429  -8.308  0.00  0.00     0.031 H 
ENDBRANCH  17  19
ENDBRANCH   1  17
BRANCH   2  23
ATOM     23  N   LIG d   1       2.762   0.177  -7.350  0.00  0.00    -0.342 N 
ATOM     24  H   LIG d   1       3.060   0.907  -7.915  0.00  0.00     0.144 HD
ATOM     25  H   LIG d   1       2.024  -0.385  -7.633  0.00  0.00     0.144 HD
ENDBRANCH   2  23
TORSDOF 3
ENDMDL
MODEL 6
REMARK VINA RESULT:      -4.8      3.223      4.594
REMARK  3 active torsions:
REMARK  status: ('A' for Active; 'I' for Inactive)
REMARK    1  A    between atoms: C_1  and  C_2 
REMARK    2  A    between atoms: C_2  and  C_4 
REMARK    3  A    between atoms: C_5  and  N_14 
ROOT
ATOM      1  C   LIG d   1       4.220  -0.764  -4.527  0.00  0.00     0.121 A 
ATOM      2  C   LIG d   1       3.501   0.440  -4.666  0.00  0.00     0.134 A 
ATOM      3  N   LIG d   1       3.003   0.764  -5.861  0.00  0.00    -0.218 NA
ATOM      4  C   LIG d   1       3.161  -0.000  -6.917  0.00  0.00     0.114 A 
ATOM      5  N   LIG d   1       3.841  -1.161  -6.855  0.00  0.00    -0.296 N 
ATOM      6  C   LIG d   1       4.379  -1.575  -5.681  0.00  0.00     0.266 A 
ATOM      7  O   LIG d   1       4.991  -2.627  -5.618  0.00  0.00    -0.267 OA
ATOM      8  C   LIG d   1       3.883  -1.824  -8.169  0.00  0.00     0.028 C 
ATOM      9  C   LIG d   1       2.765  -1.162  -9.002  0.00  0.00    -0.028 C 
ATOM     10  C   LIG d   1       2.657   0.225  -8.332  0.00  0.00     0.007 C 
ATOM     11  H   LIG d   1       3.690  -2.891  -8.060  0.00  0.00     0.049 H 
ATOM     12  H   LIG d   1       4.851  -1.662  -8.642  0.00  0.00     0.049 H 
ATOM     13  H   LIG d   1       1.830  -1.714  -8.908  0.00  0.00     0.029 H 
ATOM     14  H   LIG d   1       3.058  -1.070 -10.047  0.00  0.00     0.029 H 
ATOM     15  H   LIG d   1       1.621   0.562  -8.319  0.00  0.00     0.034 H 
ATOM     16  H   LIG d   1       3.287   0.948  -8.851  0.00  0.00     0.034 H 
ENDROOT
BRANCH   1  17
ATOM     17  C   LIG d   1       4.768  -1.148  -3.283  0.00  0.00     0.169 C 
ATOM     18  O   LIG d   1       5.859  -0.733  -2.945  0.00  0.00    -0.292 OA
BRANCH  17  19
ATOM     19  C   LIG d   1       4.001  -2.073  -2.374  0.00  0.00    -0.001 C 
ATOM     20  H   LIG d   1       3.263  -1.565  -1.928  0.00  0.00     0.031 H 
ATOM     21  H   LIG d   1       3.577  -2.889  -2.959  0.00  0.00     0.031 H 
ATOM     22  H   LIG d   1       4.672  -2.479  -1.617  0.00  0.00     0.031 H 
ENDBRANCH  17  19
ENDBRANCH   1  17
BRANCH   2  23
ATOM     23  N   LIG d   1       3.316   1.267  -3.589  0.00  0.00    -0.342 N 
ATOM     24  H   LIG d   1       3.809   1.113  -2.768  0.00  0.00     0.144 HD
ATOM     25  H   LIG d   1       2.691   2.007  -3.648  0.00  0.00     0.144 HD
ENDBRANCH   2  23
TORSDOF 3
ENDMDL
MODEL 7
REMARK VINA RESULT:      -4.7      1.819      4.338
REMARK  3 active torsions:
REMARK  status: ('A' for Active; 'I' for Inactive)
REMARK    1  A    between atoms: C_1  and  C_2 
REMARK    2  A    between atoms: C_2  and  C_4 
REMARK    3  A    between atoms: C_5  and  N_14 
ROOT
ATOM      1  C   LIG d   1       5.200  -0.283  -3.841  0.00  0.00     0.121 A 
ATOM      2  C   LIG d   1       4.189  -0.276  -4.823  0.00  0.00     0.134 A 
ATOM      3  N   LIG d   1       4.085  -1.314  -5.655  0.00  0.00    -0.218 NA
ATOM      4  C   LIG d   1       4.895  -2.346  -5.594  0.00  0.00     0.114 A 
ATOM      5  N   LIG d   1       5.885  -2.414  -4.683  0.00  0.00    -0.296 N 
ATOM      6  C   LIG d   1       6.065  -1.407  -3.793  0.00  0.00     0.266 A 
ATOM      7  O   LIG d   1       6.956  -1.467  -2.964  0.00  0.00    -0.267 OA
ATOM      8  C   LIG d   1       6.655  -3.662  -4.827  0.00  0.00     0.028 C 
ATOM      9  C   LIG d   1       5.763  -4.603  -5.664  0.00  0.00    -0.028 C 
ATOM     10  C   LIG d   1       4.904  -3.594  -6.458  0.00  0.00     0.007 C 
ATOM     11  H   LIG d   1       6.849  -4.100  -3.848  0.00  0.00     0.049 H 
ATOM     12  H   LIG d   1       7.591  -3.469  -5.347  0.00  0.00     0.049 H 
ATOM     13  H   LIG d   1       5.139  -5.224  -5.020  0.00  0.00     0.029 H 
ATOM     14  H   LIG d   1       6.364  -5.217  -6.333  0.00  0.00     0.029 H 
ATOM     15  H   LIG d   1       3.892  -3.976  -6.588  0.00  0.00     0.034 H 
ATOM     16  H   LIG d   1       5.361  -3.385  -7.426  0.00  0.00     0.034 H 
ENDROOT
BRANCH   1  17
ATOM     17  C   LIG d   1       5.351   0.794  -2.940  0.00  0.00     0.169 C 
ATOM     18  O   LIG d   1       6.079   1.725  -3.222  0.00  0.00    -0.292 OA
BRANCH  17  19
ATOM     19  C   LIG d   1       4.610   0.790  -1.627  0.00  0.00    -0.001 C 
ATOM     20  H   LIG d   1       4.579   1.719  -1.259  0.00  0.00     0.031 H 
ATOM     21  H   LIG d   1       3.594   0.428  -1.786  0.00  0.00     0.031 H 
ATOM     22  H   LIG d   1       5.123   0.136  -0.922  0.00  0.00     0.031 H 
ENDBRANCH  17  19
ENDBRANCH   1  17
BRANCH   2  23
ATOM     23  N   LIG d   1       3.324   0.783  -4.922  0.00  0.00    -0.342 N 
ATOM     24  H   LIG d   1       3.245   1.268  -5.758  0.00  0.00     0.144 HD
ATOM     25  H   LIG d   1       2.791   1.046  -4.156  0.00  0.00     0.144 HD
ENDBRANCH   2  23
TORSDOF 3
ENDMDL
MODEL 8
REMARK VINA RESULT:      -4.2      2.081      4.825
REMARK  3 active torsions:
REMARK  status: ('A' for Active; 'I' for Inactive)
REMARK    1  A    between atoms: C_1  and  C_2 
REMARK    2  A    between atoms: C_2  and  C_4 
REMARK    3  A    between atoms: C_5  and  N_14 
ROOT
ATOM      1  C   LIG d   1       4.955  -0.886  -4.196  0.00  0.00     0.121 A 
ATOM      2  C   LIG d   1       6.097  -0.140  -3.844  0.00  0.00     0.134 A 
ATOM      3  N   LIG d   1       7.294  -0.727  -3.886  0.00  0.00    -0.218 NA
ATOM      4  C   LIG d   1       7.449  -1.980  -4.245  0.00  0.00     0.114 A 
ATOM      5  N   LIG d   1       6.399  -2.751  -4.590  0.00  0.00    -0.296 N 
ATOM      6  C   LIG d   1       5.144  -2.240  -4.580  0.00  0.00     0.266 A 
ATOM      7  O   LIG d   1       4.192  -2.932  -4.896  0.00  0.00    -0.267 OA
ATOM      8  C   LIG d   1       6.834  -4.114  -4.941  0.00  0.00     0.028 C 
ATOM      9  C   LIG d   1       8.350  -4.009  -5.206  0.00  0.00    -0.028 C 
ATOM     10  C   LIG d   1       8.733  -2.784  -4.347  0.00  0.00     0.007 C 
ATOM     11  H   LIG d   1       6.318  -4.455  -5.838  0.00  0.00     0.049 H 
ATOM     12  H   LIG d   1       6.643  -4.796  -4.113  0.00  0.00     0.049 H 
ATOM     13  H   LIG d   1       8.550  -3.823  -6.262  0.00  0.00     0.029 H 
ATOM     14  H   LIG d   1       8.870  -4.904  -4.864  0.00  0.00     0.029 H 
ATOM     15  H   LIG d   1       9.510  -2.201  -4.840  0.00  0.00     0.034 H 
ATOM     16  H   LIG d   1       9.064  -3.102  -3.358  0.00  0.00     0.034 H 
ENDROOT
BRANCH   1  17
ATOM     17  C   LIG d   1       3.665  -0.310  -4.164  0.00  0.00     0.169 C 
ATOM     18  O   LIG d   1       3.322   0.460  -5.039  0.00  0.00    -0.292 OA
BRANCH  17  19
ATOM     19  C   LIG d   1       2.714  -0.650  -3.046  0.00  0.00    -0.001 C 
ATOM     20  H   LIG d   1       2.299  -1.543  -3.222  0.00  0.00     0.031 H 
ATOM     21  H   LIG d   1       3.260  -0.684  -2.102  0.00  0.00     0.031 H 
ATOM     22  H   LIG d   1       1.934   0.109  -2.988  0.00  0.00     0.031 H 
ENDBRANCH  17  19
ENDBRANCH   1  17
BRANCH   2  23
ATOM     23  N   LIG d   1       5.979   1.171  -3.462  0.00  0.00    -0.342 N 
ATOM     24  H   LIG d   1       6.472   1.860  -3.933  0.00  0.00     0.144 HD
ATOM     25  H   LIG d   1       5.402   1.409  -2.719  0.00  0.00     0.144 HD
ENDBRANCH   2  23
TORSDOF 3
ENDMDL
MODEL 9
REMARK VINA RESULT:      -4.1     10.680     12.897
REMARK  3 active torsions:
REMARK  status: ('A' for Active; 'I' for Inactive)
REMARK    1  A    between atoms: C_1  and  C_2 
REMARK    2  A    between atoms: C_2  and  C_4 
REMARK    3  A    between atoms: C_5  and  N_14 
ROOT
ATOM      1  C   LIG d   1      10.487   9.912  -0.202  0.00  0.00     0.121 A 
ATOM      2  C   LIG d   1       9.324   9.332  -0.748  0.00  0.00     0.134 A 
ATOM      3  N   LIG d   1       9.307   8.021  -0.992  0.00  0.00    -0.218 NA
ATOM      4  C   LIG d   1      10.338   7.247  -0.745  0.00  0.00     0.114 A 
ATOM      5  N   LIG d   1      11.482   7.737  -0.228  0.00  0.00    -0.296 N 
ATOM      6  C   LIG d   1      11.591   9.058   0.057  0.00  0.00     0.266 A 
ATOM      7  O   LIG d   1      12.622   9.505   0.529  0.00  0.00    -0.267 OA
ATOM      8  C   LIG d   1      12.485   6.673  -0.053  0.00  0.00     0.028 C 
ATOM      9  C   LIG d   1      11.696   5.348  -0.110  0.00  0.00    -0.028 C 
ATOM     10  C   LIG d   1      10.472   5.750  -0.962  0.00  0.00     0.007 C 
ATOM     11  H   LIG d   1      12.979   6.776   0.913  0.00  0.00     0.049 H 
ATOM     12  H   LIG d   1      13.218   6.710  -0.858  0.00  0.00     0.049 H 
ATOM     13  H   LIG d   1      11.390   5.033   0.888  0.00  0.00     0.029 H 
ATOM     14  H   LIG d   1      12.277   4.569  -0.603  0.00  0.00     0.029 H 
ATOM     15  H   LIG d   1       9.579   5.232  -0.613  0.00  0.00     0.034 H 
ATOM     16  H   LIG d   1      10.654   5.532  -2.015  0.00  0.00     0.034 H 
ENDROOT
BRANCH   1  17
ATOM     17  C   LIG d   1      10.555  11.296   0.071  0.00  0.00     0.169 C 
ATOM     18  O   LIG d   1      10.112  11.731   1.116  0.00  0.00    -0.292 OA
BRANCH  17  19
ATOM     19  C   LIG d   1      11.176  12.234  -0.931  0.00  0.00    -0.001 C 
ATOM     20  H   LIG d   1      10.639  13.077  -0.977  0.00  0.00     0.031 H 
ATOM     21  H   LIG d   1      12.195  12.470  -0.624  0.00  0.00     0.031 H 
ATOM     22  H   LIG d   1      11.192  11.760  -1.912  0.00  0.00     0.031 H 
ENDBRANCH  17  19
ENDBRANCH   1  17
BRANCH   2  23
ATOM     23  N   LIG d   1       8.226  10.105  -1.023  0.00  0.00    -0.342 N 
ATOM     24  H   LIG d   1       8.171  10.588  -1.862  0.00  0.00     0.144 HD
ATOM     25  H   LIG d   1       7.505  10.168  -0.378  0.00  0.00     0.144 HD
ENDBRANCH   2  23
TORSDOF 3
ENDMDL
MODEL 10
REMARK VINA RESULT:      -4.1      9.335     10.349
REMARK  3 active torsions:
REMARK  status: ('A' for Active; 'I' for Inactive)
REMARK    1  A    between atoms: C_1  and  C_2 
REMARK    2  A    between atoms: C_2  and  C_4 
REMARK    3  A    between atoms: C_5  and  N_14 
ROOT
ATOM      1  C   LIG d   1      11.253   6.212  -1.276  0.00  0.00     0.121 A 
ATOM      2  C   LIG d   1      10.843   5.088  -2.020  0.00  0.00     0.134 A 
ATOM      3  N   LIG d   1      10.237   5.272  -3.194  0.00  0.00    -0.218 NA
ATOM      4  C   LIG d   1      10.006   6.469  -3.684  0.00  0.00     0.114 A 
ATOM      5  N   LIG d   1      10.367   7.585  -3.022  0.00  0.00    -0.296 N 
ATOM      6  C   LIG d   1      10.992   7.496  -1.823  0.00  0.00     0.266 A 
ATOM      7  O   LIG d   1      11.325   8.503  -1.223  0.00  0.00    -0.267 OA
ATOM      8  C   LIG d   1       9.990   8.794  -3.775  0.00  0.00     0.028 C 
ATOM      9  C   LIG d   1       9.731   8.318  -5.219  0.00  0.00    -0.028 C 
ATOM     10  C   LIG d   1       9.337   6.841  -4.995  0.00  0.00     0.007 C 
ATOM     11  H   LIG d   1      10.804   9.518  -3.757  0.00  0.00     0.049 H 
ATOM     12  H   LIG d   1       9.086   9.232  -3.355  0.00  0.00     0.049 H 
ATOM     13  H   LIG d   1      10.636   8.392  -5.823  0.00  0.00     0.029 H 
ATOM     14  H   LIG d   1       8.913   8.876  -5.674  0.00  0.00     0.029 H 
ATOM     15  H   LIG d   1       9.714   6.219  -5.806  0.00  0.00     0.034 H 
ATOM     16  H   LIG d   1       8.254   6.745  -4.912  0.00  0.00     0.034 H 
ENDROOT
BRANCH   1  17
ATOM     17  C   LIG d   1      11.895   6.068  -0.026  0.00  0.00     0.169 C 
ATOM     18  O   LIG d   1      13.105   5.964   0.027  0.00  0.00    -0.292 OA
BRANCH  17  19
ATOM     19  C   LIG d   1      11.081   6.043   1.243  0.00  0.00    -0.001 C 
ATOM     20  H   LIG d   1      10.133   6.281   1.034  0.00  0.00     0.031 H 
ATOM     21  H   LIG d   1      11.118   5.044   1.678  0.00  0.00     0.031 H 
ATOM     22  H   LIG d   1      11.490   6.764   1.951  0.00  0.00     0.031 H 
ENDBRANCH  17  19
ENDBRANCH   1  17
BRANCH   2  23
ATOM     23  N   LIG d   1      11.064   3.822  -1.544  0.00  0.00    -0.342 N 
ATOM     24  H   LIG d   1      11.577   3.188  -2.069  0.00  0.00     0.144 HD
ATOM     25  H   LIG d   1      10.707   3.560  -0.681  0.00  0.00     0.144 HD
ENDBRANCH   2  23
TORSDOF 3
ENDMDL
