MODEL 1
REMARK VINA RESULT:      -5.1      0.000      0.000
REMARK  9 active torsions:
REMARK  status: ('A' for Active; 'I' for Inactive)
REMARK    1  A    between atoms: C_1  and  O_2 
REMARK    2  A    between atoms: O_2  and  C_3 
REMARK    3  A    between atoms: C_3  and  C_4 
REMARK    4  A    between atoms: C_4  and  N_5 
REMARK       I    between atoms: N_5  and  C_6 
REMARK    5  A    between atoms: C_6  and  C_8 
REMARK    6  A    between atoms: C_16  and  C_18 
REMARK    7  A    between atoms: C_18  and  N_19 
REMARK    8  A    between atoms: C_21  and  C_24 
REMARK    9  A    between atoms: C_24  and  O_25 
ROOT
ATOM      1  C   LIG d   1       5.683  -3.247  -5.005  0.00  0.00     0.079 C 
ATOM      2  H   LIG d   1       6.433  -3.282  -4.215  0.00  0.00     0.045 H 
ATOM      3  C   LIG d   1       4.491  -4.128  -4.619  0.00  0.00    -0.020 C 
ATOM      4  C   LIG d   1       4.026  -4.613  -6.947  0.00  0.00    -0.031 C 
ATOM      5  C   LIG d   1       5.205  -3.746  -7.398  0.00  0.00    -0.009 C 
ATOM      6  C   LIG d   1       6.287  -3.773  -6.313  0.00  0.00    -0.015 C 
ATOM      7  H   LIG d   1       7.135  -3.154  -6.610  0.00  0.00     0.031 H 
ATOM      8  C   LIG d   1       6.727  -5.227  -6.099  0.00  0.00    -0.004 C 
ATOM      9  C   LIG d   1       5.502  -6.056  -5.681  0.00  0.00    -0.001 C 
ATOM     10  H   LIG d   1       5.676  -6.495  -4.698  0.00  0.00     0.087 H 
ATOM     11  H   LIG d   1       4.674  -4.579  -3.644  0.00  0.00     0.082 H 
ATOM     12  H   LIG d   1       3.588  -3.519  -4.574  0.00  0.00     0.082 H 
ATOM     13  H   LIG d   1       3.871  -5.418  -7.665  0.00  0.00     0.081 H 
ATOM     14  H   LIG d   1       3.127  -4.001  -6.886  0.00  0.00     0.081 H 
ATOM     15  H   LIG d   1       5.612  -4.138  -8.330  0.00  0.00     0.032 H 
ATOM     16  H   LIG d   1       4.866  -2.721  -7.552  0.00  0.00     0.032 H 
ATOM     17  H   LIG d   1       7.140  -5.624  -7.026  0.00  0.00     0.032 H 
ATOM     18  H   LIG d   1       7.480  -5.269  -5.312  0.00  0.00     0.032 H 
ATOM     19  N   LIG d   1       4.298  -5.201  -5.617  0.00  0.00     0.239 N 
ATOM     20  H   LIG d   1       3.494  -5.776  -5.337  0.00  0.00     0.204 HD
ENDROOT
BRANCH   1  21
ATOM     21  C   LIG d   1       5.220  -1.826  -5.199  0.00  0.00     0.222 C 
ATOM     22  N   LIG d   1       3.926  -1.507  -5.000  0.00  0.00    -0.313 N 
ATOM     23  H   LIG d   1       3.292  -2.190  -4.732  0.00  0.00     0.149 HD
ATOM     24  O   LIG d   1       6.011  -0.971  -5.534  0.00  0.00    -0.275 OA
BRANCH  22  25
ATOM     25  C   LIG d   1       3.475  -0.125  -5.189  0.00  0.00     0.035 C 
ATOM     26  H   LIG d   1       4.260   0.449  -5.681  0.00  0.00     0.048 H 
ATOM     27  H   LIG d   1       2.578  -0.117  -5.806  0.00  0.00     0.048 H 
BRANCH  25  28
ATOM     28  C   LIG d   1       3.163   0.501  -3.827  0.00  0.00     0.063 C 
ATOM     29  H   LIG d   1       2.190   0.991  -3.867  0.00  0.00     0.058 H 
ATOM     30  H   LIG d   1       3.146  -0.278  -3.065  0.00  0.00     0.058 H 
BRANCH  28  31
ATOM     31  O   LIG d   1       4.168   1.463  -3.503  0.00  0.00    -0.381 OA
BRANCH  31  32
ATOM     32  C   LIG d   1       5.026   1.069  -2.430  0.00  0.00     0.036 C 
ATOM     33  H   LIG d   1       4.533   1.272  -1.479  0.00  0.00     0.052 H 
ATOM     34  H   LIG d   1       5.239   0.003  -2.508  0.00  0.00     0.052 H 
ATOM     35  H   LIG d   1       5.957   1.632  -2.484  0.00  0.00     0.052 H 
ENDBRANCH  31  32
ENDBRANCH  28  31
ENDBRANCH  25  28
ENDBRANCH  22  25
ENDBRANCH   1  21
BRANCH   9  36
ATOM     36  C   LIG d   1       5.267  -7.170  -6.704  0.00  0.00     0.086 C 
ATOM     37  H   LIG d   1       4.493  -6.861  -7.406  0.00  0.00     0.057 H 
ATOM     38  H   LIG d   1       6.192  -7.367  -7.245  0.00  0.00     0.057 H 
BRANCH  36  39
ATOM     39  N   LIG d   1       4.839  -8.387  -6.010  0.00  0.00    -0.246 N 
ATOM     40  N   LIG d   1       4.344  -9.438  -6.566  0.00  0.00    -0.065 NA
ATOM     41  N   LIG d   1       4.074 -10.325  -5.675  0.00  0.00    -0.132 NA
ATOM     42  C   LIG d   1       4.404  -9.845  -4.471  0.00  0.00     0.108 A 
ATOM     43  C   LIG d   1       4.901  -8.603  -4.676  0.00  0.00     0.051 A 
ATOM     44  H   LIG d   1       5.270  -7.920  -3.925  0.00  0.00     0.085 H 
BRANCH  42  45
ATOM     45  C   LIG d   1       4.257 -10.551  -3.147  0.00  0.00     0.089 C 
ATOM     46  H   LIG d   1       4.909 -11.424  -3.127  0.00  0.00     0.062 H 
ATOM     47  H   LIG d   1       4.532  -9.872  -2.341  0.00  0.00     0.062 H 
BRANCH  45  48
ATOM     48  O   LIG d   1       2.900 -10.967  -2.977  0.00  0.00    -0.389 OA
ATOM     49  H   LIG d   1       2.454 -10.557  -2.224  0.00  0.00     0.210 HD
ENDBRANCH  45  48
ENDBRANCH  42  45
ENDBRANCH  36  39
ENDBRANCH   9  36
TORSDOF 9
ENDMDL
MODEL 2
REMARK VINA RESULT:      -5.0      3.323      4.961
REMARK  9 active torsions:
REMARK  status: ('A' for Active; 'I' for Inactive)
REMARK    1  A    between atoms: C_1  and  O_2 
REMARK    2  A    between atoms: O_2  and  C_3 
REMARK    3  A    between atoms: C_3  and  C_4 
REMARK    4  A    between atoms: C_4  and  N_5 
REMARK       I    between atoms: N_5  and  C_6 
REMARK    5  A    between atoms: C_6  and  C_8 
REMARK    6  A    between atoms: C_16  and  C_18 
REMARK    7  A    between atoms: C_18  and  N_19 
REMARK    8  A    between atoms: C_21  and  C_24 
REMARK    9  A    between atoms: C_24  and  O_25 
ROOT
ATOM      1  C   LIG d   1       5.136  -0.248  -3.986  0.00  0.00     0.079 C 
ATOM      2  H   LIG d   1       4.096   0.074  -3.918  0.00  0.00     0.045 H 
ATOM      3  C   LIG d   1       5.461  -0.631  -5.432  0.00  0.00    -0.020 C 
ATOM      4  C   LIG d   1       7.091  -2.262  -4.692  0.00  0.00    -0.031 C 
ATOM      5  C   LIG d   1       6.812  -1.925  -3.224  0.00  0.00    -0.009 C 
ATOM      6  C   LIG d   1       5.355  -1.471  -3.086  0.00  0.00    -0.015 C 
ATOM      7  H   LIG d   1       5.135  -1.217  -2.049  0.00  0.00     0.031 H 
ATOM      8  C   LIG d   1       4.443  -2.605  -3.571  0.00  0.00    -0.004 C 
ATOM      9  C   LIG d   1       4.788  -2.924  -5.035  0.00  0.00    -0.001 C 
ATOM     10  H   LIG d   1       3.909  -2.766  -5.660  0.00  0.00     0.087 H 
ATOM     11  H   LIG d   1       4.577  -0.488  -6.053  0.00  0.00     0.082 H 
ATOM     12  H   LIG d   1       6.270  -0.002  -5.802  0.00  0.00     0.082 H 
ATOM     13  H   LIG d   1       7.394  -3.306  -4.774  0.00  0.00     0.081 H 
ATOM     14  H   LIG d   1       7.890  -1.622  -5.067  0.00  0.00     0.081 H 
ATOM     15  H   LIG d   1       6.980  -2.809  -2.608  0.00  0.00     0.032 H 
ATOM     16  H   LIG d   1       7.477  -1.124  -2.900  0.00  0.00     0.032 H 
ATOM     17  H   LIG d   1       4.602  -3.490  -2.955  0.00  0.00     0.032 H 
ATOM     18  H   LIG d   1       3.401  -2.291  -3.503  0.00  0.00     0.032 H 
ATOM     19  N   LIG d   1       5.879  -2.047  -5.510  0.00  0.00     0.239 N 
ATOM     20  H   LIG d   1       6.092  -2.279  -6.487  0.00  0.00     0.204 HD
ENDROOT
BRANCH   1  21
ATOM     21  C   LIG d   1       6.041   0.872  -3.544  0.00  0.00     0.222 C 
ATOM     22  N   LIG d   1       7.087   1.235  -4.311  0.00  0.00    -0.313 N 
ATOM     23  H   LIG d   1       7.259   0.776  -5.148  0.00  0.00     0.149 HD
ATOM     24  O   LIG d   1       5.828   1.447  -2.498  0.00  0.00    -0.275 OA
BRANCH  22  25
ATOM     25  C   LIG d   1       7.968   2.325  -3.881  0.00  0.00     0.035 C 
ATOM     26  H   LIG d   1       7.728   3.228  -4.442  0.00  0.00     0.048 H 
ATOM     27  H   LIG d   1       7.826   2.508  -2.817  0.00  0.00     0.048 H 
BRANCH  25  28
ATOM     28  C   LIG d   1       9.426   1.935  -4.142  0.00  0.00     0.063 C 
ATOM     29  H   LIG d   1       9.493   0.857  -4.287  0.00  0.00     0.058 H 
ATOM     30  H   LIG d   1       9.783   2.445  -5.036  0.00  0.00     0.058 H 
BRANCH  28  31
ATOM     31  O   LIG d   1      10.228   2.316  -3.023  0.00  0.00    -0.381 OA
BRANCH  31  32
ATOM     32  C   LIG d   1      10.316   3.729  -2.824  0.00  0.00     0.036 C 
ATOM     33  H   LIG d   1      11.344   4.055  -2.985  0.00  0.00     0.052 H 
ATOM     34  H   LIG d   1       9.659   4.236  -3.530  0.00  0.00     0.052 H 
ATOM     35  H   LIG d   1      10.012   3.971  -1.806  0.00  0.00     0.052 H 
ENDBRANCH  31  32
ENDBRANCH  28  31
ENDBRANCH  25  28
ENDBRANCH  22  25
ENDBRANCH   1  21
BRANCH   9  36
ATOM     36  C   LIG d   1       5.238  -4.382  -5.146  0.00  0.00     0.086 C 
ATOM     37  H   LIG d   1       6.321  -4.420  -5.268  0.00  0.00     0.057 H 
ATOM     38  H   LIG d   1       4.955  -4.920  -4.242  0.00  0.00     0.057 H 
BRANCH  36  39
ATOM     39  N   LIG d   1       4.595  -5.004  -6.306  0.00  0.00    -0.246 N 
ATOM     40  N   LIG d   1       4.497  -6.269  -6.527  0.00  0.00    -0.065 NA
ATOM     41  N   LIG d   1       3.874  -6.479  -7.632  0.00  0.00    -0.132 NA
ATOM     42  C   LIG d   1       3.542  -5.303  -8.173  0.00  0.00     0.108 A 
ATOM     43  C   LIG d   1       3.996  -4.349  -7.326  0.00  0.00     0.051 A 
ATOM     44  H   LIG d   1       3.900  -3.279  -7.444  0.00  0.00     0.085 H 
BRANCH  42  45
ATOM     45  C   LIG d   1       2.803  -5.082  -9.468  0.00  0.00     0.089 C 
ATOM     46  H   LIG d   1       2.696  -4.012  -9.646  0.00  0.00     0.062 H 
ATOM     47  H   LIG d   1       3.362  -5.533 -10.287  0.00  0.00     0.062 H 
BRANCH  45  48
ATOM     48  O   LIG d   1       1.509  -5.682  -9.387  0.00  0.00    -0.389 OA
ATOM     49  H   LIG d   1       1.284  -6.018  -8.509  0.00  0.00     0.210 HD
ENDBRANCH  45  48
ENDBRANCH  42  45
ENDBRANCH  36  39
ENDBRANCH   9  36
TORSDOF 9
ENDMDL
MODEL 3
REMARK VINA RESULT:      -4.9      6.099      8.758
REMARK  9 active torsions:
REMARK  status: ('A' for Active; 'I' for Inactive)
REMARK    1  A    between atoms: C_1  and  O_2 
REMARK    2  A    between atoms: O_2  and  C_3 
REMARK    3  A    between atoms: C_3  and  C_4 
REMARK    4  A    between atoms: C_4  and  N_5 
REMARK       I    between atoms: N_5  and  C_6 
REMARK    5  A    between atoms: C_6  and  C_8 
REMARK    6  A    between atoms: C_16  and  C_18 
REMARK    7  A    between atoms: C_18  and  N_19 
REMARK    8  A    between atoms: C_21  and  C_24 
REMARK    9  A    between atoms: C_24  and  O_25 
ROOT
ATOM      1  C   LIG d   1       2.466  -0.480 -11.191  0.00  0.00     0.079 C 
ATOM      2  H   LIG d   1       2.547   0.532 -11.589  0.00  0.00     0.045 H 
ATOM      3  C   LIG d   1       1.679  -0.453  -9.878  0.00  0.00    -0.020 C 
ATOM      4  C   LIG d   1       2.905  -2.367  -9.040  0.00  0.00    -0.031 C 
ATOM      5  C   LIG d   1       3.727  -2.448 -10.330  0.00  0.00    -0.009 C 
ATOM      6  C   LIG d   1       3.868  -1.040 -10.920  0.00  0.00    -0.015 C 
ATOM      7  H   LIG d   1       4.444  -1.074 -11.845  0.00  0.00     0.031 H 
ATOM      8  C   LIG d   1       4.560  -0.145  -9.884  0.00  0.00    -0.004 C 
ATOM      9  C   LIG d   1       3.712  -0.127  -8.602  0.00  0.00    -0.001 C 
ATOM     10  H   LIG d   1       3.401   0.896  -8.384  0.00  0.00     0.087 H 
ATOM     11  H   LIG d   1       1.383   0.571  -9.653  0.00  0.00     0.082 H 
ATOM     12  H   LIG d   1       0.789  -1.075  -9.974  0.00  0.00     0.082 H 
ATOM     13  H   LIG d   1       3.501  -2.735  -8.206  0.00  0.00     0.081 H 
ATOM     14  H   LIG d   1       2.007  -2.976  -9.142  0.00  0.00     0.081 H 
ATOM     15  H   LIG d   1       4.715  -2.853 -10.109  0.00  0.00     0.032 H 
ATOM     16  H   LIG d   1       3.220  -3.095 -11.047  0.00  0.00     0.032 H 
ATOM     17  H   LIG d   1       5.551  -0.541  -9.663  0.00  0.00     0.032 H 
ATOM     18  H   LIG d   1       4.648   0.869 -10.276  0.00  0.00     0.032 H 
ATOM     19  N   LIG d   1       2.508  -0.968  -8.768  0.00  0.00     0.239 N 
ATOM     20  H   LIG d   1       1.959  -0.941  -7.901  0.00  0.00     0.204 HD
ENDROOT
BRANCH   1  21
ATOM     21  C   LIG d   1       1.756  -1.359 -12.188  0.00  0.00     0.222 C 
ATOM     22  N   LIG d   1       0.500  -1.779 -11.941  0.00  0.00    -0.313 N 
ATOM     23  H   LIG d   1       0.053  -1.517 -11.121  0.00  0.00     0.149 HD
ATOM     24  O   LIG d   1       2.315  -1.687 -13.213  0.00  0.00    -0.275 OA
BRANCH  22  25
ATOM     25  C   LIG d   1      -0.191  -2.635 -12.910  0.00  0.00     0.035 C 
ATOM     26  H   LIG d   1       0.539  -3.076 -13.590  0.00  0.00     0.048 H 
ATOM     27  H   LIG d   1      -0.721  -3.426 -12.383  0.00  0.00     0.048 H 
BRANCH  25  28
ATOM     28  C   LIG d   1      -1.190  -1.795 -13.710  0.00  0.00     0.063 C 
ATOM     29  H   LIG d   1      -0.700  -1.396 -14.598  0.00  0.00     0.058 H 
ATOM     30  H   LIG d   1      -2.031  -2.420 -14.009  0.00  0.00     0.058 H 
BRANCH  28  31
ATOM     31  O   LIG d   1      -1.662  -0.717 -12.900  0.00  0.00    -0.381 OA
BRANCH  31  32
ATOM     32  C   LIG d   1      -2.711   0.046 -13.501  0.00  0.00     0.036 C 
ATOM     33  H   LIG d   1      -2.724  -0.140 -14.575  0.00  0.00     0.052 H 
ATOM     34  H   LIG d   1      -3.667  -0.250 -13.069  0.00  0.00     0.052 H 
ATOM     35  H   LIG d   1      -2.541   1.106 -13.316  0.00  0.00     0.052 H 
ENDBRANCH  31  32
ENDBRANCH  28  31
ENDBRANCH  25  28
ENDBRANCH  22  25
ENDBRANCH   1  21
BRANCH   9  36
ATOM     36  C   LIG d   1       4.540  -0.668  -7.435  0.00  0.00     0.086 C 
ATOM     37  H   LIG d   1       4.524  -1.758  -7.454  0.00  0.00     0.057 H 
ATOM     38  H   LIG d   1       5.568  -0.318  -7.525  0.00  0.00     0.057 H 
BRANCH  36  39
ATOM     39  N   LIG d   1       3.972  -0.193  -6.171  0.00  0.00    -0.246 N 
ATOM     40  N   LIG d   1       3.012   0.656  -6.047  0.00  0.00    -0.065 NA
ATOM     41  N   LIG d   1       2.753   0.854  -4.803  0.00  0.00    -0.132 NA
ATOM     42  C   LIG d   1       3.578   0.105  -4.064  0.00  0.00     0.108 A 
ATOM     43  C   LIG d   1       4.361  -0.576  -4.933  0.00  0.00     0.051 A 
ATOM     44  H   LIG d   1       5.142  -1.281  -4.688  0.00  0.00     0.085 H 
BRANCH  42  45
ATOM     45  C   LIG d   1       3.623   0.028  -2.560  0.00  0.00     0.089 C 
ATOM     46  H   LIG d   1       2.836  -0.639  -2.207  0.00  0.00     0.062 H 
ATOM     47  H   LIG d   1       4.593  -0.355  -2.244  0.00  0.00     0.062 H 
BRANCH  45  48
ATOM     48  O   LIG d   1       3.424   1.332  -2.009  0.00  0.00    -0.389 OA
ATOM     49  H   LIG d   1       3.656   2.053  -2.609  0.00  0.00     0.210 HD
ENDBRANCH  45  48
ENDBRANCH  42  45
ENDBRANCH  36  39
ENDBRANCH   9  36
TORSDOF 9
ENDMDL
MODEL 4
REMARK VINA RESULT:      -4.9      5.794      8.437
REMARK  9 active torsions:
REMARK  status: ('A' for Active; 'I' for Inactive)
REMARK    1  A    between atoms: C_1  and  O_2 
REMARK    2  A    between atoms: O_2  and  C_3 
REMARK    3  A    between atoms: C_3  and  C_4 
REMARK    4  A    between atoms: C_4  and  N_5 
REMARK       I    between atoms: N_5  and  C_6 
REMARK    5  A    between atoms: C_6  and  C_8 
REMARK    6  A    between atoms: C_16  and  C_18 
REMARK    7  A    between atoms: C_18  and  N_19 
REMARK    8  A    between atoms: C_21  and  C_24 
REMARK    9  A    between atoms: C_24  and  O_25 
ROOT
ATOM      1  C   LIG d   1       1.800  -0.817 -11.343  0.00  0.00     0.079 C 
ATOM      2  H   LIG d   1       1.504   0.130 -11.794  0.00  0.00     0.045 H 
ATOM      3  C   LIG d   1       1.288  -0.882  -9.902  0.00  0.00    -0.020 C 
ATOM      4  C   LIG d   1       3.156  -2.275  -9.242  0.00  0.00    -0.031 C 
ATOM      5  C   LIG d   1       3.722  -2.250 -10.665  0.00  0.00    -0.009 C 
ATOM      6  C   LIG d   1       3.330  -0.927 -11.333  0.00  0.00    -0.015 C 
ATOM      7  H   LIG d   1       3.715  -0.890 -12.352  0.00  0.00     0.031 H 
ATOM      8  C   LIG d   1       3.897   0.228 -10.497  0.00  0.00    -0.004 C 
ATOM      9  C   LIG d   1       3.324   0.134  -9.074  0.00  0.00    -0.001 C 
ATOM     10  H   LIG d   1       2.768   1.043  -8.844  0.00  0.00     0.087 H 
ATOM     11  H   LIG d   1       0.745   0.034  -9.667  0.00  0.00     0.082 H 
ATOM     12  H   LIG d   1       0.621  -1.737  -9.790  0.00  0.00     0.082 H 
ATOM     13  H   LIG d   1       3.974  -2.372  -8.528  0.00  0.00     0.081 H 
ATOM     14  H   LIG d   1       2.477  -3.121  -9.135  0.00  0.00     0.081 H 
ATOM     15  H   LIG d   1       4.808  -2.334 -10.629  0.00  0.00     0.032 H 
ATOM     16  H   LIG d   1       3.311  -3.083 -11.236  0.00  0.00     0.032 H 
ATOM     17  H   LIG d   1       4.984   0.153 -10.462  0.00  0.00     0.032 H 
ATOM     18  H   LIG d   1       3.608   1.179 -10.944  0.00  0.00     0.032 H 
ATOM     19  N   LIG d   1       2.417  -1.026  -8.958  0.00  0.00     0.239 N 
ATOM     20  H   LIG d   1       2.048  -1.068  -8.001  0.00  0.00     0.204 HD
ENDROOT
BRANCH   1  21
ATOM     21  C   LIG d   1       1.218  -1.958 -12.138  0.00  0.00     0.222 C 
ATOM     22  N   LIG d   1       0.391  -2.840 -11.544  0.00  0.00    -0.313 N 
ATOM     23  H   LIG d   1       0.170  -2.742 -10.604  0.00  0.00     0.149 HD
ATOM     24  O   LIG d   1       1.494  -2.082 -13.312  0.00  0.00    -0.275 OA
BRANCH  22  25
ATOM     25  C   LIG d   1      -0.175  -3.949 -12.316  0.00  0.00     0.035 C 
ATOM     26  H   LIG d   1      -0.478  -3.589 -13.300  0.00  0.00     0.048 H 
ATOM     27  H   LIG d   1       0.574  -4.732 -12.430  0.00  0.00     0.048 H 
BRANCH  25  28
ATOM     28  C   LIG d   1      -1.394  -4.513 -11.582  0.00  0.00     0.063 C 
ATOM     29  H   LIG d   1      -2.224  -3.811 -11.663  0.00  0.00     0.058 H 
ATOM     30  H   LIG d   1      -1.679  -5.465 -12.029  0.00  0.00     0.058 H 
BRANCH  28  31
ATOM     31  O   LIG d   1      -1.071  -4.711 -10.204  0.00  0.00    -0.381 OA
BRANCH  31  32
ATOM     32  C   LIG d   1      -1.761  -5.805  -9.596  0.00  0.00     0.036 C 
ATOM     33  H   LIG d   1      -2.521  -6.181 -10.282  0.00  0.00     0.052 H 
ATOM     34  H   LIG d   1      -1.052  -6.600  -9.368  0.00  0.00     0.052 H 
ATOM     35  H   LIG d   1      -2.237  -5.467  -8.676  0.00  0.00     0.052 H 
ENDBRANCH  31  32
ENDBRANCH  28  31
ENDBRANCH  25  28
ENDBRANCH  22  25
ENDBRANCH   1  21
BRANCH   9  36
ATOM     36  C   LIG d   1       4.471  -0.029  -8.073  0.00  0.00     0.086 C 
ATOM     37  H   LIG d   1       4.962  -0.988  -8.238  0.00  0.00     0.057 H 
ATOM     38  H   LIG d   1       5.191   0.777  -8.210  0.00  0.00     0.057 H 
BRANCH  36  39
ATOM     39  N   LIG d   1       3.938   0.018  -6.709  0.00  0.00    -0.246 N 
ATOM     40  N   LIG d   1       3.063   0.853  -6.269  0.00  0.00    -0.065 NA
ATOM     41  N   LIG d   1       2.813   0.622  -5.029  0.00  0.00    -0.132 NA
ATOM     42  C   LIG d   1       3.555  -0.414  -4.623  0.00  0.00     0.108 A 
ATOM     43  C   LIG d   1       4.278  -0.813  -5.697  0.00  0.00     0.051 A 
ATOM     44  H   LIG d   1       4.984  -1.629  -5.736  0.00  0.00     0.085 H 
BRANCH  42  45
ATOM     45  C   LIG d   1       3.578  -1.022  -3.245  0.00  0.00     0.089 C 
ATOM     46  H   LIG d   1       4.391  -0.581  -2.667  0.00  0.00     0.062 H 
ATOM     47  H   LIG d   1       2.629  -0.828  -2.746  0.00  0.00     0.062 H 
BRANCH  45  48
ATOM     48  O   LIG d   1       3.780  -2.433  -3.349  0.00  0.00    -0.389 OA
ATOM     49  H   LIG d   1       2.968  -2.953  -3.289  0.00  0.00     0.210 HD
ENDBRANCH  45  48
ENDBRANCH  42  45
ENDBRANCH  36  39
ENDBRANCH   9  36
TORSDOF 9
ENDMDL
MODEL 5
REMARK VINA RESULT:      -4.9      8.665     14.317
REMARK  9 active torsions:
REMARK  status: ('A' for Active; 'I' for Inactive)
REMARK    1  A    between atoms: C_1  and  O_2 
REMARK    2  A    between atoms: O_2  and  C_3 
REMARK    3  A    between atoms: C_3  and  C_4 
REMARK    4  A    between atoms: C_4  and  N_5 
REMARK       I    between atoms: N_5  and  C_6 
REMARK    5  A    between atoms: C_6  and  C_8 
REMARK    6  A    between atoms: C_16  and  C_18 
REMARK    7  A    between atoms: C_18  and  N_19 
REMARK    8  A    between atoms: C_21  and  C_24 
REMARK    9  A    between atoms: C_24  and  O_25 
ROOT
ATOM      1  C   LIG d   1      10.079   4.098  -2.837  0.00  0.00     0.079 C 
ATOM      2  H   LIG d   1       9.673   4.165  -1.827  0.00  0.00     0.045 H 
ATOM      3  C   LIG d   1      11.584   4.379  -2.804  0.00  0.00    -0.020 C 
ATOM      4  C   LIG d   1      11.515   5.302  -5.043  0.00  0.00    -0.031 C 
ATOM      5  C   LIG d   1      10.008   5.046  -5.139  0.00  0.00    -0.009 C 
ATOM      6  C   LIG d   1       9.398   5.137  -3.735  0.00  0.00    -0.015 C 
ATOM      7  H   LIG d   1       8.324   4.950  -3.778  0.00  0.00     0.031 H 
ATOM      8  C   LIG d   1       9.682   6.535  -3.170  0.00  0.00    -0.004 C 
ATOM      9  C   LIG d   1      11.204   6.749  -3.127  0.00  0.00    -0.001 C 
ATOM     10  H   LIG d   1      11.518   6.931  -2.099  0.00  0.00     0.087 H 
ATOM     11  H   LIG d   1      11.894   4.577  -1.779  0.00  0.00     0.082 H 
ATOM     12  H   LIG d   1      12.124   3.513  -3.186  0.00  0.00     0.082 H 
ATOM     13  H   LIG d   1      11.776   6.171  -5.646  0.00  0.00     0.081 H 
ATOM     14  H   LIG d   1      12.056   4.430  -5.410  0.00  0.00     0.081 H 
ATOM     15  H   LIG d   1       9.551   5.795  -5.786  0.00  0.00     0.032 H 
ATOM     16  H   LIG d   1       9.832   4.052  -5.551  0.00  0.00     0.032 H 
ATOM     17  H   LIG d   1       9.223   7.288  -3.810  0.00  0.00     0.032 H 
ATOM     18  H   LIG d   1       9.276   6.610  -2.161  0.00  0.00     0.032 H 
ATOM     19  N   LIG d   1      11.908   5.555  -3.640  0.00  0.00     0.239 N 
ATOM     20  H   LIG d   1      12.920   5.722  -3.602  0.00  0.00     0.204 HD
ENDROOT
BRANCH   1  21
ATOM     21  C   LIG d   1       9.835   2.717  -3.388  0.00  0.00     0.222 C 
ATOM     22  N   LIG d   1       8.577   2.304  -3.638  0.00  0.00    -0.313 N 
ATOM     23  H   LIG d   1       7.828   2.896  -3.465  0.00  0.00     0.149 HD
ATOM     24  O   LIG d   1      10.770   1.976  -3.605  0.00  0.00    -0.275 OA
BRANCH  22  25
ATOM     25  C   LIG d   1       8.339   0.961  -4.174  0.00  0.00     0.035 C 
ATOM     26  H   LIG d   1       8.405   0.986  -5.262  0.00  0.00     0.048 H 
ATOM     27  H   LIG d   1       9.088   0.275  -3.780  0.00  0.00     0.048 H 
BRANCH  25  28
ATOM     28  C   LIG d   1       6.944   0.486  -3.759  0.00  0.00     0.063 C 
ATOM     29  H   LIG d   1       6.417   0.102  -4.632  0.00  0.00     0.058 H 
ATOM     30  H   LIG d   1       7.036  -0.304  -3.014  0.00  0.00     0.058 H 
BRANCH  28  31
ATOM     31  O   LIG d   1       6.213   1.581  -3.205  0.00  0.00    -0.381 OA
BRANCH  31  32
ATOM     32  C   LIG d   1       5.004   1.200  -2.545  0.00  0.00     0.036 C 
ATOM     33  H   LIG d   1       5.131   1.306  -1.467  0.00  0.00     0.052 H 
ATOM     34  H   LIG d   1       4.190   1.841  -2.880  0.00  0.00     0.052 H 
ATOM     35  H   LIG d   1       4.772   0.162  -2.784  0.00  0.00     0.052 H 
ENDBRANCH  31  32
ENDBRANCH  28  31
ENDBRANCH  25  28
ENDBRANCH  22  25
ENDBRANCH   1  21
BRANCH   9  36
ATOM     36  C   LIG d   1      11.573   7.954  -3.995  0.00  0.00     0.086 C 
ATOM     37  H   LIG d   1      12.657   8.063  -4.024  0.00  0.00     0.057 H 
ATOM     38  H   LIG d   1      11.196   7.803  -5.006  0.00  0.00     0.057 H 
BRANCH  36  39
ATOM     39  N   LIG d   1      10.976   9.165  -3.428  0.00  0.00    -0.246 N 
ATOM     40  N   LIG d   1      11.269   9.689  -2.289  0.00  0.00    -0.065 NA
ATOM     41  N   LIG d   1      10.564  10.746  -2.092  0.00  0.00    -0.132 NA
ATOM     42  C   LIG d   1       9.765  10.937  -3.146  0.00  0.00     0.108 A 
ATOM     43  C   LIG d   1      10.025   9.930  -4.013  0.00  0.00     0.051 A 
ATOM     44  H   LIG d   1       9.565   9.768  -4.977  0.00  0.00     0.085 H 
BRANCH  42  45
ATOM     45  C   LIG d   1       8.774  12.056  -3.337  0.00  0.00     0.089 C 
ATOM     46  H   LIG d   1       9.023  12.880  -2.667  0.00  0.00     0.062 H 
ATOM     47  H   LIG d   1       8.811  12.403  -4.369  0.00  0.00     0.062 H 
BRANCH  45  48
ATOM     48  O   LIG d   1       7.458  11.584  -3.041  0.00  0.00    -0.389 OA
ATOM     49  H   LIG d   1       6.967  12.145  -2.425  0.00  0.00     0.210 HD
ENDBRANCH  45  48
ENDBRANCH  42  45
ENDBRANCH  36  39
ENDBRANCH   9  36
TORSDOF 9
ENDMDL
MODEL 6
REMARK VINA RESULT:      -4.8     13.742     16.931
REMARK  9 active torsions:
REMARK  status: ('A' for Active; 'I' for Inactive)
REMARK    1  A    between atoms: C_1  and  O_2 
REMARK    2  A    between atoms: O_2  and  C_3 
REMARK    3  A    between atoms: C_3  and  C_4 
REMARK    4  A    between atoms: C_4  and  N_5 
REMARK       I    between atoms: N_5  and  C_6 
REMARK    5  A    between atoms: C_6  and  C_8 
REMARK    6  A    between atoms: C_16  and  C_18 
REMARK    7  A    between atoms: C_18  and  N_19 
REMARK    8  A    between atoms: C_21  and  C_24 
REMARK    9  A    between atoms: C_24  and  O_25 
ROOT
ATOM      1  C   LIG d   1       9.776   7.807  -1.676  0.00  0.00     0.079 C 
ATOM      2  H   LIG d   1       8.720   7.910  -1.428  0.00  0.00     0.045 H 
ATOM      3  C   LIG d   1      10.469   6.940  -0.622  0.00  0.00    -0.020 C 
ATOM      4  C   LIG d   1      12.562   8.116  -0.950  0.00  0.00    -0.031 C 
ATOM      5  C   LIG d   1      11.927   9.016  -2.015  0.00  0.00    -0.009 C 
ATOM      6  C   LIG d   1      10.438   9.190  -1.696  0.00  0.00    -0.015 C 
ATOM      7  H   LIG d   1       9.963   9.822  -2.447  0.00  0.00     0.031 H 
ATOM      8  C   LIG d   1      10.307   9.815  -0.301  0.00  0.00    -0.004 C 
ATOM      9  C   LIG d   1      10.988   8.888   0.720  0.00  0.00    -0.001 C 
ATOM     10  H   LIG d   1      10.257   8.563   1.461  0.00  0.00     0.087 H 
ATOM     11  H   LIG d   1       9.742   6.628   0.127  0.00  0.00     0.082 H 
ATOM     12  H   LIG d   1      10.899   6.059  -1.100  0.00  0.00     0.082 H 
ATOM     13  H   LIG d   1      13.356   8.660  -0.440  0.00  0.00     0.081 H 
ATOM     14  H   LIG d   1      12.977   7.227  -1.426  0.00  0.00     0.081 H 
ATOM     15  H   LIG d   1      12.419   9.989  -2.010  0.00  0.00     0.032 H 
ATOM     16  H   LIG d   1      12.040   8.556  -2.997  0.00  0.00     0.032 H 
ATOM     17  H   LIG d   1      10.792  10.791  -0.291  0.00  0.00     0.032 H 
ATOM     18  H   LIG d   1       9.253   9.924  -0.047  0.00  0.00     0.032 H 
ATOM     19  N   LIG d   1      11.549   7.700   0.044  0.00  0.00     0.239 N 
ATOM     20  H   LIG d   1      11.998   7.098   0.744  0.00  0.00     0.204 HD
ENDROOT
BRANCH   1  21
ATOM     21  C   LIG d   1       9.915   7.162  -3.031  0.00  0.00     0.222 C 
ATOM     22  N   LIG d   1       9.429   7.782  -4.125  0.00  0.00    -0.313 N 
ATOM     23  H   LIG d   1       8.991   8.643  -4.041  0.00  0.00     0.149 HD
ATOM     24  O   LIG d   1      10.462   6.085  -3.137  0.00  0.00    -0.275 OA
BRANCH  22  25
ATOM     25  C   LIG d   1       9.563   7.155  -5.443  0.00  0.00     0.035 C 
ATOM     26  H   LIG d   1      10.590   6.816  -5.581  0.00  0.00     0.048 H 
ATOM     27  H   LIG d   1       8.887   6.303  -5.510  0.00  0.00     0.048 H 
BRANCH  25  28
ATOM     28  C   LIG d   1       9.211   8.172  -6.530  0.00  0.00     0.063 C 
ATOM     29  H   LIG d   1       9.904   8.066  -7.365  0.00  0.00     0.058 H 
ATOM     30  H   LIG d   1       8.194   7.995  -6.878  0.00  0.00     0.058 H 
BRANCH  28  31
ATOM     31  O   LIG d   1       9.309   9.494  -5.996  0.00  0.00    -0.381 OA
BRANCH  31  32
ATOM     32  C   LIG d   1      10.161  10.363  -6.745  0.00  0.00     0.036 C 
ATOM     33  H   LIG d   1       9.649  10.675  -7.656  0.00  0.00     0.052 H 
ATOM     34  H   LIG d   1      10.401  11.241  -6.145  0.00  0.00     0.052 H 
ATOM     35  H   LIG d   1      11.079   9.837  -7.004  0.00  0.00     0.052 H 
ENDBRANCH  31  32
ENDBRANCH  28  31
ENDBRANCH  25  28
ENDBRANCH  22  25
ENDBRANCH   1  21
BRANCH   9  36
ATOM     36  C   LIG d   1      12.121   9.645   1.418  0.00  0.00     0.086 C 
ATOM     37  H   LIG d   1      13.075   9.360   0.973  0.00  0.00     0.057 H 
ATOM     38  H   LIG d   1      11.970  10.717   1.298  0.00  0.00     0.057 H 
BRANCH  36  39
ATOM     39  N   LIG d   1      12.127   9.308   2.843  0.00  0.00    -0.246 N 
ATOM     40  N   LIG d   1      11.816   8.166   3.350  0.00  0.00    -0.065 NA
ATOM     41  N   LIG d   1      11.927   8.204   4.630  0.00  0.00    -0.132 NA
ATOM     42  C   LIG d   1      12.329   9.426   4.995  0.00  0.00     0.108 A 
ATOM     43  C   LIG d   1      12.465  10.141   3.853  0.00  0.00     0.051 A 
ATOM     44  H   LIG d   1      12.779  11.171   3.767  0.00  0.00     0.085 H 
BRANCH  42  45
ATOM     45  C   LIG d   1      12.585   9.911   6.398  0.00  0.00     0.089 C 
ATOM     46  H   LIG d   1      13.201   9.182   6.927  0.00  0.00     0.062 H 
ATOM     47  H   LIG d   1      13.103  10.868   6.363  0.00  0.00     0.062 H 
BRANCH  45  48
ATOM     48  O   LIG d   1      11.341  10.067   7.084  0.00  0.00    -0.389 OA
ATOM     49  H   LIG d   1      10.946  10.944   6.988  0.00  0.00     0.210 HD
ENDBRANCH  45  48
ENDBRANCH  42  45
ENDBRANCH  36  39
ENDBRANCH   9  36
TORSDOF 9
ENDMDL
MODEL 7
REMARK VINA RESULT:      -4.7      5.273      7.228
REMARK  9 active torsions:
REMARK  status: ('A' for Active; 'I' for Inactive)
REMARK    1  A    between atoms: C_1  and  O_2 
REMARK    2  A    between atoms: O_2  and  C_3 
REMARK    3  A    between atoms: C_3  and  C_4 
REMARK    4  A    between atoms: C_4  and  N_5 
REMARK       I    between atoms: N_5  and  C_6 
REMARK    5  A    between atoms: C_6  and  C_8 
REMARK    6  A    between atoms: C_16  and  C_18 
REMARK    7  A    between atoms: C_18  and  N_19 
REMARK    8  A    between atoms: C_21  and  C_24 
REMARK    9  A    between atoms: C_24  and  O_25 
ROOT
ATOM      1  C   LIG d   1       4.876  -0.786  -7.307  0.00  0.00     0.079 C 
ATOM      2  H   LIG d   1       5.912  -1.108  -7.417  0.00  0.00     0.045 H 
ATOM      3  C   LIG d   1       3.940  -1.884  -7.821  0.00  0.00    -0.020 C 
ATOM      4  C   LIG d   1       2.285  -0.242  -8.478  0.00  0.00    -0.031 C 
ATOM      5  C   LIG d   1       3.174   0.903  -7.982  0.00  0.00    -0.009 C 
ATOM      6  C   LIG d   1       4.644   0.489  -8.126  0.00  0.00    -0.015 C 
ATOM      7  H   LIG d   1       5.297   1.287  -7.771  0.00  0.00     0.031 H 
ATOM      8  C   LIG d   1       4.921   0.180  -9.603  0.00  0.00    -0.004 C 
ATOM      9  C   LIG d   1       3.980  -0.949 -10.055  0.00  0.00    -0.001 C 
ATOM     10  H   LIG d   1       4.570  -1.802 -10.392  0.00  0.00     0.087 H 
ATOM     11  H   LIG d   1       4.530  -2.730  -8.173  0.00  0.00     0.082 H 
ATOM     12  H   LIG d   1       3.284  -2.210  -7.014  0.00  0.00     0.082 H 
ATOM     13  H   LIG d   1       1.672   0.108  -9.308  0.00  0.00     0.081 H 
ATOM     14  H   LIG d   1       1.641  -0.579  -7.667  0.00  0.00     0.081 H 
ATOM     15  H   LIG d   1       2.986   1.796  -8.577  0.00  0.00     0.032 H 
ATOM     16  H   LIG d   1       2.954   1.110  -6.935  0.00  0.00     0.032 H 
ATOM     17  H   LIG d   1       4.739   1.071 -10.203  0.00  0.00     0.032 H 
ATOM     18  H   LIG d   1       5.956  -0.140  -9.721  0.00  0.00     0.032 H 
ATOM     19  N   LIG d   1       3.113  -1.377  -8.937  0.00  0.00     0.239 N 
ATOM     20  H   LIG d   1       2.495  -2.130  -9.262  0.00  0.00     0.204 HD
ENDROOT
BRANCH   1  21
ATOM     21  C   LIG d   1       4.585  -0.513  -5.854  0.00  0.00     0.222 C 
ATOM     22  N   LIG d   1       3.612  -1.198  -5.222  0.00  0.00    -0.313 N 
ATOM     23  H   LIG d   1       3.099  -1.867  -5.701  0.00  0.00     0.149 HD
ATOM     24  O   LIG d   1       5.225   0.323  -5.254  0.00  0.00    -0.275 OA
BRANCH  22  25
ATOM     25  C   LIG d   1       3.328  -0.932  -3.809  0.00  0.00     0.035 C 
ATOM     26  H   LIG d   1       3.712   0.052  -3.540  0.00  0.00     0.048 H 
ATOM     27  H   LIG d   1       2.252  -0.960  -3.643  0.00  0.00     0.048 H 
BRANCH  25  28
ATOM     28  C   LIG d   1       4.005  -1.998  -2.943  0.00  0.00     0.063 C 
ATOM     29  H   LIG d   1       3.286  -2.781  -2.703  0.00  0.00     0.058 H 
ATOM     30  H   LIG d   1       4.844  -2.429  -3.488  0.00  0.00     0.058 H 
BRANCH  28  31
ATOM     31  O   LIG d   1       4.479  -1.399  -1.735  0.00  0.00    -0.381 OA
BRANCH  31  32
ATOM     32  C   LIG d   1       4.478   0.029  -1.754  0.00  0.00     0.036 C 
ATOM     33  H   LIG d   1       4.651   0.379  -2.772  0.00  0.00     0.052 H 
ATOM     34  H   LIG d   1       3.513   0.396  -1.403  0.00  0.00     0.052 H 
ATOM     35  H   LIG d   1       5.267   0.402  -1.102  0.00  0.00     0.052 H 
ENDBRANCH  31  32
ENDBRANCH  28  31
ENDBRANCH  25  28
ENDBRANCH  22  25
ENDBRANCH   1  21
BRANCH   9  36
ATOM     36  C   LIG d   1       3.101  -0.450 -11.203  0.00  0.00     0.086 C 
ATOM     37  H   LIG d   1       2.461   0.357 -10.846  0.00  0.00     0.057 H 
ATOM     38  H   LIG d   1       3.732  -0.083 -12.012  0.00  0.00     0.057 H 
BRANCH  36  39
ATOM     39  N   LIG d   1       2.269  -1.551 -11.695  0.00  0.00    -0.246 N 
ATOM     40  N   LIG d   1       2.653  -2.768 -11.870  0.00  0.00    -0.065 NA
ATOM     41  N   LIG d   1       1.679  -3.481 -12.311  0.00  0.00    -0.132 NA
ATOM     42  C   LIG d   1       0.596  -2.707 -12.436  0.00  0.00     0.108 A 
ATOM     43  C   LIG d   1       0.963  -1.466 -12.038  0.00  0.00     0.051 A 
ATOM     44  H   LIG d   1       0.339  -0.585 -12.003  0.00  0.00     0.085 H 
BRANCH  42  45
ATOM     45  C   LIG d   1      -0.767  -3.133 -12.919  0.00  0.00     0.089 C 
ATOM     46  H   LIG d   1      -0.697  -3.467 -13.955  0.00  0.00     0.062 H 
ATOM     47  H   LIG d   1      -1.134  -3.949 -12.298  0.00  0.00     0.062 H 
BRANCH  45  48
ATOM     48  O   LIG d   1      -1.669  -2.028 -12.836  0.00  0.00    -0.389 OA
ATOM     49  H   LIG d   1      -2.314  -1.990 -13.555  0.00  0.00     0.210 HD
ENDBRANCH  45  48
ENDBRANCH  42  45
ENDBRANCH  36  39
ENDBRANCH   9  36
TORSDOF 9
ENDMDL
MODEL 8
REMARK VINA RESULT:      -4.7      6.561      9.227
REMARK  9 active torsions:
REMARK  status: ('A' for Active; 'I' for Inactive)
REMARK    1  A    between atoms: C_1  and  O_2 
REMARK    2  A    between atoms: O_2  and  C_3 
REMARK    3  A    between atoms: C_3  and  C_4 
REMARK    4  A    between atoms: C_4  and  N_5 
REMARK       I    between atoms: N_5  and  C_6 
REMARK    5  A    between atoms: C_6  and  C_8 
REMARK    6  A    between atoms: C_16  and  C_18 
REMARK    7  A    between atoms: C_18  and  N_19 
REMARK    8  A    between atoms: C_21  and  C_24 
REMARK    9  A    between atoms: C_24  and  O_25 
ROOT
ATOM      1  C   LIG d   1       4.098  -1.173 -11.227  0.00  0.00     0.079 C 
ATOM      2  H   LIG d   1       3.595  -2.136 -11.324  0.00  0.00     0.045 H 
ATOM      3  C   LIG d   1       4.981  -1.181  -9.976  0.00  0.00    -0.020 C 
ATOM      4  C   LIG d   1       4.676   1.204  -9.679  0.00  0.00    -0.031 C 
ATOM      5  C   LIG d   1       3.783   1.279 -10.922  0.00  0.00    -0.009 C 
ATOM      6  C   LIG d   1       3.053  -0.059 -11.091  0.00  0.00    -0.015 C 
ATOM      7  H   LIG d   1       2.417  -0.032 -11.977  0.00  0.00     0.031 H 
ATOM      8  C   LIG d   1       2.218  -0.321  -9.832  0.00  0.00    -0.004 C 
ATOM      9  C   LIG d   1       3.157  -0.352  -8.615  0.00  0.00    -0.001 C 
ATOM     10  H   LIG d   1       3.090  -1.326  -8.127  0.00  0.00     0.087 H 
ATOM     11  H   LIG d   1       4.901  -2.148  -9.480  0.00  0.00     0.082 H 
ATOM     12  H   LIG d   1       6.018  -1.004 -10.262  0.00  0.00     0.082 H 
ATOM     13  H   LIG d   1       4.373   1.972  -8.967  0.00  0.00     0.081 H 
ATOM     14  H   LIG d   1       5.714   1.364  -9.967  0.00  0.00     0.081 H 
ATOM     15  H   LIG d   1       3.055   2.081 -10.801  0.00  0.00     0.032 H 
ATOM     16  H   LIG d   1       4.398   1.474 -11.802  0.00  0.00     0.032 H 
ATOM     17  H   LIG d   1       1.483   0.475  -9.708  0.00  0.00     0.032 H 
ATOM     18  H   LIG d   1       1.709  -1.281  -9.924  0.00  0.00     0.032 H 
ATOM     19  N   LIG d   1       4.555  -0.122  -9.036  0.00  0.00     0.239 N 
ATOM     20  H   LIG d   1       5.162  -0.147  -8.208  0.00  0.00     0.204 HD
ENDROOT
BRANCH   1  21
ATOM     21  C   LIG d   1       4.948  -0.923 -12.445  0.00  0.00     0.222 C 
ATOM     22  N   LIG d   1       4.375  -0.837 -13.661  0.00  0.00    -0.313 N 
ATOM     23  H   LIG d   1       3.414  -0.936 -13.753  0.00  0.00     0.149 HD
ATOM     24  O   LIG d   1       6.149  -0.799 -12.331  0.00  0.00    -0.275 OA
BRANCH  22  25
ATOM     25  C   LIG d   1       5.202  -0.594 -14.846  0.00  0.00     0.035 C 
ATOM     26  H   LIG d   1       5.896   0.222 -14.644  0.00  0.00     0.048 H 
ATOM     27  H   LIG d   1       5.762  -1.496 -15.089  0.00  0.00     0.048 H 
BRANCH  25  28
ATOM     28  C   LIG d   1       4.303  -0.218 -16.027  0.00  0.00     0.063 C 
ATOM     29  H   LIG d   1       4.225  -1.066 -16.708  0.00  0.00     0.058 H 
ATOM     30  H   LIG d   1       3.312   0.045 -15.659  0.00  0.00     0.058 H 
BRANCH  28  31
ATOM     31  O   LIG d   1       4.867   0.897 -16.719  0.00  0.00    -0.381 OA
BRANCH  31  32
ATOM     32  C   LIG d   1       3.967   1.995 -16.884  0.00  0.00     0.036 C 
ATOM     33  H   LIG d   1       3.158   1.703 -17.554  0.00  0.00     0.052 H 
ATOM     34  H   LIG d   1       3.554   2.274 -15.916  0.00  0.00     0.052 H 
ATOM     35  H   LIG d   1       4.503   2.843 -17.309  0.00  0.00     0.052 H 
ENDBRANCH  31  32
ENDBRANCH  28  31
ENDBRANCH  25  28
ENDBRANCH  22  25
ENDBRANCH   1  21
BRANCH   9  36
ATOM     36  C   LIG d   1       2.748   0.743  -7.628  0.00  0.00     0.086 C 
ATOM     37  H   LIG d   1       3.149   1.700  -7.961  0.00  0.00     0.057 H 
ATOM     38  H   LIG d   1       1.661   0.801  -7.579  0.00  0.00     0.057 H 
BRANCH  36  39
ATOM     39  N   LIG d   1       3.281   0.427  -6.300  0.00  0.00    -0.246 N 
ATOM     40  N   LIG d   1       4.491   0.077  -6.036  0.00  0.00    -0.065 NA
ATOM     41  N   LIG d   1       4.629  -0.127  -4.774  0.00  0.00    -0.132 NA
ATOM     42  C   LIG d   1       3.458   0.096  -4.168  0.00  0.00     0.108 A 
ATOM     43  C   LIG d   1       2.586   0.458  -5.139  0.00  0.00     0.051 A 
ATOM     44  H   LIG d   1       1.545   0.717  -5.013  0.00  0.00     0.085 H 
BRANCH  42  45
ATOM     45  C   LIG d   1       3.167  -0.024  -2.695  0.00  0.00     0.089 C 
ATOM     46  H   LIG d   1       2.115  -0.276  -2.552  0.00  0.00     0.062 H 
ATOM     47  H   LIG d   1       3.790  -0.807  -2.264  0.00  0.00     0.062 H 
BRANCH  45  48
ATOM     48  O   LIG d   1       3.450   1.218  -2.049  0.00  0.00    -0.389 OA
ATOM     49  H   LIG d   1       4.300   1.606  -2.296  0.00  0.00     0.210 HD
ENDBRANCH  45  48
ENDBRANCH  42  45
ENDBRANCH  36  39
ENDBRANCH   9  36
TORSDOF 9
ENDMDL
MODEL 9
REMARK VINA RESULT:      -4.7     13.088     15.081
REMARK  9 active torsions:
REMARK  status: ('A' for Active; 'I' for Inactive)
REMARK    1  A    between atoms: C_1  and  O_2 
REMARK    2  A    between atoms: O_2  and  C_3 
REMARK    3  A    between atoms: C_3  and  C_4 
REMARK    4  A    between atoms: C_4  and  N_5 
REMARK       I    between atoms: N_5  and  C_6 
REMARK    5  A    between atoms: C_6  and  C_8 
REMARK    6  A    between atoms: C_16  and  C_18 
REMARK    7  A    between atoms: C_18  and  N_19 
REMARK    8  A    between atoms: C_21  and  C_24 
REMARK    9  A    between atoms: C_24  and  O_25 
ROOT
ATOM      1  C   LIG d   1      10.404   6.399  -0.186  0.00  0.00     0.079 C 
ATOM      2  H   LIG d   1       9.535   5.840   0.160  0.00  0.00     0.045 H 
ATOM      3  C   LIG d   1       9.957   7.486  -1.168  0.00  0.00    -0.020 C 
ATOM      4  C   LIG d   1      12.064   7.357  -2.357  0.00  0.00    -0.031 C 
ATOM      5  C   LIG d   1      12.571   6.265  -1.408  0.00  0.00    -0.009 C 
ATOM      6  C   LIG d   1      11.374   5.451  -0.902  0.00  0.00    -0.015 C 
ATOM      7  H   LIG d   1      11.711   4.672  -0.217  0.00  0.00     0.031 H 
ATOM      8  C   LIG d   1      10.656   4.837  -2.111  0.00  0.00    -0.004 C 
ATOM      9  C   LIG d   1      10.200   5.972  -3.042  0.00  0.00    -0.001 C 
ATOM     10  H   LIG d   1       9.115   5.943  -3.149  0.00  0.00     0.087 H 
ATOM     11  H   LIG d   1       8.875   7.446  -1.286  0.00  0.00     0.082 H 
ATOM     12  H   LIG d   1      10.244   8.465  -0.782  0.00  0.00     0.082 H 
ATOM     13  H   LIG d   1      12.514   7.221  -3.340  0.00  0.00     0.081 H 
ATOM     14  H   LIG d   1      12.336   8.336  -1.963  0.00  0.00     0.081 H 
ATOM     15  H   LIG d   1      13.260   5.611  -1.940  0.00  0.00     0.032 H 
ATOM     16  H   LIG d   1      13.084   6.726  -0.563  0.00  0.00     0.032 H 
ATOM     17  H   LIG d   1      11.340   4.176  -2.644  0.00  0.00     0.032 H 
ATOM     18  H   LIG d   1       9.787   4.273  -1.772  0.00  0.00     0.032 H 
ATOM     19  N   LIG d   1      10.593   7.284  -2.487  0.00  0.00     0.239 N 
ATOM     20  H   LIG d   1      10.279   8.024  -3.125  0.00  0.00     0.204 HD
ENDROOT
BRANCH   1  21
ATOM     21  C   LIG d   1      11.097   7.035   0.991  0.00  0.00     0.222 C 
ATOM     22  N   LIG d   1      11.249   8.373   1.041  0.00  0.00    -0.313 N 
ATOM     23  H   LIG d   1      10.913   8.927   0.320  0.00  0.00     0.149 HD
ATOM     24  O   LIG d   1      11.517   6.343   1.894  0.00  0.00    -0.275 OA
BRANCH  22  25
ATOM     25  C   LIG d   1      11.922   8.992   2.187  0.00  0.00     0.035 C 
ATOM     26  H   LIG d   1      11.309   8.868   3.079  0.00  0.00     0.048 H 
ATOM     27  H   LIG d   1      12.889   8.514   2.341  0.00  0.00     0.048 H 
BRANCH  25  28
ATOM     28  C   LIG d   1      12.128  10.483   1.912  0.00  0.00     0.063 C 
ATOM     29  H   LIG d   1      12.220  11.017   2.858  0.00  0.00     0.058 H 
ATOM     30  H   LIG d   1      13.037  10.622   1.327  0.00  0.00     0.058 H 
BRANCH  28  31
ATOM     31  O   LIG d   1      11.010  10.993   1.184  0.00  0.00    -0.381 OA
BRANCH  31  32
ATOM     32  C   LIG d   1      11.355  11.961   0.191  0.00  0.00     0.036 C 
ATOM     33  H   LIG d   1      10.530  12.663   0.067  0.00  0.00     0.052 H 
ATOM     34  H   LIG d   1      12.248  12.500   0.505  0.00  0.00     0.052 H 
ATOM     35  H   LIG d   1      11.548  11.457  -0.756  0.00  0.00     0.052 H 
ENDBRANCH  31  32
ENDBRANCH  28  31
ENDBRANCH  25  28
ENDBRANCH  22  25
ENDBRANCH   1  21
BRANCH   9  36
ATOM     36  C   LIG d   1      10.853   5.797  -4.415  0.00  0.00     0.086 C 
ATOM     37  H   LIG d   1      11.915   6.036  -4.345  0.00  0.00     0.057 H 
ATOM     38  H   LIG d   1      10.733   4.766  -4.746  0.00  0.00     0.057 H 
BRANCH  36  39
ATOM     39  N   LIG d   1      10.213   6.697  -5.378  0.00  0.00    -0.246 N 
ATOM     40  N   LIG d   1       9.535   7.753  -5.089  0.00  0.00    -0.065 NA
ATOM     41  N   LIG d   1       9.111   8.316  -6.164  0.00  0.00    -0.132 NA
ATOM     42  C   LIG d   1       9.524   7.604  -7.218  0.00  0.00     0.108 A 
ATOM     43  C   LIG d   1      10.238   6.565  -6.724  0.00  0.00     0.051 A 
ATOM     44  H   LIG d   1      10.726   5.786  -7.291  0.00  0.00     0.085 H 
BRANCH  42  45
ATOM     45  C   LIG d   1       9.255   7.903  -8.671  0.00  0.00     0.089 C 
ATOM     46  H   LIG d   1      10.195   8.128  -9.175  0.00  0.00     0.062 H 
ATOM     47  H   LIG d   1       8.788   7.037  -9.139  0.00  0.00     0.062 H 
BRANCH  45  48
ATOM     48  O   LIG d   1       8.380   9.028  -8.772  0.00  0.00    -0.389 OA
ATOM     49  H   LIG d   1       7.442   8.797  -8.797  0.00  0.00     0.210 HD
ENDBRANCH  45  48
ENDBRANCH  42  45
ENDBRANCH  36  39
ENDBRANCH   9  36
TORSDOF 9
ENDMDL
