MODEL 1
REMARK VINA RESULT:      -5.9      0.000      0.000
REMARK  5 active torsions:
REMARK  status: ('A' for Active; 'I' for Inactive)
REMARK    1  A    between atoms: C_1  and  O_2 
REMARK    2  A    between atoms: O_2  and  C_3 
REMARK    3  A    between atoms: N_15  and  C_18 
REMARK    4  A    between atoms: C_18  and  C_19 
REMARK    5  A    between atoms: C_19  and  N_43 
ROOT
ATOM      1  C   LIG d   1       1.755  -2.896 -11.470  0.00  0.00     0.121 A 
ATOM      2  C   LIG d   1       1.061  -1.689 -11.486  0.00  0.00    -0.018 A 
ATOM      3  C   LIG d   1       1.278  -0.744 -10.509  0.00  0.00    -0.034 A 
ATOM      4  C   LIG d   1       2.197  -0.989  -9.492  0.00  0.00     0.049 A 
ATOM      5  C   LIG d   1       2.898  -2.207  -9.474  0.00  0.00     0.029 A 
ATOM      6  C   LIG d   1       2.670  -3.158 -10.471  0.00  0.00    -0.009 A 
ATOM      7  C   LIG d   1       3.776  -2.165  -8.298  0.00  0.00     0.103 A 
ATOM      8  C   LIG d   1       3.555  -0.936  -7.682  0.00  0.00     0.131 A 
ATOM      9  N   LIG d   1       2.606  -0.240  -8.407  0.00  0.00    -0.349 N 
ATOM     10  H   LIG d   1       2.276   0.644  -8.185  0.00  0.00     0.166 HD
ATOM     11  C   LIG d   1       4.285  -0.634  -6.508  0.00  0.00     0.278 A 
ATOM     12  O   LIG d   1       4.127   0.429  -5.932  0.00  0.00    -0.265 OA
ATOM     13  N   LIG d   1       5.161  -1.550  -6.043  0.00  0.00    -0.292 N 
ATOM     14  C   LIG d   1       5.335  -2.728  -6.694  0.00  0.00     0.100 A 
ATOM     15  N   LIG d   1       4.667  -3.025  -7.772  0.00  0.00    -0.235 NA
ATOM     16  H   LIG d   1       0.347  -1.493 -12.272  0.00  0.00     0.066 H 
ATOM     17  H   LIG d   1       0.732   0.188 -10.532  0.00  0.00     0.064 H 
ATOM     18  H   LIG d   1       3.208  -4.094 -10.459  0.00  0.00     0.066 H 
ATOM     19  H   LIG d   1       6.045  -3.443  -6.303  0.00  0.00     0.103 H 
ENDROOT
BRANCH  13  20
ATOM     20  C   LIG d   1       5.932  -1.268  -4.830  0.00  0.00     0.068 C 
ATOM     21  H   LIG d   1       5.758  -0.237  -4.520  0.00  0.00     0.055 H 
ATOM     22  H   LIG d   1       6.994  -1.412  -5.032  0.00  0.00     0.055 H 
BRANCH  20  23
ATOM     23  C   LIG d   1       5.492  -2.217  -3.713  0.00  0.00    -0.013 C 
ATOM     24  H   LIG d   1       6.344  -2.815  -3.389  0.00  0.00     0.083 H 
ATOM     25  H   LIG d   1       4.706  -2.875  -4.083  0.00  0.00     0.083 H 
BRANCH  23  26
ATOM     26  N   LIG d   1       4.983  -1.422  -2.566  0.00  0.00     0.236 N 
ATOM     27  C   LIG d   1       5.521  -0.048  -2.620  0.00  0.00    -0.032 C 
ATOM     28  C   LIG d   1       4.382   0.834  -2.051  0.00  0.00    -0.008 C 
ATOM     29  H   LIG d   1       5.750   0.244  -3.646  0.00  0.00     0.081 H 
ATOM     30  H   LIG d   1       6.410   0.031  -1.994  0.00  0.00     0.081 H 
ATOM     31  C   LIG d   1       3.124   0.136  -2.632  0.00  0.00    -0.008 C 
ATOM     32  H   LIG d   1       4.463   1.859  -2.414  0.00  0.00     0.032 H 
ATOM     33  H   LIG d   1       4.374   0.808  -0.961  0.00  0.00     0.032 H 
ATOM     34  C   LIG d   1       3.513  -1.358  -2.606  0.00  0.00    -0.032 C 
ATOM     35  H   LIG d   1       2.255   0.319  -2.000  0.00  0.00     0.032 H 
ATOM     36  H   LIG d   1       2.937   0.467  -3.654  0.00  0.00     0.032 H 
ATOM     37  H   LIG d   1       3.107  -1.831  -1.712  0.00  0.00     0.081 H 
ATOM     38  H   LIG d   1       3.131  -1.856  -3.497  0.00  0.00     0.081 H 
ATOM     39  H   LIG d   1       5.279  -1.868  -1.690  0.00  0.00     0.203 HD
ENDBRANCH  23  26
ENDBRANCH  20  23
ENDBRANCH  13  20
BRANCH   1  40
ATOM     40  O   LIG d   1       1.531  -3.820 -12.443  0.00  0.00    -0.495 OA
BRANCH  40  41
ATOM     41  C   LIG d   1       0.397  -3.611 -13.288  0.00  0.00     0.079 C 
ATOM     42  H   LIG d   1       0.407  -2.587 -13.662  0.00  0.00     0.066 H 
ATOM     43  H   LIG d   1       0.437  -4.304 -14.127  0.00  0.00     0.066 H 
ATOM     44  H   LIG d   1      -0.516  -3.781 -12.718  0.00  0.00     0.066 H 
ENDBRANCH  40  41
ENDBRANCH   1  40
TORSDOF 5
ENDMDL
MODEL 2
REMARK VINA RESULT:      -5.9      4.977      8.745
REMARK  5 active torsions:
REMARK  status: ('A' for Active; 'I' for Inactive)
REMARK    1  A    between atoms: C_1  and  O_2 
REMARK    2  A    between atoms: O_2  and  C_3 
REMARK    3  A    between atoms: N_15  and  C_18 
REMARK    4  A    between atoms: C_18  and  C_19 
REMARK    5  A    between atoms: C_19  and  N_43 
ROOT
ATOM      1  C   LIG d   1      10.360   5.539  -3.834  0.00  0.00     0.121 A 
ATOM      2  C   LIG d   1      10.847   5.682  -5.131  0.00  0.00    -0.018 A 
ATOM      3  C   LIG d   1      10.498   4.783  -6.113  0.00  0.00    -0.034 A 
ATOM      4  C   LIG d   1       9.652   3.718  -5.816  0.00  0.00     0.049 A 
ATOM      5  C   LIG d   1       9.160   3.572  -4.508  0.00  0.00     0.029 A 
ATOM      6  C   LIG d   1       9.520   4.491  -3.520  0.00  0.00    -0.009 A 
ATOM      7  C   LIG d   1       8.309   2.374  -4.514  0.00  0.00     0.103 A 
ATOM      8  C   LIG d   1       8.339   1.874  -5.812  0.00  0.00     0.131 A 
ATOM      9  N   LIG d   1       9.147   2.687  -6.583  0.00  0.00    -0.349 N 
ATOM     10  H   LIG d   1       9.332   2.554  -7.526  0.00  0.00     0.166 HD
ATOM     11  C   LIG d   1       7.593   0.706  -6.098  0.00  0.00     0.278 A 
ATOM     12  O   LIG d   1       7.587   0.229  -7.220  0.00  0.00    -0.265 OA
ATOM     13  N   LIG d   1       6.888   0.134  -5.098  0.00  0.00    -0.292 N 
ATOM     14  C   LIG d   1       6.896   0.675  -3.854  0.00  0.00     0.100 A 
ATOM     15  N   LIG d   1       7.582   1.746  -3.572  0.00  0.00    -0.235 NA
ATOM     16  H   LIG d   1      11.504   6.506  -5.367  0.00  0.00     0.066 H 
ATOM     17  H   LIG d   1      10.883   4.904  -7.115  0.00  0.00     0.064 H 
ATOM     18  H   LIG d   1       9.143   4.380  -2.514  0.00  0.00     0.066 H 
ATOM     19  H   LIG d   1       6.320   0.201  -3.072  0.00  0.00     0.103 H 
ENDROOT
BRANCH  13  20
ATOM     20  C   LIG d   1       6.105  -1.076  -5.360  0.00  0.00     0.068 C 
ATOM     21  H   LIG d   1       6.119  -1.716  -4.478  0.00  0.00     0.055 H 
ATOM     22  H   LIG d   1       6.539  -1.613  -6.205  0.00  0.00     0.055 H 
BRANCH  20  23
ATOM     23  C   LIG d   1       4.662  -0.689  -5.688  0.00  0.00    -0.013 C 
ATOM     24  H   LIG d   1       4.394  -1.083  -6.669  0.00  0.00     0.083 H 
ATOM     25  H   LIG d   1       4.569   0.396  -5.695  0.00  0.00     0.083 H 
BRANCH  23  26
ATOM     26  N   LIG d   1       3.755  -1.265  -4.661  0.00  0.00     0.236 N 
ATOM     27  C   LIG d   1       4.477  -2.262  -3.846  0.00  0.00    -0.032 C 
ATOM     28  C   LIG d   1       3.856  -2.126  -2.433  0.00  0.00    -0.008 C 
ATOM     29  H   LIG d   1       5.545  -2.044  -3.814  0.00  0.00     0.081 H 
ATOM     30  H   LIG d   1       4.305  -3.263  -4.241  0.00  0.00     0.081 H 
ATOM     31  C   LIG d   1       3.637  -0.593  -2.333  0.00  0.00    -0.008 C 
ATOM     32  H   LIG d   1       4.550  -2.472  -1.667  0.00  0.00     0.032 H 
ATOM     33  H   LIG d   1       2.909  -2.661  -2.369  0.00  0.00     0.032 H 
ATOM     34  C   LIG d   1       3.251  -0.203  -3.776  0.00  0.00    -0.032 C 
ATOM     35  H   LIG d   1       2.827  -0.364  -1.642  0.00  0.00     0.032 H 
ATOM     36  H   LIG d   1       4.557  -0.092  -2.031  0.00  0.00     0.032 H 
ATOM     37  H   LIG d   1       2.167  -0.142  -3.865  0.00  0.00     0.081 H 
ATOM     38  H   LIG d   1       3.701   0.756  -4.033  0.00  0.00     0.081 H 
ATOM     39  H   LIG d   1       2.962  -1.720  -5.130  0.00  0.00     0.203 HD
ENDBRANCH  23  26
ENDBRANCH  20  23
ENDBRANCH  13  20
BRANCH   1  40
ATOM     40  O   LIG d   1      10.713   6.437  -2.875  0.00  0.00    -0.495 OA
BRANCH  40  41
ATOM     41  C   LIG d   1       9.724   6.763  -1.896  0.00  0.00     0.079 C 
ATOM     42  H   LIG d   1       8.788   7.014  -2.396  0.00  0.00     0.066 H 
ATOM     43  H   LIG d   1       9.567   5.908  -1.239  0.00  0.00     0.066 H 
ATOM     44  H   LIG d   1      10.062   7.616  -1.308  0.00  0.00     0.066 H 
ENDBRANCH  40  41
ENDBRANCH   1  40
TORSDOF 5
ENDMDL
MODEL 3
REMARK VINA RESULT:      -5.7      4.761      7.904
REMARK  5 active torsions:
REMARK  status: ('A' for Active; 'I' for Inactive)
REMARK    1  A    between atoms: C_1  and  O_2 
REMARK    2  A    between atoms: O_2  and  C_3 
REMARK    3  A    between atoms: N_15  and  C_18 
REMARK    4  A    between atoms: C_18  and  C_19 
REMARK    5  A    between atoms: C_19  and  N_43 
ROOT
ATOM      1  C   LIG d   1       6.002   0.599  -3.147  0.00  0.00     0.121 A 
ATOM      2  C   LIG d   1       4.907   0.365  -2.319  0.00  0.00    -0.018 A 
ATOM      3  C   LIG d   1       4.216  -0.823  -2.392  0.00  0.00    -0.034 A 
ATOM      4  C   LIG d   1       4.608  -1.805  -3.300  0.00  0.00     0.049 A 
ATOM      5  C   LIG d   1       5.712  -1.569  -4.136  0.00  0.00     0.029 A 
ATOM      6  C   LIG d   1       6.406  -0.361  -4.052  0.00  0.00    -0.009 A 
ATOM      7  C   LIG d   1       5.870  -2.771  -4.966  0.00  0.00     0.103 A 
ATOM      8  C   LIG d   1       4.861  -3.651  -4.584  0.00  0.00     0.131 A 
ATOM      9  N   LIG d   1       4.111  -3.061  -3.585  0.00  0.00    -0.349 N 
ATOM     10  H   LIG d   1       3.347  -3.469  -3.148  0.00  0.00     0.166 HD
ATOM     11  C   LIG d   1       4.784  -4.905  -5.235  0.00  0.00     0.278 A 
ATOM     12  O   LIG d   1       3.918  -5.710  -4.937  0.00  0.00    -0.265 OA
ATOM     13  N   LIG d   1       5.691  -5.187  -6.194  0.00  0.00    -0.292 N 
ATOM     14  C   LIG d   1       6.654  -4.287  -6.516  0.00  0.00     0.100 A 
ATOM     15  N   LIG d   1       6.737  -3.127  -5.931  0.00  0.00    -0.235 NA
ATOM     16  H   LIG d   1       4.599   1.122  -1.614  0.00  0.00     0.066 H 
ATOM     17  H   LIG d   1       3.368  -0.993  -1.745  0.00  0.00     0.064 H 
ATOM     18  H   LIG d   1       7.255  -0.178  -4.695  0.00  0.00     0.066 H 
ATOM     19  H   LIG d   1       7.371  -4.539  -7.284  0.00  0.00     0.103 H 
ENDROOT
BRANCH  13  20
ATOM     20  C   LIG d   1       5.638  -6.476  -6.888  0.00  0.00     0.068 C 
ATOM     21  H   LIG d   1       5.982  -6.351  -7.915  0.00  0.00     0.055 H 
ATOM     22  H   LIG d   1       4.611  -6.845  -6.892  0.00  0.00     0.055 H 
BRANCH  20  23
ATOM     23  C   LIG d   1       6.538  -7.482  -6.168  0.00  0.00    -0.013 C 
ATOM     24  H   LIG d   1       7.356  -6.952  -5.678  0.00  0.00     0.083 H 
ATOM     25  H   LIG d   1       6.945  -8.189  -6.890  0.00  0.00     0.083 H 
BRANCH  23  26
ATOM     26  N   LIG d   1       5.741  -8.209  -5.145  0.00  0.00     0.236 N 
ATOM     27  C   LIG d   1       4.720  -9.050  -5.800  0.00  0.00    -0.032 C 
ATOM     28  C   LIG d   1       4.601 -10.294  -4.885  0.00  0.00    -0.008 C 
ATOM     29  H   LIG d   1       5.036  -9.344  -6.801  0.00  0.00     0.081 H 
ATOM     30  H   LIG d   1       3.769  -8.519  -5.842  0.00  0.00     0.081 H 
ATOM     31  C   LIG d   1       6.077 -10.511  -4.458  0.00  0.00    -0.008 C 
ATOM     32  H   LIG d   1       4.225 -11.153  -5.440  0.00  0.00     0.032 H 
ATOM     33  H   LIG d   1       3.972 -10.084  -4.020  0.00  0.00     0.032 H 
ATOM     34  C   LIG d   1       6.619  -9.071  -4.337  0.00  0.00    -0.032 C 
ATOM     35  H   LIG d   1       6.129 -11.025  -3.498  0.00  0.00     0.032 H 
ATOM     36  H   LIG d   1       6.622 -11.065  -5.223  0.00  0.00     0.032 H 
ATOM     37  H   LIG d   1       6.584  -8.748  -3.297  0.00  0.00     0.081 H 
ATOM     38  H   LIG d   1       7.644  -9.029  -4.706  0.00  0.00     0.081 H 
ATOM     39  H   LIG d   1       5.279  -7.527  -4.533  0.00  0.00     0.203 HD
ENDBRANCH  23  26
ENDBRANCH  20  23
ENDBRANCH  13  20
BRANCH   1  40
ATOM     40  O   LIG d   1       6.676   1.778  -3.062  0.00  0.00    -0.495 OA
BRANCH  40  41
ATOM     41  C   LIG d   1       7.888   1.887  -3.812  0.00  0.00     0.079 C 
ATOM     42  H   LIG d   1       8.185   2.934  -3.872  0.00  0.00     0.066 H 
ATOM     43  H   LIG d   1       8.673   1.316  -3.317  0.00  0.00     0.066 H 
ATOM     44  H   LIG d   1       7.731   1.496  -4.817  0.00  0.00     0.066 H 
ENDBRANCH  40  41
ENDBRANCH   1  40
TORSDOF 5
ENDMDL
MODEL 4
REMARK VINA RESULT:      -5.6      7.521     12.122
REMARK  5 active torsions:
REMARK  status: ('A' for Active; 'I' for Inactive)
REMARK    1  A    between atoms: C_1  and  O_2 
REMARK    2  A    between atoms: O_2  and  C_3 
REMARK    3  A    between atoms: N_15  and  C_18 
REMARK    4  A    between atoms: C_18  and  C_19 
REMARK    5  A    between atoms: C_19  and  N_43 
ROOT
ATOM      1  C   LIG d   1      10.528   8.423  -0.045  0.00  0.00     0.121 A 
ATOM      2  C   LIG d   1      11.201   7.652   0.900  0.00  0.00    -0.018 A 
ATOM      3  C   LIG d   1      11.456   6.321   0.664  0.00  0.00    -0.034 A 
ATOM      4  C   LIG d   1      11.041   5.730  -0.527  0.00  0.00     0.049 A 
ATOM      5  C   LIG d   1      10.361   6.506  -1.481  0.00  0.00     0.029 A 
ATOM      6  C   LIG d   1      10.109   7.856  -1.231  0.00  0.00    -0.009 A 
ATOM      7  C   LIG d   1      10.061   5.612  -2.607  0.00  0.00     0.103 A 
ATOM      8  C   LIG d   1      10.573   4.363  -2.268  0.00  0.00     0.131 A 
ATOM      9  N   LIG d   1      11.158   4.446  -1.019  0.00  0.00    -0.349 N 
ATOM     10  H   LIG d   1      11.586   3.710  -0.556  0.00  0.00     0.166 HD
ATOM     11  C   LIG d   1      10.418   3.302  -3.192  0.00  0.00     0.278 A 
ATOM     12  O   LIG d   1      10.848   2.189  -2.942  0.00  0.00    -0.265 OA
ATOM     13  N   LIG d   1       9.783   3.553  -4.357  0.00  0.00    -0.292 N 
ATOM     14  C   LIG d   1       9.312   4.796  -4.630  0.00  0.00     0.100 A 
ATOM     15  N   LIG d   1       9.440   5.782  -3.789  0.00  0.00    -0.235 NA
ATOM     16  H   LIG d   1      11.525   8.105   1.826  0.00  0.00     0.066 H 
ATOM     17  H   LIG d   1      11.979   5.733   1.405  0.00  0.00     0.064 H 
ATOM     18  H   LIG d   1       9.586   8.454  -1.964  0.00  0.00     0.066 H 
ATOM     19  H   LIG d   1       8.811   4.972  -5.571  0.00  0.00     0.103 H 
ENDROOT
BRANCH  13  20
ATOM     20  C   LIG d   1       9.605   2.477  -5.335  0.00  0.00     0.068 C 
ATOM     21  H   LIG d   1      10.358   1.706  -5.167  0.00  0.00     0.055 H 
ATOM     22  H   LIG d   1       9.715   2.879  -6.342  0.00  0.00     0.055 H 
BRANCH  20  23
ATOM     23  C   LIG d   1       8.210   1.869  -5.178  0.00  0.00    -0.013 C 
ATOM     24  H   LIG d   1       7.852   1.525  -6.148  0.00  0.00     0.083 H 
ATOM     25  H   LIG d   1       7.527   2.622  -4.785  0.00  0.00     0.083 H 
BRANCH  23  26
ATOM     26  N   LIG d   1       8.279   0.717  -4.241  0.00  0.00     0.236 N 
ATOM     27  C   LIG d   1       6.968   0.506  -3.596  0.00  0.00    -0.032 C 
ATOM     28  C   LIG d   1       6.874  -1.030  -3.412  0.00  0.00    -0.008 C 
ATOM     29  H   LIG d   1       6.156   0.862  -4.231  0.00  0.00     0.081 H 
ATOM     30  H   LIG d   1       6.943   1.006  -2.629  0.00  0.00     0.081 H 
ATOM     31  C   LIG d   1       7.539  -1.544  -4.715  0.00  0.00    -0.008 C 
ATOM     32  H   LIG d   1       5.834  -1.352  -3.350  0.00  0.00     0.032 H 
ATOM     33  H   LIG d   1       7.433  -1.353  -2.534  0.00  0.00     0.032 H 
ATOM     34  C   LIG d   1       8.653  -0.507  -4.970  0.00  0.00    -0.032 C 
ATOM     35  H   LIG d   1       7.963  -2.537  -4.565  0.00  0.00     0.032 H 
ATOM     36  H   LIG d   1       6.822  -1.549  -5.537  0.00  0.00     0.032 H 
ATOM     37  H   LIG d   1       9.602  -0.880  -4.584  0.00  0.00     0.081 H 
ATOM     38  H   LIG d   1       8.737  -0.307  -6.038  0.00  0.00     0.081 H 
ATOM     39  H   LIG d   1       8.985   0.912  -3.521  0.00  0.00     0.203 HD
ENDBRANCH  23  26
ENDBRANCH  20  23
ENDBRANCH  13  20
BRANCH   1  40
ATOM     40  O   LIG d   1      10.283   9.738   0.202  0.00  0.00    -0.495 OA
BRANCH  40  41
ATOM     41  C   LIG d   1       9.735  10.508  -0.869  0.00  0.00     0.079 C 
ATOM     42  H   LIG d   1       8.655  10.371  -0.900  0.00  0.00     0.066 H 
ATOM     43  H   LIG d   1       9.962  11.563  -0.711  0.00  0.00     0.066 H 
ATOM     44  H   LIG d   1      10.171  10.180  -1.813  0.00  0.00     0.066 H 
ENDBRANCH  40  41
ENDBRANCH   1  40
TORSDOF 5
ENDMDL
MODEL 5
REMARK VINA RESULT:      -5.3      4.739      6.444
REMARK  5 active torsions:
REMARK  status: ('A' for Active; 'I' for Inactive)
REMARK    1  A    between atoms: C_1  and  O_2 
REMARK    2  A    between atoms: O_2  and  C_3 
REMARK    3  A    between atoms: N_15  and  C_18 
REMARK    4  A    between atoms: C_18  and  C_19 
REMARK    5  A    between atoms: C_19  and  N_43 
ROOT
ATOM      1  C   LIG d   1       5.094  -9.190  -5.663  0.00  0.00     0.121 A 
ATOM      2  C   LIG d   1       6.446  -9.499  -5.786  0.00  0.00    -0.018 A 
ATOM      3  C   LIG d   1       7.398  -8.506  -5.752  0.00  0.00    -0.034 A 
ATOM      4  C   LIG d   1       7.014  -7.176  -5.596  0.00  0.00     0.049 A 
ATOM      5  C   LIG d   1       5.650  -6.862  -5.473  0.00  0.00     0.029 A 
ATOM      6  C   LIG d   1       4.694  -7.878  -5.507  0.00  0.00    -0.009 A 
ATOM      7  C   LIG d   1       5.571  -5.402  -5.325  0.00  0.00     0.103 A 
ATOM      8  C   LIG d   1       6.879  -4.928  -5.368  0.00  0.00     0.131 A 
ATOM      9  N   LIG d   1       7.735  -6.000  -5.531  0.00  0.00    -0.349 N 
ATOM     10  H   LIG d   1       8.701  -5.936  -5.591  0.00  0.00     0.166 HD
ATOM     11  C   LIG d   1       7.091  -3.534  -5.246  0.00  0.00     0.278 A 
ATOM     12  O   LIG d   1       8.218  -3.070  -5.278  0.00  0.00    -0.265 OA
ATOM     13  N   LIG d   1       6.015  -2.732  -5.094  0.00  0.00    -0.292 N 
ATOM     14  C   LIG d   1       4.765  -3.259  -5.054  0.00  0.00     0.100 A 
ATOM     15  N   LIG d   1       4.551  -4.538  -5.171  0.00  0.00    -0.235 NA
ATOM     16  H   LIG d   1       6.750 -10.528  -5.907  0.00  0.00     0.066 H 
ATOM     17  H   LIG d   1       8.444  -8.758  -5.849  0.00  0.00     0.064 H 
ATOM     18  H   LIG d   1       3.645  -7.638  -5.413  0.00  0.00     0.066 H 
ATOM     19  H   LIG d   1       3.921  -2.596  -4.927  0.00  0.00     0.103 H 
ENDROOT
BRANCH  13  20
ATOM     20  C   LIG d   1       6.200  -1.285  -4.965  0.00  0.00     0.068 C 
ATOM     21  H   LIG d   1       6.938  -0.947  -5.693  0.00  0.00     0.055 H 
ATOM     22  H   LIG d   1       6.549  -1.051  -3.959  0.00  0.00     0.055 H 
BRANCH  20  23
ATOM     23  C   LIG d   1       4.869  -0.575  -5.221  0.00  0.00    -0.013 C 
ATOM     24  H   LIG d   1       4.048  -1.277  -5.069  0.00  0.00     0.083 H 
ATOM     25  H   LIG d   1       4.845  -0.205  -6.245  0.00  0.00     0.083 H 
BRANCH  23  26
ATOM     26  N   LIG d   1       4.729   0.560  -4.273  0.00  0.00     0.236 N 
ATOM     27  C   LIG d   1       3.342   0.638  -3.773  0.00  0.00    -0.032 C 
ATOM     28  C   LIG d   1       3.486   1.142  -2.315  0.00  0.00    -0.008 C 
ATOM     29  H   LIG d   1       2.863  -0.342  -3.789  0.00  0.00     0.081 H 
ATOM     30  H   LIG d   1       2.770   1.351  -4.366  0.00  0.00     0.081 H 
ATOM     31  C   LIG d   1       4.768   0.401  -1.852  0.00  0.00    -0.008 C 
ATOM     32  H   LIG d   1       2.626   0.848  -1.713  0.00  0.00     0.032 H 
ATOM     33  H   LIG d   1       3.628   2.222  -2.287  0.00  0.00     0.032 H 
ATOM     34  C   LIG d   1       5.637   0.380  -3.128  0.00  0.00    -0.032 C 
ATOM     35  H   LIG d   1       5.266   0.955  -1.056  0.00  0.00     0.032 H 
ATOM     36  H   LIG d   1       4.532  -0.613  -1.530  0.00  0.00     0.032 H 
ATOM     37  H   LIG d   1       6.353   1.202  -3.102  0.00  0.00     0.081 H 
ATOM     38  H   LIG d   1       6.164  -0.571  -3.202  0.00  0.00     0.081 H 
ATOM     39  H   LIG d   1       4.964   1.434  -4.758  0.00  0.00     0.203 HD
ENDBRANCH  23  26
ENDBRANCH  20  23
ENDBRANCH  13  20
BRANCH   1  40
ATOM     40  O   LIG d   1       4.165 -10.183  -5.696  0.00  0.00    -0.495 OA
BRANCH  40  41
ATOM     41  C   LIG d   1       4.129 -11.076  -4.581  0.00  0.00     0.079 C 
ATOM     42  H   LIG d   1       4.474 -10.555  -3.688  0.00  0.00     0.066 H 
ATOM     43  H   LIG d   1       3.108 -11.423  -4.427  0.00  0.00     0.066 H 
ATOM     44  H   LIG d   1       4.778 -11.929  -4.777  0.00  0.00     0.066 H 
ENDBRANCH  40  41
ENDBRANCH   1  40
TORSDOF 5
ENDMDL
MODEL 6
REMARK VINA RESULT:      -5.2      2.506      8.104
REMARK  5 active torsions:
REMARK  status: ('A' for Active; 'I' for Inactive)
REMARK    1  A    between atoms: C_1  and  O_2 
REMARK    2  A    between atoms: O_2  and  C_3 
REMARK    3  A    between atoms: N_15  and  C_18 
REMARK    4  A    between atoms: C_18  and  C_19 
REMARK    5  A    between atoms: C_19  and  N_43 
ROOT
ATOM      1  C   LIG d   1       4.836  -0.770  -3.109  0.00  0.00     0.121 A 
ATOM      2  C   LIG d   1       5.044  -2.146  -3.165  0.00  0.00    -0.018 A 
ATOM      3  C   LIG d   1       4.865  -2.834  -4.344  0.00  0.00    -0.034 A 
ATOM      4  C   LIG d   1       4.472  -2.156  -5.495  0.00  0.00     0.049 A 
ATOM      5  C   LIG d   1       4.261  -0.768  -5.440  0.00  0.00     0.029 A 
ATOM      6  C   LIG d   1       4.447  -0.081  -4.239  0.00  0.00    -0.009 A 
ATOM      7  C   LIG d   1       3.861  -0.353  -6.792  0.00  0.00     0.103 A 
ATOM      8  C   LIG d   1       3.854  -1.505  -7.573  0.00  0.00     0.131 A 
ATOM      9  N   LIG d   1       4.222  -2.579  -6.786  0.00  0.00    -0.349 N 
ATOM     10  H   LIG d   1       4.294  -3.495  -7.093  0.00  0.00     0.166 HD
ATOM     11  C   LIG d   1       3.499  -1.386  -8.938  0.00  0.00     0.278 A 
ATOM     12  O   LIG d   1       3.478  -2.366  -9.664  0.00  0.00    -0.265 OA
ATOM     13  N   LIG d   1       3.185  -0.163  -9.415  0.00  0.00    -0.292 N 
ATOM     14  C   LIG d   1       3.216   0.922  -8.601  0.00  0.00     0.100 A 
ATOM     15  N   LIG d   1       3.535   0.830  -7.342  0.00  0.00    -0.235 NA
ATOM     16  H   LIG d   1       5.349  -2.677  -2.276  0.00  0.00     0.066 H 
ATOM     17  H   LIG d   1       5.029  -3.901  -4.375  0.00  0.00     0.064 H 
ATOM     18  H   LIG d   1       4.285   0.987  -4.195  0.00  0.00     0.066 H 
ATOM     19  H   LIG d   1       2.964   1.891  -9.009  0.00  0.00     0.103 H 
ENDROOT
BRANCH  13  20
ATOM     20  C   LIG d   1       2.812  -0.007 -10.823  0.00  0.00     0.068 C 
ATOM     21  H   LIG d   1       2.204   0.891 -10.941  0.00  0.00     0.055 H 
ATOM     22  H   LIG d   1       2.241  -0.878 -11.147  0.00  0.00     0.055 H 
BRANCH  20  23
ATOM     23  C   LIG d   1       4.077   0.119 -11.675  0.00  0.00    -0.013 C 
ATOM     24  H   LIG d   1       4.953   0.125 -11.026  0.00  0.00     0.083 H 
ATOM     25  H   LIG d   1       4.040   1.047 -12.246  0.00  0.00     0.083 H 
BRANCH  23  26
ATOM     26  N   LIG d   1       4.160  -1.039 -12.604  0.00  0.00     0.236 N 
ATOM     27  C   LIG d   1       2.805  -1.473 -12.998  0.00  0.00    -0.032 C 
ATOM     28  C   LIG d   1       2.968  -1.961 -14.459  0.00  0.00    -0.008 C 
ATOM     29  H   LIG d   1       2.098  -0.644 -12.951  0.00  0.00     0.081 H 
ATOM     30  H   LIG d   1       2.474  -2.292 -12.360  0.00  0.00     0.081 H 
ATOM     31  C   LIG d   1       3.986  -0.935 -15.021  0.00  0.00    -0.008 C 
ATOM     32  H   LIG d   1       2.021  -1.905 -14.997  0.00  0.00     0.032 H 
ATOM     33  H   LIG d   1       3.374  -2.971 -14.491  0.00  0.00     0.032 H 
ATOM     34  C   LIG d   1       4.910  -0.665 -13.814  0.00  0.00    -0.032 C 
ATOM     35  H   LIG d   1       4.549  -1.365 -15.849  0.00  0.00     0.032 H 
ATOM     36  H   LIG d   1       3.481  -0.020 -15.331  0.00  0.00     0.032 H 
ATOM     37  H   LIG d   1       5.805  -1.282 -13.888  0.00  0.00     0.081 H 
ATOM     38  H   LIG d   1       5.184   0.389 -13.786  0.00  0.00     0.081 H 
ATOM     39  H   LIG d   1       4.641  -1.813 -12.132  0.00  0.00     0.203 HD
ENDBRANCH  23  26
ENDBRANCH  20  23
ENDBRANCH  13  20
BRANCH   1  40
ATOM     40  O   LIG d   1       5.018  -0.104  -1.937  0.00  0.00    -0.495 OA
BRANCH  40  41
ATOM     41  C   LIG d   1       4.375   1.165  -1.806  0.00  0.00     0.079 C 
ATOM     42  H   LIG d   1       3.940   1.453  -2.763  0.00  0.00     0.066 H 
ATOM     43  H   LIG d   1       3.587   1.097  -1.056  0.00  0.00     0.066 H 
ATOM     44  H   LIG d   1       5.106   1.913  -1.499  0.00  0.00     0.066 H 
ENDBRANCH  40  41
ENDBRANCH   1  40
TORSDOF 5
ENDMDL
MODEL 7
REMARK VINA RESULT:      -5.2      8.622     13.258
REMARK  5 active torsions:
REMARK  status: ('A' for Active; 'I' for Inactive)
REMARK    1  A    between atoms: C_1  and  O_2 
REMARK    2  A    between atoms: O_2  and  C_3 
REMARK    3  A    between atoms: N_15  and  C_18 
REMARK    4  A    between atoms: C_18  and  C_19 
REMARK    5  A    between atoms: C_19  and  N_43 
ROOT
ATOM      1  C   LIG d   1      11.469   8.757   1.367  0.00  0.00     0.121 A 
ATOM      2  C   LIG d   1      10.866   9.870   0.785  0.00  0.00    -0.018 A 
ATOM      3  C   LIG d   1      10.219   9.763  -0.425  0.00  0.00    -0.034 A 
ATOM      4  C   LIG d   1      10.163   8.536  -1.081  0.00  0.00     0.049 A 
ATOM      5  C   LIG d   1      10.773   7.413  -0.496  0.00  0.00     0.029 A 
ATOM      6  C   LIG d   1      11.425   7.533   0.732  0.00  0.00    -0.009 A 
ATOM      7  C   LIG d   1      10.545   6.289  -1.416  0.00  0.00     0.103 A 
ATOM      8  C   LIG d   1       9.820   6.798  -2.490  0.00  0.00     0.131 A 
ATOM      9  N   LIG d   1       9.597   8.144  -2.278  0.00  0.00    -0.349 N 
ATOM     10  H   LIG d   1       9.115   8.730  -2.882  0.00  0.00     0.166 HD
ATOM     11  C   LIG d   1       9.462   5.913  -3.534  0.00  0.00     0.278 A 
ATOM     12  O   LIG d   1       8.827   6.309  -4.497  0.00  0.00    -0.265 OA
ATOM     13  N   LIG d   1       9.840   4.620  -3.439  0.00  0.00    -0.292 N 
ATOM     14  C   LIG d   1      10.542   4.186  -2.362  0.00  0.00     0.100 A 
ATOM     15  N   LIG d   1      10.885   4.988  -1.394  0.00  0.00    -0.235 NA
ATOM     16  H   LIG d   1      10.905  10.824   1.289  0.00  0.00     0.066 H 
ATOM     17  H   LIG d   1       9.755  10.633  -0.866  0.00  0.00     0.064 H 
ATOM     18  H   LIG d   1      11.894   6.670   1.183  0.00  0.00     0.066 H 
ATOM     19  H   LIG d   1      10.829   3.146  -2.307  0.00  0.00     0.103 H 
ENDROOT
BRANCH  13  20
ATOM     20  C   LIG d   1       9.486   3.679  -4.504  0.00  0.00     0.068 C 
ATOM     21  H   LIG d   1       9.697   4.131  -5.474  0.00  0.00     0.055 H 
ATOM     22  H   LIG d   1       8.425   3.438  -4.439  0.00  0.00     0.055 H 
BRANCH  20  23
ATOM     23  C   LIG d   1      10.310   2.399  -4.349  0.00  0.00    -0.013 C 
ATOM     24  H   LIG d   1      11.016   2.519  -3.527  0.00  0.00     0.083 H 
ATOM     25  H   LIG d   1      10.855   2.203  -5.272  0.00  0.00     0.083 H 
BRANCH  23  26
ATOM     26  N   LIG d   1       9.398   1.263  -4.054  0.00  0.00     0.236 N 
ATOM     27  C   LIG d   1       8.022   1.755  -3.848  0.00  0.00    -0.032 C 
ATOM     28  C   LIG d   1       7.122   0.626  -4.412  0.00  0.00    -0.008 C 
ATOM     29  H   LIG d   1       7.851   2.684  -4.393  0.00  0.00     0.081 H 
ATOM     30  H   LIG d   1       7.830   1.896  -2.784  0.00  0.00     0.081 H 
ATOM     31  C   LIG d   1       7.937   0.163  -5.648  0.00  0.00    -0.008 C 
ATOM     32  H   LIG d   1       6.148   1.016  -4.709  0.00  0.00     0.032 H 
ATOM     33  H   LIG d   1       7.012  -0.183  -3.690  0.00  0.00     0.032 H 
ATOM     34  C   LIG d   1       9.399   0.307  -5.174  0.00  0.00    -0.032 C 
ATOM     35  H   LIG d   1       7.711  -0.875  -5.891  0.00  0.00     0.032 H 
ATOM     36  H   LIG d   1       7.743   0.812  -6.502  0.00  0.00     0.032 H 
ATOM     37  H   LIG d   1       9.772  -0.656  -4.826  0.00  0.00     0.081 H 
ATOM     38  H   LIG d   1      10.019   0.675  -5.991  0.00  0.00     0.081 H 
ATOM     39  H   LIG d   1       9.720   0.787  -3.202  0.00  0.00     0.203 HD
ENDBRANCH  23  26
ENDBRANCH  20  23
ENDBRANCH  13  20
BRANCH   1  40
ATOM     40  O   LIG d   1      12.104   8.879   2.564  0.00  0.00    -0.495 OA
BRANCH  40  41
ATOM     41  C   LIG d   1      12.512  10.192   2.951  0.00  0.00     0.079 C 
ATOM     42  H   LIG d   1      12.137  10.409   3.951  0.00  0.00     0.066 H 
ATOM     43  H   LIG d   1      13.600  10.248   2.952  0.00  0.00     0.066 H 
ATOM     44  H   LIG d   1      12.111  10.920   2.247  0.00  0.00     0.066 H 
ENDBRANCH  40  41
ENDBRANCH   1  40
TORSDOF 5
ENDMDL
MODEL 8
REMARK VINA RESULT:      -5.1      9.375     11.339
REMARK  5 active torsions:
REMARK  status: ('A' for Active; 'I' for Inactive)
REMARK    1  A    between atoms: C_1  and  O_2 
REMARK    2  A    between atoms: O_2  and  C_3 
REMARK    3  A    between atoms: N_15  and  C_18 
REMARK    4  A    between atoms: C_18  and  C_19 
REMARK    5  A    between atoms: C_19  and  N_43 
ROOT
ATOM      1  C   LIG d   1       4.819  -9.341  -4.714  0.00  0.00     0.121 A 
ATOM      2  C   LIG d   1       4.122 -10.320  -4.012  0.00  0.00    -0.018 A 
ATOM      3  C   LIG d   1       4.683 -10.924  -2.910  0.00  0.00    -0.034 A 
ATOM      4  C   LIG d   1       5.959 -10.560  -2.487  0.00  0.00     0.049 A 
ATOM      5  C   LIG d   1       6.664  -9.573  -3.196  0.00  0.00     0.029 A 
ATOM      6  C   LIG d   1       6.085  -8.966  -4.312  0.00  0.00    -0.009 A 
ATOM      7  C   LIG d   1       7.957  -9.416  -2.516  0.00  0.00     0.103 A 
ATOM      8  C   LIG d   1       7.954 -10.309  -1.449  0.00  0.00     0.131 A 
ATOM      9  N   LIG d   1       6.752 -10.989  -1.442  0.00  0.00    -0.349 N 
ATOM     10  H   LIG d   1       6.501 -11.669  -0.797  0.00  0.00     0.166 HD
ATOM     11  C   LIG d   1       9.097 -10.362  -0.616  0.00  0.00     0.278 A 
ATOM     12  O   LIG d   1       9.144 -11.128   0.331  0.00  0.00    -0.265 OA
ATOM     13  N   LIG d   1      10.134  -9.544  -0.897  0.00  0.00    -0.292 N 
ATOM     14  C   LIG d   1      10.072  -8.691  -1.950  0.00  0.00     0.100 A 
ATOM     15  N   LIG d   1       9.031  -8.633  -2.730  0.00  0.00    -0.235 NA
ATOM     16  H   LIG d   1       3.132 -10.606  -4.334  0.00  0.00     0.066 H 
ATOM     17  H   LIG d   1       4.132 -11.683  -2.373  0.00  0.00     0.064 H 
ATOM     18  H   LIG d   1       6.626  -8.207  -4.858  0.00  0.00     0.066 H 
ATOM     19  H   LIG d   1      10.914  -8.044  -2.151  0.00  0.00     0.103 H 
ENDROOT
BRANCH  13  20
ATOM     20  C   LIG d   1      11.333  -9.575  -0.055  0.00  0.00     0.068 C 
ATOM     21  H   LIG d   1      12.020 -10.335  -0.429  0.00  0.00     0.055 H 
ATOM     22  H   LIG d   1      11.050  -9.815   0.971  0.00  0.00     0.055 H 
BRANCH  20  23
ATOM     23  C   LIG d   1      12.016  -8.207  -0.089  0.00  0.00    -0.013 C 
ATOM     24  H   LIG d   1      11.415  -7.515  -0.680  0.00  0.00     0.083 H 
ATOM     25  H   LIG d   1      13.004  -8.305  -0.539  0.00  0.00     0.083 H 
BRANCH  23  26
ATOM     26  N   LIG d   1      12.145  -7.688   1.298  0.00  0.00     0.236 N 
ATOM     27  C   LIG d   1      11.074  -8.243   2.150  0.00  0.00    -0.032 C 
ATOM     28  C   LIG d   1      11.734  -8.400   3.543  0.00  0.00    -0.008 C 
ATOM     29  H   LIG d   1      10.738  -9.212   1.778  0.00  0.00     0.081 H 
ATOM     30  H   LIG d   1      10.239  -7.545   2.202  0.00  0.00     0.081 H 
ATOM     31  C   LIG d   1      13.166  -8.858   3.162  0.00  0.00    -0.008 C 
ATOM     32  H   LIG d   1      11.224  -9.162   4.132  0.00  0.00     0.032 H 
ATOM     33  H   LIG d   1      11.756  -7.449   4.074  0.00  0.00     0.032 H 
ATOM     34  C   LIG d   1      13.449  -8.071   1.864  0.00  0.00    -0.032 C 
ATOM     35  H   LIG d   1      13.878  -8.584   3.941  0.00  0.00     0.032 H 
ATOM     36  H   LIG d   1      13.191  -9.932   2.974  0.00  0.00     0.032 H 
ATOM     37  H   LIG d   1      14.021  -7.172   2.092  0.00  0.00     0.081 H 
ATOM     38  H   LIG d   1      14.002  -8.698   1.164  0.00  0.00     0.081 H 
ATOM     39  H   LIG d   1      12.070  -6.664   1.281  0.00  0.00     0.203 HD
ENDBRANCH  23  26
ENDBRANCH  20  23
ENDBRANCH  13  20
BRANCH   1  40
ATOM     40  O   LIG d   1       4.251  -8.752  -5.801  0.00  0.00    -0.495 OA
BRANCH  40  41
ATOM     41  C   LIG d   1       4.909  -7.600  -6.333  0.00  0.00     0.079 C 
ATOM     42  H   LIG d   1       4.211  -7.036  -6.952  0.00  0.00     0.066 H 
ATOM     43  H   LIG d   1       5.257  -6.971  -5.514  0.00  0.00     0.066 H 
ATOM     44  H   LIG d   1       5.759  -7.914  -6.938  0.00  0.00     0.066 H 
ENDBRANCH  40  41
ENDBRANCH   1  40
TORSDOF 5
ENDMDL
MODEL 9
REMARK VINA RESULT:      -5.1     12.324     15.360
REMARK  5 active torsions:
REMARK  status: ('A' for Active; 'I' for Inactive)
REMARK    1  A    between atoms: C_1  and  O_2 
REMARK    2  A    between atoms: O_2  and  C_3 
REMARK    3  A    between atoms: N_15  and  C_18 
REMARK    4  A    between atoms: C_18  and  C_19 
REMARK    5  A    between atoms: C_19  and  N_43 
ROOT
ATOM      1  C   LIG d   1       2.533  11.894 -16.921  0.00  0.00     0.121 A 
ATOM      2  C   LIG d   1       1.744  12.980 -17.290  0.00  0.00    -0.018 A 
ATOM      3  C   LIG d   1       0.378  12.942 -17.125  0.00  0.00    -0.034 A 
ATOM      4  C   LIG d   1      -0.229  11.810 -16.586  0.00  0.00     0.049 A 
ATOM      5  C   LIG d   1       0.566  10.712 -16.215  0.00  0.00     0.029 A 
ATOM      6  C   LIG d   1       1.951  10.763 -16.386  0.00  0.00    -0.009 A 
ATOM      7  C   LIG d   1      -0.352   9.692 -15.690  0.00  0.00     0.103 A 
ATOM      8  C   LIG d   1      -1.632  10.230 -15.776  0.00  0.00     0.131 A 
ATOM      9  N   LIG d   1      -1.546  11.499 -16.315  0.00  0.00    -0.349 N 
ATOM     10  H   LIG d   1      -2.301  12.086 -16.478  0.00  0.00     0.166 HD
ATOM     11  C   LIG d   1      -2.721   9.443 -15.329  0.00  0.00     0.278 A 
ATOM     12  O   LIG d   1      -3.862   9.869 -15.384  0.00  0.00    -0.265 OA
ATOM     13  N   LIG d   1      -2.464   8.210 -14.842  0.00  0.00    -0.292 N 
ATOM     14  C   LIG d   1      -1.191   7.746 -14.779  0.00  0.00     0.100 A 
ATOM     15  N   LIG d   1      -0.178   8.454 -15.191  0.00  0.00    -0.235 NA
ATOM     16  H   LIG d   1       2.208  13.861 -17.708  0.00  0.00     0.066 H 
ATOM     17  H   LIG d   1      -0.224  13.790 -17.415  0.00  0.00     0.064 H 
ATOM     18  H   LIG d   1       2.564   9.920 -16.100  0.00  0.00     0.066 H 
ATOM     19  H   LIG d   1      -1.012   6.758 -14.381  0.00  0.00     0.103 H 
ENDROOT
BRANCH  13  20
ATOM     20  C   LIG d   1      -3.569   7.371 -14.372  0.00  0.00     0.068 C 
ATOM     21  H   LIG d   1      -4.506   7.732 -14.797  0.00  0.00     0.055 H 
ATOM     22  H   LIG d   1      -3.622   7.415 -13.284  0.00  0.00     0.055 H 
BRANCH  20  23
ATOM     23  C   LIG d   1      -3.333   5.924 -14.812  0.00  0.00    -0.013 C 
ATOM     24  H   LIG d   1      -2.264   5.752 -14.936  0.00  0.00     0.083 H 
ATOM     25  H   LIG d   1      -3.842   5.744 -15.758  0.00  0.00     0.083 H 
BRANCH  23  26
ATOM     26  N   LIG d   1      -3.864   5.003 -13.773  0.00  0.00     0.236 N 
ATOM     27  C   LIG d   1      -5.333   5.121 -13.691  0.00  0.00    -0.032 C 
ATOM     28  C   LIG d   1      -5.814   3.690 -13.342  0.00  0.00    -0.008 C 
ATOM     29  H   LIG d   1      -5.755   5.441 -14.644  0.00  0.00     0.081 H 
ATOM     30  H   LIG d   1      -5.609   5.817 -12.899  0.00  0.00     0.081 H 
ATOM     31  C   LIG d   1      -4.839   2.819 -14.177  0.00  0.00    -0.008 C 
ATOM     32  H   LIG d   1      -6.845   3.536 -13.662  0.00  0.00     0.032 H 
ATOM     33  H   LIG d   1      -5.704   3.489 -12.277  0.00  0.00     0.032 H 
ATOM     34  C   LIG d   1      -3.516   3.611 -14.104  0.00  0.00    -0.032 C 
ATOM     35  H   LIG d   1      -4.723   1.833 -13.727  0.00  0.00     0.032 H 
ATOM     36  H   LIG d   1      -5.182   2.736 -15.208  0.00  0.00     0.032 H 
ATOM     37  H   LIG d   1      -2.881   3.202 -13.318  0.00  0.00     0.081 H 
ATOM     38  H   LIG d   1      -3.001   3.562 -15.063  0.00  0.00     0.081 H 
ATOM     39  H   LIG d   1      -3.452   5.249 -12.865  0.00  0.00     0.203 HD
ENDBRANCH  23  26
ENDBRANCH  20  23
ENDBRANCH  13  20
BRANCH   1  40
ATOM     40  O   LIG d   1       3.882  11.948 -17.089  0.00  0.00    -0.495 OA
BRANCH  40  41
ATOM     41  C   LIG d   1       4.628  12.680 -16.115  0.00  0.00     0.079 C 
ATOM     42  H   LIG d   1       5.211  13.456 -16.611  0.00  0.00     0.066 H 
ATOM     43  H   LIG d   1       3.943  13.140 -15.403  0.00  0.00     0.066 H 
ATOM     44  H   LIG d   1       5.300  12.002 -15.588  0.00  0.00     0.066 H 
ENDBRANCH  40  41
ENDBRANCH   1  40
TORSDOF 5
ENDMDL
MODEL 10
REMARK VINA RESULT:      -5.0      5.838      7.538
REMARK  5 active torsions:
REMARK  status: ('A' for Active; 'I' for Inactive)
REMARK    1  A    between atoms: C_1  and  O_2 
REMARK    2  A    between atoms: O_2  and  C_3 
REMARK    3  A    between atoms: N_15  and  C_18 
REMARK    4  A    between atoms: C_18  and  C_19 
REMARK    5  A    between atoms: C_19  and  N_43 
ROOT
ATOM      1  C   LIG d   1       9.667   4.654  -9.844  0.00  0.00     0.121 A 
ATOM      2  C   LIG d   1      10.440   5.546  -9.105  0.00  0.00    -0.018 A 
ATOM      3  C   LIG d   1      10.533   5.424  -7.737  0.00  0.00    -0.034 A 
ATOM      4  C   LIG d   1       9.851   4.404  -7.078  0.00  0.00     0.049 A 
ATOM      5  C   LIG d   1       9.069   3.504  -7.823  0.00  0.00     0.029 A 
ATOM      6  C   LIG d   1       8.984   3.636  -9.210  0.00  0.00    -0.009 A 
ATOM      7  C   LIG d   1       8.486   2.561  -6.858  0.00  0.00     0.103 A 
ATOM      8  C   LIG d   1       8.946   2.946  -5.602  0.00  0.00     0.131 A 
ATOM      9  N   LIG d   1       9.762   4.050  -5.746  0.00  0.00    -0.349 N 
ATOM     10  H   LIG d   1      10.208   4.511  -5.019  0.00  0.00     0.166 HD
ATOM     11  C   LIG d   1       8.530   2.194  -4.478  0.00  0.00     0.278 A 
ATOM     12  O   LIG d   1       8.904   2.490  -3.356  0.00  0.00    -0.265 OA
ATOM     13  N   LIG d   1       7.708   1.141  -4.678  0.00  0.00    -0.292 N 
ATOM     14  C   LIG d   1       7.300   0.815  -5.930  0.00  0.00     0.100 A 
ATOM     15  N   LIG d   1       7.669   1.499  -6.975  0.00  0.00    -0.235 NA
ATOM     16  H   LIG d   1      10.971   6.338  -9.609  0.00  0.00     0.066 H 
ATOM     17  H   LIG d   1      11.135   6.122  -7.174  0.00  0.00     0.064 H 
ATOM     18  H   LIG d   1       8.383   2.945  -9.784  0.00  0.00     0.066 H 
ATOM     19  H   LIG d   1       6.646  -0.035  -6.064  0.00  0.00     0.103 H 
ENDROOT
BRANCH  13  20
ATOM     20  C   LIG d   1       7.258   0.343  -3.535  0.00  0.00     0.068 C 
ATOM     21  H   LIG d   1       7.971   0.446  -2.716  0.00  0.00     0.055 H 
ATOM     22  H   LIG d   1       7.190  -0.705  -3.827  0.00  0.00     0.055 H 
BRANCH  20  23
ATOM     23  C   LIG d   1       5.883   0.835  -3.078  0.00  0.00    -0.013 C 
ATOM     24  H   LIG d   1       5.302   1.148  -3.946  0.00  0.00     0.083 H 
ATOM     25  H   LIG d   1       6.006   1.679  -2.400  0.00  0.00     0.083 H 
BRANCH  23  26
ATOM     26  N   LIG d   1       5.173  -0.270  -2.382  0.00  0.00     0.236 N 
ATOM     27  C   LIG d   1       3.716  -0.142  -2.579  0.00  0.00    -0.032 C 
ATOM     28  C   LIG d   1       3.206  -1.604  -2.639  0.00  0.00    -0.008 C 
ATOM     29  H   LIG d   1       3.489   0.378  -3.511  0.00  0.00     0.081 H 
ATOM     30  H   LIG d   1       3.269   0.381  -1.733  0.00  0.00     0.081 H 
ATOM     31  C   LIG d   1       4.350  -2.303  -3.419  0.00  0.00    -0.008 C 
ATOM     32  H   LIG d   1       2.265  -1.667  -3.186  0.00  0.00     0.032 H 
ATOM     33  H   LIG d   1       3.102  -2.023  -1.638  0.00  0.00     0.032 H 
ATOM     34  C   LIG d   1       5.612  -1.570  -2.916  0.00  0.00    -0.032 C 
ATOM     35  H   LIG d   1       4.395  -3.363  -3.169  0.00  0.00     0.032 H 
ATOM     36  H   LIG d   1       4.226  -2.164  -4.493  0.00  0.00     0.032 H 
ATOM     37  H   LIG d   1       6.083  -2.146  -2.120  0.00  0.00     0.081 H 
ATOM     38  H   LIG d   1       6.312  -1.430  -3.739  0.00  0.00     0.081 H 
ATOM     39  H   LIG d   1       5.386  -0.226  -1.379  0.00  0.00     0.203 HD
ENDBRANCH  23  26
ENDBRANCH  20  23
ENDBRANCH  13  20
BRANCH   1  40
ATOM     40  O   LIG d   1       9.585   4.786 -11.195  0.00  0.00    -0.495 OA
BRANCH  40  41
ATOM     41  C   LIG d   1       9.176   6.060 -11.699  0.00  0.00     0.079 C 
ATOM     42  H   LIG d   1       8.547   5.918 -12.577  0.00  0.00     0.066 H 
ATOM     43  H   LIG d   1       8.613   6.590 -10.931  0.00  0.00     0.066 H 
ATOM     44  H   LIG d   1      10.056   6.642 -11.972  0.00  0.00     0.066 H 
ENDBRANCH  40  41
ENDBRANCH   1  40
TORSDOF 5
ENDMDL
