MODEL 1
REMARK VINA RESULT:      -8.2      0.000      0.000
REMARK  11 active torsions:
REMARK  status: ('A' for Active; 'I' for Inactive)
REMARK    1  A    between atoms: C_1  and  C_2 
REMARK    2  A    between atoms: C_12  and  C_13 
REMARK    3  A    between atoms: C_13  and  C_14 
REMARK    4  A    between atoms: C_14  and  C_15 
REMARK       I    between atoms: C_15  and  N_17 
REMARK    5  A    between atoms: N_17  and  C_18 
REMARK    6  A    between atoms: C_18  and  C_19 
REMARK       I    between atoms: C_19  and  N_21 
REMARK       I    between atoms: N_21  and  CA_22 
REMARK    7  A    between atoms: CA_22  and  CB_24 
REMARK       I    between atoms: CA_22  and  C_27 
REMARK    8  A    between atoms: CB_24  and  CG1_25 
REMARK    9  A    between atoms: CB_24  and  CG2_26 
REMARK   10  A    between atoms: C_30  and  C_38 
REMARK   11  A    between atoms: C_31  and  C_32 
ROOT
ATOM      1  C   UNK d   0       5.477  -1.469  -3.089  0.00  0.00    -0.030 A 
ATOM      2  C   UNK d   0       6.414  -2.014  -4.076  0.00  0.00     0.022 A 
ATOM      3  C   UNK d   0       6.385  -3.367  -4.416  0.00  0.00    -0.040 A 
ATOM      4  C   UNK d   0       7.285  -3.851  -5.352  0.00  0.00     0.029 A 
ATOM      5  C   UNK d   0       8.221  -2.989  -5.957  0.00  0.00     0.139 A 
ATOM      6  C   UNK d   0       8.244  -1.645  -5.615  0.00  0.00     0.024 A 
ATOM      7  C   UNK d   0       7.350  -1.150  -4.681  0.00  0.00     0.143 A 
ATOM      8  O   UNK d   0       7.368   0.159  -4.343  0.00  0.00    -0.422 OA
ATOM      9  C   UNK d   0       6.512   0.662  -3.441  0.00  0.00     0.341 A 
ATOM     10  O   UNK d   0       6.567   1.848  -3.169  0.00  0.00    -0.245 OA
ATOM     11  C   UNK d   0       5.550  -0.145  -2.798  0.00  0.00     0.041 A 
ATOM     12  O   UNK d   0       8.955  -3.730  -6.813  0.00  0.00    -0.459 OA
ATOM     13  C   UNK d   0       8.561  -5.014  -6.808  0.00  0.00     0.111 A 
ATOM     14  C   UNK d   0       7.539  -5.181  -5.938  0.00  0.00     0.030 A 
ATOM     15  H   UNK d   0       5.669  -4.031  -3.955  0.00  0.00     0.063 H 
ATOM     16  H   UNK d   0       8.962  -0.983  -6.077  0.00  0.00     0.069 H 
ENDROOT
BRANCH  11  17
ATOM     17  C   UNK d   0       4.608   0.460  -1.790  0.00  0.00    -0.012 C 
ATOM     18  H   UNK d   0       4.064  -0.334  -1.277  0.00  0.00     0.032 H 
ATOM     19  H   UNK d   0       5.177   1.039  -1.062  0.00  0.00     0.032 H 
BRANCH  17  20
ATOM     20  C   UNK d   0       3.616   1.378  -2.507  0.00  0.00     0.028 C 
ATOM     21  H   UNK d   0       2.864   1.725  -1.797  0.00  0.00     0.036 H 
ATOM     22  H   UNK d   0       4.147   2.234  -2.921  0.00  0.00     0.036 H 
BRANCH  20  23
ATOM     23  C   UNK d   0       2.942   0.618  -3.620  0.00  0.00     0.214 C 
ATOM     24  O   UNK d   0       2.206  -0.311  -3.361  0.00  0.00    -0.276 OA
ATOM     25  N   UNK d   0       3.156   0.970  -4.903  0.00  0.00    -0.307 N 
ATOM     26  H   UNK d   0       3.745   1.714  -5.110  0.00  0.00     0.149 HD
BRANCH  25  27
ATOM     27  C   UNK d   0       2.501   0.232  -5.985  0.00  0.00     0.088 C 
ATOM     28  H   UNK d   0       2.077  -0.691  -5.589  0.00  0.00     0.056 H 
ATOM     29  H   UNK d   0       1.707   0.843  -6.414  0.00  0.00     0.056 H 
BRANCH  27  30
ATOM     30  C   UNK d   0       3.512  -0.098  -7.052  0.00  0.00     0.231 C 
ATOM     31  O   UNK d   0       4.017  -1.199  -7.092  0.00  0.00    -0.274 OA
ATOM     32  N   VAL d   1       3.857   0.834  -7.964  0.00  0.00    -0.306 N 
ATOM     33  CA  VAL d   1       4.840   0.514  -9.002  0.00  0.00     0.065 C 
ATOM     34  H   VAL d   1       3.453   1.716  -7.933  0.00  0.00     0.149 HD
ATOM     35  HA  VAL d   1       4.728  -0.529  -9.300  0.00  0.00     0.056 H 
ATOM     36  C   VAL d   1       6.230   0.736  -8.463  0.00  0.00     0.062 C 
ATOM     37  O   VAL d   1       6.383   1.123  -7.329  0.00  0.00    -0.548 OA
ATOM     38  OXT VAL d   1       7.297   0.506  -9.244  0.00  0.00    -0.548 OA
BRANCH  33  39
ATOM     39  CB  VAL d   1       4.613   1.418 -10.215  0.00  0.00    -0.023 C 
ATOM     40  HB  VAL d   1       5.555   1.883 -10.504  0.00  0.00     0.032 H 
BRANCH  39  41
ATOM     41  CG1 VAL d   1       4.077   0.583 -11.381  0.00  0.00    -0.061 C 
ATOM     42 1HG1 VAL d   1       4.462   0.980 -12.319  0.00  0.00     0.023 H 
ATOM     43 2HG1 VAL d   1       4.398  -0.452 -11.264  0.00  0.00     0.023 H 
ATOM     44 3HG1 VAL d   1       2.987   0.628 -11.387  0.00  0.00     0.023 H 
ENDBRANCH  39  41
BRANCH  39  45
ATOM     45  CG2 VAL d   1       3.597   2.506  -9.859  0.00  0.00    -0.061 C 
ATOM     46 1HG2 VAL d   1       3.990   3.480 -10.151  0.00  0.00     0.023 H 
ATOM     47 2HG2 VAL d   1       2.662   2.318 -10.387  0.00  0.00     0.023 H 
ATOM     48 3HG2 VAL d   1       3.416   2.496  -8.784  0.00  0.00     0.023 H 
ENDBRANCH  39  45
ENDBRANCH  33  39
ENDBRANCH  27  30
ENDBRANCH  25  27
ENDBRANCH  20  23
ENDBRANCH  17  20
ENDBRANCH  11  17
BRANCH   1  49
ATOM     49  C   UNK d   0       4.458  -2.354  -2.417  0.00  0.00    -0.039 C 
ATOM     50  H   UNK d   0       3.458  -1.969  -2.613  0.00  0.00     0.028 H 
ATOM     51  H   UNK d   0       4.542  -3.367  -2.811  0.00  0.00     0.028 H 
ATOM     52  H   UNK d   0       4.640  -2.365  -1.343  0.00  0.00     0.028 H 
ENDBRANCH   1  49
BRANCH  14  53
ATOM     53  C   UNK d   0       6.821  -6.442  -5.637  0.00  0.00    -0.014 A 
ATOM     54  C   UNK d   0       5.537  -6.653  -6.138  0.00  0.00    -0.054 A 
ATOM     55  C   UNK d   0       4.873  -7.829  -5.856  0.00  0.00    -0.061 A 
ATOM     56  H   UNK d   0       5.063  -5.897  -6.747  0.00  0.00     0.062 H 
ATOM     57  C   UNK d   0       5.479  -8.799  -5.078  0.00  0.00    -0.062 A 
ATOM     58  H   UNK d   0       3.879  -7.993  -6.244  0.00  0.00     0.062 H 
ATOM     59  C   UNK d   0       6.752  -8.596  -4.577  0.00  0.00    -0.061 A 
ATOM     60  H   UNK d   0       4.955  -9.718  -4.859  0.00  0.00     0.062 H 
ATOM     61  C   UNK d   0       7.429  -7.426  -4.857  0.00  0.00    -0.054 A 
ATOM     62  H   UNK d   0       7.220  -9.356  -3.969  0.00  0.00     0.062 H 
ATOM     63  H   UNK d   0       8.425  -7.270  -4.471  0.00  0.00     0.062 H 
ENDBRANCH  14  53
BRANCH  13  64
ATOM     64  C   UNK d   0       9.169  -6.107  -7.647  0.00  0.00    -0.006 C 
ATOM     65  H   UNK d   0       9.099  -5.839  -8.701  0.00  0.00     0.031 H 
ATOM     66  H   UNK d   0      10.216  -6.236  -7.374  0.00  0.00     0.031 H 
ATOM     67  H   UNK d   0       8.631  -7.040  -7.473  0.00  0.00     0.031 H 
ENDBRANCH  13  64
TORSDOF 13
ENDMDL
MODEL 2
REMARK VINA RESULT:      -8.0      1.503      2.108
REMARK  11 active torsions:
REMARK  status: ('A' for Active; 'I' for Inactive)
REMARK    1  A    between atoms: C_1  and  C_2 
REMARK    2  A    between atoms: C_12  and  C_13 
REMARK    3  A    between atoms: C_13  and  C_14 
REMARK    4  A    between atoms: C_14  and  C_15 
REMARK       I    between atoms: C_15  and  N_17 
REMARK    5  A    between atoms: N_17  and  C_18 
REMARK    6  A    between atoms: C_18  and  C_19 
REMARK       I    between atoms: C_19  and  N_21 
REMARK       I    between atoms: N_21  and  CA_22 
REMARK    7  A    between atoms: CA_22  and  CB_24 
REMARK       I    between atoms: CA_22  and  C_27 
REMARK    8  A    between atoms: CB_24  and  CG1_25 
REMARK    9  A    between atoms: CB_24  and  CG2_26 
REMARK   10  A    between atoms: C_30  and  C_38 
REMARK   11  A    between atoms: C_31  and  C_32 
ROOT
ATOM      1  C   UNK d   0       5.426  -1.541  -3.138  0.00  0.00    -0.030 A 
ATOM      2  C   UNK d   0       6.438  -2.109  -4.033  0.00  0.00     0.022 A 
ATOM      3  C   UNK d   0       6.426  -3.467  -4.354  0.00  0.00    -0.040 A 
ATOM      4  C   UNK d   0       7.398  -3.973  -5.202  0.00  0.00     0.029 A 
ATOM      5  C   UNK d   0       8.390  -3.129  -5.737  0.00  0.00     0.139 A 
ATOM      6  C   UNK d   0       8.396  -1.779  -5.415  0.00  0.00     0.024 A 
ATOM      7  C   UNK d   0       7.430  -1.263  -4.568  0.00  0.00     0.143 A 
ATOM      8  O   UNK d   0       7.433   0.051  -4.249  0.00  0.00    -0.422 OA
ATOM      9  C   UNK d   0       6.507   0.576  -3.432  0.00  0.00     0.341 A 
ATOM     10  O   UNK d   0       6.550   1.765  -3.175  0.00  0.00    -0.245 OA
ATOM     11  C   UNK d   0       5.486  -0.213  -2.862  0.00  0.00     0.041 A 
ATOM     12  O   UNK d   0       9.188  -3.889  -6.516  0.00  0.00    -0.459 OA
ATOM     13  C   UNK d   0       8.783  -5.169  -6.525  0.00  0.00     0.111 A 
ATOM     14  C   UNK d   0       7.689  -5.314  -5.744  0.00  0.00     0.030 A 
ATOM     15  H   UNK d   0       5.667  -4.118  -3.945  0.00  0.00     0.063 H 
ATOM     16  H   UNK d   0       9.157  -1.131  -5.824  0.00  0.00     0.069 H 
ENDROOT
BRANCH  11  17
ATOM     17  C   UNK d   0       4.467   0.416  -1.947  0.00  0.00    -0.012 C 
ATOM     18  H   UNK d   0       3.839  -0.362  -1.513  0.00  0.00     0.032 H 
ATOM     19  H   UNK d   0       4.977   0.957  -1.152  0.00  0.00     0.032 H 
BRANCH  17  20
ATOM     20  C   UNK d   0       3.595   1.387  -2.747  0.00  0.00     0.028 C 
ATOM     21  H   UNK d   0       2.852   1.835  -2.088  0.00  0.00     0.036 H 
ATOM     22  H   UNK d   0       4.222   2.170  -3.174  0.00  0.00     0.036 H 
BRANCH  20  23
ATOM     23  C   UNK d   0       2.899   0.641  -3.856  0.00  0.00     0.214 C 
ATOM     24  O   UNK d   0       2.166  -0.289  -3.594  0.00  0.00    -0.276 OA
ATOM     25  N   UNK d   0       3.090   1.008  -5.139  0.00  0.00    -0.307 N 
ATOM     26  H   UNK d   0       3.676   1.752  -5.349  0.00  0.00     0.149 HD
BRANCH  25  27
ATOM     27  C   UNK d   0       2.412   0.283  -6.217  0.00  0.00     0.088 C 
ATOM     28  H   UNK d   0       1.951  -0.619  -5.813  0.00  0.00     0.056 H 
ATOM     29  H   UNK d   0       1.644   0.919  -6.656  0.00  0.00     0.056 H 
BRANCH  27  30
ATOM     30  C   UNK d   0       3.416  -0.096  -7.275  0.00  0.00     0.231 C 
ATOM     31  O   UNK d   0       4.177   0.738  -7.716  0.00  0.00    -0.274 OA
ATOM     32  N   VAL d   1       3.468  -1.364  -7.731  0.00  0.00    -0.306 N 
ATOM     33  CA  VAL d   1       4.443  -1.732  -8.760  0.00  0.00     0.065 C 
ATOM     34  H   VAL d   1       2.858  -2.032  -7.379  0.00  0.00     0.149 HD
ATOM     35  HA  VAL d   1       5.363  -1.168  -8.607  0.00  0.00     0.056 H 
ATOM     36  C   VAL d   1       3.881  -1.418 -10.122  0.00  0.00     0.062 C 
ATOM     37  O   VAL d   1       2.778  -0.935 -10.223  0.00  0.00    -0.548 OA
ATOM     38  OXT VAL d   1       4.605  -1.674 -11.223  0.00  0.00    -0.548 OA
BRANCH  33  39
ATOM     39  CB  VAL d   1       4.742  -3.230  -8.665  0.00  0.00    -0.023 C 
ATOM     40  HB  VAL d   1       4.275  -3.748  -9.502  0.00  0.00     0.032 H 
BRANCH  39  41
ATOM     41  CG1 VAL d   1       6.256  -3.451  -8.708  0.00  0.00    -0.061 C 
ATOM     42 1HG1 VAL d   1       6.749  -2.717  -8.071  0.00  0.00     0.023 H 
ATOM     43 2HG1 VAL d   1       6.486  -4.456  -8.352  0.00  0.00     0.023 H 
ATOM     44 3HG1 VAL d   1       6.610  -3.339  -9.733  0.00  0.00     0.023 H 
ENDBRANCH  39  41
BRANCH  39  45
ATOM     45  CG2 VAL d   1       4.184  -3.780  -7.351  0.00  0.00    -0.061 C 
ATOM     46 1HG2 VAL d   1       3.462  -4.568  -7.564  0.00  0.00     0.023 H 
ATOM     47 2HG2 VAL d   1       4.999  -4.186  -6.751  0.00  0.00     0.023 H 
ATOM     48 3HG2 VAL d   1       3.693  -2.978  -6.800  0.00  0.00     0.023 H 
ENDBRANCH  39  45
ENDBRANCH  33  39
ENDBRANCH  27  30
ENDBRANCH  25  27
ENDBRANCH  20  23
ENDBRANCH  17  20
ENDBRANCH  11  17
BRANCH   1  49
ATOM     49  C   UNK d   0       4.344  -2.407  -2.543  0.00  0.00    -0.039 C 
ATOM     50  H   UNK d   0       3.369  -2.044  -2.867  0.00  0.00     0.028 H 
ATOM     51  H   UNK d   0       4.479  -3.436  -2.877  0.00  0.00     0.028 H 
ATOM     52  H   UNK d   0       4.405  -2.366  -1.456  0.00  0.00     0.028 H 
ENDBRANCH   1  49
BRANCH  14  53
ATOM     53  C   UNK d   0       6.935  -6.565  -5.486  0.00  0.00    -0.014 A 
ATOM     54  C   UNK d   0       5.642  -6.717  -5.984  0.00  0.00    -0.054 A 
ATOM     55  C   UNK d   0       4.945  -7.883  -5.742  0.00  0.00    -0.061 A 
ATOM     56  H   UNK d   0       5.186  -5.924  -6.557  0.00  0.00     0.062 H 
ATOM     57  C   UNK d   0       5.528  -8.901  -5.009  0.00  0.00    -0.062 A 
ATOM     58  H   UNK d   0       3.943  -8.002  -6.127  0.00  0.00     0.062 H 
ATOM     59  C   UNK d   0       6.811  -8.756  -4.512  0.00  0.00    -0.061 A 
ATOM     60  H   UNK d   0       4.978  -9.812  -4.822  0.00  0.00     0.062 H 
ATOM     61  C   UNK d   0       7.520  -7.596  -4.752  0.00  0.00    -0.054 A 
ATOM     62  H   UNK d   0       7.261  -9.553  -3.940  0.00  0.00     0.062 H 
ATOM     63  H   UNK d   0       8.523  -7.485  -4.369  0.00  0.00     0.062 H 
ENDBRANCH  14  53
BRANCH  13  64
ATOM     64  C   UNK d   0       9.450  -6.281  -7.293  0.00  0.00    -0.006 C 
ATOM     65  H   UNK d   0      10.512  -6.062  -7.400  0.00  0.00     0.031 H 
ATOM     66  H   UNK d   0       9.325  -7.220  -6.754  0.00  0.00     0.031 H 
ATOM     67  H   UNK d   0       8.995  -6.364  -8.280  0.00  0.00     0.031 H 
ENDBRANCH  13  64
TORSDOF 13
ENDMDL
MODEL 3
REMARK VINA RESULT:      -7.7      7.246     11.749
REMARK  11 active torsions:
REMARK  status: ('A' for Active; 'I' for Inactive)
REMARK    1  A    between atoms: C_1  and  C_2 
REMARK    2  A    between atoms: C_12  and  C_13 
REMARK    3  A    between atoms: C_13  and  C_14 
REMARK    4  A    between atoms: C_14  and  C_15 
REMARK       I    between atoms: C_15  and  N_17 
REMARK    5  A    between atoms: N_17  and  C_18 
REMARK    6  A    between atoms: C_18  and  C_19 
REMARK       I    between atoms: C_19  and  N_21 
REMARK       I    between atoms: N_21  and  CA_22 
REMARK    7  A    between atoms: CA_22  and  CB_24 
REMARK       I    between atoms: CA_22  and  C_27 
REMARK    8  A    between atoms: CB_24  and  CG1_25 
REMARK    9  A    between atoms: CB_24  and  CG2_26 
REMARK   10  A    between atoms: C_30  and  C_38 
REMARK   11  A    between atoms: C_31  and  C_32 
ROOT
ATOM      1  C   UNK d   0      10.071   5.710  -4.048  0.00  0.00    -0.030 A 
ATOM      2  C   UNK d   0      10.251   6.501  -2.827  0.00  0.00     0.022 A 
ATOM      3  C   UNK d   0      10.152   7.892  -2.856  0.00  0.00    -0.040 A 
ATOM      4  C   UNK d   0      10.328   8.610  -1.684  0.00  0.00     0.029 A 
ATOM      5  C   UNK d   0      10.604   7.946  -0.473  0.00  0.00     0.139 A 
ATOM      6  C   UNK d   0      10.700   6.562  -0.450  0.00  0.00     0.024 A 
ATOM      7  C   UNK d   0      10.526   5.835  -1.615  0.00  0.00     0.143 A 
ATOM      8  O   UNK d   0      10.620   4.486  -1.599  0.00  0.00    -0.422 OA
ATOM      9  C   UNK d   0      10.455   3.759  -2.714  0.00  0.00     0.341 A 
ATOM     10  O   UNK d   0      10.549   2.546  -2.650  0.00  0.00    -0.245 OA
ATOM     11  C   UNK d   0      10.177   4.360  -3.960  0.00  0.00     0.041 A 
ATOM     12  O   UNK d   0      10.725   8.889   0.485  0.00  0.00    -0.459 OA
ATOM     13  C   UNK d   0      10.546  10.121  -0.020  0.00  0.00     0.111 A 
ATOM     14  C   UNK d   0      10.298  10.046  -1.347  0.00  0.00     0.030 A 
ATOM     15  H   UNK d   0       9.941   8.406  -3.783  0.00  0.00     0.063 H 
ATOM     16  H   UNK d   0      10.913   6.052   0.478  0.00  0.00     0.069 H 
ENDROOT
BRANCH  11  17
ATOM     17  C   UNK d   0      10.000   3.506  -5.189  0.00  0.00    -0.012 C 
ATOM     18  H   UNK d   0      10.351   4.051  -6.065  0.00  0.00     0.032 H 
ATOM     19  H   UNK d   0      10.575   2.587  -5.078  0.00  0.00     0.032 H 
BRANCH  17  20
ATOM     20  C   UNK d   0       8.519   3.162  -5.361  0.00  0.00     0.028 C 
ATOM     21  H   UNK d   0       7.964   3.492  -4.482  0.00  0.00     0.036 H 
ATOM     22  H   UNK d   0       8.130   3.666  -6.246  0.00  0.00     0.036 H 
BRANCH  20  23
ATOM     23  C   UNK d   0       8.363   1.672  -5.523  0.00  0.00     0.214 C 
ATOM     24  O   UNK d   0       9.297   0.937  -5.283  0.00  0.00    -0.276 OA
ATOM     25  N   UNK d   0       7.188   1.157  -5.934  0.00  0.00    -0.307 N 
ATOM     26  H   UNK d   0       6.441   1.746  -6.126  0.00  0.00     0.149 HD
BRANCH  25  27
ATOM     27  C   UNK d   0       7.037  -0.291  -6.091  0.00  0.00     0.088 C 
ATOM     28  H   UNK d   0       7.178  -0.559  -7.139  0.00  0.00     0.056 H 
ATOM     29  H   UNK d   0       7.783  -0.802  -5.482  0.00  0.00     0.056 H 
BRANCH  27  30
ATOM     30  C   UNK d   0       5.658  -0.704  -5.647  0.00  0.00     0.231 C 
ATOM     31  O   UNK d   0       5.060  -1.570  -6.249  0.00  0.00    -0.274 OA
ATOM     32  N   VAL d   1       5.088  -0.109  -4.580  0.00  0.00    -0.306 N 
ATOM     33  CA  VAL d   1       3.747  -0.510  -4.148  0.00  0.00     0.065 C 
ATOM     34  H   VAL d   1       5.566   0.584  -4.098  0.00  0.00     0.149 HD
ATOM     35  HA  VAL d   1       3.616  -1.580  -4.314  0.00  0.00     0.056 H 
ATOM     36  C   VAL d   1       2.715   0.251  -4.941  0.00  0.00     0.062 C 
ATOM     37  O   VAL d   1       3.065   1.046  -5.780  0.00  0.00    -0.548 OA
ATOM     38  OXT VAL d   1       1.408   0.045  -4.714  0.00  0.00    -0.548 OA
BRANCH  33  39
ATOM     39  CB  VAL d   1       3.577  -0.200  -2.660  0.00  0.00    -0.023 C 
ATOM     40  HB  VAL d   1       2.523  -0.270  -2.392  0.00  0.00     0.032 H 
BRANCH  39  41
ATOM     41  CG1 VAL d   1       4.382  -1.205  -1.833  0.00  0.00    -0.061 C 
ATOM     42 1HG1 VAL d   1       4.681  -2.039  -2.467  0.00  0.00     0.023 H 
ATOM     43 2HG1 VAL d   1       5.270  -0.717  -1.431  0.00  0.00     0.023 H 
ATOM     44 3HG1 VAL d   1       3.766  -1.575  -1.013  0.00  0.00     0.023 H 
ENDBRANCH  39  41
BRANCH  39  45
ATOM     45  CG2 VAL d   1       4.082   1.216  -2.372  0.00  0.00    -0.061 C 
ATOM     46 1HG2 VAL d   1       4.941   1.432  -3.008  0.00  0.00     0.023 H 
ATOM     47 2HG2 VAL d   1       3.288   1.934  -2.577  0.00  0.00     0.023 H 
ATOM     48 3HG2 VAL d   1       4.378   1.291  -1.326  0.00  0.00     0.023 H 
ENDBRANCH  39  45
ENDBRANCH  33  39
ENDBRANCH  27  30
ENDBRANCH  25  27
ENDBRANCH  20  23
ENDBRANCH  17  20
ENDBRANCH  11  17
BRANCH   1  49
ATOM     49  C   UNK d   0       9.773   6.379  -5.366  0.00  0.00    -0.039 C 
ATOM     50  H   UNK d   0      10.373   7.283  -5.458  0.00  0.00     0.028 H 
ATOM     51  H   UNK d   0      10.016   5.697  -6.182  0.00  0.00     0.028 H 
ATOM     52  H   UNK d   0       8.716   6.637  -5.411  0.00  0.00     0.028 H 
ENDBRANCH   1  49
BRANCH  14  53
ATOM     53  C   UNK d   0      10.045  11.177  -2.272  0.00  0.00    -0.014 A 
ATOM     54  C   UNK d   0       8.737  11.525  -2.610  0.00  0.00    -0.054 A 
ATOM     55  C   UNK d   0       8.507  12.577  -3.472  0.00  0.00    -0.061 A 
ATOM     56  H   UNK d   0       7.907  10.970  -2.199  0.00  0.00     0.062 H 
ATOM     57  C   UNK d   0       9.570  13.288  -3.999  0.00  0.00    -0.062 A 
ATOM     58  H   UNK d   0       7.495  12.848  -3.735  0.00  0.00     0.062 H 
ATOM     59  C   UNK d   0      10.869  12.948  -3.667  0.00  0.00    -0.061 A 
ATOM     60  H   UNK d   0       9.385  14.112  -4.673  0.00  0.00     0.062 H 
ATOM     61  C   UNK d   0      11.112  11.900  -2.803  0.00  0.00    -0.054 A 
ATOM     62  H   UNK d   0      11.695  13.506  -4.082  0.00  0.00     0.062 H 
ATOM     63  H   UNK d   0      12.126  11.638  -2.540  0.00  0.00     0.062 H 
ENDBRANCH  14  53
BRANCH  13  64
ATOM     64  C   UNK d   0      10.613  11.398   0.776  0.00  0.00    -0.006 C 
ATOM     65  H   UNK d   0       9.615  11.826   0.862  0.00  0.00     0.031 H 
ATOM     66  H   UNK d   0      11.005  11.186   1.771  0.00  0.00     0.031 H 
ATOM     67  H   UNK d   0      11.270  12.107   0.271  0.00  0.00     0.031 H 
ENDBRANCH  13  64
TORSDOF 13
ENDMDL
MODEL 4
REMARK VINA RESULT:      -7.7      6.851     11.192
REMARK  11 active torsions:
REMARK  status: ('A' for Active; 'I' for Inactive)
REMARK    1  A    between atoms: C_1  and  C_2 
REMARK    2  A    between atoms: C_12  and  C_13 
REMARK    3  A    between atoms: C_13  and  C_14 
REMARK    4  A    between atoms: C_14  and  C_15 
REMARK       I    between atoms: C_15  and  N_17 
REMARK    5  A    between atoms: N_17  and  C_18 
REMARK    6  A    between atoms: C_18  and  C_19 
REMARK       I    between atoms: C_19  and  N_21 
REMARK       I    between atoms: N_21  and  CA_22 
REMARK    7  A    between atoms: CA_22  and  CB_24 
REMARK       I    between atoms: CA_22  and  C_27 
REMARK    8  A    between atoms: CB_24  and  CG1_25 
REMARK    9  A    between atoms: CB_24  and  CG2_26 
REMARK   10  A    between atoms: C_30  and  C_38 
REMARK   11  A    between atoms: C_31  and  C_32 
ROOT
ATOM      1  C   UNK d   0      10.190   4.804  -3.959  0.00  0.00    -0.030 A 
ATOM      2  C   UNK d   0       9.994   6.161  -4.477  0.00  0.00     0.022 A 
ATOM      3  C   UNK d   0      10.115   7.270  -3.639  0.00  0.00    -0.040 A 
ATOM      4  C   UNK d   0       9.922   8.539  -4.160  0.00  0.00     0.029 A 
ATOM      5  C   UNK d   0       9.607   8.713  -5.522  0.00  0.00     0.139 A 
ATOM      6  C   UNK d   0       9.488   7.607  -6.350  0.00  0.00     0.024 A 
ATOM      7  C   UNK d   0       9.678   6.333  -5.840  0.00  0.00     0.143 A 
ATOM      8  O   UNK d   0       9.562   5.252  -6.643  0.00  0.00    -0.422 OA
ATOM      9  C   UNK d   0       9.743   4.008  -6.173  0.00  0.00     0.341 A 
ATOM     10  O   UNK d   0       9.628   3.065  -6.935  0.00  0.00    -0.245 OA
ATOM     11  C   UNK d   0      10.060   3.763  -4.820  0.00  0.00     0.041 A 
ATOM     12  O   UNK d   0       9.478  10.039  -5.739  0.00  0.00    -0.459 OA
ATOM     13  C   UNK d   0       9.689  10.739  -4.612  0.00  0.00     0.111 A 
ATOM     14  C   UNK d   0       9.968   9.899  -3.590  0.00  0.00     0.030 A 
ATOM     15  H   UNK d   0      10.357   7.141  -2.594  0.00  0.00     0.063 H 
ATOM     16  H   UNK d   0       9.245   7.739  -7.394  0.00  0.00     0.069 H 
ENDROOT
BRANCH  11  17
ATOM     17  C   UNK d   0      10.253   2.350  -4.333  0.00  0.00    -0.012 C 
ATOM     18  H   UNK d   0      10.584   1.722  -5.161  0.00  0.00     0.032 H 
ATOM     19  H   UNK d   0      11.005   2.337  -3.544  0.00  0.00     0.032 H 
BRANCH  17  20
ATOM     20  C   UNK d   0       8.929   1.814  -3.785  0.00  0.00     0.028 C 
ATOM     21  H   UNK d   0       9.098   1.355  -2.811  0.00  0.00     0.036 H 
ATOM     22  H   UNK d   0       8.220   2.635  -3.682  0.00  0.00     0.036 H 
BRANCH  20  23
ATOM     23  C   UNK d   0       8.370   0.786  -4.735  0.00  0.00     0.214 C 
ATOM     24  O   UNK d   0       8.859  -0.323  -4.782  0.00  0.00    -0.276 OA
ATOM     25  N   UNK d   0       7.328   1.098  -5.531  0.00  0.00    -0.307 N 
ATOM     26  H   UNK d   0       6.938   1.986  -5.492  0.00  0.00     0.149 HD
BRANCH  25  27
ATOM     27  C   UNK d   0       6.786   0.098  -6.454  0.00  0.00     0.088 C 
ATOM     28  H   UNK d   0       6.603   0.561  -7.423  0.00  0.00     0.056 H 
ATOM     29  H   UNK d   0       7.501  -0.716  -6.568  0.00  0.00     0.056 H 
BRANCH  27  30
ATOM     30  C   UNK d   0       5.492  -0.443  -5.903  0.00  0.00     0.231 C 
ATOM     31  O   UNK d   0       4.896  -1.315  -6.499  0.00  0.00    -0.274 OA
ATOM     32  N   VAL d   1       4.997   0.042  -4.747  0.00  0.00    -0.306 N 
ATOM     33  CA  VAL d   1       3.739  -0.484  -4.211  0.00  0.00     0.065 C 
ATOM     34  H   VAL d   1       5.474   0.739  -4.269  0.00  0.00     0.149 HD
ATOM     35  HA  VAL d   1       3.666  -1.549  -4.434  0.00  0.00     0.056 H 
ATOM     36  C   VAL d   1       2.580   0.242  -4.844  0.00  0.00     0.062 C 
ATOM     37  O   VAL d   1       2.785   1.111  -5.659  0.00  0.00    -0.548 OA
ATOM     38  OXT VAL d   1       1.321  -0.075  -4.503  0.00  0.00    -0.548 OA
BRANCH  33  39
ATOM     39  CB  VAL d   1       3.704  -0.277  -2.696  0.00  0.00    -0.023 C 
ATOM     40  HB  VAL d   1       2.671  -0.164  -2.368  0.00  0.00     0.032 H 
BRANCH  39  41
ATOM     41  CG1 VAL d   1       4.331  -1.488  -2.001  0.00  0.00    -0.061 C 
ATOM     42 1HG1 VAL d   1       4.531  -1.245  -0.958  0.00  0.00     0.023 H 
ATOM     43 2HG1 VAL d   1       3.643  -2.333  -2.052  0.00  0.00     0.023 H 
ATOM     44 3HG1 VAL d   1       5.265  -1.749  -2.499  0.00  0.00     0.023 H 
ENDBRANCH  39  41
BRANCH  39  45
ATOM     45  CG2 VAL d   1       4.494   0.982  -2.334  0.00  0.00    -0.061 C 
ATOM     46 1HG2 VAL d   1       4.025   1.851  -2.797  0.00  0.00     0.023 H 
ATOM     47 2HG2 VAL d   1       4.503   1.108  -1.251  0.00  0.00     0.023 H 
ATOM     48 3HG2 VAL d   1       5.517   0.887  -2.697  0.00  0.00     0.023 H 
ENDBRANCH  39  45
ENDBRANCH  33  39
ENDBRANCH  27  30
ENDBRANCH  25  27
ENDBRANCH  20  23
ENDBRANCH  17  20
ENDBRANCH  11  17
BRANCH   1  49
ATOM     49  C   UNK d   0      10.530   4.570  -2.509  0.00  0.00    -0.039 C 
ATOM     50  H   UNK d   0       9.951   3.727  -2.132  0.00  0.00     0.028 H 
ATOM     51  H   UNK d   0      11.594   4.352  -2.416  0.00  0.00     0.028 H 
ATOM     52  H   UNK d   0      10.290   5.463  -1.932  0.00  0.00     0.028 H 
ENDBRANCH   1  49
BRANCH  14  53
ATOM     53  C   UNK d   0      10.261  10.270  -2.185  0.00  0.00    -0.014 A 
ATOM     54  C   UNK d   0       9.283  10.121  -1.203  0.00  0.00    -0.054 A 
ATOM     55  C   UNK d   0       9.560  10.467   0.103  0.00  0.00    -0.061 A 
ATOM     56  H   UNK d   0       8.308   9.736  -1.465  0.00  0.00     0.062 H 
ATOM     57  C   UNK d   0      10.809  10.959   0.440  0.00  0.00    -0.062 A 
ATOM     58  H   UNK d   0       8.804  10.352   0.864  0.00  0.00     0.062 H 
ATOM     59  C   UNK d   0      11.784  11.110  -0.529  0.00  0.00    -0.061 A 
ATOM     60  H   UNK d   0      11.022  11.229   1.464  0.00  0.00     0.062 H 
ATOM     61  C   UNK d   0      11.519  10.762  -1.839  0.00  0.00    -0.054 A 
ATOM     62  H   UNK d   0      12.756  11.495  -0.261  0.00  0.00     0.062 H 
ATOM     63  H   UNK d   0      12.282  10.874  -2.594  0.00  0.00     0.062 H 
ENDBRANCH  14  53
BRANCH  13  64
ATOM     64  C   UNK d   0       9.623  12.240  -4.504  0.00  0.00    -0.006 C 
ATOM     65  H   UNK d   0      10.341  12.583  -3.760  0.00  0.00     0.031 H 
ATOM     66  H   UNK d   0       9.860  12.685  -5.470  0.00  0.00     0.031 H 
ATOM     67  H   UNK d   0       8.618  12.539  -4.203  0.00  0.00     0.031 H 
ENDBRANCH  13  64
TORSDOF 13
ENDMDL
MODEL 5
REMARK VINA RESULT:      -7.6      6.224     10.734
REMARK  11 active torsions:
REMARK  status: ('A' for Active; 'I' for Inactive)
REMARK    1  A    between atoms: C_1  and  C_2 
REMARK    2  A    between atoms: C_12  and  C_13 
REMARK    3  A    between atoms: C_13  and  C_14 
REMARK    4  A    between atoms: C_14  and  C_15 
REMARK       I    between atoms: C_15  and  N_17 
REMARK    5  A    between atoms: N_17  and  C_18 
REMARK    6  A    between atoms: C_18  and  C_19 
REMARK       I    between atoms: C_19  and  N_21 
REMARK       I    between atoms: N_21  and  CA_22 
REMARK    7  A    between atoms: CA_22  and  CB_24 
REMARK       I    between atoms: CA_22  and  C_27 
REMARK    8  A    between atoms: CB_24  and  CG1_25 
REMARK    9  A    between atoms: CB_24  and  CG2_26 
REMARK   10  A    between atoms: C_30  and  C_38 
REMARK   11  A    between atoms: C_31  and  C_32 
ROOT
ATOM      1  C   UNK d   0       9.595   4.854  -7.308  0.00  0.00    -0.030 A 
ATOM      2  C   UNK d   0       9.580   6.269  -6.925  0.00  0.00     0.022 A 
ATOM      3  C   UNK d   0       9.939   6.664  -5.636  0.00  0.00    -0.040 A 
ATOM      4  C   UNK d   0       9.913   8.010  -5.306  0.00  0.00     0.029 A 
ATOM      5  C   UNK d   0       9.529   8.972  -6.260  0.00  0.00     0.139 A 
ATOM      6  C   UNK d   0       9.174   8.573  -7.540  0.00  0.00     0.024 A 
ATOM      7  C   UNK d   0       9.196   7.231  -7.881  0.00  0.00     0.143 A 
ATOM      8  O   UNK d   0       8.849   6.837  -9.126  0.00  0.00    -0.422 OA
ATOM      9  C   UNK d   0       8.863   5.543  -9.481  0.00  0.00     0.341 A 
ATOM     10  O   UNK d   0       8.543   5.237 -10.615  0.00  0.00    -0.245 OA
ATOM     11  C   UNK d   0       9.237   4.528  -8.575  0.00  0.00     0.041 A 
ATOM     12  O   UNK d   0       9.598  10.180  -5.662  0.00  0.00    -0.459 OA
ATOM     13  C   UNK d   0      10.001  10.069  -4.385  0.00  0.00     0.111 A 
ATOM     14  C   UNK d   0      10.218   8.771  -4.079  0.00  0.00     0.030 A 
ATOM     15  H   UNK d   0      10.234   5.928  -4.901  0.00  0.00     0.063 H 
ATOM     16  H   UNK d   0       8.879   9.311  -8.272  0.00  0.00     0.069 H 
ENDROOT
BRANCH  11  17
ATOM     17  C   UNK d   0       9.237   3.086  -9.014  0.00  0.00    -0.012 C 
ATOM     18  H   UNK d   0       9.462   3.031 -10.080  0.00  0.00     0.032 H 
ATOM     19  H   UNK d   0       9.993   2.536  -8.454  0.00  0.00     0.032 H 
BRANCH  17  20
ATOM     20  C   UNK d   0       7.860   2.473  -8.751  0.00  0.00     0.028 C 
ATOM     21  H   UNK d   0       7.191   3.238  -8.357  0.00  0.00     0.036 H 
ATOM     22  H   UNK d   0       7.454   2.079  -9.682  0.00  0.00     0.036 H 
BRANCH  20  23
ATOM     23  C   UNK d   0       7.992   1.355  -7.748  0.00  0.00     0.214 C 
ATOM     24  O   UNK d   0       9.007   0.693  -7.710  0.00  0.00    -0.276 OA
ATOM     25  N   UNK d   0       6.982   1.092  -6.895  0.00  0.00    -0.307 N 
ATOM     26  H   UNK d   0       6.170   1.623  -6.926  0.00  0.00     0.149 HD
BRANCH  25  27
ATOM     27  C   UNK d   0       7.110   0.006  -5.921  0.00  0.00     0.088 C 
ATOM     28  H   UNK d   0       7.693  -0.806  -6.357  0.00  0.00     0.056 H 
ATOM     29  H   UNK d   0       7.613   0.376  -5.028  0.00  0.00     0.056 H 
BRANCH  27  30
ATOM     30  C   UNK d   0       5.740  -0.501  -5.551  0.00  0.00     0.231 C 
ATOM     31  O   UNK d   0       5.219  -1.377  -6.208  0.00  0.00    -0.274 OA
ATOM     32  N   VAL d   1       5.093   0.019  -4.489  0.00  0.00    -0.306 N 
ATOM     33  CA  VAL d   1       3.761  -0.473  -4.130  0.00  0.00     0.065 C 
ATOM     34  H   VAL d   1       5.509   0.720  -3.963  0.00  0.00     0.149 HD
ATOM     35  HA  VAL d   1       3.701  -1.542  -4.338  0.00  0.00     0.056 H 
ATOM     36  C   VAL d   1       2.720   0.256  -4.939  0.00  0.00     0.062 C 
ATOM     37  O   VAL d   1       3.056   1.101  -5.734  0.00  0.00    -0.548 OA
ATOM     38  OXT VAL d   1       1.419  -0.032  -4.777  0.00  0.00    -0.548 OA
BRANCH  33  39
ATOM     39  CB  VAL d   1       3.513  -0.229  -2.640  0.00  0.00    -0.023 C 
ATOM     40  HB  VAL d   1       2.452  -0.355  -2.423  0.00  0.00     0.032 H 
BRANCH  39  41
ATOM     41  CG1 VAL d   1       4.325  -1.231  -1.816  0.00  0.00    -0.061 C 
ATOM     42 1HG1 VAL d   1       4.814  -0.712  -0.993  0.00  0.00     0.023 H 
ATOM     43 2HG1 VAL d   1       3.659  -1.998  -1.419  0.00  0.00     0.023 H 
ATOM     44 3HG1 VAL d   1       5.078  -1.697  -2.452  0.00  0.00     0.023 H 
ENDBRANCH  39  41
BRANCH  39  45
ATOM     45  CG2 VAL d   1       3.941   1.194  -2.278  0.00  0.00    -0.061 C 
ATOM     46 1HG2 VAL d   1       4.349   1.205  -1.266  0.00  0.00     0.023 H 
ATOM     47 2HG2 VAL d   1       4.702   1.536  -2.980  0.00  0.00     0.023 H 
ATOM     48 3HG2 VAL d   1       3.077   1.858  -2.327  0.00  0.00     0.023 H 
ENDBRANCH  39  45
ENDBRANCH  33  39
ENDBRANCH  27  30
ENDBRANCH  25  27
ENDBRANCH  20  23
ENDBRANCH  17  20
ENDBRANCH  11  17
BRANCH   1  49
ATOM     49  C   UNK d   0      10.000   3.789  -6.320  0.00  0.00    -0.039 C 
ATOM     50  H   UNK d   0      11.066   3.588  -6.419  0.00  0.00     0.028 H 
ATOM     51  H   UNK d   0       9.786   4.133  -5.307  0.00  0.00     0.028 H 
ATOM     52  H   UNK d   0       9.438   2.877  -6.519  0.00  0.00     0.028 H 
ENDBRANCH   1  49
BRANCH  14  53
ATOM     53  C   UNK d   0      10.670   8.224  -2.777  0.00  0.00    -0.014 A 
ATOM     54  C   UNK d   0       9.735   7.815  -1.827  0.00  0.00    -0.054 A 
ATOM     55  C   UNK d   0      10.161   7.306  -0.618  0.00  0.00    -0.061 A 
ATOM     56  H   UNK d   0       8.679   7.897  -2.038  0.00  0.00     0.062 H 
ATOM     57  C   UNK d   0      11.513   7.200  -0.347  0.00  0.00    -0.062 A 
ATOM     58  H   UNK d   0       9.438   6.990   0.119  0.00  0.00     0.062 H 
ATOM     59  C   UNK d   0      12.446   7.603  -1.285  0.00  0.00    -0.061 A 
ATOM     60  H   UNK d   0      11.842   6.801   0.601  0.00  0.00     0.062 H 
ATOM     61  C   UNK d   0      12.032   8.109  -2.501  0.00  0.00    -0.054 A 
ATOM     62  H   UNK d   0      13.500   7.519  -1.069  0.00  0.00     0.062 H 
ATOM     63  H   UNK d   0      12.760   8.419  -3.236  0.00  0.00     0.062 H 
ENDBRANCH  14  53
BRANCH  13  64
ATOM     64  C   UNK d   0      10.185  11.224  -3.435  0.00  0.00    -0.006 C 
ATOM     65  H   UNK d   0      10.892  11.935  -3.858  0.00  0.00     0.031 H 
ATOM     66  H   UNK d   0       9.226  11.716  -3.273  0.00  0.00     0.031 H 
ATOM     67  H   UNK d   0      10.568  10.853  -2.483  0.00  0.00     0.031 H 
ENDBRANCH  13  64
TORSDOF 13
ENDMDL
MODEL 6
REMARK VINA RESULT:      -7.6      8.663     11.444
REMARK  11 active torsions:
REMARK  status: ('A' for Active; 'I' for Inactive)
REMARK    1  A    between atoms: C_1  and  C_2 
REMARK    2  A    between atoms: C_12  and  C_13 
REMARK    3  A    between atoms: C_13  and  C_14 
REMARK    4  A    between atoms: C_14  and  C_15 
REMARK       I    between atoms: C_15  and  N_17 
REMARK    5  A    between atoms: N_17  and  C_18 
REMARK    6  A    between atoms: C_18  and  C_19 
REMARK       I    between atoms: C_19  and  N_21 
REMARK       I    between atoms: N_21  and  CA_22 
REMARK    7  A    between atoms: CA_22  and  CB_24 
REMARK       I    between atoms: CA_22  and  C_27 
REMARK    8  A    between atoms: CB_24  and  CG1_25 
REMARK    9  A    between atoms: CB_24  and  CG2_26 
REMARK   10  A    between atoms: C_30  and  C_38 
REMARK   11  A    between atoms: C_31  and  C_32 
ROOT
ATOM      1  C   UNK d   0      10.781   7.540  -3.061  0.00  0.00    -0.030 A 
ATOM      2  C   UNK d   0      10.384   6.295  -3.724  0.00  0.00     0.022 A 
ATOM      3  C   UNK d   0      10.412   6.186  -5.115  0.00  0.00    -0.040 A 
ATOM      4  C   UNK d   0      10.029   4.995  -5.711  0.00  0.00     0.029 A 
ATOM      5  C   UNK d   0       9.615   3.902  -4.924  0.00  0.00     0.139 A 
ATOM      6  C   UNK d   0       9.590   4.016  -3.542  0.00  0.00     0.024 A 
ATOM      7  C   UNK d   0       9.970   5.202  -2.935  0.00  0.00     0.143 A 
ATOM      8  O   UNK d   0       9.947   5.319  -1.589  0.00  0.00    -0.422 OA
ATOM      9  C   UNK d   0      10.311   6.456  -0.978  0.00  0.00     0.341 A 
ATOM     10  O   UNK d   0      10.273   6.514   0.238  0.00  0.00    -0.245 OA
ATOM     11  C   UNK d   0      10.735   7.588  -1.706  0.00  0.00     0.041 A 
ATOM     12  O   UNK d   0       9.306   2.894  -5.766  0.00  0.00    -0.459 OA
ATOM     13  C   UNK d   0       9.491   3.256  -7.047  0.00  0.00     0.111 A 
ATOM     14  C   UNK d   0       9.934   4.531  -7.108  0.00  0.00     0.030 A 
ATOM     15  H   UNK d   0      10.728   7.022  -5.722  0.00  0.00     0.063 H 
ATOM     16  H   UNK d   0       9.272   3.180  -2.937  0.00  0.00     0.069 H 
ENDROOT
BRANCH  11  17
ATOM     17  C   UNK d   0      11.134   8.847  -0.980  0.00  0.00    -0.012 C 
ATOM     18  H   UNK d   0      11.753   8.590  -0.119  0.00  0.00     0.032 H 
ATOM     19  H   UNK d   0      11.699   9.491  -1.654  0.00  0.00     0.032 H 
BRANCH  17  20
ATOM     20  C   UNK d   0       9.879   9.582  -0.504  0.00  0.00     0.028 C 
ATOM     21  H   UNK d   0       9.026   8.904  -0.541  0.00  0.00     0.036 H 
ATOM     22  H   UNK d   0      10.026   9.926   0.519  0.00  0.00     0.036 H 
BRANCH  20  23
ATOM     23  C   UNK d   0       9.619  10.765  -1.400  0.00  0.00     0.214 C 
ATOM     24  O   UNK d   0      10.145  11.832  -1.162  0.00  0.00    -0.276 OA
ATOM     25  N   UNK d   0       8.804  10.639  -2.466  0.00  0.00    -0.307 N 
ATOM     26  H   UNK d   0       8.384   9.785  -2.656  0.00  0.00     0.149 HD
BRANCH  25  27
ATOM     27  C   UNK d   0       8.552  11.790  -3.336  0.00  0.00     0.088 C 
ATOM     28  H   UNK d   0       7.538  11.731  -3.731  0.00  0.00     0.056 H 
ATOM     29  H   UNK d   0       8.667  12.710  -2.764  0.00  0.00     0.056 H 
BRANCH  27  30
ATOM     30  C   UNK d   0       9.536  11.781  -4.477  0.00  0.00     0.231 C 
ATOM     31  O   UNK d   0      10.563  12.422  -4.398  0.00  0.00    -0.274 OA
ATOM     32  N   VAL d   1       9.276  11.060  -5.586  0.00  0.00    -0.306 N 
ATOM     33  CA  VAL d   1      10.233  11.051  -6.695  0.00  0.00     0.065 C 
ATOM     34  H   VAL d   1       8.455  10.547  -5.649  0.00  0.00     0.149 HD
ATOM     35  HA  VAL d   1      11.248  11.101  -6.299  0.00  0.00     0.056 H 
ATOM     36  C   VAL d   1       9.982  12.241  -7.585  0.00  0.00     0.062 C 
ATOM     37  O   VAL d   1       9.094  13.017  -7.320  0.00  0.00    -0.548 OA
ATOM     38  OXT VAL d   1      10.744  12.440  -8.672  0.00  0.00    -0.548 OA
BRANCH  33  39
ATOM     39  CB  VAL d   1      10.064   9.764  -7.504  0.00  0.00    -0.023 C 
ATOM     40  HB  VAL d   1       9.678  10.006  -8.495  0.00  0.00     0.032 H 
BRANCH  39  41
ATOM     41  CG1 VAL d   1      11.418   9.065  -7.641  0.00  0.00    -0.061 C 
ATOM     42 1HG1 VAL d   1      12.144   9.758  -8.066  0.00  0.00     0.023 H 
ATOM     43 2HG1 VAL d   1      11.759   8.738  -6.658  0.00  0.00     0.023 H 
ATOM     44 3HG1 VAL d   1      11.315   8.200  -8.296  0.00  0.00     0.023 H 
ENDBRANCH  39  41
BRANCH  39  45
ATOM     45  CG2 VAL d   1       9.081   8.836  -6.787  0.00  0.00    -0.061 C 
ATOM     46 1HG2 VAL d   1       9.105   9.038  -5.716  0.00  0.00     0.023 H 
ATOM     47 2HG2 VAL d   1       8.074   9.008  -7.167  0.00  0.00     0.023 H 
ATOM     48 3HG2 VAL d   1       9.365   7.798  -6.967  0.00  0.00     0.023 H 
ENDBRANCH  39  45
ENDBRANCH  33  39
ENDBRANCH  27  30
ENDBRANCH  25  27
ENDBRANCH  20  23
ENDBRANCH  17  20
ENDBRANCH  11  17
BRANCH   1  49
ATOM     49  C   UNK d   0      11.232   8.735  -3.863  0.00  0.00    -0.039 C 
ATOM     50  H   UNK d   0      11.856   9.375  -3.240  0.00  0.00     0.028 H 
ATOM     51  H   UNK d   0      11.805   8.397  -4.727  0.00  0.00     0.028 H 
ATOM     52  H   UNK d   0      10.360   9.294  -4.201  0.00  0.00     0.028 H 
ENDBRANCH   1  49
BRANCH  14  53
ATOM     53  C   UNK d   0      10.259   5.305  -8.330  0.00  0.00    -0.014 A 
ATOM     54  C   UNK d   0      11.574   5.372  -8.787  0.00  0.00    -0.054 A 
ATOM     55  C   UNK d   0      11.872   6.093  -9.925  0.00  0.00    -0.061 A 
ATOM     56  H   UNK d   0      12.360   4.861  -8.250  0.00  0.00     0.062 H 
ATOM     57  C   UNK d   0      10.866   6.748 -10.614  0.00  0.00    -0.062 A 
ATOM     58  H   UNK d   0      12.890   6.146 -10.279  0.00  0.00     0.062 H 
ATOM     59  C   UNK d   0       9.560   6.685 -10.167  0.00  0.00    -0.061 A 
ATOM     60  H   UNK d   0      11.104   7.311 -11.505  0.00  0.00     0.062 H 
ATOM     61  C   UNK d   0       9.249   5.963  -9.032  0.00  0.00    -0.054 A 
ATOM     62  H   UNK d   0       8.779   7.199 -10.708  0.00  0.00     0.062 H 
ATOM     63  H   UNK d   0       8.228   5.910  -8.686  0.00  0.00     0.062 H 
ENDBRANCH  14  53
BRANCH  13  64
ATOM     64  C   UNK d   0       9.241   2.369  -8.239  0.00  0.00    -0.006 C 
ATOM     65  H   UNK d   0       8.420   2.776  -8.829  0.00  0.00     0.031 H 
ATOM     66  H   UNK d   0      10.141   2.322  -8.852  0.00  0.00     0.031 H 
ATOM     67  H   UNK d   0       8.981   1.367  -7.898  0.00  0.00     0.031 H 
ENDBRANCH  13  64
TORSDOF 13
ENDMDL
MODEL 7
REMARK VINA RESULT:      -7.6      3.286      6.388
REMARK  11 active torsions:
REMARK  status: ('A' for Active; 'I' for Inactive)
REMARK    1  A    between atoms: C_1  and  C_2 
REMARK    2  A    between atoms: C_12  and  C_13 
REMARK    3  A    between atoms: C_13  and  C_14 
REMARK    4  A    between atoms: C_14  and  C_15 
REMARK       I    between atoms: C_15  and  N_17 
REMARK    5  A    between atoms: N_17  and  C_18 
REMARK    6  A    between atoms: C_18  and  C_19 
REMARK       I    between atoms: C_19  and  N_21 
REMARK       I    between atoms: N_21  and  CA_22 
REMARK    7  A    between atoms: CA_22  and  CB_24 
REMARK       I    between atoms: CA_22  and  C_27 
REMARK    8  A    between atoms: CB_24  and  CG1_25 
REMARK    9  A    between atoms: CB_24  and  CG2_26 
REMARK   10  A    between atoms: C_30  and  C_38 
REMARK   11  A    between atoms: C_31  and  C_32 
ROOT
ATOM      1  C   UNK d   0       5.415   0.399  -3.096  0.00  0.00    -0.030 A 
ATOM      2  C   UNK d   0       6.744   0.367  -3.712  0.00  0.00     0.022 A 
ATOM      3  C   UNK d   0       7.564   1.497  -3.704  0.00  0.00    -0.040 A 
ATOM      4  C   UNK d   0       8.815   1.433  -4.296  0.00  0.00     0.029 A 
ATOM      5  C   UNK d   0       9.259   0.242  -4.902  0.00  0.00     0.139 A 
ATOM      6  C   UNK d   0       8.441  -0.878  -4.906  0.00  0.00     0.024 A 
ATOM      7  C   UNK d   0       7.189  -0.826  -4.318  0.00  0.00     0.143 A 
ATOM      8  O   UNK d   0       6.387  -1.915  -4.321  0.00  0.00    -0.422 OA
ATOM      9  C   UNK d   0       5.170  -1.890  -3.757  0.00  0.00     0.341 A 
ATOM     10  O   UNK d   0       4.484  -2.896  -3.784  0.00  0.00    -0.245 OA
ATOM     11  C   UNK d   0       4.663  -0.730  -3.134  0.00  0.00     0.041 A 
ATOM     12  O   UNK d   0      10.496   0.476  -5.388  0.00  0.00    -0.459 OA
ATOM     13  C   UNK d   0      10.887   1.737  -5.139  0.00  0.00     0.111 A 
ATOM     14  C   UNK d   0       9.916   2.399  -4.472  0.00  0.00     0.030 A 
ATOM     15  H   UNK d   0       7.226   2.412  -3.240  0.00  0.00     0.063 H 
ATOM     16  H   UNK d   0       8.781  -1.792  -5.371  0.00  0.00     0.069 H 
ENDROOT
BRANCH  11  17
ATOM     17  C   UNK d   0       3.290  -0.745  -2.513  0.00  0.00    -0.012 C 
ATOM     18  H   UNK d   0       3.220  -1.570  -1.804  0.00  0.00     0.032 H 
ATOM     19  H   UNK d   0       3.116   0.197  -1.993  0.00  0.00     0.032 H 
BRANCH  17  20
ATOM     20  C   UNK d   0       2.237  -0.924  -3.609  0.00  0.00     0.028 C 
ATOM     21  H   UNK d   0       2.291  -1.939  -4.003  0.00  0.00     0.036 H 
ATOM     22  H   UNK d   0       1.245  -0.749  -3.192  0.00  0.00     0.036 H 
BRANCH  20  23
ATOM     23  C   UNK d   0       2.494   0.061  -4.720  0.00  0.00     0.214 C 
ATOM     24  O   UNK d   0       2.468   1.252  -4.492  0.00  0.00    -0.276 OA
ATOM     25  N   UNK d   0       2.755  -0.381  -5.966  0.00  0.00    -0.307 N 
ATOM     26  H   UNK d   0       2.776  -1.334  -6.148  0.00  0.00     0.149 HD
BRANCH  25  27
ATOM     27  C   UNK d   0       3.005   0.577  -7.046  0.00  0.00     0.088 C 
ATOM     28  H   UNK d   0       2.237   0.469  -7.812  0.00  0.00     0.056 H 
ATOM     29  H   UNK d   0       2.981   1.590  -6.646  0.00  0.00     0.056 H 
BRANCH  27  30
ATOM     30  C   UNK d   0       4.359   0.308  -7.651  0.00  0.00     0.231 C 
ATOM     31  O   UNK d   0       5.306   0.064  -6.935  0.00  0.00    -0.274 OA
ATOM     32  N   VAL d   1       4.516   0.337  -8.990  0.00  0.00    -0.306 N 
ATOM     33  CA  VAL d   1       5.831   0.076  -9.578  0.00  0.00     0.065 C 
ATOM     34  H   VAL d   1       3.758   0.532  -9.563  0.00  0.00     0.149 HD
ATOM     35  HA  VAL d   1       6.354  -0.673  -8.982  0.00  0.00     0.056 H 
ATOM     36  C   VAL d   1       6.635   1.351  -9.601  0.00  0.00     0.062 C 
ATOM     37  O   VAL d   1       6.157   2.373  -9.169  0.00  0.00    -0.548 OA
ATOM     38  OXT VAL d   1       7.881   1.351 -10.100  0.00  0.00    -0.548 OA
BRANCH  33  39
ATOM     39  CB  VAL d   1       5.657  -0.442 -11.007  0.00  0.00    -0.023 C 
ATOM     40  HB  VAL d   1       6.536  -0.184 -11.598  0.00  0.00     0.032 H 
BRANCH  39  41
ATOM     41  CG1 VAL d   1       5.486  -1.962 -10.983  0.00  0.00    -0.061 C 
ATOM     42 1HG1 VAL d   1       6.462  -2.439 -11.074  0.00  0.00     0.023 H 
ATOM     43 2HG1 VAL d   1       5.022  -2.261 -10.042  0.00  0.00     0.023 H 
ATOM     44 3HG1 VAL d   1       4.852  -2.270 -11.815  0.00  0.00     0.023 H 
ENDBRANCH  39  41
BRANCH  39  45
ATOM     45  CG2 VAL d   1       4.417   0.199 -11.635  0.00  0.00    -0.061 C 
ATOM     46 1HG2 VAL d   1       4.307  -0.150 -12.662  0.00  0.00     0.023 H 
ATOM     47 2HG2 VAL d   1       3.533  -0.079 -11.060  0.00  0.00     0.023 H 
ATOM     48 3HG2 VAL d   1       4.526   1.284 -11.630  0.00  0.00     0.023 H 
ENDBRANCH  39  45
ENDBRANCH  33  39
ENDBRANCH  27  30
ENDBRANCH  25  27
ENDBRANCH  20  23
ENDBRANCH  17  20
ENDBRANCH  11  17
BRANCH   1  49
ATOM     49  C   UNK d   0       4.898   1.652  -2.435  0.00  0.00    -0.039 C 
ATOM     50  H   UNK d   0       3.863   1.501  -2.131  0.00  0.00     0.028 H 
ATOM     51  H   UNK d   0       5.506   1.877  -1.559  0.00  0.00     0.028 H 
ATOM     52  H   UNK d   0       4.953   2.482  -3.139  0.00  0.00     0.028 H 
ENDBRANCH   1  49
BRANCH  14  53
ATOM     53  C   UNK d   0       9.951   3.808  -4.011  0.00  0.00    -0.014 A 
ATOM     54  C   UNK d   0      10.404   4.113  -2.729  0.00  0.00    -0.054 A 
ATOM     55  C   UNK d   0      10.436   5.425  -2.304  0.00  0.00    -0.061 A 
ATOM     56  H   UNK d   0      10.729   3.323  -2.068  0.00  0.00     0.062 H 
ATOM     57  C   UNK d   0      10.020   6.438  -3.150  0.00  0.00    -0.062 A 
ATOM     58  H   UNK d   0      10.786   5.663  -1.311  0.00  0.00     0.062 H 
ATOM     59  C   UNK d   0       9.570   6.142  -4.423  0.00  0.00    -0.061 A 
ATOM     60  H   UNK d   0      10.046   7.464  -2.813  0.00  0.00     0.062 H 
ATOM     61  C   UNK d   0       9.538   4.833  -4.861  0.00  0.00    -0.054 A 
ATOM     62  H   UNK d   0       9.245   6.937  -5.079  0.00  0.00     0.062 H 
ATOM     63  H   UNK d   0       9.191   4.603  -5.857  0.00  0.00     0.062 H 
ENDBRANCH  14  53
BRANCH  13  64
ATOM     64  C   UNK d   0      12.213   2.326  -5.545  0.00  0.00    -0.006 C 
ATOM     65  H   UNK d   0      12.978   2.027  -4.829  0.00  0.00     0.031 H 
ATOM     66  H   UNK d   0      12.483   1.964  -6.537  0.00  0.00     0.031 H 
ATOM     67  H   UNK d   0      12.137   3.413  -5.563  0.00  0.00     0.031 H 
ENDBRANCH  13  64
TORSDOF 13
ENDMDL
MODEL 8
REMARK VINA RESULT:      -7.3      3.219      6.511
REMARK  11 active torsions:
REMARK  status: ('A' for Active; 'I' for Inactive)
REMARK    1  A    between atoms: C_1  and  C_2 
REMARK    2  A    between atoms: C_12  and  C_13 
REMARK    3  A    between atoms: C_13  and  C_14 
REMARK    4  A    between atoms: C_14  and  C_15 
REMARK       I    between atoms: C_15  and  N_17 
REMARK    5  A    between atoms: N_17  and  C_18 
REMARK    6  A    between atoms: C_18  and  C_19 
REMARK       I    between atoms: C_19  and  N_21 
REMARK       I    between atoms: N_21  and  CA_22 
REMARK    7  A    between atoms: CA_22  and  CB_24 
REMARK       I    between atoms: CA_22  and  C_27 
REMARK    8  A    between atoms: CB_24  and  CG1_25 
REMARK    9  A    between atoms: CB_24  and  CG2_26 
REMARK   10  A    between atoms: C_30  and  C_38 
REMARK   11  A    between atoms: C_31  and  C_32 
ROOT
ATOM      1  C   UNK d   0       8.852  -6.380  -4.677  0.00  0.00    -0.030 A 
ATOM      2  C   UNK d   0       8.738  -7.418  -3.648  0.00  0.00     0.022 A 
ATOM      3  C   UNK d   0       7.713  -8.364  -3.697  0.00  0.00    -0.040 A 
ATOM      4  C   UNK d   0       7.634  -9.331  -2.709  0.00  0.00     0.029 A 
ATOM      5  C   UNK d   0       8.577  -9.364  -1.663  0.00  0.00     0.139 A 
ATOM      6  C   UNK d   0       9.594  -8.421  -1.620  0.00  0.00     0.024 A 
ATOM      7  C   UNK d   0       9.683  -7.450  -2.602  0.00  0.00     0.143 A 
ATOM      8  O   UNK d   0      10.671  -6.528  -2.565  0.00  0.00    -0.422 OA
ATOM      9  C   UNK d   0      10.779  -5.577  -3.505  0.00  0.00     0.341 A 
ATOM     10  O   UNK d   0      11.687  -4.769  -3.429  0.00  0.00    -0.245 OA
ATOM     11  C   UNK d   0       9.869  -5.487  -4.579  0.00  0.00     0.041 A 
ATOM     12  O   UNK d   0       8.253 -10.399  -0.861  0.00  0.00    -0.459 OA
ATOM     13  C   UNK d   0       7.164 -11.043  -1.313  0.00  0.00     0.111 A 
ATOM     14  C   UNK d   0       6.715 -10.455  -2.445  0.00  0.00     0.030 A 
ATOM     15  H   UNK d   0       6.988  -8.342  -4.498  0.00  0.00     0.063 H 
ATOM     16  H   UNK d   0      10.317  -8.445  -0.818  0.00  0.00     0.069 H 
ENDROOT
BRANCH  11  17
ATOM     17  C   UNK d   0      10.025  -4.403  -5.613  0.00  0.00    -0.012 C 
ATOM     18  H   UNK d   0      11.071  -4.333  -5.913  0.00  0.00     0.032 H 
ATOM     19  H   UNK d   0       9.413  -4.639  -6.484  0.00  0.00     0.032 H 
BRANCH  17  20
ATOM     20  C   UNK d   0       9.574  -3.065  -5.022  0.00  0.00     0.028 C 
ATOM     21  H   UNK d   0       9.808  -3.042  -3.958  0.00  0.00     0.036 H 
ATOM     22  H   UNK d   0      10.095  -2.251  -5.526  0.00  0.00     0.036 H 
BRANCH  20  23
ATOM     23  C   UNK d   0       8.088  -2.905  -5.214  0.00  0.00     0.214 C 
ATOM     24  O   UNK d   0       7.326  -3.219  -4.325  0.00  0.00    -0.276 OA
ATOM     25  N   UNK d   0       7.607  -2.414  -6.373  0.00  0.00    -0.307 N 
ATOM     26  H   UNK d   0       8.218  -2.163  -7.084  0.00  0.00     0.149 HD
BRANCH  25  27
ATOM     27  C   UNK d   0       6.162  -2.259  -6.559  0.00  0.00     0.088 C 
ATOM     28  H   UNK d   0       5.946  -2.114  -7.618  0.00  0.00     0.056 H 
ATOM     29  H   UNK d   0       5.652  -3.153  -6.203  0.00  0.00     0.056 H 
BRANCH  27  30
ATOM     30  C   UNK d   0       5.681  -1.062  -5.780  0.00  0.00     0.231 C 
ATOM     31  O   UNK d   0       5.771   0.049  -6.257  0.00  0.00    -0.274 OA
ATOM     32  N   VAL d   1       5.150  -1.227  -4.552  0.00  0.00    -0.306 N 
ATOM     33  CA  VAL d   1       4.683  -0.064  -3.794  0.00  0.00     0.065 C 
ATOM     34  H   VAL d   1       5.078  -2.116  -4.170  0.00  0.00     0.149 HD
ATOM     35  HA  VAL d   1       4.259   0.670  -4.480  0.00  0.00     0.056 H 
ATOM     36  C   VAL d   1       5.841   0.551  -3.052  0.00  0.00     0.062 C 
ATOM     37  O   VAL d   1       6.944   0.068  -3.147  0.00  0.00    -0.548 OA
ATOM     38  OXT VAL d   1       5.648   1.637  -2.286  0.00  0.00    -0.548 OA
BRANCH  33  39
ATOM     39  CB  VAL d   1       3.613  -0.505  -2.793  0.00  0.00    -0.023 C 
ATOM     40  HB  VAL d   1       3.529   0.238  -2.000  0.00  0.00     0.032 H 
BRANCH  39  41
ATOM     41  CG1 VAL d   1       2.268  -0.639  -3.510  0.00  0.00    -0.061 C 
ATOM     42 1HG1 VAL d   1       2.371  -0.305  -4.542  0.00  0.00     0.023 H 
ATOM     43 2HG1 VAL d   1       1.951  -1.683  -3.496  0.00  0.00     0.023 H 
ATOM     44 3HG1 VAL d   1       1.523  -0.026  -3.002  0.00  0.00     0.023 H 
ENDBRANCH  39  41
BRANCH  39  45
ATOM     45  CG2 VAL d   1       4.004  -1.855  -2.188  0.00  0.00    -0.061 C 
ATOM     46 1HG2 VAL d   1       3.593  -2.659  -2.798  0.00  0.00     0.023 H 
ATOM     47 2HG2 VAL d   1       5.091  -1.939  -2.159  0.00  0.00     0.023 H 
ATOM     48 3HG2 VAL d   1       3.607  -1.928  -1.175  0.00  0.00     0.023 H 
ENDBRANCH  39  45
ENDBRANCH  33  39
ENDBRANCH  27  30
ENDBRANCH  25  27
ENDBRANCH  20  23
ENDBRANCH  17  20
ENDBRANCH  11  17
BRANCH   1  49
ATOM     49  C   UNK d   0       7.865  -6.308  -5.816  0.00  0.00    -0.039 C 
ATOM     50  H   UNK d   0       7.781  -5.277  -6.158  0.00  0.00     0.028 H 
ATOM     51  H   UNK d   0       8.211  -6.937  -6.636  0.00  0.00     0.028 H 
ATOM     52  H   UNK d   0       6.891  -6.658  -5.474  0.00  0.00     0.028 H 
ENDBRANCH   1  49
BRANCH  14  53
ATOM     53  C   UNK d   0       5.542 -10.859  -3.255  0.00  0.00    -0.014 A 
ATOM     54  C   UNK d   0       4.254 -10.534  -2.832  0.00  0.00    -0.054 A 
ATOM     55  C   UNK d   0       3.165 -10.912  -3.590  0.00  0.00    -0.061 A 
ATOM     56  H   UNK d   0       4.109  -9.989  -1.911  0.00  0.00     0.062 H 
ATOM     57  C   UNK d   0       3.349 -11.610  -4.770  0.00  0.00    -0.062 A 
ATOM     58  H   UNK d   0       2.167 -10.661  -3.263  0.00  0.00     0.062 H 
ATOM     59  C   UNK d   0       4.624 -11.935  -5.196  0.00  0.00    -0.061 A 
ATOM     60  H   UNK d   0       2.493 -11.904  -5.360  0.00  0.00     0.062 H 
ATOM     61  C   UNK d   0       5.722 -11.558  -4.448  0.00  0.00    -0.054 A 
ATOM     62  H   UNK d   0       4.762 -12.481  -6.117  0.00  0.00     0.062 H 
ATOM     63  H   UNK d   0       6.717 -11.807  -4.783  0.00  0.00     0.062 H 
ENDBRANCH  14  53
BRANCH  13  64
ATOM     64  C   UNK d   0       6.535 -12.243  -0.655  0.00  0.00    -0.006 C 
ATOM     65  H   UNK d   0       5.496 -12.330  -0.972  0.00  0.00     0.031 H 
ATOM     66  H   UNK d   0       7.079 -13.143  -0.944  0.00  0.00     0.031 H 
ATOM     67  H   UNK d   0       6.575 -12.126   0.428  0.00  0.00     0.031 H 
ENDBRANCH  13  64
TORSDOF 13
ENDMDL
MODEL 9
REMARK VINA RESULT:      -7.1      3.278      6.656
REMARK  11 active torsions:
REMARK  status: ('A' for Active; 'I' for Inactive)
REMARK    1  A    between atoms: C_1  and  C_2 
REMARK    2  A    between atoms: C_12  and  C_13 
REMARK    3  A    between atoms: C_13  and  C_14 
REMARK    4  A    between atoms: C_14  and  C_15 
REMARK       I    between atoms: C_15  and  N_17 
REMARK    5  A    between atoms: N_17  and  C_18 
REMARK    6  A    between atoms: C_18  and  C_19 
REMARK       I    between atoms: C_19  and  N_21 
REMARK       I    between atoms: N_21  and  CA_22 
REMARK    7  A    between atoms: CA_22  and  CB_24 
REMARK       I    between atoms: CA_22  and  C_27 
REMARK    8  A    between atoms: CB_24  and  CG1_25 
REMARK    9  A    between atoms: CB_24  and  CG2_26 
REMARK   10  A    between atoms: C_30  and  C_38 
REMARK   11  A    between atoms: C_31  and  C_32 
ROOT
ATOM      1  C   UNK d   0       5.256   0.445  -3.215  0.00  0.00    -0.030 A 
ATOM      2  C   UNK d   0       6.606   0.420  -3.785  0.00  0.00     0.022 A 
ATOM      3  C   UNK d   0       7.432   1.543  -3.718  0.00  0.00    -0.040 A 
ATOM      4  C   UNK d   0       8.702   1.486  -4.267  0.00  0.00     0.029 A 
ATOM      5  C   UNK d   0       9.160   0.308  -4.889  0.00  0.00     0.139 A 
ATOM      6  C   UNK d   0       8.335  -0.805  -4.952  0.00  0.00     0.024 A 
ATOM      7  C   UNK d   0       7.064  -0.760  -4.407  0.00  0.00     0.143 A 
ATOM      8  O   UNK d   0       6.255  -1.842  -4.468  0.00  0.00    -0.422 OA
ATOM      9  C   UNK d   0       5.019  -1.823  -3.946  0.00  0.00     0.341 A 
ATOM     10  O   UNK d   0       4.328  -2.822  -4.025  0.00  0.00    -0.245 OA
ATOM     11  C   UNK d   0       4.498  -0.676  -3.310  0.00  0.00     0.041 A 
ATOM     12  O   UNK d   0      10.415   0.546  -5.324  0.00  0.00    -0.459 OA
ATOM     13  C   UNK d   0      10.805   1.796  -5.028  0.00  0.00     0.111 A 
ATOM     14  C   UNK d   0       9.815   2.448  -4.378  0.00  0.00     0.030 A 
ATOM     15  H   UNK d   0       7.084   2.448  -3.241  0.00  0.00     0.063 H 
ATOM     16  H   UNK d   0       8.685  -1.709  -5.430  0.00  0.00     0.069 H 
ENDROOT
BRANCH  11  17
ATOM     17  C   UNK d   0       3.104  -0.698  -2.739  0.00  0.00    -0.012 C 
ATOM     18  H   UNK d   0       2.996  -1.554  -2.073  0.00  0.00     0.032 H 
ATOM     19  H   UNK d   0       2.926   0.221  -2.180  0.00  0.00     0.032 H 
BRANCH  17  20
ATOM     20  C   UNK d   0       2.087  -0.806  -3.878  0.00  0.00     0.028 C 
ATOM     21  H   UNK d   0       2.118  -1.812  -4.297  0.00  0.00     0.036 H 
ATOM     22  H   UNK d   0       1.088  -0.602  -3.493  0.00  0.00     0.036 H 
BRANCH  20  23
ATOM     23  C   UNK d   0       2.426   0.196  -4.951  0.00  0.00     0.214 C 
ATOM     24  O   UNK d   0       2.399   1.383  -4.702  0.00  0.00    -0.276 OA
ATOM     25  N   UNK d   0       2.759  -0.226  -6.187  0.00  0.00    -0.307 N 
ATOM     26  H   UNK d   0       2.781  -1.175  -6.386  0.00  0.00     0.149 HD
BRANCH  25  27
ATOM     27  C   UNK d   0       3.088   0.749  -7.230  0.00  0.00     0.088 C 
ATOM     28  H   UNK d   0       2.186   1.003  -7.786  0.00  0.00     0.056 H 
ATOM     29  H   UNK d   0       3.498   1.648  -6.770  0.00  0.00     0.056 H 
BRANCH  27  30
ATOM     30  C   UNK d   0       4.107   0.156  -8.168  0.00  0.00     0.231 C 
ATOM     31  O   UNK d   0       4.722   0.872  -8.929  0.00  0.00    -0.274 OA
ATOM     32  N   VAL d   1       4.336  -1.173  -8.161  0.00  0.00    -0.306 N 
ATOM     33  CA  VAL d   1       5.326  -1.750  -9.072  0.00  0.00     0.065 C 
ATOM     34  H   VAL d   1       3.844  -1.747  -7.552  0.00  0.00     0.149 HD
ATOM     35  HA  VAL d   1       6.155  -1.053  -9.197  0.00  0.00     0.056 H 
ATOM     36  C   VAL d   1       4.685  -2.014 -10.410  0.00  0.00     0.062 C 
ATOM     37  O   VAL d   1       3.519  -1.748 -10.584  0.00  0.00    -0.548 OA
ATOM     38  OXT VAL d   1       5.408  -2.546 -11.408  0.00  0.00    -0.548 OA
BRANCH  33  39
ATOM     39  CB  VAL d   1       5.850  -3.065  -8.490  0.00  0.00    -0.023 C 
ATOM     40  HB  VAL d   1       5.940  -3.805  -9.284  0.00  0.00     0.032 H 
BRANCH  39  41
ATOM     41  CG1 VAL d   1       7.222  -2.830  -7.854  0.00  0.00    -0.061 C 
ATOM     42 1HG1 VAL d   1       7.096  -2.576  -6.801  0.00  0.00     0.023 H 
ATOM     43 2HG1 VAL d   1       7.822  -3.737  -7.940  0.00  0.00     0.023 H 
ATOM     44 3HG1 VAL d   1       7.725  -2.011  -8.368  0.00  0.00     0.023 H 
ENDBRANCH  39  41
BRANCH  39  45
ATOM     45  CG2 VAL d   1       4.876  -3.576  -7.425  0.00  0.00    -0.061 C 
ATOM     46 1HG2 VAL d   1       4.144  -4.237  -7.890  0.00  0.00     0.023 H 
ATOM     47 2HG2 VAL d   1       5.427  -4.123  -6.661  0.00  0.00     0.023 H 
ATOM     48 3HG2 VAL d   1       4.362  -2.730  -6.967  0.00  0.00     0.023 H 
ENDBRANCH  39  45
ENDBRANCH  33  39
ENDBRANCH  27  30
ENDBRANCH  25  27
ENDBRANCH  20  23
ENDBRANCH  17  20
ENDBRANCH  11  17
BRANCH   1  49
ATOM     49  C   UNK d   0       4.724   1.684  -2.540  0.00  0.00    -0.039 C 
ATOM     50  H   UNK d   0       5.554   2.263  -2.137  0.00  0.00     0.028 H 
ATOM     51  H   UNK d   0       4.179   2.287  -3.266  0.00  0.00     0.028 H 
ATOM     52  H   UNK d   0       4.054   1.396  -1.730  0.00  0.00     0.028 H 
ENDBRANCH   1  49
BRANCH  14  53
ATOM     53  C   UNK d   0       9.843   3.844  -3.878  0.00  0.00    -0.014 A 
ATOM     54  C   UNK d   0       9.397   4.887  -4.689  0.00  0.00    -0.054 A 
ATOM     55  C   UNK d   0       9.425   6.183  -4.220  0.00  0.00    -0.061 A 
ATOM     56  H   UNK d   0       9.031   4.679  -5.684  0.00  0.00     0.062 H 
ATOM     57  C   UNK d   0       9.893   6.450  -2.945  0.00  0.00    -0.062 A 
ATOM     58  H   UNK d   0       9.080   6.992  -4.846  0.00  0.00     0.062 H 
ATOM     59  C   UNK d   0      10.337   5.420  -2.136  0.00  0.00    -0.061 A 
ATOM     60  H   UNK d   0       9.913   7.467  -2.582  0.00  0.00     0.062 H 
ATOM     61  C   UNK d   0      10.309   4.118  -2.593  0.00  0.00    -0.054 A 
ATOM     62  H   UNK d   0      10.702   5.634  -1.142  0.00  0.00     0.062 H 
ATOM     63  H   UNK d   0      10.651   3.313  -1.960  0.00  0.00     0.062 H 
ENDBRANCH  14  53
BRANCH  13  64
ATOM     64  C   UNK d   0      12.148   2.386  -5.371  0.00  0.00    -0.006 C 
ATOM     65  H   UNK d   0      12.910   1.608  -5.325  0.00  0.00     0.031 H 
ATOM     66  H   UNK d   0      12.116   2.804  -6.377  0.00  0.00     0.031 H 
ATOM     67  H   UNK d   0      12.391   3.175  -4.658  0.00  0.00     0.031 H 
ENDBRANCH  13  64
TORSDOF 13
ENDMDL
MODEL 10
REMARK VINA RESULT:      -6.9      6.499     10.450
REMARK  11 active torsions:
REMARK  status: ('A' for Active; 'I' for Inactive)
REMARK    1  A    between atoms: C_1  and  C_2 
REMARK    2  A    between atoms: C_12  and  C_13 
REMARK    3  A    between atoms: C_13  and  C_14 
REMARK    4  A    between atoms: C_14  and  C_15 
REMARK       I    between atoms: C_15  and  N_17 
REMARK    5  A    between atoms: N_17  and  C_18 
REMARK    6  A    between atoms: C_18  and  C_19 
REMARK       I    between atoms: C_19  and  N_21 
REMARK       I    between atoms: N_21  and  CA_22 
REMARK    7  A    between atoms: CA_22  and  CB_24 
REMARK       I    between atoms: CA_22  and  C_27 
REMARK    8  A    between atoms: CB_24  and  CG1_25 
REMARK    9  A    between atoms: CB_24  and  CG2_26 
REMARK   10  A    between atoms: C_30  and  C_38 
REMARK   11  A    between atoms: C_31  and  C_32 
ROOT
ATOM      1  C   UNK d   0       9.569   4.464  -4.608  0.00  0.00    -0.030 A 
ATOM      2  C   UNK d   0       9.670   5.604  -5.524  0.00  0.00     0.022 A 
ATOM      3  C   UNK d   0       9.769   6.907  -5.035  0.00  0.00    -0.040 A 
ATOM      4  C   UNK d   0       9.863   7.962  -5.928  0.00  0.00     0.029 A 
ATOM      5  C   UNK d   0       9.858   7.727  -7.316  0.00  0.00     0.139 A 
ATOM      6  C   UNK d   0       9.760   6.429  -7.796  0.00  0.00     0.024 A 
ATOM      7  C   UNK d   0       9.666   5.367  -6.913  0.00  0.00     0.143 A 
ATOM      8  O   UNK d   0       9.568   4.100  -7.376  0.00  0.00    -0.422 OA
ATOM      9  C   UNK d   0       9.477   3.054  -6.541  0.00  0.00     0.341 A 
ATOM     10  O   UNK d   0       9.391   1.931  -7.005  0.00  0.00    -0.245 OA
ATOM     11  C   UNK d   0       9.475   3.219  -5.140  0.00  0.00     0.041 A 
ATOM     12  O   UNK d   0       9.959   8.925  -7.928  0.00  0.00    -0.459 OA
ATOM     13  C   UNK d   0      10.030   9.924  -7.033  0.00  0.00     0.111 A 
ATOM     14  C   UNK d   0       9.977   9.426  -5.777  0.00  0.00     0.030 A 
ATOM     15  H   UNK d   0       9.773   7.092  -3.970  0.00  0.00     0.063 H 
ATOM     16  H   UNK d   0       9.755   6.247  -8.861  0.00  0.00     0.069 H 
ENDROOT
BRANCH  11  17
ATOM     17  C   UNK d   0       9.369   2.017  -4.237  0.00  0.00    -0.012 C 
ATOM     18  H   UNK d   0       9.728   1.133  -4.765  0.00  0.00     0.032 H 
ATOM     19  H   UNK d   0       9.975   2.178  -3.345  0.00  0.00     0.032 H 
BRANCH  17  20
ATOM     20  C   UNK d   0       7.908   1.811  -3.831  0.00  0.00     0.028 C 
ATOM     21  H   UNK d   0       7.847   1.675  -2.751  0.00  0.00     0.036 H 
ATOM     22  H   UNK d   0       7.324   2.685  -4.121  0.00  0.00     0.036 H 
BRANCH  20  23
ATOM     23  C   UNK d   0       7.361   0.590  -4.524  0.00  0.00     0.214 C 
ATOM     24  O   UNK d   0       7.354  -0.479  -3.951  0.00  0.00    -0.276 OA
ATOM     25  N   UNK d   0       6.879   0.685  -5.779  0.00  0.00    -0.307 N 
ATOM     26  H   UNK d   0       6.885   1.541  -6.237  0.00  0.00     0.149 HD
BRANCH  25  27
ATOM     27  C   UNK d   0       6.347  -0.502  -6.452  0.00  0.00     0.088 C 
ATOM     28  H   UNK d   0       6.964  -0.734  -7.320  0.00  0.00     0.056 H 
ATOM     29  H   UNK d   0       6.359  -1.346  -5.762  0.00  0.00     0.056 H 
BRANCH  27  30
ATOM     30  C   UNK d   0       4.933  -0.236  -6.896  0.00  0.00     0.231 C 
ATOM     31  O   UNK d   0       4.011  -0.422  -6.131  0.00  0.00    -0.274 OA
ATOM     32  N   VAL d   1       4.692   0.210  -8.145  0.00  0.00    -0.306 N 
ATOM     33  CA  VAL d   1       3.316   0.470  -8.577  0.00  0.00     0.065 C 
ATOM     34  H   VAL d   1       5.429   0.360  -8.758  0.00  0.00     0.149 HD
ATOM     35  HA  VAL d   1       2.738   0.855  -7.737  0.00  0.00     0.056 H 
ATOM     36  C   VAL d   1       2.694  -0.811  -9.070  0.00  0.00     0.062 C 
ATOM     37  O   VAL d   1       3.335  -1.836  -9.062  0.00  0.00    -0.548 OA
ATOM     38  OXT VAL d   1       1.429  -0.814  -9.519  0.00  0.00    -0.548 OA
BRANCH  33  39
ATOM     39  CB  VAL d   1       3.323   1.501  -9.707  0.00  0.00    -0.023 C 
ATOM     40  HB  VAL d   1       2.301   1.689 -10.034  0.00  0.00     0.032 H 
BRANCH  39  41
ATOM     41  CG1 VAL d   1       3.946   2.805  -9.205  0.00  0.00    -0.061 C 
ATOM     42 1HG1 VAL d   1       4.962   2.895  -9.591  0.00  0.00     0.023 H 
ATOM     43 2HG1 VAL d   1       3.349   3.650  -9.549  0.00  0.00     0.023 H 
ATOM     44 3HG1 VAL d   1       3.971   2.798  -8.114  0.00  0.00     0.023 H 
ENDBRANCH  39  41
BRANCH  39  45
ATOM     45  CG2 VAL d   1       4.143   0.965 -10.883  0.00  0.00    -0.061 C 
ATOM     46 1HG2 VAL d   1       5.187   0.868 -10.584  0.00  0.00     0.023 H 
ATOM     47 2HG2 VAL d   1       3.758  -0.010 -11.181  0.00  0.00     0.023 H 
ATOM     48 3HG2 VAL d   1       4.070   1.657 -11.723  0.00  0.00     0.023 H 
ENDBRANCH  39  45
ENDBRANCH  33  39
ENDBRANCH  27  30
ENDBRANCH  25  27
ENDBRANCH  20  23
ENDBRANCH  17  20
ENDBRANCH  11  17
BRANCH   1  49
ATOM     49  C   UNK d   0       9.570   4.669  -3.113  0.00  0.00    -0.039 C 
ATOM     50  H   UNK d   0      10.455   4.199  -2.684  0.00  0.00     0.028 H 
ATOM     51  H   UNK d   0       9.583   5.737  -2.894  0.00  0.00     0.028 H 
ATOM     52  H   UNK d   0       8.675   4.220  -2.685  0.00  0.00     0.028 H 
ENDBRANCH   1  49
BRANCH  14  53
ATOM     53  C   UNK d   0      10.026  10.193  -4.510  0.00  0.00    -0.014 A 
ATOM     54  C   UNK d   0       8.937  10.971  -4.120  0.00  0.00    -0.054 A 
ATOM     55  C   UNK d   0       8.987  11.682  -2.939  0.00  0.00    -0.061 A 
ATOM     56  H   UNK d   0       8.055  11.017  -4.742  0.00  0.00     0.062 H 
ATOM     57  C   UNK d   0      10.116  11.623  -2.141  0.00  0.00    -0.062 A 
ATOM     58  H   UNK d   0       8.144  12.285  -2.637  0.00  0.00     0.062 H 
ATOM     59  C   UNK d   0      11.199  10.854  -2.522  0.00  0.00    -0.061 A 
ATOM     60  H   UNK d   0      10.150  12.183  -1.217  0.00  0.00     0.062 H 
ATOM     61  C   UNK d   0      11.159  10.133  -3.699  0.00  0.00    -0.054 A 
ATOM     62  H   UNK d   0      12.078  10.812  -1.895  0.00  0.00     0.062 H 
ATOM     63  H   UNK d   0      12.003   9.528  -3.993  0.00  0.00     0.062 H 
ENDBRANCH  14  53
BRANCH  13  64
ATOM     64  C   UNK d   0      10.150  11.386  -7.378  0.00  0.00    -0.006 C 
ATOM     65  H   UNK d   0       9.556  11.974  -6.680  0.00  0.00     0.031 H 
ATOM     66  H   UNK d   0      11.195  11.690  -7.312  0.00  0.00     0.031 H 
ATOM     67  H   UNK d   0       9.788  11.550  -8.393  0.00  0.00     0.031 H 
ENDBRANCH  13  64
TORSDOF 13
ENDMDL
