MODEL 1
REMARK VINA RESULT:      -5.1      0.000      0.000
REMARK  1 active torsions:
REMARK  status: ('A' for Active; 'I' for Inactive)
REMARK    1  A    between atoms: C_4  and  C_10 
ROOT
ATOM      1  C   LIG d   1       7.244  -2.559  -3.923  0.00  0.00    -0.043 A 
ATOM      2  C   LIG d   1       6.667  -1.538  -3.187  0.00  0.00    -0.049 A 
ATOM      3  C   LIG d   1       5.280  -1.416  -3.211  0.00  0.00     0.029 A 
ATOM      4  C   LIG d   1       4.317  -0.493  -2.583  0.00  0.00     0.041 A 
ATOM      5  C   LIG d   1       3.067  -0.901  -3.001  0.00  0.00     0.014 A 
ATOM      6  N   LIG d   1       3.191  -1.974  -3.814  0.00  0.00    -0.345 N 
ATOM      7  C   LIG d   1       4.516  -2.320  -3.968  0.00  0.00     0.139 A 
ATOM      8  N   LIG d   1       5.122  -3.281  -4.653  0.00  0.00    -0.237 NA
ATOM      9  C   LIG d   1       6.431  -3.415  -4.647  0.00  0.00     0.030 A 
ATOM     10  H   LIG d   1       8.317  -2.684  -3.934  0.00  0.00     0.063 H 
ATOM     11  H   LIG d   1       7.275  -0.855  -2.612  0.00  0.00     0.062 H 
ATOM     12  H   LIG d   1       2.135  -0.434  -2.721  0.00  0.00     0.081 H 
ATOM     13  H   LIG d   1       6.883  -4.212  -5.220  0.00  0.00     0.083 H 
ATOM     14  H   LIG d   1       2.448  -2.438  -4.231  0.00  0.00     0.167 HD
ENDROOT
BRANCH   4  15
ATOM     15  C   LIG d   1       4.615   0.594  -1.724  0.00  0.00     0.152 C 
ATOM     16  O   LIG d   1       5.358   1.478  -2.098  0.00  0.00    -0.296 OA
ATOM     17  H   LIG d   1       4.182   0.635  -0.735  0.00  0.00     0.108 H 
ENDBRANCH   4  15
TORSDOF 1
ENDMDL
MODEL 2
REMARK VINA RESULT:      -4.9      2.696      4.065
REMARK  1 active torsions:
REMARK  status: ('A' for Active; 'I' for Inactive)
REMARK    1  A    between atoms: C_4  and  C_10 
ROOT
ATOM      1  C   LIG d   1       4.341   0.116  -1.600  0.00  0.00    -0.043 A 
ATOM      2  C   LIG d   1       4.606  -1.062  -2.279  0.00  0.00    -0.049 A 
ATOM      3  C   LIG d   1       4.492  -1.058  -3.667  0.00  0.00     0.029 A 
ATOM      4  C   LIG d   1       4.683  -2.074  -4.717  0.00  0.00     0.041 A 
ATOM      5  C   LIG d   1       4.415  -1.443  -5.914  0.00  0.00     0.014 A 
ATOM      6  N   LIG d   1       4.084  -0.153  -5.680  0.00  0.00    -0.345 N 
ATOM      7  C   LIG d   1       4.118   0.123  -4.330  0.00  0.00     0.139 A 
ATOM      8  N   LIG d   1       3.878   1.224  -3.629  0.00  0.00    -0.237 NA
ATOM      9  C   LIG d   1       3.978   1.244  -2.317  0.00  0.00     0.030 A 
ATOM     10  H   LIG d   1       4.414   0.153  -0.523  0.00  0.00     0.063 H 
ATOM     11  H   LIG d   1       4.892  -1.957  -1.747  0.00  0.00     0.062 H 
ATOM     12  H   LIG d   1       4.462  -1.908  -6.887  0.00  0.00     0.081 H 
ATOM     13  H   LIG d   1       3.772   2.162  -1.786  0.00  0.00     0.083 H 
ATOM     14  H   LIG d   1       3.854   0.491  -6.368  0.00  0.00     0.167 HD
ENDROOT
BRANCH   4  15
ATOM     15  C   LIG d   1       5.065  -3.427  -4.535  0.00  0.00     0.152 C 
ATOM     16  O   LIG d   1       4.335  -4.320  -4.912  0.00  0.00    -0.296 OA
ATOM     17  H   LIG d   1       6.006  -3.662  -4.060  0.00  0.00     0.108 H 
ENDBRANCH   4  15
TORSDOF 1
ENDMDL
MODEL 3
REMARK VINA RESULT:      -4.8      2.049      3.689
REMARK  1 active torsions:
REMARK  status: ('A' for Active; 'I' for Inactive)
REMARK    1  A    between atoms: C_4  and  C_10 
ROOT
ATOM      1  C   LIG d   1       4.691   1.162  -2.250  0.00  0.00    -0.043 A 
ATOM      2  C   LIG d   1       5.648   0.230  -2.616  0.00  0.00    -0.049 A 
ATOM      3  C   LIG d   1       5.217  -0.948  -3.221  0.00  0.00     0.029 A 
ATOM      4  C   LIG d   1       5.900  -2.147  -3.739  0.00  0.00     0.041 A 
ATOM      5  C   LIG d   1       4.908  -2.975  -4.222  0.00  0.00     0.014 A 
ATOM      6  N   LIG d   1       3.703  -2.387  -4.043  0.00  0.00    -0.345 N 
ATOM      7  C   LIG d   1       3.845  -1.157  -3.439  0.00  0.00     0.139 A 
ATOM      8  N   LIG d   1       2.971  -0.229  -3.068  0.00  0.00    -0.237 NA
ATOM      9  C   LIG d   1       3.354   0.892  -2.495  0.00  0.00     0.030 A 
ATOM     10  H   LIG d   1       4.983   2.086  -1.775  0.00  0.00     0.063 H 
ATOM     11  H   LIG d   1       6.697   0.413  -2.439  0.00  0.00     0.062 H 
ATOM     12  H   LIG d   1       5.069  -3.942  -4.674  0.00  0.00     0.081 H 
ATOM     13  H   LIG d   1       2.609   1.620  -2.209  0.00  0.00     0.083 H 
ATOM     14  H   LIG d   1       2.855  -2.778  -4.304  0.00  0.00     0.167 HD
ENDROOT
BRANCH   4  15
ATOM     15  C   LIG d   1       7.295  -2.399  -3.742  0.00  0.00     0.152 C 
ATOM     16  O   LIG d   1       7.718  -3.470  -4.127  0.00  0.00    -0.296 OA
ATOM     17  H   LIG d   1       7.981  -1.639  -3.400  0.00  0.00     0.108 H 
ENDBRANCH   4  15
TORSDOF 1
ENDMDL
MODEL 4
REMARK VINA RESULT:      -4.7      2.874      4.397
REMARK  1 active torsions:
REMARK  status: ('A' for Active; 'I' for Inactive)
REMARK    1  A    between atoms: C_4  and  C_10 
ROOT
ATOM      1  C   LIG d   1       4.334  -0.642  -1.828  0.00  0.00    -0.043 A 
ATOM      2  C   LIG d   1       5.263  -1.307  -2.611  0.00  0.00    -0.049 A 
ATOM      3  C   LIG d   1       6.194  -0.546  -3.312  0.00  0.00     0.029 A 
ATOM      4  C   LIG d   1       7.309  -0.865  -4.222  0.00  0.00     0.041 A 
ATOM      5  C   LIG d   1       7.860   0.343  -4.593  0.00  0.00     0.014 A 
ATOM      6  N   LIG d   1       7.185   1.350  -3.993  0.00  0.00    -0.345 N 
ATOM      7  C   LIG d   1       6.167   0.855  -3.207  0.00  0.00     0.139 A 
ATOM      8  N   LIG d   1       5.254   1.440  -2.441  0.00  0.00    -0.237 NA
ATOM      9  C   LIG d   1       4.364   0.741  -1.770  0.00  0.00     0.030 A 
ATOM     10  H   LIG d   1       3.592  -1.197  -1.272  0.00  0.00     0.063 H 
ATOM     11  H   LIG d   1       5.265  -2.386  -2.675  0.00  0.00     0.062 H 
ATOM     12  H   LIG d   1       8.701   0.466  -5.258  0.00  0.00     0.081 H 
ATOM     13  H   LIG d   1       3.639   1.259  -1.159  0.00  0.00     0.083 H 
ATOM     14  H   LIG d   1       7.390   2.292  -4.100  0.00  0.00     0.167 HD
ENDROOT
BRANCH   4  15
ATOM     15  C   LIG d   1       7.729  -2.155  -4.634  0.00  0.00     0.152 C 
ATOM     16  O   LIG d   1       8.107  -2.962  -3.810  0.00  0.00    -0.296 OA
ATOM     17  H   LIG d   1       7.714  -2.419  -5.681  0.00  0.00     0.108 H 
ENDBRANCH   4  15
TORSDOF 1
ENDMDL
MODEL 5
REMARK VINA RESULT:      -4.6      2.832      3.345
REMARK  1 active torsions:
REMARK  status: ('A' for Active; 'I' for Inactive)
REMARK    1  A    between atoms: C_4  and  C_10 
ROOT
ATOM      1  C   LIG d   1       7.873  -0.318  -4.404  0.00  0.00    -0.043 A 
ATOM      2  C   LIG d   1       6.816  -1.061  -3.908  0.00  0.00    -0.049 A 
ATOM      3  C   LIG d   1       5.815  -0.391  -3.208  0.00  0.00     0.029 A 
ATOM      4  C   LIG d   1       4.567  -0.810  -2.546  0.00  0.00     0.041 A 
ATOM      5  C   LIG d   1       4.006   0.337  -2.025  0.00  0.00     0.014 A 
ATOM      6  N   LIG d   1       4.796   1.397  -2.312  0.00  0.00    -0.345 N 
ATOM      7  C   LIG d   1       5.904   0.999  -3.029  0.00  0.00     0.139 A 
ATOM      8  N   LIG d   1       6.940   1.662  -3.527  0.00  0.00    -0.237 NA
ATOM      9  C   LIG d   1       7.898   1.051  -4.191  0.00  0.00     0.030 A 
ATOM     10  H   LIG d   1       8.672  -0.800  -4.948  0.00  0.00     0.063 H 
ATOM     11  H   LIG d   1       6.769  -2.130  -4.059  0.00  0.00     0.062 H 
ATOM     12  H   LIG d   1       3.079   0.383  -1.474  0.00  0.00     0.081 H 
ATOM     13  H   LIG d   1       8.723   1.630  -4.579  0.00  0.00     0.083 H 
ATOM     14  H   LIG d   1       4.609   2.311  -2.051  0.00  0.00     0.167 HD
ENDROOT
BRANCH   4  15
ATOM     15  C   LIG d   1       4.047  -2.126  -2.461  0.00  0.00     0.152 C 
ATOM     16  O   LIG d   1       3.761  -2.732  -3.473  0.00  0.00    -0.296 OA
ATOM     17  H   LIG d   1       3.905  -2.589  -1.496  0.00  0.00     0.108 H 
ENDBRANCH   4  15
TORSDOF 1
ENDMDL
MODEL 6
REMARK VINA RESULT:      -4.6      2.402      3.770
REMARK  1 active torsions:
REMARK  status: ('A' for Active; 'I' for Inactive)
REMARK    1  A    between atoms: C_4  and  C_10 
ROOT
ATOM      1  C   LIG d   1       4.282   0.351  -1.814  0.00  0.00    -0.043 A 
ATOM      2  C   LIG d   1       5.297   1.060  -2.435  0.00  0.00    -0.049 A 
ATOM      3  C   LIG d   1       6.232   0.347  -3.182  0.00  0.00     0.029 A 
ATOM      4  C   LIG d   1       7.421   0.721  -3.968  0.00  0.00     0.041 A 
ATOM      5  C   LIG d   1       7.930  -0.455  -4.476  0.00  0.00     0.014 A 
ATOM      6  N   LIG d   1       7.162  -1.492  -4.071  0.00  0.00    -0.345 N 
ATOM      7  C   LIG d   1       6.121  -1.050  -3.284  0.00  0.00     0.139 A 
ATOM      8  N   LIG d   1       5.127  -1.677  -2.669  0.00  0.00    -0.237 NA
ATOM      9  C   LIG d   1       4.232  -1.026  -1.957  0.00  0.00     0.030 A 
ATOM     10  H   LIG d   1       3.540   0.866  -1.223  0.00  0.00     0.063 H 
ATOM     11  H   LIG d   1       5.362   2.134  -2.343  0.00  0.00     0.062 H 
ATOM     12  H   LIG d   1       8.807  -0.536  -5.101  0.00  0.00     0.081 H 
ATOM     13  H   LIG d   1       3.440  -1.577  -1.472  0.00  0.00     0.083 H 
ATOM     14  H   LIG d   1       7.321  -2.420  -4.303  0.00  0.00     0.167 HD
ENDROOT
BRANCH   4  15
ATOM     15  C   LIG d   1       7.938   2.027  -4.163  0.00  0.00     0.152 C 
ATOM     16  O   LIG d   1       8.027   2.483  -5.284  0.00  0.00    -0.296 OA
ATOM     17  H   LIG d   1       8.253   2.615  -3.314  0.00  0.00     0.108 H 
ENDBRANCH   4  15
TORSDOF 1
ENDMDL
MODEL 7
REMARK VINA RESULT:      -4.5      2.708      3.998
REMARK  1 active torsions:
REMARK  status: ('A' for Active; 'I' for Inactive)
REMARK    1  A    between atoms: C_4  and  C_10 
ROOT
ATOM      1  C   LIG d   1       3.619   0.893  -2.313  0.00  0.00    -0.043 A 
ATOM      2  C   LIG d   1       3.260   0.899  -3.650  0.00  0.00    -0.049 A 
ATOM      3  C   LIG d   1       3.826  -0.062  -4.485  0.00  0.00     0.029 A 
ATOM      4  C   LIG d   1       3.705  -0.379  -5.919  0.00  0.00     0.041 A 
ATOM      5  C   LIG d   1       4.531  -1.460  -6.144  0.00  0.00     0.014 A 
ATOM      6  N   LIG d   1       5.131  -1.818  -4.986  0.00  0.00    -0.345 N 
ATOM      7  C   LIG d   1       4.732  -0.997  -3.954  0.00  0.00     0.139 A 
ATOM      8  N   LIG d   1       5.039  -0.956  -2.664  0.00  0.00    -0.237 NA
ATOM      9  C   LIG d   1       4.517  -0.057  -1.856  0.00  0.00     0.030 A 
ATOM     10  H   LIG d   1       3.206   1.624  -1.634  0.00  0.00     0.063 H 
ATOM     11  H   LIG d   1       2.562   1.627  -4.035  0.00  0.00     0.062 H 
ATOM     12  H   LIG d   1       4.676  -1.945  -7.097  0.00  0.00     0.081 H 
ATOM     13  H   LIG d   1       4.796  -0.061  -0.813  0.00  0.00     0.083 H 
ATOM     14  H   LIG d   1       5.756  -2.554  -4.894  0.00  0.00     0.167 HD
ENDROOT
BRANCH   4  15
ATOM     15  C   LIG d   1       2.902   0.293  -6.875  0.00  0.00     0.152 C 
ATOM     16  O   LIG d   1       3.307   1.308  -7.402  0.00  0.00    -0.296 OA
ATOM     17  H   LIG d   1       1.930  -0.099  -7.134  0.00  0.00     0.108 H 
ENDBRANCH   4  15
TORSDOF 1
ENDMDL
MODEL 8
REMARK VINA RESULT:      -4.2      7.685      8.470
REMARK  1 active torsions:
REMARK  status: ('A' for Active; 'I' for Inactive)
REMARK    1  A    between atoms: C_4  and  C_10 
ROOT
ATOM      1  C   LIG d   1       3.005   1.898  -8.515  0.00  0.00    -0.043 A 
ATOM      2  C   LIG d   1       2.374   0.818  -9.109  0.00  0.00    -0.049 A 
ATOM      3  C   LIG d   1       2.893   0.333 -10.307  0.00  0.00     0.029 A 
ATOM      4  C   LIG d   1       2.521  -0.762 -11.221  0.00  0.00     0.041 A 
ATOM      5  C   LIG d   1       3.440  -0.732 -12.249  0.00  0.00     0.014 A 
ATOM      6  N   LIG d   1       4.321   0.273 -12.038  0.00  0.00    -0.345 N 
ATOM      7  C   LIG d   1       4.026   0.944 -10.871  0.00  0.00     0.139 A 
ATOM      8  N   LIG d   1       4.591   1.976 -10.258  0.00  0.00    -0.237 NA
ATOM      9  C   LIG d   1       4.119   2.452  -9.125  0.00  0.00     0.030 A 
ATOM     10  H   LIG d   1       2.631   2.306  -7.588  0.00  0.00     0.063 H 
ATOM     11  H   LIG d   1       1.504   0.365  -8.656  0.00  0.00     0.062 H 
ATOM     12  H   LIG d   1       3.453  -1.406 -13.092  0.00  0.00     0.081 H 
ATOM     13  H   LIG d   1       4.610   3.294  -8.661  0.00  0.00     0.083 H 
ATOM     14  H   LIG d   1       5.060   0.490 -12.627  0.00  0.00     0.167 HD
ENDROOT
BRANCH   4  15
ATOM     15  C   LIG d   1       1.439  -1.665 -11.073  0.00  0.00     0.152 C 
ATOM     16  O   LIG d   1       1.348  -2.345 -10.072  0.00  0.00    -0.296 OA
ATOM     17  H   LIG d   1       0.694  -1.747 -11.851  0.00  0.00     0.108 H 
ENDBRANCH   4  15
TORSDOF 1
ENDMDL
MODEL 9
REMARK VINA RESULT:      -4.1      8.025      8.876
REMARK  1 active torsions:
REMARK  status: ('A' for Active; 'I' for Inactive)
REMARK    1  A    between atoms: C_4  and  C_10 
ROOT
ATOM      1  C   LIG d   1       9.524   4.912  -4.799  0.00  0.00    -0.043 A 
ATOM      2  C   LIG d   1       9.427   5.913  -3.847  0.00  0.00    -0.049 A 
ATOM      3  C   LIG d   1      10.005   5.690  -2.600  0.00  0.00     0.029 A 
ATOM      4  C   LIG d   1      10.114   6.481  -1.361  0.00  0.00     0.041 A 
ATOM      5  C   LIG d   1      10.815   5.698  -0.467  0.00  0.00     0.014 A 
ATOM      6  N   LIG d   1      11.134   4.521  -1.052  0.00  0.00    -0.345 N 
ATOM      7  C   LIG d   1      10.661   4.474  -2.345  0.00  0.00     0.139 A 
ATOM      8  N   LIG d   1      10.725   3.550  -3.295  0.00  0.00    -0.237 NA
ATOM      9  C   LIG d   1      10.186   3.737  -4.481  0.00  0.00     0.030 A 
ATOM     10  H   LIG d   1       9.086   5.044  -5.777  0.00  0.00     0.063 H 
ATOM     11  H   LIG d   1       8.918   6.840  -4.066  0.00  0.00     0.062 H 
ATOM     12  H   LIG d   1      11.070   5.982   0.543  0.00  0.00     0.081 H 
ATOM     13  H   LIG d   1      10.262   2.957  -5.224  0.00  0.00     0.083 H 
ATOM     14  H   LIG d   1      11.627   3.807  -0.620  0.00  0.00     0.167 HD
ENDROOT
BRANCH   4  15
ATOM     15  C   LIG d   1       9.603   7.783  -1.133  0.00  0.00     0.152 C 
ATOM     16  O   LIG d   1       8.429   7.936  -0.863  0.00  0.00    -0.296 OA
ATOM     17  H   LIG d   1      10.257   8.639  -1.200  0.00  0.00     0.108 H 
ENDBRANCH   4  15
TORSDOF 1
ENDMDL
