MODEL 1
REMARK VINA RESULT:      -5.1      0.000      0.000
REMARK  6 active torsions:
REMARK  status: ('A' for Active; 'I' for Inactive)
REMARK    1  A    between atoms: C_1  and  C_2 
REMARK    2  A    between atoms: C_2  and  C_12 
REMARK    3  A    between atoms: C_5  and  C_8 
REMARK    4  A    between atoms: C_8  and  C_9 
REMARK    5  A    between atoms: C_8  and  C_10 
REMARK    6  A    between atoms: C_8  and  O_11 
ROOT
ATOM      1  C   LIG d   1       3.486   0.005  -3.573  0.00  0.00     0.085 C 
ATOM      2  C   LIG d   1       3.047  -1.271  -2.829  0.00  0.00    -0.018 C 
ATOM      3  C   LIG d   1       4.147  -2.306  -3.169  0.00  0.00    -0.021 C 
ATOM      4  C   LIG d   1       4.768  -1.709  -4.458  0.00  0.00     0.088 C 
ATOM      5  H   LIG d   1       4.164  -1.965  -5.329  0.00  0.00     0.062 H 
ATOM      6  O   LIG d   1       4.737  -0.286  -4.219  0.00  0.00    -0.364 OA
ATOM      7  H   LIG d   1       2.078  -1.611  -3.194  0.00  0.00     0.030 H 
ATOM      8  H   LIG d   1       3.008  -1.095  -1.754  0.00  0.00     0.030 H 
ATOM      9  H   LIG d   1       3.712  -3.286  -3.365  0.00  0.00     0.029 H 
ATOM     10  H   LIG d   1       4.887  -2.363  -2.371  0.00  0.00     0.029 H 
ENDROOT
BRANCH   4  11
ATOM     11  C   LIG d   1       6.207  -2.194  -4.642  0.00  0.00     0.086 C 
BRANCH  11  12
ATOM     12  C   LIG d   1       7.003  -1.922  -3.364  0.00  0.00    -0.034 C 
ATOM     13  H   LIG d   1       7.074  -0.847  -3.202  0.00  0.00     0.026 H 
ATOM     14  H   LIG d   1       6.498  -2.385  -2.516  0.00  0.00     0.026 H 
ATOM     15  H   LIG d   1       8.004  -2.342  -3.463  0.00  0.00     0.026 H 
ENDBRANCH  11  12
BRANCH  11  16
ATOM     16  C   LIG d   1       6.206  -3.696  -4.933  0.00  0.00    -0.034 C 
ATOM     17  H   LIG d   1       5.242  -4.120  -4.653  0.00  0.00     0.026 H 
ATOM     18  H   LIG d   1       6.379  -3.859  -5.997  0.00  0.00     0.026 H 
ATOM     19  H   LIG d   1       6.996  -4.178  -4.358  0.00  0.00     0.026 H 
ENDBRANCH  11  16
BRANCH  11  20
ATOM     20  O   LIG d   1       6.808  -1.497  -5.736  0.00  0.00    -0.387 OA
ATOM     21  H   LIG d   1       6.939  -0.553  -5.576  0.00  0.00     0.210 HD
ENDBRANCH  11  20
ENDBRANCH   4  11
BRANCH   1  22
ATOM     22  C   LIG d   1       2.437   0.384  -4.620  0.00  0.00    -0.032 C 
ATOM     23  H   LIG d   1       2.423  -0.367  -5.410  0.00  0.00     0.026 H 
ATOM     24  H   LIG d   1       1.455   0.433  -4.149  0.00  0.00     0.026 H 
ATOM     25  H   LIG d   1       2.684   1.356  -5.047  0.00  0.00     0.026 H 
ENDBRANCH   1  22
BRANCH   1  26
ATOM     26  C   LIG d   1       3.665   1.134  -2.592  0.00  0.00    -0.060 C 
ATOM     27  C   LIG d   1       4.552   1.033  -1.632  0.00  0.00    -0.100 C 
ATOM     28  H   LIG d   1       4.681   1.842  -0.928  0.00  0.00     0.053 H 
ATOM     29  H   LIG d   1       5.154   0.141  -1.544  0.00  0.00     0.053 H 
ATOM     30  H   LIG d   1       3.064   2.026  -2.679  0.00  0.00     0.059 H 
ENDBRANCH   1  26
TORSDOF 6
ENDMDL
MODEL 2
REMARK VINA RESULT:      -5.0      1.814      2.828
REMARK  6 active torsions:
REMARK  status: ('A' for Active; 'I' for Inactive)
REMARK    1  A    between atoms: C_1  and  C_2 
REMARK    2  A    between atoms: C_2  and  C_12 
REMARK    3  A    between atoms: C_5  and  C_8 
REMARK    4  A    between atoms: C_8  and  C_9 
REMARK    5  A    between atoms: C_8  and  C_10 
REMARK    6  A    between atoms: C_8  and  O_11 
ROOT
ATOM      1  C   LIG d   1       3.829  -0.719  -3.030  0.00  0.00     0.085 C 
ATOM      2  C   LIG d   1       4.126   0.418  -2.033  0.00  0.00    -0.018 C 
ATOM      3  C   LIG d   1       5.464   1.017  -2.528  0.00  0.00    -0.021 C 
ATOM      4  C   LIG d   1       6.045  -0.143  -3.378  0.00  0.00     0.088 C 
ATOM      5  H   LIG d   1       6.533  -0.880  -2.740  0.00  0.00     0.062 H 
ATOM      6  O   LIG d   1       4.879  -0.712  -4.011  0.00  0.00    -0.364 OA
ATOM      7  H   LIG d   1       4.236   0.021  -1.023  0.00  0.00     0.030 H 
ATOM      8  H   LIG d   1       3.337   1.169  -2.062  0.00  0.00     0.030 H 
ATOM      9  H   LIG d   1       6.120   1.249  -1.690  0.00  0.00     0.029 H 
ATOM     10  H   LIG d   1       5.292   1.900  -3.142  0.00  0.00     0.029 H 
ENDROOT
BRANCH   4  11
ATOM     11  C   LIG d   1       7.022   0.390  -4.428  0.00  0.00     0.086 C 
BRANCH  11  12
ATOM     12  C   LIG d   1       7.690   1.663  -3.902  0.00  0.00    -0.034 C 
ATOM     13  H   LIG d   1       8.565   1.891  -4.510  0.00  0.00     0.026 H 
ATOM     14  H   LIG d   1       6.984   2.492  -3.956  0.00  0.00     0.026 H 
ATOM     15  H   LIG d   1       7.995   1.512  -2.867  0.00  0.00     0.026 H 
ENDBRANCH  11  12
BRANCH  11  16
ATOM     16  C   LIG d   1       8.091  -0.667  -4.714  0.00  0.00    -0.034 C 
ATOM     17  H   LIG d   1       7.837  -1.589  -4.192  0.00  0.00     0.026 H 
ATOM     18  H   LIG d   1       8.136  -0.856  -5.786  0.00  0.00     0.026 H 
ATOM     19  H   LIG d   1       9.059  -0.307  -4.367  0.00  0.00     0.026 H 
ENDBRANCH  11  16
BRANCH  11  20
ATOM     20  O   LIG d   1       6.312   0.687  -5.632  0.00  0.00    -0.387 OA
ATOM     21  H   LIG d   1       6.582   0.151  -6.390  0.00  0.00     0.210 HD
ENDBRANCH  11  20
ENDBRANCH   4  11
BRANCH   1  22
ATOM     22  C   LIG d   1       3.812  -2.062  -2.297  0.00  0.00    -0.032 C 
ATOM     23  H   LIG d   1       4.831  -2.346  -2.034  0.00  0.00     0.026 H 
ATOM     24  H   LIG d   1       3.213  -1.974  -1.391  0.00  0.00     0.026 H 
ATOM     25  H   LIG d   1       3.378  -2.824  -2.946  0.00  0.00     0.026 H 
ENDBRANCH   1  22
BRANCH   1  26
ATOM     26  C   LIG d   1       2.500  -0.480  -3.698  0.00  0.00    -0.060 C 
ATOM     27  C   LIG d   1       2.413   0.356  -4.704  0.00  0.00    -0.100 C 
ATOM     28  H   LIG d   1       1.461   0.527  -5.183  0.00  0.00     0.053 H 
ATOM     29  H   LIG d   1       3.295   0.873  -5.054  0.00  0.00     0.053 H 
ATOM     30  H   LIG d   1       1.619  -0.997  -3.350  0.00  0.00     0.059 H 
ENDBRANCH   1  26
TORSDOF 6
ENDMDL
MODEL 3
REMARK VINA RESULT:      -4.8      1.730      3.022
REMARK  6 active torsions:
REMARK  status: ('A' for Active; 'I' for Inactive)
REMARK    1  A    between atoms: C_1  and  C_2 
REMARK    2  A    between atoms: C_2  and  C_12 
REMARK    3  A    between atoms: C_5  and  C_8 
REMARK    4  A    between atoms: C_8  and  C_9 
REMARK    5  A    between atoms: C_8  and  C_10 
REMARK    6  A    between atoms: C_8  and  O_11 
ROOT
ATOM      1  C   LIG d   1       4.470  -0.888  -2.894  0.00  0.00     0.085 C 
ATOM      2  C   LIG d   1       5.947  -1.156  -3.241  0.00  0.00    -0.018 C 
ATOM      3  C   LIG d   1       6.009  -1.001  -4.780  0.00  0.00    -0.021 C 
ATOM      4  C   LIG d   1       4.526  -1.205  -5.187  0.00  0.00     0.088 C 
ATOM      5  H   LIG d   1       4.284  -2.266  -5.236  0.00  0.00     0.062 H 
ATOM      6  O   LIG d   1       3.794  -0.565  -4.120  0.00  0.00    -0.364 OA
ATOM      7  H   LIG d   1       6.230  -2.167  -2.948  0.00  0.00     0.030 H 
ATOM      8  H   LIG d   1       6.594  -0.425  -2.758  0.00  0.00     0.030 H 
ATOM      9  H   LIG d   1       6.641  -1.770  -5.223  0.00  0.00     0.029 H 
ATOM     10  H   LIG d   1       6.355  -0.006  -5.058  0.00  0.00     0.029 H 
ENDROOT
BRANCH   4  11
ATOM     11  C   LIG d   1       4.233  -0.525  -6.526  0.00  0.00     0.086 C 
BRANCH  11  12
ATOM     12  C   LIG d   1       4.115  -1.586  -7.621  0.00  0.00    -0.034 C 
ATOM     13  H   LIG d   1       4.982  -2.246  -7.583  0.00  0.00     0.026 H 
ATOM     14  H   LIG d   1       3.207  -2.169  -7.466  0.00  0.00     0.026 H 
ATOM     15  H   LIG d   1       4.072  -1.099  -8.596  0.00  0.00     0.026 H 
ENDBRANCH  11  12
BRANCH  11  16
ATOM     16  C   LIG d   1       2.920   0.254  -6.425  0.00  0.00    -0.034 C 
ATOM     17  H   LIG d   1       3.135   1.308  -6.246  0.00  0.00     0.026 H 
ATOM     18  H   LIG d   1       2.364   0.150  -7.357  0.00  0.00     0.026 H 
ATOM     19  H   LIG d   1       2.325  -0.141  -5.602  0.00  0.00     0.026 H 
ENDBRANCH  11  16
BRANCH  11  20
ATOM     20  O   LIG d   1       5.297   0.375  -6.845  0.00  0.00    -0.387 OA
ATOM     21  H   LIG d   1       5.000   1.255  -7.113  0.00  0.00     0.210 HD
ENDBRANCH  11  20
ENDBRANCH   4  11
BRANCH   1  22
ATOM     22  C   LIG d   1       3.847  -2.138  -2.270  0.00  0.00    -0.032 C 
ATOM     23  H   LIG d   1       2.871  -1.889  -1.852  0.00  0.00     0.026 H 
ATOM     24  H   LIG d   1       3.729  -2.906  -3.035  0.00  0.00     0.026 H 
ATOM     25  H   LIG d   1       4.496  -2.512  -1.479  0.00  0.00     0.026 H 
ENDBRANCH   1  22
BRANCH   1  26
ATOM     26  C   LIG d   1       4.372   0.269  -1.933  0.00  0.00    -0.060 C 
ATOM     27  C   LIG d   1       3.754   1.367  -2.292  0.00  0.00    -0.100 C 
ATOM     28  H   LIG d   1       3.683   2.197  -1.604  0.00  0.00     0.053 H 
ATOM     29  H   LIG d   1       3.314   1.443  -3.276  0.00  0.00     0.053 H 
ATOM     30  H   LIG d   1       4.811   0.194  -0.950  0.00  0.00     0.059 H 
ENDBRANCH   1  26
TORSDOF 6
ENDMDL
MODEL 4
REMARK VINA RESULT:      -4.6      2.068      3.248
REMARK  6 active torsions:
REMARK  status: ('A' for Active; 'I' for Inactive)
REMARK    1  A    between atoms: C_1  and  C_2 
REMARK    2  A    between atoms: C_2  and  C_12 
REMARK    3  A    between atoms: C_5  and  C_8 
REMARK    4  A    between atoms: C_8  and  C_9 
REMARK    5  A    between atoms: C_8  and  C_10 
REMARK    6  A    between atoms: C_8  and  O_11 
ROOT
ATOM      1  C   LIG d   1       4.442  -0.089  -3.080  0.00  0.00     0.085 C 
ATOM      2  C   LIG d   1       3.037   0.518  -3.265  0.00  0.00    -0.018 C 
ATOM      3  C   LIG d   1       2.723   0.299  -4.765  0.00  0.00    -0.021 C 
ATOM      4  C   LIG d   1       4.139   0.106  -5.368  0.00  0.00     0.088 C 
ATOM      5  H   LIG d   1       4.617   1.070  -5.539  0.00  0.00     0.062 H 
ATOM      6  O   LIG d   1       4.841  -0.636  -4.348  0.00  0.00    -0.364 OA
ATOM      7  H   LIG d   1       3.047   1.582  -3.028  0.00  0.00     0.030 H 
ATOM      8  H   LIG d   1       2.309  -0.004  -2.642  0.00  0.00     0.030 H 
ATOM      9  H   LIG d   1       2.235   1.175  -5.192  0.00  0.00     0.029 H 
ATOM     10  H   LIG d   1       2.115  -0.593  -4.909  0.00  0.00     0.029 H 
ENDROOT
BRANCH   4  11
ATOM     11  C   LIG d   1       4.069  -0.698  -6.668  0.00  0.00     0.086 C 
BRANCH  11  12
ATOM     12  C   LIG d   1       2.891  -0.203  -7.510  0.00  0.00    -0.034 C 
ATOM     13  H   LIG d   1       2.411  -1.052  -7.997  0.00  0.00     0.026 H 
ATOM     14  H   LIG d   1       2.171   0.302  -6.866  0.00  0.00     0.026 H 
ATOM     15  H   LIG d   1       3.253   0.493  -8.267  0.00  0.00     0.026 H 
ENDBRANCH  11  12
BRANCH  11  16
ATOM     16  C   LIG d   1       5.371  -0.514  -7.451  0.00  0.00    -0.034 C 
ATOM     17  H   LIG d   1       6.099   0.004  -6.828  0.00  0.00     0.026 H 
ATOM     18  H   LIG d   1       5.763  -1.490  -7.736  0.00  0.00     0.026 H 
ATOM     19  H   LIG d   1       5.175   0.074  -8.347  0.00  0.00     0.026 H 
ENDBRANCH  11  16
BRANCH  11  20
ATOM     20  O   LIG d   1       3.889  -2.082  -6.362  0.00  0.00    -0.387 OA
ATOM     21  H   LIG d   1       3.528  -2.603  -7.093  0.00  0.00     0.210 HD
ENDBRANCH  11  20
ENDBRANCH   4  11
BRANCH   1  22
ATOM     22  C   LIG d   1       5.426   1.001  -2.651  0.00  0.00    -0.032 C 
ATOM     23  H   LIG d   1       6.362   0.541  -2.332  0.00  0.00     0.026 H 
ATOM     24  H   LIG d   1       5.618   1.669  -3.491  0.00  0.00     0.026 H 
ATOM     25  H   LIG d   1       5.001   1.570  -1.824  0.00  0.00     0.026 H 
ENDBRANCH   1  22
BRANCH   1  26
ATOM     26  C   LIG d   1       4.396  -1.179  -2.042  0.00  0.00    -0.060 C 
ATOM     27  C   LIG d   1       3.801  -2.316  -2.311  0.00  0.00    -0.100 C 
ATOM     28  H   LIG d   1       3.769  -3.098  -1.567  0.00  0.00     0.053 H 
ATOM     29  H   LIG d   1       3.344  -2.470  -3.277  0.00  0.00     0.053 H 
ATOM     30  H   LIG d   1       4.854  -1.026  -1.076  0.00  0.00     0.059 H 
ENDBRANCH   1  26
TORSDOF 6
ENDMDL
MODEL 5
REMARK VINA RESULT:      -4.3      1.895      3.852
REMARK  6 active torsions:
REMARK  status: ('A' for Active; 'I' for Inactive)
REMARK    1  A    between atoms: C_1  and  C_2 
REMARK    2  A    between atoms: C_2  and  C_12 
REMARK    3  A    between atoms: C_5  and  C_8 
REMARK    4  A    between atoms: C_8  and  C_9 
REMARK    5  A    between atoms: C_8  and  C_10 
REMARK    6  A    between atoms: C_8  and  O_11 
ROOT
ATOM      1  C   LIG d   1       5.075  -0.572  -6.072  0.00  0.00     0.085 C 
ATOM      2  C   LIG d   1       5.150  -2.088  -5.809  0.00  0.00    -0.018 C 
ATOM      3  C   LIG d   1       4.739  -2.236  -4.323  0.00  0.00    -0.021 C 
ATOM      4  C   LIG d   1       5.004  -0.812  -3.770  0.00  0.00     0.088 C 
ATOM      5  H   LIG d   1       6.060  -0.681  -3.535  0.00  0.00     0.062 H 
ATOM      6  O   LIG d   1       4.616   0.050  -4.861  0.00  0.00    -0.364 OA
ATOM      7  H   LIG d   1       6.167  -2.452  -5.961  0.00  0.00     0.030 H 
ATOM      8  H   LIG d   1       4.454  -2.625  -6.453  0.00  0.00     0.030 H 
ATOM      9  H   LIG d   1       5.365  -2.971  -3.818  0.00  0.00     0.029 H 
ATOM     10  H   LIG d   1       3.685  -2.498  -4.235  0.00  0.00     0.029 H 
ENDROOT
BRANCH   4  11
ATOM     11  C   LIG d   1       4.141  -0.541  -2.536  0.00  0.00     0.086 C 
BRANCH  11  12
ATOM     12  C   LIG d   1       4.497   0.830  -1.956  0.00  0.00    -0.034 C 
ATOM     13  H   LIG d   1       4.264   1.604  -2.687  0.00  0.00     0.026 H 
ATOM     14  H   LIG d   1       3.918   1.001  -1.048  0.00  0.00     0.026 H 
ATOM     15  H   LIG d   1       5.561   0.860  -1.720  0.00  0.00     0.026 H 
ENDBRANCH  11  12
BRANCH  11  16
ATOM     16  C   LIG d   1       2.663  -0.561  -2.932  0.00  0.00    -0.034 C 
ATOM     17  H   LIG d   1       2.532  -0.023  -3.871  0.00  0.00     0.026 H 
ATOM     18  H   LIG d   1       2.334  -1.593  -3.054  0.00  0.00     0.026 H 
ATOM     19  H   LIG d   1       2.072  -0.081  -2.153  0.00  0.00     0.026 H 
ENDBRANCH  11  16
BRANCH  11  20
ATOM     20  O   LIG d   1       4.385  -1.552  -1.554  0.00  0.00    -0.387 OA
ATOM     21  H   LIG d   1       3.693  -2.225  -1.504  0.00  0.00     0.210 HD
ENDBRANCH  11  20
ENDBRANCH   4  11
BRANCH   1  22
ATOM     22  C   LIG d   1       6.461  -0.038  -6.437  0.00  0.00    -0.032 C 
ATOM     23  H   LIG d   1       6.612  -0.123  -7.514  0.00  0.00     0.026 H 
ATOM     24  H   LIG d   1       6.538   1.008  -6.141  0.00  0.00     0.026 H 
ATOM     25  H   LIG d   1       7.223  -0.619  -5.917  0.00  0.00     0.026 H 
ENDBRANCH   1  22
BRANCH   1  26
ATOM     26  C   LIG d   1       4.105  -0.294  -7.191  0.00  0.00    -0.060 C 
ATOM     27  C   LIG d   1       2.922   0.202  -6.925  0.00  0.00    -0.100 C 
ATOM     28  H   LIG d   1       2.226   0.401  -7.727  0.00  0.00     0.053 H 
ATOM     29  H   LIG d   1       2.642   0.411  -5.903  0.00  0.00     0.053 H 
ATOM     30  H   LIG d   1       4.385  -0.503  -8.213  0.00  0.00     0.059 H 
ENDBRANCH   1  26
TORSDOF 6
ENDMDL
MODEL 6
REMARK VINA RESULT:      -4.3      1.872      4.267
REMARK  6 active torsions:
REMARK  status: ('A' for Active; 'I' for Inactive)
REMARK    1  A    between atoms: C_1  and  C_2 
REMARK    2  A    between atoms: C_2  and  C_12 
REMARK    3  A    between atoms: C_5  and  C_8 
REMARK    4  A    between atoms: C_8  and  C_9 
REMARK    5  A    between atoms: C_8  and  C_10 
REMARK    6  A    between atoms: C_8  and  O_11 
ROOT
ATOM      1  C   LIG d   1       6.759  -0.459  -4.810  0.00  0.00     0.085 C 
ATOM      2  C   LIG d   1       7.182   0.814  -4.053  0.00  0.00    -0.018 C 
ATOM      3  C   LIG d   1       6.009   1.086  -3.081  0.00  0.00    -0.021 C 
ATOM      4  C   LIG d   1       4.848   0.302  -3.746  0.00  0.00     0.088 C 
ATOM      5  H   LIG d   1       4.404   0.886  -4.553  0.00  0.00     0.062 H 
ATOM      6  O   LIG d   1       5.495  -0.877  -4.269  0.00  0.00    -0.364 OA
ATOM      7  H   LIG d   1       7.305   1.647  -4.745  0.00  0.00     0.030 H 
ATOM      8  H   LIG d   1       8.105   0.642  -3.499  0.00  0.00     0.030 H 
ATOM      9  H   LIG d   1       5.781   2.150  -3.034  0.00  0.00     0.029 H 
ATOM     10  H   LIG d   1       6.225   0.691  -2.089  0.00  0.00     0.029 H 
ENDROOT
BRANCH   4  11
ATOM     11  C   LIG d   1       3.787  -0.078  -2.712  0.00  0.00     0.086 C 
BRANCH  11  12
ATOM     12  C   LIG d   1       2.542  -0.605  -3.428  0.00  0.00    -0.034 C 
ATOM     13  H   LIG d   1       1.752   0.145  -3.381  0.00  0.00     0.026 H 
ATOM     14  H   LIG d   1       2.783  -0.813  -4.471  0.00  0.00     0.026 H 
ATOM     15  H   LIG d   1       2.203  -1.520  -2.943  0.00  0.00     0.026 H 
ENDBRANCH  11  12
BRANCH  11  16
ATOM     16  C   LIG d   1       4.343  -1.165  -1.788  0.00  0.00    -0.034 C 
ATOM     17  H   LIG d   1       5.337  -1.455  -2.126  0.00  0.00     0.026 H 
ATOM     18  H   LIG d   1       4.402  -0.779  -0.770  0.00  0.00     0.026 H 
ATOM     19  H   LIG d   1       3.683  -2.032  -1.810  0.00  0.00     0.026 H 
ENDBRANCH  11  16
BRANCH  11  20
ATOM     20  O   LIG d   1       3.442   1.073  -1.938  0.00  0.00    -0.387 OA
ATOM     21  H   LIG d   1       4.201   1.610  -1.673  0.00  0.00     0.210 HD
ENDBRANCH  11  20
ENDBRANCH   4  11
BRANCH   1  22
ATOM     22  C   LIG d   1       6.609  -0.152  -6.302  0.00  0.00    -0.032 C 
ATOM     23  H   LIG d   1       7.550   0.241  -6.688  0.00  0.00     0.026 H 
ATOM     24  H   LIG d   1       6.350  -1.065  -6.837  0.00  0.00     0.026 H 
ATOM     25  H   LIG d   1       5.821   0.589  -6.443  0.00  0.00     0.026 H 
ENDBRANCH   1  22
BRANCH   1  26
ATOM     26  C   LIG d   1       7.787  -1.541  -4.608  0.00  0.00    -0.060 C 
ATOM     27  C   LIG d   1       7.568  -2.500  -3.742  0.00  0.00    -0.100 C 
ATOM     28  H   LIG d   1       8.305  -3.276  -3.597  0.00  0.00     0.053 H 
ATOM     29  H   LIG d   1       6.650  -2.514  -3.173  0.00  0.00     0.053 H 
ATOM     30  H   LIG d   1       8.705  -1.528  -5.177  0.00  0.00     0.059 H 
ENDBRANCH   1  26
TORSDOF 6
ENDMDL
MODEL 7
REMARK VINA RESULT:      -4.3      2.452      3.684
REMARK  6 active torsions:
REMARK  status: ('A' for Active; 'I' for Inactive)
REMARK    1  A    between atoms: C_1  and  C_2 
REMARK    2  A    between atoms: C_2  and  C_12 
REMARK    3  A    between atoms: C_5  and  C_8 
REMARK    4  A    between atoms: C_8  and  C_9 
REMARK    5  A    between atoms: C_8  and  C_10 
REMARK    6  A    between atoms: C_8  and  O_11 
ROOT
ATOM      1  C   LIG d   1       4.775  -2.288  -3.866  0.00  0.00     0.085 C 
ATOM      2  C   LIG d   1       4.609  -1.445  -5.146  0.00  0.00    -0.018 C 
ATOM      3  C   LIG d   1       4.455  -2.495  -6.273  0.00  0.00    -0.021 C 
ATOM      4  C   LIG d   1       5.080  -3.759  -5.628  0.00  0.00     0.088 C 
ATOM      5  H   LIG d   1       6.166  -3.734  -5.708  0.00  0.00     0.062 H 
ATOM      6  O   LIG d   1       4.669  -3.670  -4.247  0.00  0.00    -0.364 OA
ATOM      7  H   LIG d   1       5.494  -0.831  -5.315  0.00  0.00     0.030 H 
ATOM      8  H   LIG d   1       3.719  -0.821  -5.081  0.00  0.00     0.030 H 
ATOM      9  H   LIG d   1       5.013  -2.196  -7.161  0.00  0.00     0.029 H 
ATOM     10  H   LIG d   1       3.405  -2.658  -6.512  0.00  0.00     0.029 H 
ENDROOT
BRANCH   4  11
ATOM     11  C   LIG d   1       4.523  -5.029  -6.275  0.00  0.00     0.086 C 
BRANCH  11  12
ATOM     12  C   LIG d   1       4.979  -5.100  -7.734  0.00  0.00    -0.034 C 
ATOM     13  H   LIG d   1       5.018  -4.094  -8.151  0.00  0.00     0.026 H 
ATOM     14  H   LIG d   1       5.970  -5.552  -7.783  0.00  0.00     0.026 H 
ATOM     15  H   LIG d   1       4.275  -5.704  -8.306  0.00  0.00     0.026 H 
ENDBRANCH  11  12
BRANCH  11  16
ATOM     16  C   LIG d   1       5.039  -6.255  -5.519  0.00  0.00    -0.034 C 
ATOM     17  H   LIG d   1       5.416  -5.947  -4.544  0.00  0.00     0.026 H 
ATOM     18  H   LIG d   1       4.225  -6.968  -5.386  0.00  0.00     0.026 H 
ATOM     19  H   LIG d   1       5.841  -6.722  -6.089  0.00  0.00     0.026 H 
ENDBRANCH  11  16
BRANCH  11  20
ATOM     20  O   LIG d   1       3.095  -5.003  -6.222  0.00  0.00    -0.387 OA
ATOM     21  H   LIG d   1       2.716  -5.564  -5.532  0.00  0.00     0.210 HD
ENDBRANCH  11  20
ENDBRANCH   4  11
BRANCH   1  22
ATOM     22  C   LIG d   1       6.147  -2.024  -3.243  0.00  0.00    -0.032 C 
ATOM     23  H   LIG d   1       6.919  -2.126  -4.007  0.00  0.00     0.026 H 
ATOM     24  H   LIG d   1       6.172  -1.014  -2.834  0.00  0.00     0.026 H 
ATOM     25  H   LIG d   1       6.328  -2.744  -2.445  0.00  0.00     0.026 H 
ENDBRANCH   1  22
BRANCH   1  26
ATOM     26  C   LIG d   1       3.688  -1.943  -2.882  0.00  0.00    -0.060 C 
ATOM     27  C   LIG d   1       2.901  -0.920  -3.107  0.00  0.00    -0.100 C 
ATOM     28  H   LIG d   1       2.121  -0.671  -2.402  0.00  0.00     0.053 H 
ATOM     29  H   LIG d   1       3.031  -0.324  -3.999  0.00  0.00     0.053 H 
ATOM     30  H   LIG d   1       3.556  -2.538  -1.990  0.00  0.00     0.059 H 
ENDBRANCH   1  26
TORSDOF 6
ENDMDL
MODEL 8
REMARK VINA RESULT:      -4.3      1.355      4.293
REMARK  6 active torsions:
REMARK  status: ('A' for Active; 'I' for Inactive)
REMARK    1  A    between atoms: C_1  and  C_2 
REMARK    2  A    between atoms: C_2  and  C_12 
REMARK    3  A    between atoms: C_5  and  C_8 
REMARK    4  A    between atoms: C_8  and  C_9 
REMARK    5  A    between atoms: C_8  and  C_10 
REMARK    6  A    between atoms: C_8  and  O_11 
ROOT
ATOM      1  C   LIG d   1       5.463  -2.125  -5.354  0.00  0.00     0.085 C 
ATOM      2  C   LIG d   1       6.278  -2.432  -4.083  0.00  0.00    -0.018 C 
ATOM      3  C   LIG d   1       5.699  -1.468  -3.018  0.00  0.00    -0.021 C 
ATOM      4  C   LIG d   1       5.033  -0.377  -3.896  0.00  0.00     0.088 C 
ATOM      5  H   LIG d   1       5.775   0.343  -4.242  0.00  0.00     0.062 H 
ATOM      6  O   LIG d   1       4.492  -1.123  -5.007  0.00  0.00    -0.364 OA
ATOM      7  H   LIG d   1       7.336  -2.226  -4.249  0.00  0.00     0.030 H 
ATOM      8  H   LIG d   1       6.136  -3.468  -3.777  0.00  0.00     0.030 H 
ATOM      9  H   LIG d   1       6.494  -1.042  -2.406  0.00  0.00     0.029 H 
ATOM     10  H   LIG d   1       4.959  -1.973  -2.398  0.00  0.00     0.029 H 
ENDROOT
BRANCH   4  11
ATOM     11  C   LIG d   1       3.916   0.330  -3.127  0.00  0.00     0.086 C 
BRANCH  11  12
ATOM     12  C   LIG d   1       2.752  -0.639  -2.912  0.00  0.00    -0.034 C 
ATOM     13  H   LIG d   1       2.662  -1.295  -3.777  0.00  0.00     0.026 H 
ATOM     14  H   LIG d   1       2.938  -1.238  -2.020  0.00  0.00     0.026 H 
ATOM     15  H   LIG d   1       1.828  -0.075  -2.784  0.00  0.00     0.026 H 
ENDBRANCH  11  12
BRANCH  11  16
ATOM     16  C   LIG d   1       4.448   0.799  -1.771  0.00  0.00    -0.034 C 
ATOM     17  H   LIG d   1       3.868   1.657  -1.430  0.00  0.00     0.026 H 
ATOM     18  H   LIG d   1       4.359  -0.011  -1.047  0.00  0.00     0.026 H 
ATOM     19  H   LIG d   1       5.495   1.083  -1.870  0.00  0.00     0.026 H 
ENDBRANCH  11  16
BRANCH  11  20
ATOM     20  O   LIG d   1       3.463   1.460  -3.877  0.00  0.00    -0.387 OA
ATOM     21  H   LIG d   1       3.797   2.307  -3.551  0.00  0.00     0.210 HD
ENDBRANCH  11  20
ENDBRANCH   4  11
BRANCH   1  22
ATOM     22  C   LIG d   1       6.389  -1.594  -6.450  0.00  0.00    -0.032 C 
ATOM     23  H   LIG d   1       6.791  -2.430  -7.023  0.00  0.00     0.026 H 
ATOM     24  H   LIG d   1       5.828  -0.935  -7.113  0.00  0.00     0.026 H 
ATOM     25  H   LIG d   1       7.209  -1.038  -5.995  0.00  0.00     0.026 H 
ENDBRANCH   1  22
BRANCH   1  26
ATOM     26  C   LIG d   1       4.765  -3.373  -5.829  0.00  0.00    -0.060 C 
ATOM     27  C   LIG d   1       5.001  -4.520  -5.240  0.00  0.00    -0.100 C 
ATOM     28  H   LIG d   1       4.502  -5.415  -5.580  0.00  0.00     0.053 H 
ATOM     29  H   LIG d   1       5.695  -4.570  -4.414  0.00  0.00     0.053 H 
ATOM     30  H   LIG d   1       4.071  -3.324  -6.654  0.00  0.00     0.059 H 
ENDBRANCH   1  26
TORSDOF 6
ENDMDL
MODEL 9
REMARK VINA RESULT:      -4.2      1.741      2.561
REMARK  6 active torsions:
REMARK  status: ('A' for Active; 'I' for Inactive)
REMARK    1  A    between atoms: C_1  and  C_2 
REMARK    2  A    between atoms: C_2  and  C_12 
REMARK    3  A    between atoms: C_5  and  C_8 
REMARK    4  A    between atoms: C_8  and  C_9 
REMARK    5  A    between atoms: C_8  and  C_10 
REMARK    6  A    between atoms: C_8  and  O_11 
ROOT
ATOM      1  C   LIG d   1       5.043  -0.204  -2.904  0.00  0.00     0.085 C 
ATOM      2  C   LIG d   1       4.395  -0.231  -4.302  0.00  0.00    -0.018 C 
ATOM      3  C   LIG d   1       5.523  -0.739  -5.233  0.00  0.00    -0.021 C 
ATOM      4  C   LIG d   1       6.795  -0.427  -4.403  0.00  0.00     0.088 C 
ATOM      5  H   LIG d   1       7.080   0.619  -4.515  0.00  0.00     0.062 H 
ATOM      6  O   LIG d   1       6.385  -0.699  -3.046  0.00  0.00    -0.364 OA
ATOM      7  H   LIG d   1       4.079   0.770  -4.596  0.00  0.00     0.030 H 
ATOM      8  H   LIG d   1       3.548  -0.918  -4.320  0.00  0.00     0.030 H 
ATOM      9  H   LIG d   1       5.528  -0.187  -6.173  0.00  0.00     0.029 H 
ATOM     10  H   LIG d   1       5.428  -1.809  -5.413  0.00  0.00     0.029 H 
ENDROOT
BRANCH   4  11
ATOM     11  C   LIG d   1       7.948  -1.345  -4.812  0.00  0.00     0.086 C 
BRANCH  11  12
ATOM     12  C   LIG d   1       7.877  -2.643  -4.005  0.00  0.00    -0.034 C 
ATOM     13  H   LIG d   1       8.824  -2.803  -3.490  0.00  0.00     0.026 H 
ATOM     14  H   LIG d   1       7.072  -2.572  -3.272  0.00  0.00     0.026 H 
ATOM     15  H   LIG d   1       7.682  -3.479  -4.677  0.00  0.00     0.026 H 
ENDBRANCH  11  12
BRANCH  11  16
ATOM     16  C   LIG d   1       7.840  -1.665  -6.305  0.00  0.00    -0.034 C 
ATOM     17  H   LIG d   1       8.704  -2.253  -6.613  0.00  0.00     0.026 H 
ATOM     18  H   LIG d   1       6.928  -2.234  -6.489  0.00  0.00     0.026 H 
ATOM     19  H   LIG d   1       7.809  -0.737  -6.873  0.00  0.00     0.026 H 
ENDBRANCH  11  16
BRANCH  11  20
ATOM     20  O   LIG d   1       9.192  -0.691  -4.554  0.00  0.00    -0.387 OA
ATOM     21  H   LIG d   1       9.262   0.190  -4.947  0.00  0.00     0.210 HD
ENDBRANCH  11  20
ENDBRANCH   4  11
BRANCH   1  22
ATOM     22  C   LIG d   1       5.071   1.230  -2.372  0.00  0.00    -0.032 C 
ATOM     23  H   LIG d   1       4.512   1.282  -1.437  0.00  0.00     0.026 H 
ATOM     24  H   LIG d   1       6.103   1.532  -2.196  0.00  0.00     0.026 H 
ATOM     25  H   LIG d   1       4.617   1.898  -3.104  0.00  0.00     0.026 H 
ENDBRANCH   1  22
BRANCH   1  26
ATOM     26  C   LIG d   1       4.266  -1.088  -1.963  0.00  0.00    -0.060 C 
ATOM     27  C   LIG d   1       3.788  -2.233  -2.383  0.00  0.00    -0.100 C 
ATOM     28  H   LIG d   1       3.231  -2.867  -1.709  0.00  0.00     0.053 H 
ATOM     29  H   LIG d   1       3.951  -2.544  -3.405  0.00  0.00     0.053 H 
ATOM     30  H   LIG d   1       4.103  -0.778  -0.941  0.00  0.00     0.059 H 
ENDBRANCH   1  26
TORSDOF 6
ENDMDL
MODEL 10
REMARK VINA RESULT:      -4.2      2.153      4.258
REMARK  6 active torsions:
REMARK  status: ('A' for Active; 'I' for Inactive)
REMARK    1  A    between atoms: C_1  and  C_2 
REMARK    2  A    between atoms: C_2  and  C_12 
REMARK    3  A    between atoms: C_5  and  C_8 
REMARK    4  A    between atoms: C_8  and  C_9 
REMARK    5  A    between atoms: C_8  and  C_10 
REMARK    6  A    between atoms: C_8  and  O_11 
ROOT
ATOM      1  C   LIG d   1       7.039   0.416  -4.523  0.00  0.00     0.085 C 
ATOM      2  C   LIG d   1       7.289  -0.958  -3.871  0.00  0.00    -0.018 C 
ATOM      3  C   LIG d   1       5.937  -1.314  -3.206  0.00  0.00    -0.021 C 
ATOM      4  C   LIG d   1       5.262   0.077  -3.077  0.00  0.00     0.088 C 
ATOM      5  H   LIG d   1       5.633   0.603  -2.197  0.00  0.00     0.062 H 
ATOM      6  O   LIG d   1       5.664   0.759  -4.284  0.00  0.00    -0.364 OA
ATOM      7  H   LIG d   1       8.076  -0.887  -3.120  0.00  0.00     0.030 H 
ATOM      8  H   LIG d   1       7.550  -1.700  -4.626  0.00  0.00     0.030 H 
ATOM      9  H   LIG d   1       6.092  -1.762  -2.225  0.00  0.00     0.029 H 
ATOM     10  H   LIG d   1       5.350  -1.972  -3.846  0.00  0.00     0.029 H 
ENDROOT
BRANCH   4  11
ATOM     11  C   LIG d   1       3.740  -0.062  -3.018  0.00  0.00     0.086 C 
BRANCH  11  12
ATOM     12  C   LIG d   1       3.148   0.223  -4.399  0.00  0.00    -0.034 C 
ATOM     13  H   LIG d   1       3.696   1.041  -4.867  0.00  0.00     0.026 H 
ATOM     14  H   LIG d   1       3.227  -0.670  -5.020  0.00  0.00     0.026 H 
ATOM     15  H   LIG d   1       2.099   0.501  -4.295  0.00  0.00     0.026 H 
ENDBRANCH  11  12
BRANCH  11  16
ATOM     16  C   LIG d   1       3.374  -1.485  -2.589  0.00  0.00    -0.034 C 
ATOM     17  H   LIG d   1       2.777  -1.447  -1.678  0.00  0.00     0.026 H 
ATOM     18  H   LIG d   1       2.800  -1.966  -3.381  0.00  0.00     0.026 H 
ATOM     19  H   LIG d   1       4.285  -2.054  -2.404  0.00  0.00     0.026 H 
ENDBRANCH  11  16
BRANCH  11  20
ATOM     20  O   LIG d   1       3.213   0.870  -2.071  0.00  0.00    -0.387 OA
ATOM     21  H   LIG d   1       3.739   0.950  -1.263  0.00  0.00     0.210 HD
ENDBRANCH  11  20
ENDBRANCH   4  11
BRANCH   1  22
ATOM     22  C   LIG d   1       7.955   1.466  -3.890  0.00  0.00    -0.032 C 
ATOM     23  H   LIG d   1       7.688   1.597  -2.841  0.00  0.00     0.026 H 
ATOM     24  H   LIG d   1       8.991   1.136  -3.963  0.00  0.00     0.026 H 
ATOM     25  H   LIG d   1       7.838   2.414  -4.416  0.00  0.00     0.026 H 
ENDBRANCH   1  22
BRANCH   1  26
ATOM     26  C   LIG d   1       7.298   0.333  -6.005  0.00  0.00    -0.060 C 
ATOM     27  C   LIG d   1       6.357  -0.094  -6.811  0.00  0.00    -0.100 C 
ATOM     28  H   LIG d   1       6.542  -0.153  -7.874  0.00  0.00     0.053 H 
ATOM     29  H   LIG d   1       5.397  -0.387  -6.413  0.00  0.00     0.053 H 
ATOM     30  H   LIG d   1       8.257   0.627  -6.404  0.00  0.00     0.059 H 
ENDBRANCH   1  26
TORSDOF 6
ENDMDL
