MODEL 1
REMARK VINA RESULT:      -6.0      0.000      0.000
REMARK  7 active torsions:
REMARK  status: ('A' for Active; 'I' for Inactive)
REMARK    1  A    between atoms: C_1  and  C_2 
REMARK    2  A    between atoms: C_2  and  O_3 
REMARK    3  A    between atoms: O_3  and  C_4 
REMARK    4  A    between atoms: C_4  and  C_6 
REMARK    5  A    between atoms: C_10  and  N_11 
REMARK    6  A    between atoms: N_13  and  C_16 
REMARK    7  A    between atoms: C_16  and  C_17 
ROOT
ATOM      1  C   LIG d   1       4.467  -0.887  -4.735  0.00  0.00     0.090 A 
ATOM      2  C   LIG d   1       4.135  -0.353  -6.045  0.00  0.00    -0.019 A 
ATOM      3  C   LIG d   1       5.147  -0.408  -6.938  0.00  0.00     0.010 A 
ATOM      4  S   LIG d   1       6.488  -1.144  -6.053  0.00  0.00    -0.077 SA
ATOM      5  C   LIG d   1       5.756  -1.372  -4.559  0.00  0.00     0.078 A 
ATOM      6  C   LIG d   1       5.099   0.060  -8.358  0.00  0.00     0.031 C 
ATOM      7  N   LIG d   1       3.686   0.257  -8.731  0.00  0.00    -0.293 N 
ATOM      8  C   LIG d   1       2.983   1.056  -7.717  0.00  0.00     0.004 C 
ATOM      9  C   LIG d   1       2.787   0.232  -6.440  0.00  0.00    -0.013 C 
ATOM     10  H   LIG d   1       5.639   1.004  -8.452  0.00  0.00     0.048 H 
ATOM     11  H   LIG d   1       5.551  -0.688  -9.009  0.00  0.00     0.048 H 
ATOM     12  H   LIG d   1       3.571   1.945  -7.487  0.00  0.00     0.043 H 
ATOM     13  H   LIG d   1       2.011   1.358  -8.105  0.00  0.00     0.043 H 
ATOM     14  H   LIG d   1       2.077  -0.573  -6.627  0.00  0.00     0.033 H 
ATOM     15  H   LIG d   1       2.416   0.874  -5.642  0.00  0.00     0.033 H 
ENDROOT
BRANCH   7  16
ATOM     16  C   LIG d   1       3.572   0.873 -10.059  0.00  0.00     0.024 C 
ATOM     17  H   LIG d   1       2.938   1.758  -9.996  0.00  0.00     0.048 H 
ATOM     18  H   LIG d   1       4.562   1.161 -10.413  0.00  0.00     0.048 H 
BRANCH  16  19
ATOM     19  C   LIG d   1       2.962  -0.114 -11.021  0.00  0.00    -0.033 A 
ATOM     20  C   LIG d   1       1.719  -0.660 -10.756  0.00  0.00    -0.057 A 
ATOM     21  C   LIG d   1       1.158  -1.561 -11.641  0.00  0.00    -0.061 A 
ATOM     22  H   LIG d   1       1.186  -0.378  -9.860  0.00  0.00     0.062 H 
ATOM     23  C   LIG d   1       1.844  -1.926 -12.785  0.00  0.00    -0.062 A 
ATOM     24  H   LIG d   1       0.186  -1.985 -11.436  0.00  0.00     0.062 H 
ATOM     25  C   LIG d   1       3.089  -1.384 -13.047  0.00  0.00    -0.061 A 
ATOM     26  H   LIG d   1       1.407  -2.632 -13.474  0.00  0.00     0.062 H 
ATOM     27  C   LIG d   1       3.648  -0.478 -12.164  0.00  0.00    -0.057 A 
ATOM     28  H   LIG d   1       3.623  -1.668 -13.940  0.00  0.00     0.062 H 
ATOM     29  H   LIG d   1       4.620  -0.056 -12.369  0.00  0.00     0.062 H 
ENDBRANCH  16  19
ENDBRANCH   7  16
BRANCH   1  30
ATOM     30  C   LIG d   1       3.488  -0.906  -3.649  0.00  0.00     0.342 C 
ATOM     31  O   LIG d   1       3.196  -1.958  -3.111  0.00  0.00    -0.245 OA
BRANCH  30  32
ATOM     32  O   LIG d   1       2.907   0.243  -3.244  0.00  0.00    -0.461 OA
BRANCH  32  33
ATOM     33  C   LIG d   1       3.777   1.313  -2.871  0.00  0.00     0.090 C 
ATOM     34  H   LIG d   1       3.188   2.207  -2.672  0.00  0.00     0.070 H 
ATOM     35  H   LIG d   1       4.477   1.513  -3.683  0.00  0.00     0.070 H 
BRANCH  33  36
ATOM     36  C   LIG d   1       4.555   0.924  -1.612  0.00  0.00    -0.031 C 
ATOM     37  H   LIG d   1       3.854   0.716  -0.803  0.00  0.00     0.026 H 
ATOM     38  H   LIG d   1       5.152   0.035  -1.814  0.00  0.00     0.026 H 
ATOM     39  H   LIG d   1       5.210   1.745  -1.322  0.00  0.00     0.026 H 
ENDBRANCH  33  36
ENDBRANCH  32  33
ENDBRANCH  30  32
ENDBRANCH   1  30
BRANCH   5  40
ATOM     40  N   LIG d   1       6.309  -1.919  -3.417  0.00  0.00    -0.352 N 
ATOM     41  H   LIG d   1       7.167  -1.603  -3.094  0.00  0.00     0.143 HD
ATOM     42  H   LIG d   1       5.838  -2.619  -2.938  0.00  0.00     0.143 HD
ENDBRANCH   5  40
TORSDOF 7
ENDMDL
MODEL 2
REMARK VINA RESULT:      -5.6      3.062      7.144
REMARK  7 active torsions:
REMARK  status: ('A' for Active; 'I' for Inactive)
REMARK    1  A    between atoms: C_1  and  C_2 
REMARK    2  A    between atoms: C_2  and  O_3 
REMARK    3  A    between atoms: O_3  and  C_4 
REMARK    4  A    between atoms: C_4  and  C_6 
REMARK    5  A    between atoms: C_10  and  N_11 
REMARK    6  A    between atoms: N_13  and  C_16 
REMARK    7  A    between atoms: C_16  and  C_17 
ROOT
ATOM      1  C   LIG d   1       4.878  -0.900 -10.050  0.00  0.00     0.090 A 
ATOM      2  C   LIG d   1       5.121  -1.188  -8.647  0.00  0.00    -0.019 A 
ATOM      3  C   LIG d   1       6.364  -1.648  -8.383  0.00  0.00     0.010 A 
ATOM      4  S   LIG d   1       7.171  -1.693  -9.955  0.00  0.00    -0.077 SA
ATOM      5  C   LIG d   1       5.925  -1.133 -10.933  0.00  0.00     0.078 A 
ATOM      6  C   LIG d   1       6.901  -2.022  -7.037  0.00  0.00     0.031 C 
ATOM      7  N   LIG d   1       5.992  -1.476  -6.011  0.00  0.00    -0.293 N 
ATOM      8  C   LIG d   1       4.595  -1.816  -6.315  0.00  0.00     0.004 C 
ATOM      9  C   LIG d   1       4.109  -1.011  -7.525  0.00  0.00    -0.013 C 
ATOM     10  H   LIG d   1       6.945  -3.108  -6.948  0.00  0.00     0.048 H 
ATOM     11  H   LIG d   1       7.898  -1.601  -6.908  0.00  0.00     0.048 H 
ATOM     12  H   LIG d   1       4.522  -2.881  -6.536  0.00  0.00     0.043 H 
ATOM     13  H   LIG d   1       3.971  -1.584  -5.452  0.00  0.00     0.043 H 
ATOM     14  H   LIG d   1       4.033   0.043  -7.260  0.00  0.00     0.033 H 
ATOM     15  H   LIG d   1       3.136  -1.381  -7.845  0.00  0.00     0.033 H 
ENDROOT
BRANCH   7  16
ATOM     16  C   LIG d   1       6.369  -1.945  -4.671  0.00  0.00     0.024 C 
ATOM     17  H   LIG d   1       6.017  -2.967  -4.531  0.00  0.00     0.048 H 
ATOM     18  H   LIG d   1       7.453  -1.917  -4.567  0.00  0.00     0.048 H 
BRANCH  16  19
ATOM     19  C   LIG d   1       5.742  -1.051  -3.631  0.00  0.00    -0.033 A 
ATOM     20  C   LIG d   1       4.935  -1.595  -2.649  0.00  0.00    -0.057 A 
ATOM     21  C   LIG d   1       4.365  -0.776  -1.693  0.00  0.00    -0.061 A 
ATOM     22  H   LIG d   1       4.756  -2.659  -2.625  0.00  0.00     0.062 H 
ATOM     23  C   LIG d   1       4.591   0.588  -1.726  0.00  0.00    -0.062 A 
ATOM     24  H   LIG d   1       3.738  -1.201  -0.922  0.00  0.00     0.062 H 
ATOM     25  C   LIG d   1       5.393   1.132  -2.712  0.00  0.00    -0.061 A 
ATOM     26  H   LIG d   1       4.143   1.228  -0.981  0.00  0.00     0.062 H 
ATOM     27  C   LIG d   1       5.968   0.312  -3.665  0.00  0.00    -0.057 A 
ATOM     28  H   LIG d   1       5.571   2.196  -2.737  0.00  0.00     0.062 H 
ATOM     29  H   LIG d   1       6.594   0.737  -4.436  0.00  0.00     0.062 H 
ENDBRANCH  16  19
ENDBRANCH   7  16
BRANCH   1  30
ATOM     30  C   LIG d   1       3.586  -0.395 -10.512  0.00  0.00     0.342 C 
ATOM     31  O   LIG d   1       2.606  -1.115 -10.483  0.00  0.00    -0.245 OA
BRANCH  30  32
ATOM     32  O   LIG d   1       3.481   0.869 -10.972  0.00  0.00    -0.461 OA
BRANCH  32  33
ATOM     33  C   LIG d   1       3.907   1.915 -10.096  0.00  0.00     0.090 C 
ATOM     34  H   LIG d   1       3.995   2.845 -10.657  0.00  0.00     0.070 H 
ATOM     35  H   LIG d   1       4.874   1.657  -9.664  0.00  0.00     0.070 H 
BRANCH  33  36
ATOM     36  C   LIG d   1       2.879   2.092  -8.976  0.00  0.00    -0.031 C 
ATOM     37  H   LIG d   1       2.268   1.192  -8.899  0.00  0.00     0.026 H 
ATOM     38  H   LIG d   1       3.396   2.263  -8.032  0.00  0.00     0.026 H 
ATOM     39  H   LIG d   1       2.241   2.946  -9.201  0.00  0.00     0.026 H 
ENDBRANCH  33  36
ENDBRANCH  32  33
ENDBRANCH  30  32
ENDBRANCH   1  30
BRANCH   5  40
ATOM     40  N   LIG d   1       5.939  -0.945 -12.302  0.00  0.00    -0.352 N 
ATOM     41  H   LIG d   1       5.237  -0.430 -12.728  0.00  0.00     0.143 HD
ATOM     42  H   LIG d   1       6.652  -1.328 -12.837  0.00  0.00     0.143 HD
ENDBRANCH   5  40
TORSDOF 7
ENDMDL
MODEL 3
REMARK VINA RESULT:      -5.5      4.371      7.595
REMARK  7 active torsions:
REMARK  status: ('A' for Active; 'I' for Inactive)
REMARK    1  A    between atoms: C_1  and  C_2 
REMARK    2  A    between atoms: C_2  and  O_3 
REMARK    3  A    between atoms: O_3  and  C_4 
REMARK    4  A    between atoms: C_4  and  C_6 
REMARK    5  A    between atoms: C_10  and  N_11 
REMARK    6  A    between atoms: N_13  and  C_16 
REMARK    7  A    between atoms: C_16  and  C_17 
ROOT
ATOM      1  C   LIG d   1       8.621   2.554  -7.660  0.00  0.00     0.090 A 
ATOM      2  C   LIG d   1       8.159   1.723  -6.561  0.00  0.00    -0.019 A 
ATOM      3  C   LIG d   1       8.712   2.025  -5.367  0.00  0.00     0.010 A 
ATOM      4  S   LIG d   1       9.809   3.369  -5.706  0.00  0.00    -0.077 SA
ATOM      5  C   LIG d   1       9.559   3.532  -7.359  0.00  0.00     0.078 A 
ATOM      6  C   LIG d   1       8.428   1.347  -4.063  0.00  0.00     0.031 C 
ATOM      7  N   LIG d   1       7.199   0.547  -4.219  0.00  0.00    -0.293 N 
ATOM      8  C   LIG d   1       7.265  -0.285  -5.429  0.00  0.00     0.004 C 
ATOM      9  C   LIG d   1       7.145   0.594  -6.679  0.00  0.00    -0.013 C 
ATOM     10  H   LIG d   1       9.261   0.694  -3.800  0.00  0.00     0.048 H 
ATOM     11  H   LIG d   1       8.285   2.094  -3.282  0.00  0.00     0.048 H 
ATOM     12  H   LIG d   1       8.217  -0.815  -5.451  0.00  0.00     0.043 H 
ATOM     13  H   LIG d   1       6.449  -1.008  -5.416  0.00  0.00     0.043 H 
ATOM     14  H   LIG d   1       6.139   1.008  -6.743  0.00  0.00     0.033 H 
ATOM     15  H   LIG d   1       7.357   0.000  -7.567  0.00  0.00     0.033 H 
ENDROOT
BRANCH   7  16
ATOM     16  C   LIG d   1       6.951  -0.276  -3.028  0.00  0.00     0.024 C 
ATOM     17  H   LIG d   1       7.449  -1.239  -3.141  0.00  0.00     0.048 H 
ATOM     18  H   LIG d   1       7.341   0.233  -2.146  0.00  0.00     0.048 H 
BRANCH  16  19
ATOM     19  C   LIG d   1       5.468  -0.493  -2.867  0.00  0.00    -0.033 A 
ATOM     20  C   LIG d   1       4.965  -1.776  -2.757  0.00  0.00    -0.057 A 
ATOM     21  C   LIG d   1       3.606  -1.975  -2.604  0.00  0.00    -0.061 A 
ATOM     22  H   LIG d   1       5.635  -2.622  -2.786  0.00  0.00     0.062 H 
ATOM     23  C   LIG d   1       2.748  -0.891  -2.572  0.00  0.00    -0.062 A 
ATOM     24  H   LIG d   1       3.214  -2.977  -2.514  0.00  0.00     0.062 H 
ATOM     25  C   LIG d   1       3.250   0.392  -2.688  0.00  0.00    -0.061 A 
ATOM     26  H   LIG d   1       1.686  -1.047  -2.456  0.00  0.00     0.062 H 
ATOM     27  C   LIG d   1       4.611   0.591  -2.835  0.00  0.00    -0.057 A 
ATOM     28  H   LIG d   1       2.580   1.238  -2.662  0.00  0.00     0.062 H 
ATOM     29  H   LIG d   1       5.002   1.593  -2.926  0.00  0.00     0.062 H 
ENDBRANCH  16  19
ENDBRANCH   7  16
BRANCH   1  30
ATOM     30  C   LIG d   1       8.124   2.363  -9.022  0.00  0.00     0.342 C 
ATOM     31  O   LIG d   1       8.820   1.804  -9.849  0.00  0.00    -0.245 OA
BRANCH  30  32
ATOM     32  O   LIG d   1       6.896   2.808  -9.360  0.00  0.00    -0.461 OA
BRANCH  32  33
ATOM     33  C   LIG d   1       5.849   1.837  -9.419  0.00  0.00     0.090 C 
ATOM     34  H   LIG d   1       5.985   1.107  -8.623  0.00  0.00     0.070 H 
ATOM     35  H   LIG d   1       5.875   1.331 -10.385  0.00  0.00     0.070 H 
BRANCH  33  36
ATOM     36  C   LIG d   1       4.498   2.534  -9.246  0.00  0.00    -0.031 C 
ATOM     37  H   LIG d   1       4.397   3.323  -9.992  0.00  0.00     0.026 H 
ATOM     38  H   LIG d   1       3.695   1.808  -9.374  0.00  0.00     0.026 H 
ATOM     39  H   LIG d   1       4.439   2.969  -8.248  0.00  0.00     0.026 H 
ENDBRANCH  33  36
ENDBRANCH  32  33
ENDBRANCH  30  32
ENDBRANCH   1  30
BRANCH   5  40
ATOM     40  N   LIG d   1      10.150   4.435  -8.222  0.00  0.00    -0.352 N 
ATOM     41  H   LIG d   1       9.600   5.032  -8.752  0.00  0.00     0.143 HD
ATOM     42  H   LIG d   1      11.117   4.474  -8.297  0.00  0.00     0.143 HD
ENDBRANCH   5  40
TORSDOF 7
ENDMDL
MODEL 4
REMARK VINA RESULT:      -5.5      3.250      6.916
REMARK  7 active torsions:
REMARK  status: ('A' for Active; 'I' for Inactive)
REMARK    1  A    between atoms: C_1  and  C_2 
REMARK    2  A    between atoms: C_2  and  O_3 
REMARK    3  A    between atoms: O_3  and  C_4 
REMARK    4  A    between atoms: C_4  and  C_6 
REMARK    5  A    between atoms: C_10  and  N_11 
REMARK    6  A    between atoms: N_13  and  C_16 
REMARK    7  A    between atoms: C_16  and  C_17 
ROOT
ATOM      1  C   LIG d   1       3.819  -0.369  -5.943  0.00  0.00     0.090 A 
ATOM      2  C   LIG d   1       4.576  -1.596  -5.765  0.00  0.00    -0.019 A 
ATOM      3  C   LIG d   1       5.157  -2.058  -6.893  0.00  0.00     0.010 A 
ATOM      4  S   LIG d   1       4.703  -0.892  -8.142  0.00  0.00    -0.077 SA
ATOM      5  C   LIG d   1       3.778   0.167  -7.224  0.00  0.00     0.078 A 
ATOM      6  C   LIG d   1       5.997  -3.290  -7.015  0.00  0.00     0.031 C 
ATOM      7  N   LIG d   1       6.385  -3.719  -5.658  0.00  0.00    -0.293 N 
ATOM      8  C   LIG d   1       5.215  -3.767  -4.769  0.00  0.00     0.004 C 
ATOM      9  C   LIG d   1       4.738  -2.346  -4.450  0.00  0.00    -0.013 C 
ATOM     10  H   LIG d   1       5.422  -4.080  -7.500  0.00  0.00     0.048 H 
ATOM     11  H   LIG d   1       6.890  -3.072  -7.602  0.00  0.00     0.048 H 
ATOM     12  H   LIG d   1       4.411  -4.316  -5.260  0.00  0.00     0.043 H 
ATOM     13  H   LIG d   1       5.485  -4.274  -3.844  0.00  0.00     0.043 H 
ATOM     14  H   LIG d   1       5.475  -1.842  -3.827  0.00  0.00     0.033 H 
ATOM     15  H   LIG d   1       3.782  -2.388  -3.930  0.00  0.00     0.033 H 
ENDROOT
BRANCH   7  16
ATOM     16  C   LIG d   1       7.074  -5.016  -5.691  0.00  0.00     0.024 C 
ATOM     17  H   LIG d   1       6.352  -5.815  -5.522  0.00  0.00     0.048 H 
ATOM     18  H   LIG d   1       7.545  -5.152  -6.665  0.00  0.00     0.048 H 
BRANCH  16  19
ATOM     19  C   LIG d   1       8.128  -5.053  -4.614  0.00  0.00    -0.033 A 
ATOM     20  C   LIG d   1       8.495  -3.888  -3.967  0.00  0.00    -0.057 A 
ATOM     21  C   LIG d   1       9.457  -3.924  -2.975  0.00  0.00    -0.061 A 
ATOM     22  H   LIG d   1       8.026  -2.952  -4.232  0.00  0.00     0.062 H 
ATOM     23  C   LIG d   1      10.061  -5.122  -2.640  0.00  0.00    -0.062 A 
ATOM     24  H   LIG d   1       9.742  -3.014  -2.466  0.00  0.00     0.062 H 
ATOM     25  C   LIG d   1       9.697  -6.285  -3.291  0.00  0.00    -0.061 A 
ATOM     26  H   LIG d   1      10.815  -5.149  -1.867  0.00  0.00     0.062 H 
ATOM     27  C   LIG d   1       8.730  -6.251  -4.279  0.00  0.00    -0.057 A 
ATOM     28  H   LIG d   1      10.167  -7.221  -3.028  0.00  0.00     0.062 H 
ATOM     29  H   LIG d   1       8.447  -7.160  -4.789  0.00  0.00     0.062 H 
ENDBRANCH  16  19
ENDBRANCH   7  16
BRANCH   1  30
ATOM     30  C   LIG d   1       3.126   0.269  -4.825  0.00  0.00     0.342 C 
ATOM     31  O   LIG d   1       1.928   0.110  -4.682  0.00  0.00    -0.245 OA
BRANCH  30  32
ATOM     32  O   LIG d   1       3.814   1.035  -3.952  0.00  0.00    -0.461 OA
BRANCH  32  33
ATOM     33  C   LIG d   1       3.419   0.970  -2.581  0.00  0.00     0.090 C 
ATOM     34  H   LIG d   1       2.635   0.222  -2.464  0.00  0.00     0.070 H 
ATOM     35  H   LIG d   1       3.043   1.943  -2.264  0.00  0.00     0.070 H 
BRANCH  33  36
ATOM     36  C   LIG d   1       4.624   0.583  -1.721  0.00  0.00    -0.031 C 
ATOM     37  H   LIG d   1       5.386   1.360  -1.793  0.00  0.00     0.026 H 
ATOM     38  H   LIG d   1       4.311   0.477  -0.682  0.00  0.00     0.026 H 
ATOM     39  H   LIG d   1       5.035  -0.362  -2.076  0.00  0.00     0.026 H 
ENDBRANCH  33  36
ENDBRANCH  32  33
ENDBRANCH  30  32
ENDBRANCH   1  30
BRANCH   5  40
ATOM     40  N   LIG d   1       3.127   1.310  -7.645  0.00  0.00    -0.352 N 
ATOM     41  H   LIG d   1       3.325   1.688  -8.515  0.00  0.00     0.143 HD
ATOM     42  H   LIG d   1       2.471   1.735  -7.070  0.00  0.00     0.143 HD
ENDBRANCH   5  40
TORSDOF 7
ENDMDL
MODEL 5
REMARK VINA RESULT:      -5.5      3.596      7.705
REMARK  7 active torsions:
REMARK  status: ('A' for Active; 'I' for Inactive)
REMARK    1  A    between atoms: C_1  and  C_2 
REMARK    2  A    between atoms: C_2  and  O_3 
REMARK    3  A    between atoms: O_3  and  C_4 
REMARK    4  A    between atoms: C_4  and  C_6 
REMARK    5  A    between atoms: C_10  and  N_11 
REMARK    6  A    between atoms: N_13  and  C_16 
REMARK    7  A    between atoms: C_16  and  C_17 
ROOT
ATOM      1  C   LIG d   1       2.392  -2.352  -9.823  0.00  0.00     0.090 A 
ATOM      2  C   LIG d   1       3.387  -2.406  -8.765  0.00  0.00    -0.019 A 
ATOM      3  C   LIG d   1       3.551  -1.243  -8.099  0.00  0.00     0.010 A 
ATOM      4  S   LIG d   1       2.417  -0.123  -8.862  0.00  0.00    -0.077 SA
ATOM      5  C   LIG d   1       1.749  -1.137 -10.022  0.00  0.00     0.078 A 
ATOM      6  C   LIG d   1       4.496  -0.999  -6.964  0.00  0.00     0.031 C 
ATOM      7  N   LIG d   1       4.953  -2.307  -6.458  0.00  0.00    -0.293 N 
ATOM      8  C   LIG d   1       5.407  -3.166  -7.561  0.00  0.00     0.004 C 
ATOM      9  C   LIG d   1       4.208  -3.632  -8.392  0.00  0.00    -0.013 C 
ATOM     10  H   LIG d   1       5.352  -0.422  -7.316  0.00  0.00     0.048 H 
ATOM     11  H   LIG d   1       3.986  -0.454  -6.169  0.00  0.00     0.048 H 
ATOM     12  H   LIG d   1       6.092  -2.605  -8.197  0.00  0.00     0.043 H 
ATOM     13  H   LIG d   1       5.924  -4.035  -7.153  0.00  0.00     0.043 H 
ATOM     14  H   LIG d   1       3.598  -4.319  -7.806  0.00  0.00     0.033 H 
ATOM     15  H   LIG d   1       4.558  -4.130  -9.296  0.00  0.00     0.033 H 
ENDROOT
BRANCH   7  16
ATOM     16  C   LIG d   1       6.010  -2.142  -5.450  0.00  0.00     0.024 C 
ATOM     17  H   LIG d   1       6.497  -3.101  -5.274  0.00  0.00     0.048 H 
ATOM     18  H   LIG d   1       6.745  -1.421  -5.809  0.00  0.00     0.048 H 
BRANCH  16  19
ATOM     19  C   LIG d   1       5.404  -1.643  -4.163  0.00  0.00    -0.033 A 
ATOM     20  C   LIG d   1       4.471  -2.413  -3.494  0.00  0.00    -0.057 A 
ATOM     21  C   LIG d   1       3.920  -1.958  -2.312  0.00  0.00    -0.061 A 
ATOM     22  H   LIG d   1       4.178  -3.373  -3.893  0.00  0.00     0.062 H 
ATOM     23  C   LIG d   1       4.292  -0.726  -1.804  0.00  0.00    -0.062 A 
ATOM     24  H   LIG d   1       3.194  -2.561  -1.787  0.00  0.00     0.062 H 
ATOM     25  C   LIG d   1       5.220   0.046  -2.477  0.00  0.00    -0.061 A 
ATOM     26  H   LIG d   1       3.858  -0.369  -0.882  0.00  0.00     0.062 H 
ATOM     27  C   LIG d   1       5.776  -0.412  -3.657  0.00  0.00    -0.057 A 
ATOM     28  H   LIG d   1       5.512   1.007  -2.080  0.00  0.00     0.062 H 
ATOM     29  H   LIG d   1       6.501   0.192  -4.182  0.00  0.00     0.062 H 
ENDBRANCH  16  19
ENDBRANCH   7  16
BRANCH   1  30
ATOM     30  C   LIG d   1       2.088  -3.523 -10.644  0.00  0.00     0.342 C 
ATOM     31  O   LIG d   1       2.568  -3.625 -11.758  0.00  0.00    -0.245 OA
BRANCH  30  32
ATOM     32  O   LIG d   1       1.274  -4.488 -10.168  0.00  0.00    -0.461 OA
BRANCH  32  33
ATOM     33  C   LIG d   1      -0.098  -4.432 -10.563  0.00  0.00     0.090 C 
ATOM     34  H   LIG d   1      -0.161  -4.271 -11.638  0.00  0.00     0.070 H 
ATOM     35  H   LIG d   1      -0.593  -3.611 -10.043  0.00  0.00     0.070 H 
BRANCH  33  36
ATOM     36  C   LIG d   1      -0.786  -5.751 -10.204  0.00  0.00    -0.031 C 
ATOM     37  H   LIG d   1      -0.197  -6.583 -10.588  0.00  0.00     0.026 H 
ATOM     38  H   LIG d   1      -0.871  -5.834  -9.121  0.00  0.00     0.026 H 
ATOM     39  H   LIG d   1      -1.781  -5.773 -10.649  0.00  0.00     0.026 H 
ENDBRANCH  33  36
ENDBRANCH  32  33
ENDBRANCH  30  32
ENDBRANCH   1  30
BRANCH   5  40
ATOM     40  N   LIG d   1       0.779  -0.834 -10.958  0.00  0.00    -0.352 N 
ATOM     41  H   LIG d   1       0.330  -1.546 -11.440  0.00  0.00     0.143 HD
ATOM     42  H   LIG d   1       0.547   0.091 -11.134  0.00  0.00     0.143 HD
ENDBRANCH   5  40
TORSDOF 7
ENDMDL
MODEL 6
REMARK VINA RESULT:      -5.4      5.305      7.806
REMARK  7 active torsions:
REMARK  status: ('A' for Active; 'I' for Inactive)
REMARK    1  A    between atoms: C_1  and  C_2 
REMARK    2  A    between atoms: C_2  and  O_3 
REMARK    3  A    between atoms: O_3  and  C_4 
REMARK    4  A    between atoms: C_4  and  C_6 
REMARK    5  A    between atoms: C_10  and  N_11 
REMARK    6  A    between atoms: N_13  and  C_16 
REMARK    7  A    between atoms: C_16  and  C_17 
ROOT
ATOM      1  C   LIG d   1       5.965  -2.396  -4.582  0.00  0.00     0.090 A 
ATOM      2  C   LIG d   1       5.957  -3.799  -4.962  0.00  0.00    -0.019 A 
ATOM      3  C   LIG d   1       7.166  -4.397  -4.899  0.00  0.00     0.010 A 
ATOM      4  S   LIG d   1       8.269  -3.127  -4.355  0.00  0.00    -0.077 SA
ATOM      5  C   LIG d   1       7.188  -1.849  -4.216  0.00  0.00     0.078 A 
ATOM      6  C   LIG d   1       7.463  -5.827  -5.225  0.00  0.00     0.031 C 
ATOM      7  N   LIG d   1       6.185  -6.562  -5.276  0.00  0.00    -0.293 N 
ATOM      8  C   LIG d   1       5.206  -5.853  -6.113  0.00  0.00     0.004 C 
ATOM      9  C   LIG d   1       4.729  -4.583  -5.402  0.00  0.00    -0.013 C 
ATOM     10  H   LIG d   1       7.961  -5.888  -6.194  0.00  0.00     0.048 H 
ATOM     11  H   LIG d   1       8.104  -6.255  -4.454  0.00  0.00     0.048 H 
ATOM     12  H   LIG d   1       5.670  -5.584  -7.061  0.00  0.00     0.043 H 
ATOM     13  H   LIG d   1       4.353  -6.505  -6.301  0.00  0.00     0.043 H 
ATOM     14  H   LIG d   1       4.131  -4.851  -4.531  0.00  0.00     0.033 H 
ATOM     15  H   LIG d   1       4.133  -3.980  -6.086  0.00  0.00     0.033 H 
ENDROOT
BRANCH   7  16
ATOM     16  C   LIG d   1       6.387  -7.937  -5.752  0.00  0.00     0.024 C 
ATOM     17  H   LIG d   1       5.820  -8.090  -6.671  0.00  0.00     0.048 H 
ATOM     18  H   LIG d   1       7.447  -8.103  -5.948  0.00  0.00     0.048 H 
BRANCH  16  19
ATOM     19  C   LIG d   1       5.913  -8.908  -4.701  0.00  0.00    -0.033 A 
ATOM     20  C   LIG d   1       6.800  -9.393  -3.758  0.00  0.00    -0.057 A 
ATOM     21  C   LIG d   1       6.363 -10.279  -2.792  0.00  0.00    -0.061 A 
ATOM     22  H   LIG d   1       7.832  -9.076  -3.775  0.00  0.00     0.062 H 
ATOM     23  C   LIG d   1       5.043 -10.689  -2.774  0.00  0.00    -0.062 A 
ATOM     24  H   LIG d   1       7.056 -10.655  -2.052  0.00  0.00     0.062 H 
ATOM     25  C   LIG d   1       4.158 -10.208  -3.721  0.00  0.00    -0.061 A 
ATOM     26  H   LIG d   1       4.703 -11.383  -2.021  0.00  0.00     0.062 H 
ATOM     27  C   LIG d   1       4.593  -9.317  -4.685  0.00  0.00    -0.057 A 
ATOM     28  H   LIG d   1       3.126 -10.527  -3.707  0.00  0.00     0.062 H 
ATOM     29  H   LIG d   1       3.901  -8.942  -5.424  0.00  0.00     0.062 H 
ENDBRANCH  16  19
ENDBRANCH   7  16
BRANCH   1  30
ATOM     30  C   LIG d   1       4.741  -1.596  -4.592  0.00  0.00     0.342 C 
ATOM     31  O   LIG d   1       4.649  -0.636  -5.335  0.00  0.00    -0.245 OA
BRANCH  30  32
ATOM     32  O   LIG d   1       3.716  -1.921  -3.778  0.00  0.00    -0.461 OA
BRANCH  32  33
ATOM     33  C   LIG d   1       3.995  -1.987  -2.378  0.00  0.00     0.090 C 
ATOM     34  H   LIG d   1       4.847  -2.645  -2.209  0.00  0.00     0.070 H 
ATOM     35  H   LIG d   1       3.124  -2.378  -1.852  0.00  0.00     0.070 H 
BRANCH  33  36
ATOM     36  C   LIG d   1       4.321  -0.586  -1.856  0.00  0.00    -0.031 C 
ATOM     37  H   LIG d   1       5.386  -0.391  -1.984  0.00  0.00     0.026 H 
ATOM     38  H   LIG d   1       3.746   0.152  -2.414  0.00  0.00     0.026 H 
ATOM     39  H   LIG d   1       4.065  -0.525  -0.799  0.00  0.00     0.026 H 
ENDBRANCH  33  36
ENDBRANCH  32  33
ENDBRANCH  30  32
ENDBRANCH   1  30
BRANCH   5  40
ATOM     40  N   LIG d   1       7.454  -0.551  -3.825  0.00  0.00    -0.352 N 
ATOM     41  H   LIG d   1       6.745   0.110  -3.820  0.00  0.00     0.143 HD
ATOM     42  H   LIG d   1       8.351  -0.300  -3.553  0.00  0.00     0.143 HD
ENDBRANCH   5  40
TORSDOF 7
ENDMDL
MODEL 7
REMARK VINA RESULT:      -5.4      6.361      8.597
REMARK  7 active torsions:
REMARK  status: ('A' for Active; 'I' for Inactive)
REMARK    1  A    between atoms: C_1  and  C_2 
REMARK    2  A    between atoms: C_2  and  O_3 
REMARK    3  A    between atoms: O_3  and  C_4 
REMARK    4  A    between atoms: C_4  and  C_6 
REMARK    5  A    between atoms: C_10  and  N_11 
REMARK    6  A    between atoms: N_13  and  C_16 
REMARK    7  A    between atoms: C_16  and  C_17 
ROOT
ATOM      1  C   LIG d   1      11.810   3.217  -3.378  0.00  0.00     0.090 A 
ATOM      2  C   LIG d   1      10.541   2.629  -3.772  0.00  0.00    -0.019 A 
ATOM      3  C   LIG d   1      10.642   1.380  -4.276  0.00  0.00     0.010 A 
ATOM      4  S   LIG d   1      12.370   1.012  -4.224  0.00  0.00    -0.077 SA
ATOM      5  C   LIG d   1      12.949   2.446  -3.568  0.00  0.00     0.078 A 
ATOM      6  C   LIG d   1       9.511   0.527  -4.758  0.00  0.00     0.031 C 
ATOM      7  N   LIG d   1       8.250   1.115  -4.269  0.00  0.00    -0.293 N 
ATOM      8  C   LIG d   1       8.198   2.556  -4.556  0.00  0.00     0.004 C 
ATOM      9  C   LIG d   1       9.183   3.307  -3.655  0.00  0.00    -0.013 C 
ATOM     10  H   LIG d   1       9.507   0.504  -5.848  0.00  0.00     0.048 H 
ATOM     11  H   LIG d   1       9.620  -0.486  -4.369  0.00  0.00     0.048 H 
ATOM     12  H   LIG d   1       8.461   2.725  -5.600  0.00  0.00     0.043 H 
ATOM     13  H   LIG d   1       7.188   2.924  -4.374  0.00  0.00     0.043 H 
ATOM     14  H   LIG d   1       8.840   3.269  -2.622  0.00  0.00     0.033 H 
ATOM     15  H   LIG d   1       9.261   4.344  -3.980  0.00  0.00     0.033 H 
ENDROOT
BRANCH   7  16
ATOM     16  C   LIG d   1       7.088   0.422  -4.842  0.00  0.00     0.024 C 
ATOM     17  H   LIG d   1       6.592   1.076  -5.559  0.00  0.00     0.048 H 
ATOM     18  H   LIG d   1       7.418  -0.486  -5.347  0.00  0.00     0.048 H 
BRANCH  16  19
ATOM     19  C   LIG d   1       6.124   0.061  -3.740  0.00  0.00    -0.033 A 
ATOM     20  C   LIG d   1       5.591   1.052  -2.937  0.00  0.00    -0.057 A 
ATOM     21  C   LIG d   1       4.703   0.722  -1.931  0.00  0.00    -0.061 A 
ATOM     22  H   LIG d   1       5.863   2.084  -3.100  0.00  0.00     0.062 H 
ATOM     23  C   LIG d   1       4.358  -0.601  -1.720  0.00  0.00    -0.062 A 
ATOM     24  H   LIG d   1       4.283   1.496  -1.305  0.00  0.00     0.062 H 
ATOM     25  C   LIG d   1       4.896  -1.592  -2.519  0.00  0.00    -0.061 A 
ATOM     26  H   LIG d   1       3.667  -0.859  -0.931  0.00  0.00     0.062 H 
ATOM     27  C   LIG d   1       5.780  -1.260  -3.530  0.00  0.00    -0.057 A 
ATOM     28  H   LIG d   1       4.625  -2.624  -2.355  0.00  0.00     0.062 H 
ATOM     29  H   LIG d   1       6.200  -2.035  -4.154  0.00  0.00     0.062 H 
ENDBRANCH  16  19
ENDBRANCH   7  16
BRANCH   1  30
ATOM     30  C   LIG d   1      11.883   4.563  -2.812  0.00  0.00     0.342 C 
ATOM     31  O   LIG d   1      12.451   5.449  -3.424  0.00  0.00    -0.245 OA
BRANCH  30  32
ATOM     32  O   LIG d   1      11.324   4.823  -1.612  0.00  0.00    -0.461 OA
BRANCH  32  33
ATOM     33  C   LIG d   1      11.031   6.190  -1.315  0.00  0.00     0.090 C 
ATOM     34  H   LIG d   1      11.788   6.830  -1.769  0.00  0.00     0.070 H 
ATOM     35  H   LIG d   1      11.033   6.336  -0.235  0.00  0.00     0.070 H 
BRANCH  33  36
ATOM     36  C   LIG d   1       9.655   6.551  -1.877  0.00  0.00    -0.031 C 
ATOM     37  H   LIG d   1       9.680   7.565  -2.277  0.00  0.00     0.026 H 
ATOM     38  H   LIG d   1       9.392   5.853  -2.672  0.00  0.00     0.026 H 
ATOM     39  H   LIG d   1       8.912   6.493  -1.082  0.00  0.00     0.026 H 
ENDBRANCH  33  36
ENDBRANCH  32  33
ENDBRANCH  30  32
ENDBRANCH   1  30
BRANCH   5  40
ATOM     40  N   LIG d   1      14.258   2.780  -3.282  0.00  0.00    -0.352 N 
ATOM     41  H   LIG d   1      14.457   3.608  -2.818  0.00  0.00     0.143 HD
ATOM     42  H   LIG d   1      14.979   2.187  -3.544  0.00  0.00     0.143 HD
ENDBRANCH   5  40
TORSDOF 7
ENDMDL
MODEL 8
REMARK VINA RESULT:      -5.3      4.976      8.060
REMARK  7 active torsions:
REMARK  status: ('A' for Active; 'I' for Inactive)
REMARK    1  A    between atoms: C_1  and  C_2 
REMARK    2  A    between atoms: C_2  and  O_3 
REMARK    3  A    between atoms: O_3  and  C_4 
REMARK    4  A    between atoms: C_4  and  C_6 
REMARK    5  A    between atoms: C_10  and  N_11 
REMARK    6  A    between atoms: N_13  and  C_16 
REMARK    7  A    between atoms: C_16  and  C_17 
ROOT
ATOM      1  C   LIG d   1       4.812  -6.361  -7.035  0.00  0.00     0.090 A 
ATOM      2  C   LIG d   1       5.480  -5.281  -6.329  0.00  0.00    -0.019 A 
ATOM      3  C   LIG d   1       5.220  -4.052  -6.823  0.00  0.00     0.010 A 
ATOM      4  S   LIG d   1       4.123  -4.334  -8.180  0.00  0.00    -0.077 SA
ATOM      5  C   LIG d   1       4.009  -6.009  -8.113  0.00  0.00     0.078 A 
ATOM      6  C   LIG d   1       5.759  -2.757  -6.302  0.00  0.00     0.031 C 
ATOM      7  N   LIG d   1       6.325  -3.000  -4.961  0.00  0.00    -0.293 N 
ATOM      8  C   LIG d   1       7.221  -4.166  -4.974  0.00  0.00     0.004 C 
ATOM      9  C   LIG d   1       6.406  -5.454  -5.134  0.00  0.00    -0.013 C 
ATOM     10  H   LIG d   1       6.540  -2.389  -6.968  0.00  0.00     0.048 H 
ATOM     11  H   LIG d   1       4.956  -2.022  -6.235  0.00  0.00     0.048 H 
ATOM     12  H   LIG d   1       7.919  -4.074  -5.806  0.00  0.00     0.043 H 
ATOM     13  H   LIG d   1       7.778  -4.203  -4.039  0.00  0.00     0.043 H 
ATOM     14  H   LIG d   1       5.817  -5.630  -4.234  0.00  0.00     0.033 H 
ATOM     15  H   LIG d   1       7.078  -6.294  -5.306  0.00  0.00     0.033 H 
ENDROOT
BRANCH   7  16
ATOM     16  C   LIG d   1       7.019  -1.808  -4.458  0.00  0.00     0.024 C 
ATOM     17  H   LIG d   1       7.919  -2.111  -3.921  0.00  0.00     0.048 H 
ATOM     18  H   LIG d   1       7.296  -1.167  -5.295  0.00  0.00     0.048 H 
BRANCH  16  19
ATOM     19  C   LIG d   1       6.108  -1.051  -3.525  0.00  0.00    -0.033 A 
ATOM     20  C   LIG d   1       6.232   0.320  -3.400  0.00  0.00    -0.057 A 
ATOM     21  C   LIG d   1       5.392   1.014  -2.550  0.00  0.00    -0.061 A 
ATOM     22  H   LIG d   1       6.980   0.849  -3.971  0.00  0.00     0.062 H 
ATOM     23  C   LIG d   1       4.437   0.336  -1.815  0.00  0.00    -0.062 A 
ATOM     24  H   LIG d   1       5.486   2.086  -2.455  0.00  0.00     0.062 H 
ATOM     25  C   LIG d   1       4.317  -1.036  -1.936  0.00  0.00    -0.061 A 
ATOM     26  H   LIG d   1       3.783   0.878  -1.149  0.00  0.00     0.062 H 
ATOM     27  C   LIG d   1       5.153  -1.730  -2.792  0.00  0.00    -0.057 A 
ATOM     28  H   LIG d   1       3.571  -1.565  -1.364  0.00  0.00     0.062 H 
ATOM     29  H   LIG d   1       5.060  -2.801  -2.885  0.00  0.00     0.062 H 
ENDBRANCH  16  19
ENDBRANCH   7  16
BRANCH   1  30
ATOM     30  C   LIG d   1       4.983  -7.756  -6.633  0.00  0.00     0.342 C 
ATOM     31  O   LIG d   1       5.691  -8.496  -7.291  0.00  0.00    -0.245 OA
BRANCH  30  32
ATOM     32  O   LIG d   1       4.355  -8.224  -5.534  0.00  0.00    -0.461 OA
BRANCH  32  33
ATOM     33  C   LIG d   1       5.038  -9.222  -4.773  0.00  0.00     0.090 C 
ATOM     34  H   LIG d   1       5.889  -8.772  -4.264  0.00  0.00     0.070 H 
ATOM     35  H   LIG d   1       5.389 -10.011  -5.439  0.00  0.00     0.070 H 
BRANCH  33  36
ATOM     36  C   LIG d   1       4.081  -9.817  -3.738  0.00  0.00    -0.031 C 
ATOM     37  H   LIG d   1       3.455  -9.026  -3.325  0.00  0.00     0.026 H 
ATOM     38  H   LIG d   1       3.450 -10.568  -4.215  0.00  0.00     0.026 H 
ATOM     39  H   LIG d   1       4.656 -10.281  -2.936  0.00  0.00     0.026 H 
ENDBRANCH  33  36
ENDBRANCH  32  33
ENDBRANCH  30  32
ENDBRANCH   1  30
BRANCH   5  40
ATOM     40  N   LIG d   1       3.281  -6.844  -8.938  0.00  0.00    -0.352 N 
ATOM     41  H   LIG d   1       2.365  -7.069  -8.714  0.00  0.00     0.143 HD
ATOM     42  H   LIG d   1       3.686  -7.205  -9.742  0.00  0.00     0.143 HD
ENDBRANCH   5  40
TORSDOF 7
ENDMDL
MODEL 9
REMARK VINA RESULT:      -5.3      3.252      7.172
REMARK  7 active torsions:
REMARK  status: ('A' for Active; 'I' for Inactive)
REMARK    1  A    between atoms: C_1  and  C_2 
REMARK    2  A    between atoms: C_2  and  O_3 
REMARK    3  A    between atoms: O_3  and  C_4 
REMARK    4  A    between atoms: C_4  and  C_6 
REMARK    5  A    between atoms: C_10  and  N_11 
REMARK    6  A    between atoms: N_13  and  C_16 
REMARK    7  A    between atoms: C_16  and  C_17 
ROOT
ATOM      1  C   LIG d   1       4.909  -1.038  -9.636  0.00  0.00     0.090 A 
ATOM      2  C   LIG d   1       5.219  -1.165  -8.222  0.00  0.00    -0.019 A 
ATOM      3  C   LIG d   1       4.565  -2.169  -7.599  0.00  0.00     0.010 A 
ATOM      4  S   LIG d   1       3.574  -2.912  -8.861  0.00  0.00    -0.077 SA
ATOM      5  C   LIG d   1       3.994  -1.939 -10.164  0.00  0.00     0.078 A 
ATOM      6  C   LIG d   1       4.685  -2.542  -6.155  0.00  0.00     0.031 C 
ATOM      7  N   LIG d   1       5.884  -1.879  -5.607  0.00  0.00    -0.293 N 
ATOM      8  C   LIG d   1       5.897  -0.451  -5.955  0.00  0.00     0.004 C 
ATOM      9  C   LIG d   1       6.183  -0.276  -7.450  0.00  0.00    -0.013 C 
ATOM     10  H   LIG d   1       3.800  -2.206  -5.614  0.00  0.00     0.048 H 
ATOM     11  H   LIG d   1       4.786  -3.623  -6.060  0.00  0.00     0.048 H 
ATOM     12  H   LIG d   1       4.927  -0.013  -5.718  0.00  0.00     0.043 H 
ATOM     13  H   LIG d   1       6.671   0.054  -5.377  0.00  0.00     0.043 H 
ATOM     14  H   LIG d   1       7.209  -0.572  -7.665  0.00  0.00     0.033 H 
ATOM     15  H   LIG d   1       6.032   0.765  -7.733  0.00  0.00     0.033 H 
ENDROOT
BRANCH   7  16
ATOM     16  C   LIG d   1       5.972  -2.068  -4.153  0.00  0.00     0.024 C 
ATOM     17  H   LIG d   1       5.570  -3.046  -3.889  0.00  0.00     0.048 H 
ATOM     18  H   LIG d   1       7.015  -2.007  -3.841  0.00  0.00     0.048 H 
BRANCH  16  19
ATOM     19  C   LIG d   1       5.176  -0.993  -3.457  0.00  0.00    -0.033 A 
ATOM     20  C   LIG d   1       5.818   0.120  -2.947  0.00  0.00    -0.057 A 
ATOM     21  C   LIG d   1       5.087   1.108  -2.314  0.00  0.00    -0.061 A 
ATOM     22  H   LIG d   1       6.888   0.220  -3.047  0.00  0.00     0.062 H 
ATOM     23  C   LIG d   1       3.717   0.977  -2.181  0.00  0.00    -0.062 A 
ATOM     24  H   LIG d   1       5.588   1.980  -1.918  0.00  0.00     0.062 H 
ATOM     25  C   LIG d   1       3.077  -0.139  -2.687  0.00  0.00    -0.061 A 
ATOM     26  H   LIG d   1       3.147   1.748  -1.684  0.00  0.00     0.062 H 
ATOM     27  C   LIG d   1       3.807  -1.124  -3.325  0.00  0.00    -0.057 A 
ATOM     28  H   LIG d   1       2.007  -0.240  -2.585  0.00  0.00     0.062 H 
ATOM     29  H   LIG d   1       3.306  -1.996  -3.720  0.00  0.00     0.062 H 
ENDBRANCH  16  19
ENDBRANCH   7  16
BRANCH   1  30
ATOM     30  C   LIG d   1       5.528  -0.002 -10.462  0.00  0.00     0.342 C 
ATOM     31  O   LIG d   1       6.288  -0.315 -11.360  0.00  0.00    -0.245 OA
BRANCH  30  32
ATOM     32  O   LIG d   1       5.258   1.299 -10.228  0.00  0.00    -0.461 OA
BRANCH  32  33
ATOM     33  C   LIG d   1       3.891   1.704 -10.318  0.00  0.00     0.090 C 
ATOM     34  H   LIG d   1       3.266   0.832 -10.510  0.00  0.00     0.070 H 
ATOM     35  H   LIG d   1       3.776   2.419 -11.132  0.00  0.00     0.070 H 
BRANCH  33  36
ATOM     36  C   LIG d   1       3.465   2.356  -9.001  0.00  0.00    -0.031 C 
ATOM     37  H   LIG d   1       2.396   2.571  -9.031  0.00  0.00     0.026 H 
ATOM     38  H   LIG d   1       3.676   1.678  -8.174  0.00  0.00     0.026 H 
ATOM     39  H   LIG d   1       4.018   3.285  -8.861  0.00  0.00     0.026 H 
ENDBRANCH  33  36
ENDBRANCH  32  33
ENDBRANCH  30  32
ENDBRANCH   1  30
BRANCH   5  40
ATOM     40  N   LIG d   1       3.536  -2.018 -11.466  0.00  0.00    -0.352 N 
ATOM     41  H   LIG d   1       2.866  -1.394 -11.784  0.00  0.00     0.143 HD
ATOM     42  H   LIG d   1       3.885  -2.699 -12.062  0.00  0.00     0.143 HD
ENDBRANCH   5  40
TORSDOF 7
ENDMDL
MODEL 10
REMARK VINA RESULT:      -5.3      3.455      7.712
REMARK  7 active torsions:
REMARK  status: ('A' for Active; 'I' for Inactive)
REMARK    1  A    between atoms: C_1  and  C_2 
REMARK    2  A    between atoms: C_2  and  O_3 
REMARK    3  A    between atoms: O_3  and  C_4 
REMARK    4  A    between atoms: C_4  and  C_6 
REMARK    5  A    between atoms: C_10  and  N_11 
REMARK    6  A    between atoms: N_13  and  C_16 
REMARK    7  A    between atoms: C_16  and  C_17 
ROOT
ATOM      1  C   LIG d   1       2.427  -2.378  -9.761  0.00  0.00     0.090 A 
ATOM      2  C   LIG d   1       3.435  -2.378  -8.714  0.00  0.00    -0.019 A 
ATOM      3  C   LIG d   1       3.529  -1.214  -8.036  0.00  0.00     0.010 A 
ATOM      4  S   LIG d   1       2.316  -0.162  -8.774  0.00  0.00    -0.077 SA
ATOM      5  C   LIG d   1       1.703  -1.206  -9.939  0.00  0.00     0.078 A 
ATOM      6  C   LIG d   1       4.468  -0.921  -6.908  0.00  0.00     0.031 C 
ATOM      7  N   LIG d   1       5.016  -2.201  -6.421  0.00  0.00    -0.293 N 
ATOM      8  C   LIG d   1       5.513  -3.017  -7.539  0.00  0.00     0.004 C 
ATOM      9  C   LIG d   1       4.338  -3.552  -8.363  0.00  0.00    -0.013 C 
ATOM     10  H   LIG d   1       5.280  -0.285  -7.262  0.00  0.00     0.048 H 
ATOM     11  H   LIG d   1       3.932  -0.420  -6.102  0.00  0.00     0.048 H 
ATOM     12  H   LIG d   1       6.153  -2.405  -8.175  0.00  0.00     0.043 H 
ATOM     13  H   LIG d   1       6.091  -3.854  -7.147  0.00  0.00     0.043 H 
ATOM     14  H   LIG d   1       3.781  -4.283  -7.779  0.00  0.00     0.033 H 
ATOM     15  H   LIG d   1       4.710  -4.015  -9.276  0.00  0.00     0.033 H 
ENDROOT
BRANCH   7  16
ATOM     16  C   LIG d   1       6.071  -1.978  -5.423  0.00  0.00     0.024 C 
ATOM     17  H   LIG d   1       6.612  -2.909  -5.251  0.00  0.00     0.048 H 
ATOM     18  H   LIG d   1       6.762  -1.219  -5.788  0.00  0.00     0.048 H 
BRANCH  16  19
ATOM     19  C   LIG d   1       5.449  -1.512  -4.131  0.00  0.00    -0.033 A 
ATOM     20  C   LIG d   1       5.785  -0.276  -3.610  0.00  0.00    -0.057 A 
ATOM     21  C   LIG d   1       5.211   0.153  -2.428  0.00  0.00    -0.061 A 
ATOM     22  H   LIG d   1       6.491   0.355  -4.128  0.00  0.00     0.062 H 
ATOM     23  C   LIG d   1       4.309  -0.657  -1.762  0.00  0.00    -0.062 A 
ATOM     24  H   LIG d   1       5.470   1.120  -2.022  0.00  0.00     0.062 H 
ATOM     25  C   LIG d   1       3.978  -1.895  -2.282  0.00  0.00    -0.061 A 
ATOM     26  H   LIG d   1       3.864  -0.323  -0.838  0.00  0.00     0.062 H 
ATOM     27  C   LIG d   1       4.549  -2.322  -3.467  0.00  0.00    -0.057 A 
ATOM     28  H   LIG d   1       3.274  -2.527  -1.762  0.00  0.00     0.062 H 
ATOM     29  H   LIG d   1       4.290  -3.289  -3.871  0.00  0.00     0.062 H 
ENDBRANCH  16  19
ENDBRANCH   7  16
BRANCH   1  30
ATOM     30  C   LIG d   1       2.191  -3.557 -10.592  0.00  0.00     0.342 C 
ATOM     31  O   LIG d   1       1.634  -4.531 -10.122  0.00  0.00    -0.245 OA
BRANCH  30  32
ATOM     32  O   LIG d   1       2.592  -3.565 -11.881  0.00  0.00    -0.461 OA
BRANCH  32  33
ATOM     33  C   LIG d   1       3.920  -4.025 -12.144  0.00  0.00     0.090 C 
ATOM     34  H   LIG d   1       3.900  -4.739 -12.965  0.00  0.00     0.070 H 
ATOM     35  H   LIG d   1       4.321  -4.507 -11.252  0.00  0.00     0.070 H 
BRANCH  33  36
ATOM     36  C   LIG d   1       4.805  -2.836 -12.523  0.00  0.00    -0.031 C 
ATOM     37  H   LIG d   1       4.177  -1.991 -12.805  0.00  0.00     0.026 H 
ATOM     38  H   LIG d   1       5.427  -2.559 -11.671  0.00  0.00     0.026 H 
ATOM     39  H   LIG d   1       5.442  -3.112 -13.364  0.00  0.00     0.026 H 
ENDBRANCH  33  36
ENDBRANCH  32  33
ENDBRANCH  30  32
ENDBRANCH   1  30
BRANCH   5  40
ATOM     40  N   LIG d   1       0.705  -0.957 -10.862  0.00  0.00    -0.352 N 
ATOM     41  H   LIG d   1       0.064  -1.650 -11.082  0.00  0.00     0.143 HD
ATOM     42  H   LIG d   1       0.645  -0.088 -11.289  0.00  0.00     0.143 HD
ENDBRANCH   5  40
TORSDOF 7
ENDMDL
