MODEL 1
REMARK VINA RESULT:      -7.0      0.000      0.000
REMARK  4 active torsions:
REMARK  status: ('A' for Active; 'I' for Inactive)
REMARK    1  A    between atoms: C_3  and  O_30 
REMARK    2  A    between atoms: C_4  and  C_23 
REMARK    3  A    between atoms: C_10  and  C_11 
REMARK    4  A    between atoms: C_23  and  N_24 
ROOT
ATOM      1  C   LIG d   1       9.796   4.108  -6.736  0.00  0.00    -0.044 A 
ATOM      2  C   LIG d   1       9.707   4.203  -8.096  0.00  0.00    -0.019 A 
ATOM      3  C   LIG d   1       8.925   3.299  -8.810  0.00  0.00     0.125 A 
ATOM      4  C   LIG d   1       8.231   2.296  -8.154  0.00  0.00     0.051 A 
ATOM      5  C   LIG d   1       8.311   2.186  -6.772  0.00  0.00     0.147 A 
ATOM      6  C   LIG d   1       9.102   3.104  -6.063  0.00  0.00     0.068 A 
ATOM      7  C   LIG d   1       8.988   2.736  -4.639  0.00  0.00     0.232 A 
ATOM      8  O   LIG d   1       9.520   3.278  -3.684  0.00  0.00    -0.283 OA
ATOM      9  C   LIG d   1       8.093   1.572  -4.629  0.00  0.00     0.176 A 
ATOM     10  C   LIG d   1       7.690   0.878  -3.533  0.00  0.00    -0.005 C 
ATOM     11  O   LIG d   1       7.746   1.311  -5.912  0.00  0.00    -0.451 OA
ATOM     12  H   LIG d   1      10.403   4.811  -6.184  0.00  0.00     0.063 H 
ATOM     13  H   LIG d   1      10.245   4.981  -8.619  0.00  0.00     0.065 H 
ATOM     14  H   LIG d   1       8.095   1.132  -2.542  0.00  0.00     0.066 H 
ENDROOT
BRANCH  10  15
ATOM     15  C   LIG d   1       6.714  -0.208  -3.669  0.00  0.00     0.022 A 
ATOM     16  C   LIG d   1       5.376  -0.010  -3.284  0.00  0.00     0.136 A 
ATOM     17  C   LIG d   1       4.463  -1.041  -3.420  0.00  0.00     0.022 A 
ATOM     18  O   LIG d   1       4.995   1.191  -2.779  0.00  0.00    -0.465 OA
ATOM     19  C   LIG d   1       4.867  -2.261  -3.930  0.00  0.00    -0.039 A 
ATOM     20  C   LIG d   1       3.024  -0.843  -3.016  0.00  0.00     0.080 C 
ATOM     21  C   LIG d   1       6.185  -2.464  -4.310  0.00  0.00     0.019 A 
ATOM     22  H   LIG d   1       4.151  -3.063  -4.032  0.00  0.00     0.063 H 
ATOM     23  C   LIG d   1       7.108  -1.447  -4.190  0.00  0.00    -0.037 A 
ATOM     24 BR   LIG d   1       6.718  -4.140  -5.005  0.00  0.00    -0.050 Br
ATOM     25  H   LIG d   1       8.132  -1.607  -4.492  0.00  0.00     0.064 H 
ATOM     26  O   LIG d   1       2.920   0.322  -2.191  0.00  0.00    -0.339 OA
ATOM     27  H   LIG d   1       2.405  -0.713  -3.917  0.00  0.00     0.061 H 
ATOM     28  H   LIG d   1       2.675  -1.723  -2.456  0.00  0.00     0.061 H 
ATOM     29  C   LIG d   1       3.591   1.461  -2.744  0.00  0.00     0.191 C 
ATOM     30  H   LIG d   1       3.403   2.346  -2.118  0.00  0.00     0.102 H 
ATOM     31  H   LIG d   1       3.228   1.650  -3.765  0.00  0.00     0.102 H 
ENDBRANCH  10  15
BRANCH   4  32
ATOM     32  C   LIG d   1       7.388   1.324  -8.940  0.00  0.00     0.031 C 
ATOM     33  H   LIG d   1       7.444   1.575 -10.010  0.00  0.00     0.048 H 
ATOM     34  H   LIG d   1       7.765   0.303  -8.783  0.00  0.00     0.048 H 
BRANCH  32  35
ATOM     35  N   LIG d   1       5.994   1.408  -8.489  0.00  0.00    -0.294 N 
ATOM     36  C   LIG d   1       5.168   2.141  -9.460  0.00  0.00     0.023 C 
ATOM     37  C   LIG d   1       3.739   2.256  -8.923  0.00  0.00     0.060 C 
ATOM     38  H   LIG d   1       5.587   3.146  -9.613  0.00  0.00     0.045 H 
ATOM     39  H   LIG d   1       5.160   1.598 -10.417  0.00  0.00     0.045 H 
ATOM     40  O   LIG d   1       3.228   0.947  -8.657  0.00  0.00    -0.377 OA
ATOM     41  H   LIG d   1       3.103   2.752  -9.672  0.00  0.00     0.057 H 
ATOM     42  H   LIG d   1       3.741   2.844  -7.994  0.00  0.00     0.057 H 
ATOM     43  C   LIG d   1       4.007   0.205  -7.715  0.00  0.00     0.060 C 
ATOM     44  C   LIG d   1       5.440   0.069  -8.239  0.00  0.00     0.023 C 
ATOM     45  H   LIG d   1       3.570  -0.795  -7.580  0.00  0.00     0.057 H 
ATOM     46  H   LIG d   1       4.019   0.733  -6.750  0.00  0.00     0.057 H 
ATOM     47  H   LIG d   1       5.435  -0.507  -9.176  0.00  0.00     0.045 H 
ATOM     48  H   LIG d   1       6.058  -0.450  -7.492  0.00  0.00     0.045 H 
ENDBRANCH  32  35
ENDBRANCH   4  32
BRANCH   3  49
ATOM     49  O   LIG d   1       8.844   3.402 -10.161  0.00  0.00    -0.506 OA
ATOM     50  H   LIG d   1       9.419   2.716 -10.800  0.00  0.00     0.292 HD
ENDBRANCH   3  49
TORSDOF 4
ENDMDL
MODEL 2
REMARK VINA RESULT:      -6.7      3.192      5.619
REMARK  4 active torsions:
REMARK  status: ('A' for Active; 'I' for Inactive)
REMARK    1  A    between atoms: C_3  and  O_30 
REMARK    2  A    between atoms: C_4  and  C_23 
REMARK    3  A    between atoms: C_10  and  C_11 
REMARK    4  A    between atoms: C_23  and  N_24 
ROOT
ATOM      1  C   LIG d   1       4.931  -5.333  -8.408  0.00  0.00    -0.044 A 
ATOM      2  C   LIG d   1       3.937  -5.007  -9.287  0.00  0.00    -0.019 A 
ATOM      3  C   LIG d   1       3.364  -3.739  -9.255  0.00  0.00     0.125 A 
ATOM      4  C   LIG d   1       3.792  -2.795  -8.336  0.00  0.00     0.051 A 
ATOM      5  C   LIG d   1       4.802  -3.110  -7.436  0.00  0.00     0.147 A 
ATOM      6  C   LIG d   1       5.372  -4.392  -7.478  0.00  0.00     0.068 A 
ATOM      7  C   LIG d   1       6.398  -4.425  -6.420  0.00  0.00     0.232 A 
ATOM      8  O   LIG d   1       7.129  -5.353  -6.117  0.00  0.00    -0.283 OA
ATOM      9  C   LIG d   1       6.344  -3.089  -5.811  0.00  0.00     0.176 A 
ATOM     10  C   LIG d   1       7.112  -2.642  -4.784  0.00  0.00    -0.005 C 
ATOM     11  O   LIG d   1       5.384  -2.384  -6.456  0.00  0.00    -0.451 OA
ATOM     12  H   LIG d   1       5.375  -6.317  -8.435  0.00  0.00     0.063 H 
ATOM     13  H   LIG d   1       3.594  -5.735 -10.008  0.00  0.00     0.065 H 
ATOM     14  H   LIG d   1       7.811  -3.328  -4.282  0.00  0.00     0.066 H 
ENDROOT
BRANCH  10  15
ATOM     15  C   LIG d   1       7.010  -1.247  -4.343  0.00  0.00     0.022 A 
ATOM     16  C   LIG d   1       5.998  -0.860  -3.448  0.00  0.00     0.136 A 
ATOM     17  C   LIG d   1       5.913   0.459  -3.036  0.00  0.00     0.022 A 
ATOM     18  O   LIG d   1       5.111  -1.784  -2.999  0.00  0.00    -0.465 OA
ATOM     19  C   LIG d   1       6.819   1.391  -3.506  0.00  0.00    -0.039 A 
ATOM     20  C   LIG d   1       4.836   0.889  -2.072  0.00  0.00     0.080 C 
ATOM     21  C   LIG d   1       7.819   1.016  -4.391  0.00  0.00     0.019 A 
ATOM     22  H   LIG d   1       6.747   2.419  -3.184  0.00  0.00     0.063 H 
ATOM     23  C   LIG d   1       7.925  -0.293  -4.807  0.00  0.00    -0.037 A 
ATOM     24 BR   LIG d   1       9.048   2.306  -5.024  0.00  0.00    -0.050 Br
ATOM     25  H   LIG d   1       8.708  -0.582  -5.491  0.00  0.00     0.064 H 
ATOM     26  O   LIG d   1       3.819  -0.117  -2.019  0.00  0.00    -0.339 OA
ATOM     27  H   LIG d   1       5.273   1.024  -1.071  0.00  0.00     0.061 H 
ATOM     28  H   LIG d   1       4.397   1.838  -2.411  0.00  0.00     0.061 H 
ATOM     29  C   LIG d   1       4.346  -1.438  -1.840  0.00  0.00     0.191 C 
ATOM     30  H   LIG d   1       3.522  -2.156  -1.716  0.00  0.00     0.102 H 
ATOM     31  H   LIG d   1       4.994  -1.465  -0.952  0.00  0.00     0.102 H 
ENDBRANCH  10  15
BRANCH   4  32
ATOM     32  C   LIG d   1       3.162  -1.426  -8.313  0.00  0.00     0.031 C 
ATOM     33  H   LIG d   1       2.144  -1.485  -8.725  0.00  0.00     0.048 H 
ATOM     34  H   LIG d   1       3.117  -1.061  -7.276  0.00  0.00     0.048 H 
BRANCH  32  35
ATOM     35  N   LIG d   1       3.966  -0.503  -9.122  0.00  0.00    -0.294 N 
ATOM     36  C   LIG d   1       3.167   0.077 -10.212  0.00  0.00     0.023 C 
ATOM     37  C   LIG d   1       4.058   0.985 -11.064  0.00  0.00     0.060 C 
ATOM     38  H   LIG d   1       2.758  -0.731 -10.836  0.00  0.00     0.045 H 
ATOM     39  H   LIG d   1       2.341   0.666  -9.786  0.00  0.00     0.045 H 
ATOM     40  O   LIG d   1       4.644   1.988 -10.230  0.00  0.00    -0.377 OA
ATOM     41  H   LIG d   1       3.452   1.466 -11.846  0.00  0.00     0.057 H 
ATOM     42  H   LIG d   1       4.853   0.386 -11.532  0.00  0.00     0.057 H 
ATOM     43  C   LIG d   1       5.431   1.459  -9.160  0.00  0.00     0.060 C 
ATOM     44  C   LIG d   1       4.554   0.555  -8.287  0.00  0.00     0.023 C 
ATOM     45  H   LIG d   1       5.827   2.284  -8.550  0.00  0.00     0.057 H 
ATOM     46  H   LIG d   1       6.266   0.872  -9.570  0.00  0.00     0.057 H 
ATOM     47  H   LIG d   1       3.750   1.152  -7.831  0.00  0.00     0.045 H 
ATOM     48  H   LIG d   1       5.167   0.100  -7.496  0.00  0.00     0.045 H 
ENDBRANCH  32  35
ENDBRANCH   4  32
BRANCH   3  49
ATOM     49  O   LIG d   1       2.376  -3.425 -10.132  0.00  0.00    -0.506 OA
ATOM     50  H   LIG d   1       1.509  -2.837  -9.796  0.00  0.00     0.292 HD
ENDBRANCH   3  49
TORSDOF 4
ENDMDL
MODEL 3
REMARK VINA RESULT:      -6.5      1.787      2.611
REMARK  4 active torsions:
REMARK  status: ('A' for Active; 'I' for Inactive)
REMARK    1  A    between atoms: C_3  and  O_30 
REMARK    2  A    between atoms: C_4  and  C_23 
REMARK    3  A    between atoms: C_10  and  C_11 
REMARK    4  A    between atoms: C_23  and  N_24 
ROOT
ATOM      1  C   LIG d   1       9.776   4.175  -6.708  0.00  0.00    -0.044 A 
ATOM      2  C   LIG d   1       9.708   4.282  -8.068  0.00  0.00    -0.019 A 
ATOM      3  C   LIG d   1       8.938   3.385  -8.803  0.00  0.00     0.125 A 
ATOM      4  C   LIG d   1       8.234   2.375  -8.167  0.00  0.00     0.051 A 
ATOM      5  C   LIG d   1       8.292   2.253  -6.784  0.00  0.00     0.147 A 
ATOM      6  C   LIG d   1       9.072   3.164  -6.055  0.00  0.00     0.068 A 
ATOM      7  C   LIG d   1       8.936   2.783  -4.637  0.00  0.00     0.232 A 
ATOM      8  O   LIG d   1       9.452   3.316  -3.668  0.00  0.00    -0.283 OA
ATOM      9  C   LIG d   1       8.041   1.619  -4.651  0.00  0.00     0.176 A 
ATOM     10  C   LIG d   1       7.621   0.915  -3.567  0.00  0.00    -0.005 C 
ATOM     11  O   LIG d   1       7.714   1.369  -5.941  0.00  0.00    -0.451 OA
ATOM     12  H   LIG d   1      10.374   4.872  -6.140  0.00  0.00     0.063 H 
ATOM     13  H   LIG d   1      10.253   5.065  -8.576  0.00  0.00     0.065 H 
ATOM     14  H   LIG d   1       8.011   1.160  -2.568  0.00  0.00     0.066 H 
ENDROOT
BRANCH  10  15
ATOM     15  C   LIG d   1       6.647  -0.170  -3.729  0.00  0.00     0.022 A 
ATOM     16  C   LIG d   1       7.064  -1.431  -4.190  0.00  0.00     0.136 A 
ATOM     17  C   LIG d   1       6.137  -2.449  -4.334  0.00  0.00     0.022 A 
ATOM     18  O   LIG d   1       8.371  -1.636  -4.491  0.00  0.00    -0.465 OA
ATOM     19  C   LIG d   1       4.807  -2.224  -4.029  0.00  0.00    -0.039 A 
ATOM     20  C   LIG d   1       6.568  -3.809  -4.823  0.00  0.00     0.080 C 
ATOM     21  C   LIG d   1       4.390  -0.982  -3.576  0.00  0.00     0.019 A 
ATOM     22  H   LIG d   1       4.088  -3.021  -4.147  0.00  0.00     0.063 H 
ATOM     23  C   LIG d   1       5.298   0.042  -3.417  0.00  0.00    -0.037 A 
ATOM     24 BR   LIG d   1       2.567  -0.694  -3.164  0.00  0.00    -0.050 Br
ATOM     25  H   LIG d   1       4.970   1.006  -3.058  0.00  0.00     0.064 H 
ATOM     26  O   LIG d   1       7.865  -3.708  -5.420  0.00  0.00    -0.339 OA
ATOM     27  H   LIG d   1       6.606  -4.508  -3.975  0.00  0.00     0.061 H 
ATOM     28  H   LIG d   1       5.848  -4.177  -5.569  0.00  0.00     0.061 H 
ATOM     29  C   LIG d   1       8.803  -2.995  -4.603  0.00  0.00     0.191 C 
ATOM     30  H   LIG d   1       9.801  -3.026  -5.065  0.00  0.00     0.102 H 
ATOM     31  H   LIG d   1       8.848  -3.449  -3.602  0.00  0.00     0.102 H 
ENDBRANCH  10  15
BRANCH   4  32
ATOM     32  C   LIG d   1       7.404   1.411  -8.975  0.00  0.00     0.031 C 
ATOM     33  H   LIG d   1       7.428   1.706 -10.034  0.00  0.00     0.048 H 
ATOM     34  H   LIG d   1       7.814   0.395  -8.867  0.00  0.00     0.048 H 
BRANCH  32  35
ATOM     35  N   LIG d   1       6.018   1.433  -8.492  0.00  0.00    -0.294 N 
ATOM     36  C   LIG d   1       5.142   2.146  -9.434  0.00  0.00     0.023 C 
ATOM     37  C   LIG d   1       3.722   2.196  -8.864  0.00  0.00     0.060 C 
ATOM     38  H   LIG d   1       5.518   3.169  -9.581  0.00  0.00     0.045 H 
ATOM     39  H   LIG d   1       5.134   1.616 -10.398  0.00  0.00     0.045 H 
ATOM     40  O   LIG d   1       3.269   0.865  -8.607  0.00  0.00    -0.377 OA
ATOM     41  H   LIG d   1       3.051   2.678  -9.591  0.00  0.00     0.057 H 
ATOM     42  H   LIG d   1       3.722   2.772  -7.927  0.00  0.00     0.057 H 
ATOM     43  C   LIG d   1       4.097   0.142  -7.692  0.00  0.00     0.060 C 
ATOM     44  C   LIG d   1       5.522   0.070  -8.250  0.00  0.00     0.023 C 
ATOM     45  H   LIG d   1       3.704  -0.877  -7.563  0.00  0.00     0.057 H 
ATOM     46  H   LIG d   1       4.111   0.656  -6.720  0.00  0.00     0.057 H 
ATOM     47  H   LIG d   1       5.520  -0.493  -9.195  0.00  0.00     0.045 H 
ATOM     48  H   LIG d   1       6.177  -0.435  -7.524  0.00  0.00     0.045 H 
ENDBRANCH  32  35
ENDBRANCH   4  32
BRANCH   3  49
ATOM     49  O   LIG d   1       8.877   3.500 -10.154  0.00  0.00    -0.506 OA
ATOM     50  H   LIG d   1       9.462   4.278 -10.666  0.00  0.00     0.292 HD
ENDBRANCH   3  49
TORSDOF 4
ENDMDL
MODEL 4
REMARK VINA RESULT:      -6.4      3.354      6.294
REMARK  4 active torsions:
REMARK  status: ('A' for Active; 'I' for Inactive)
REMARK    1  A    between atoms: C_3  and  O_30 
REMARK    2  A    between atoms: C_4  and  C_23 
REMARK    3  A    between atoms: C_10  and  C_11 
REMARK    4  A    between atoms: C_23  and  N_24 
ROOT
ATOM      1  C   LIG d   1       4.465  -5.740  -8.086  0.00  0.00    -0.044 A 
ATOM      2  C   LIG d   1       3.600  -5.355  -9.070  0.00  0.00    -0.019 A 
ATOM      3  C   LIG d   1       3.192  -4.027  -9.163  0.00  0.00     0.125 A 
ATOM      4  C   LIG d   1       3.656  -3.083  -8.262  0.00  0.00     0.051 A 
ATOM      5  C   LIG d   1       4.537  -3.458  -7.255  0.00  0.00     0.147 A 
ATOM      6  C   LIG d   1       4.941  -4.800  -7.172  0.00  0.00     0.068 A 
ATOM      7  C   LIG d   1       5.860  -4.886  -6.022  0.00  0.00     0.232 A 
ATOM      8  O   LIG d   1       6.438  -5.875  -5.602  0.00  0.00    -0.283 OA
ATOM      9  C   LIG d   1       5.923  -3.516  -5.497  0.00  0.00     0.176 A 
ATOM     10  C   LIG d   1       6.651  -3.099  -4.428  0.00  0.00    -0.005 C 
ATOM     11  O   LIG d   1       5.120  -2.745  -6.267  0.00  0.00    -0.451 OA
ATOM     12  H   LIG d   1       4.781  -6.771  -8.016  0.00  0.00     0.063 H 
ATOM     13  H   LIG d   1       3.231  -6.083  -9.779  0.00  0.00     0.065 H 
ATOM     14  H   LIG d   1       7.211  -3.829  -3.826  0.00  0.00     0.066 H 
ENDROOT
BRANCH  10  15
ATOM     15  C   LIG d   1       6.689  -1.675  -4.077  0.00  0.00     0.022 A 
ATOM     16  C   LIG d   1       7.719  -0.853  -4.568  0.00  0.00     0.136 A 
ATOM     17  C   LIG d   1       7.743   0.490  -4.233  0.00  0.00     0.022 A 
ATOM     18  O   LIG d   1       8.681  -1.387  -5.363  0.00  0.00    -0.465 OA
ATOM     19  C   LIG d   1       6.761   1.018  -3.418  0.00  0.00    -0.039 A 
ATOM     20  C   LIG d   1       8.839   1.385  -4.755  0.00  0.00     0.080 C 
ATOM     21  C   LIG d   1       5.743   0.213  -2.929  0.00  0.00     0.019 A 
ATOM     22  H   LIG d   1       6.786   2.066  -3.157  0.00  0.00     0.063 H 
ATOM     23  C   LIG d   1       5.696  -1.125  -3.257  0.00  0.00    -0.037 A 
ATOM     24 BR   LIG d   1       4.408   0.955  -1.814  0.00  0.00    -0.050 Br
ATOM     25  H   LIG d   1       4.899  -1.747  -2.879  0.00  0.00     0.064 H 
ATOM     26  O   LIG d   1       9.916   0.580  -5.244  0.00  0.00    -0.339 OA
ATOM     27  H   LIG d   1       8.444   2.009  -5.572  0.00  0.00     0.061 H 
ATOM     28  H   LIG d   1       9.202   2.032  -3.944  0.00  0.00     0.061 H 
ATOM     29  C   LIG d   1       9.479  -0.470  -6.117  0.00  0.00     0.191 C 
ATOM     30  H   LIG d   1      10.350  -0.998  -6.532  0.00  0.00     0.102 H 
ATOM     31  H   LIG d   1       8.879  -0.050  -6.937  0.00  0.00     0.102 H 
ENDBRANCH  10  15
BRANCH   4  32
ATOM     32  C   LIG d   1       3.206  -1.649  -8.374  0.00  0.00     0.031 C 
ATOM     33  H   LIG d   1       2.256  -1.606  -8.926  0.00  0.00     0.048 H 
ATOM     34  H   LIG d   1       3.064  -1.230  -7.367  0.00  0.00     0.048 H 
BRANCH  32  35
ATOM     35  N   LIG d   1       4.225  -0.871  -9.089  0.00  0.00    -0.294 N 
ATOM     36  C   LIG d   1       3.694  -0.346 -10.357  0.00  0.00     0.023 C 
ATOM     37  C   LIG d   1       4.803   0.407 -11.096  0.00  0.00     0.060 C 
ATOM     38  H   LIG d   1       3.337  -1.181 -10.978  0.00  0.00     0.045 H 
ATOM     39  H   LIG d   1       2.859   0.339 -10.148  0.00  0.00     0.045 H 
ATOM     40  O   LIG d   1       5.313   1.443 -10.252  0.00  0.00    -0.377 OA
ATOM     41  H   LIG d   1       4.396   0.850 -12.016  0.00  0.00     0.057 H 
ATOM     42  H   LIG d   1       5.615  -0.291 -11.351  0.00  0.00     0.057 H 
ATOM     43  C   LIG d   1       5.839   0.968  -9.010  0.00  0.00     0.060 C 
ATOM     44  C   LIG d   1       4.740   0.220  -8.249  0.00  0.00     0.023 C 
ATOM     45  H   LIG d   1       6.188   1.819  -8.407  0.00  0.00     0.057 H 
ATOM     46  H   LIG d   1       6.680   0.286  -9.202  0.00  0.00     0.057 H 
ATOM     47  H   LIG d   1       3.922   0.915  -8.007  0.00  0.00     0.045 H 
ATOM     48  H   LIG d   1       5.154  -0.197  -7.319  0.00  0.00     0.045 H 
ENDBRANCH  32  35
ENDBRANCH   4  32
BRANCH   3  49
ATOM     49  O   LIG d   1       2.332  -3.655 -10.145  0.00  0.00    -0.506 OA
ATOM     50  H   LIG d   1       1.247  -3.764  -9.996  0.00  0.00     0.292 HD
ENDBRANCH   3  49
TORSDOF 4
ENDMDL
MODEL 5
REMARK VINA RESULT:      -6.3      3.972      5.472
REMARK  4 active torsions:
REMARK  status: ('A' for Active; 'I' for Inactive)
REMARK    1  A    between atoms: C_3  and  O_30 
REMARK    2  A    between atoms: C_4  and  C_23 
REMARK    3  A    between atoms: C_10  and  C_11 
REMARK    4  A    between atoms: C_23  and  N_24 
ROOT
ATOM      1  C   LIG d   1       2.794   1.529  -8.030  0.00  0.00    -0.044 A 
ATOM      2  C   LIG d   1       3.108   1.775  -9.337  0.00  0.00    -0.019 A 
ATOM      3  C   LIG d   1       4.080   1.010  -9.978  0.00  0.00     0.125 A 
ATOM      4  C   LIG d   1       4.738  -0.004  -9.301  0.00  0.00     0.051 A 
ATOM      5  C   LIG d   1       4.429  -0.267  -7.973  0.00  0.00     0.147 A 
ATOM      6  C   LIG d   1       3.448   0.510  -7.337  0.00  0.00     0.068 A 
ATOM      7  C   LIG d   1       3.346   0.002  -5.957  0.00  0.00     0.232 A 
ATOM      8  O   LIG d   1       2.611   0.400  -5.068  0.00  0.00    -0.283 OA
ATOM      9  C   LIG d   1       4.327  -1.089  -5.892  0.00  0.00     0.176 A 
ATOM     10  C   LIG d   1       4.595  -1.864  -4.809  0.00  0.00    -0.005 C 
ATOM     11  O   LIG d   1       4.921  -1.179  -7.105  0.00  0.00    -0.451 OA
ATOM     12  H   LIG d   1       2.040   2.123  -7.535  0.00  0.00     0.063 H 
ATOM     13  H   LIG d   1       2.602   2.564  -9.874  0.00  0.00     0.065 H 
ATOM     14  H   LIG d   1       4.105  -1.653  -3.847  0.00  0.00     0.066 H 
ENDROOT
BRANCH  10  15
ATOM     15  C   LIG d   1       5.537  -2.982  -4.922  0.00  0.00     0.022 A 
ATOM     16  C   LIG d   1       5.142  -4.181  -5.540  0.00  0.00     0.136 A 
ATOM     17  C   LIG d   1       6.041  -5.229  -5.644  0.00  0.00     0.022 A 
ATOM     18  O   LIG d   1       3.881  -4.300  -6.027  0.00  0.00    -0.465 OA
ATOM     19  C   LIG d   1       7.321  -5.096  -5.139  0.00  0.00    -0.039 A 
ATOM     20  C   LIG d   1       5.634  -6.519  -6.310  0.00  0.00     0.080 C 
ATOM     21  C   LIG d   1       7.717  -3.917  -4.526  0.00  0.00     0.019 A 
ATOM     22  H   LIG d   1       8.017  -5.917  -5.220  0.00  0.00     0.063 H 
ATOM     23  C   LIG d   1       6.839  -2.860  -4.419  0.00  0.00    -0.037 A 
ATOM     24 BR   LIG d   1       9.471  -3.755  -3.840  0.00  0.00    -0.050 Br
ATOM     25  H   LIG d   1       7.153  -1.941  -3.947  0.00  0.00     0.064 H 
ATOM     26  O   LIG d   1       4.207  -6.570  -6.410  0.00  0.00    -0.339 OA
ATOM     27  H   LIG d   1       6.076  -6.569  -7.316  0.00  0.00     0.061 H 
ATOM     28  H   LIG d   1       5.991  -7.370  -5.711  0.00  0.00     0.061 H 
ATOM     29  C   LIG d   1       3.640  -5.368  -6.947  0.00  0.00     0.191 C 
ATOM     30  H   LIG d   1       2.556  -5.495  -7.087  0.00  0.00     0.102 H 
ATOM     31  H   LIG d   1       4.110  -5.132  -7.913  0.00  0.00     0.102 H 
ENDBRANCH  10  15
BRANCH   4  32
ATOM     32  C   LIG d   1       5.787  -0.823 -10.008  0.00  0.00     0.031 C 
ATOM     33  H   LIG d   1       6.169  -0.261 -10.873  0.00  0.00     0.048 H 
ATOM     34  H   LIG d   1       6.614  -1.036  -9.315  0.00  0.00     0.048 H 
BRANCH  32  35
ATOM     35  N   LIG d   1       5.196  -2.087 -10.467  0.00  0.00    -0.294 N 
ATOM     36  C   LIG d   1       5.241  -2.189 -11.933  0.00  0.00     0.023 C 
ATOM     37  C   LIG d   1       4.563  -3.490 -12.370  0.00  0.00     0.060 C 
ATOM     38  H   LIG d   1       4.715  -1.331 -12.377  0.00  0.00     0.045 H 
ATOM     39  H   LIG d   1       6.290  -2.189 -12.267  0.00  0.00     0.045 H 
ATOM     40  O   LIG d   1       5.207  -4.595 -11.730  0.00  0.00    -0.377 OA
ATOM     41  H   LIG d   1       4.646  -3.600 -13.461  0.00  0.00     0.057 H 
ATOM     42  H   LIG d   1       3.502  -3.467 -12.082  0.00  0.00     0.057 H 
ATOM     43  C   LIG d   1       5.180  -4.529 -10.302  0.00  0.00     0.060 C 
ATOM     44  C   LIG d   1       5.865  -3.238  -9.843  0.00  0.00     0.023 C 
ATOM     45  H   LIG d   1       5.713  -5.395  -9.882  0.00  0.00     0.057 H 
ATOM     46  H   LIG d   1       4.138  -4.535  -9.951  0.00  0.00     0.057 H 
ATOM     47  H   LIG d   1       6.922  -3.255 -10.144  0.00  0.00     0.045 H 
ATOM     48  H   LIG d   1       5.796  -3.153  -8.748  0.00  0.00     0.045 H 
ENDBRANCH  32  35
ENDBRANCH   4  32
BRANCH   3  49
ATOM     49  O   LIG d   1       4.385   1.263 -11.276  0.00  0.00    -0.506 OA
ATOM     50  H   LIG d   1       4.241   2.272 -11.688  0.00  0.00     0.292 HD
ENDBRANCH   3  49
TORSDOF 4
ENDMDL
MODEL 6
REMARK VINA RESULT:      -6.2      4.344      7.432
REMARK  4 active torsions:
REMARK  status: ('A' for Active; 'I' for Inactive)
REMARK    1  A    between atoms: C_3  and  O_30 
REMARK    2  A    between atoms: C_4  and  C_23 
REMARK    3  A    between atoms: C_10  and  C_11 
REMARK    4  A    between atoms: C_23  and  N_24 
ROOT
ATOM      1  C   LIG d   1       2.169  -1.299  -9.678  0.00  0.00    -0.044 A 
ATOM      2  C   LIG d   1       2.173  -0.044  -9.138  0.00  0.00    -0.019 A 
ATOM      3  C   LIG d   1       2.973   0.241  -8.035  0.00  0.00     0.125 A 
ATOM      4  C   LIG d   1       3.772  -0.740  -7.472  0.00  0.00     0.051 A 
ATOM      5  C   LIG d   1       3.780  -2.021  -8.009  0.00  0.00     0.147 A 
ATOM      6  C   LIG d   1       2.970  -2.296  -9.121  0.00  0.00     0.068 A 
ATOM      7  C   LIG d   1       3.191  -3.715  -9.455  0.00  0.00     0.232 A 
ATOM      8  O   LIG d   1       2.680  -4.358 -10.357  0.00  0.00    -0.283 OA
ATOM      9  C   LIG d   1       4.165  -4.182  -8.459  0.00  0.00     0.176 A 
ATOM     10  C   LIG d   1       4.678  -5.435  -8.363  0.00  0.00    -0.005 C 
ATOM     11  O   LIG d   1       4.454  -3.136  -7.648  0.00  0.00    -0.451 OA
ATOM     12  H   LIG d   1       1.549  -1.518 -10.534  0.00  0.00     0.063 H 
ATOM     13  H   LIG d   1       1.553   0.730  -9.569  0.00  0.00     0.065 H 
ATOM     14  H   LIG d   1       4.314  -6.231  -9.030  0.00  0.00     0.066 H 
ENDROOT
BRANCH  10  15
ATOM     15  C   LIG d   1       5.718  -5.730  -7.371  0.00  0.00     0.022 A 
ATOM     16  C   LIG d   1       5.621  -6.875  -6.563  0.00  0.00     0.136 A 
ATOM     17  C   LIG d   1       6.610  -7.145  -5.633  0.00  0.00     0.022 A 
ATOM     18  O   LIG d   1       4.555  -7.705  -6.701  0.00  0.00    -0.465 OA
ATOM     19  C   LIG d   1       7.686  -6.288  -5.498  0.00  0.00    -0.039 A 
ATOM     20  C   LIG d   1       6.522  -8.373  -4.762  0.00  0.00     0.080 C 
ATOM     21  C   LIG d   1       7.787  -5.155  -6.291  0.00  0.00     0.019 A 
ATOM     22  H   LIG d   1       8.454  -6.502  -4.769  0.00  0.00     0.063 H 
ATOM     23  C   LIG d   1       6.817  -4.873  -7.228  0.00  0.00    -0.037 A 
ATOM     24 BR   LIG d   1       9.267  -3.995  -6.091  0.00  0.00    -0.050 Br
ATOM     25  H   LIG d   1       6.903  -3.993  -7.848  0.00  0.00     0.064 H 
ATOM     26  O   LIG d   1       5.188  -8.888  -4.802  0.00  0.00    -0.339 OA
ATOM     27  H   LIG d   1       7.223  -9.136  -5.132  0.00  0.00     0.061 H 
ATOM     28  H   LIG d   1       6.783  -8.108  -3.726  0.00  0.00     0.061 H 
ATOM     29  C   LIG d   1       4.676  -9.013  -6.135  0.00  0.00     0.191 C 
ATOM     30  H   LIG d   1       3.687  -9.495  -6.112  0.00  0.00     0.102 H 
ATOM     31  H   LIG d   1       5.364  -9.615  -6.746  0.00  0.00     0.102 H 
ENDBRANCH  10  15
BRANCH   4  32
ATOM     32  C   LIG d   1       4.632  -0.417  -6.277  0.00  0.00     0.031 C 
ATOM     33  H   LIG d   1       5.636  -0.844  -6.423  0.00  0.00     0.048 H 
ATOM     34  H   LIG d   1       4.710   0.675  -6.167  0.00  0.00     0.048 H 
BRANCH  32  35
ATOM     35  N   LIG d   1       4.027  -0.990  -5.068  0.00  0.00    -0.294 N 
ATOM     36  C   LIG d   1       5.024  -1.730  -4.280  0.00  0.00     0.023 C 
ATOM     37  C   LIG d   1       4.340  -2.359  -3.063  0.00  0.00     0.060 C 
ATOM     38  H   LIG d   1       5.471  -2.520  -4.902  0.00  0.00     0.045 H 
ATOM     39  H   LIG d   1       5.812  -1.039  -3.944  0.00  0.00     0.045 H 
ATOM     40  O   LIG d   1       3.699  -1.333  -2.300  0.00  0.00    -0.377 OA
ATOM     41  H   LIG d   1       5.091  -2.865  -2.439  0.00  0.00     0.057 H 
ATOM     42  H   LIG d   1       3.589  -3.089  -3.399  0.00  0.00     0.057 H 
ATOM     43  C   LIG d   1       2.721  -0.593  -3.036  0.00  0.00     0.060 C 
ATOM     44  C   LIG d   1       3.389   0.054  -4.253  0.00  0.00     0.023 C 
ATOM     45  H   LIG d   1       2.291   0.190  -2.395  0.00  0.00     0.057 H 
ATOM     46  H   LIG d   1       1.923  -1.270  -3.373  0.00  0.00     0.057 H 
ATOM     47  H   LIG d   1       4.150   0.773  -3.917  0.00  0.00     0.045 H 
ATOM     48  H   LIG d   1       2.631   0.577  -4.855  0.00  0.00     0.045 H 
ENDBRANCH  32  35
ENDBRANCH   4  32
BRANCH   3  49
ATOM     49  O   LIG d   1       2.968   1.491  -7.506  0.00  0.00    -0.506 OA
ATOM     50  H   LIG d   1       2.579   1.657  -6.491  0.00  0.00     0.292 HD
ENDBRANCH   3  49
TORSDOF 4
ENDMDL
MODEL 7
REMARK VINA RESULT:      -6.2      3.451      5.550
REMARK  4 active torsions:
REMARK  status: ('A' for Active; 'I' for Inactive)
REMARK    1  A    between atoms: C_3  and  O_30 
REMARK    2  A    between atoms: C_4  and  C_23 
REMARK    3  A    between atoms: C_10  and  C_11 
REMARK    4  A    between atoms: C_23  and  N_24 
ROOT
ATOM      1  C   LIG d   1       4.020   0.429 -11.384  0.00  0.00    -0.044 A 
ATOM      2  C   LIG d   1       3.185  -0.461 -11.998  0.00  0.00    -0.019 A 
ATOM      3  C   LIG d   1       2.787  -1.618 -11.334  0.00  0.00     0.125 A 
ATOM      4  C   LIG d   1       3.232  -1.881 -10.048  0.00  0.00     0.051 A 
ATOM      5  C   LIG d   1       4.081  -0.986  -9.410  0.00  0.00     0.147 A 
ATOM      6  C   LIG d   1       4.475   0.177 -10.090  0.00  0.00     0.068 A 
ATOM      7  C   LIG d   1       5.360   0.915  -9.171  0.00  0.00     0.232 A 
ATOM      8  O   LIG d   1       5.921   1.980  -9.369  0.00  0.00    -0.283 OA
ATOM      9  C   LIG d   1       5.417   0.081  -7.963  0.00  0.00     0.176 A 
ATOM     10  C   LIG d   1       6.117   0.352  -6.831  0.00  0.00    -0.005 C 
ATOM     11  O   LIG d   1       4.649  -1.013  -8.185  0.00  0.00    -0.451 OA
ATOM     12  H   LIG d   1       4.327   1.327 -11.901  0.00  0.00     0.063 H 
ATOM     13  H   LIG d   1       2.832  -0.267 -13.001  0.00  0.00     0.065 H 
ATOM     14  H   LIG d   1       6.771   1.236  -6.788  0.00  0.00     0.066 H 
ENDROOT
BRANCH  10  15
ATOM     15  C   LIG d   1       6.001  -0.531  -5.666  0.00  0.00     0.022 A 
ATOM     16  C   LIG d   1       4.853  -0.487  -4.856  0.00  0.00     0.136 A 
ATOM     17  C   LIG d   1       4.753  -1.328  -3.761  0.00  0.00     0.022 A 
ATOM     18  O   LIG d   1       3.856   0.384  -5.154  0.00  0.00    -0.465 OA
ATOM     19  C   LIG d   1       5.780  -2.205  -3.466  0.00  0.00    -0.039 A 
ATOM     20  C   LIG d   1       3.526  -1.296  -2.885  0.00  0.00     0.080 C 
ATOM     21  C   LIG d   1       6.915  -2.253  -4.260  0.00  0.00     0.019 A 
ATOM     22  H   LIG d   1       5.698  -2.858  -2.608  0.00  0.00     0.063 H 
ATOM     23  C   LIG d   1       7.031  -1.430  -5.359  0.00  0.00    -0.037 A 
ATOM     24 BR   LIG d   1       8.309  -3.460  -3.839  0.00  0.00    -0.050 Br
ATOM     25  H   LIG d   1       7.914  -1.474  -5.978  0.00  0.00     0.064 H 
ATOM     26  O   LIG d   1       2.793  -0.094  -3.142  0.00  0.00    -0.339 OA
ATOM     27  H   LIG d   1       2.894  -2.168  -3.107  0.00  0.00     0.061 H 
ATOM     28  H   LIG d   1       3.829  -1.323  -1.828  0.00  0.00     0.061 H 
ATOM     29  C   LIG d   1       2.586   0.148  -4.540  0.00  0.00     0.191 C 
ATOM     30  H   LIG d   1       1.943   1.030  -4.675  0.00  0.00     0.102 H 
ATOM     31  H   LIG d   1       2.111  -0.728  -5.005  0.00  0.00     0.102 H 
ENDBRANCH  10  15
BRANCH   4  32
ATOM     32  C   LIG d   1       2.793  -3.139  -9.342  0.00  0.00     0.031 C 
ATOM     33  H   LIG d   1       2.388  -2.880  -8.352  0.00  0.00     0.048 H 
ATOM     34  H   LIG d   1       2.016  -3.641  -9.937  0.00  0.00     0.048 H 
BRANCH  32  35
ATOM     35  N   LIG d   1       3.943  -4.037  -9.181  0.00  0.00    -0.294 N 
ATOM     36  C   LIG d   1       3.953  -4.646  -7.842  0.00  0.00     0.023 C 
ATOM     37  C   LIG d   1       5.198  -5.526  -7.697  0.00  0.00     0.060 C 
ATOM     38  H   LIG d   1       3.970  -3.854  -7.079  0.00  0.00     0.045 H 
ATOM     39  H   LIG d   1       3.050  -5.261  -7.713  0.00  0.00     0.045 H 
ATOM     40  O   LIG d   1       5.206  -6.506  -8.738  0.00  0.00    -0.377 OA
ATOM     41  H   LIG d   1       5.180  -6.030  -6.720  0.00  0.00     0.057 H 
ATOM     42  H   LIG d   1       6.100  -4.903  -7.774  0.00  0.00     0.057 H 
ATOM     43  C   LIG d   1       5.198  -5.949 -10.055  0.00  0.00     0.060 C 
ATOM     44  C   LIG d   1       3.953  -5.072 -10.225  0.00  0.00     0.023 C 
ATOM     45  H   LIG d   1       5.180  -6.758 -10.799  0.00  0.00     0.057 H 
ATOM     46  H   LIG d   1       6.100  -5.336 -10.202  0.00  0.00     0.057 H 
ATOM     47  H   LIG d   1       3.051  -5.694 -10.134  0.00  0.00     0.045 H 
ATOM     48  H   LIG d   1       3.971  -4.594 -11.215  0.00  0.00     0.045 H 
ENDBRANCH  32  35
ENDBRANCH   4  32
BRANCH   3  49
ATOM     49  O   LIG d   1       1.957  -2.497 -11.952  0.00  0.00    -0.506 OA
ATOM     50  H   LIG d   1       1.315  -3.160 -11.354  0.00  0.00     0.292 HD
ENDBRANCH   3  49
TORSDOF 4
ENDMDL
MODEL 8
REMARK VINA RESULT:      -6.1      2.371      4.739
REMARK  4 active torsions:
REMARK  status: ('A' for Active; 'I' for Inactive)
REMARK    1  A    between atoms: C_3  and  O_30 
REMARK    2  A    between atoms: C_4  and  C_23 
REMARK    3  A    between atoms: C_10  and  C_11 
REMARK    4  A    between atoms: C_23  and  N_24 
ROOT
ATOM      1  C   LIG d   1       8.786   3.627  -9.150  0.00  0.00    -0.044 A 
ATOM      2  C   LIG d   1       9.717   4.448  -8.580  0.00  0.00    -0.019 A 
ATOM      3  C   LIG d   1      10.042   4.309  -7.233  0.00  0.00     0.125 A 
ATOM      4  C   LIG d   1       9.426   3.340  -6.457  0.00  0.00     0.051 A 
ATOM      5  C   LIG d   1       8.478   2.497  -7.022  0.00  0.00     0.147 A 
ATOM      6  C   LIG d   1       8.159   2.647  -8.381  0.00  0.00     0.068 A 
ATOM      7  C   LIG d   1       7.139   1.627  -8.683  0.00  0.00     0.232 A 
ATOM      8  O   LIG d   1       6.590   1.415  -9.751  0.00  0.00    -0.283 OA
ATOM      9  C   LIG d   1       6.930   0.925  -7.410  0.00  0.00     0.176 A 
ATOM     10  C   LIG d   1       6.072  -0.106  -7.192  0.00  0.00    -0.005 C 
ATOM     11  O   LIG d   1       7.744   1.495  -6.489  0.00  0.00    -0.451 OA
ATOM     12  H   LIG d   1       8.536   3.737 -10.195  0.00  0.00     0.063 H 
ATOM     13  H   LIG d   1      10.203   5.208  -9.175  0.00  0.00     0.065 H 
ATOM     14  H   LIG d   1       5.400  -0.441  -7.996  0.00  0.00     0.066 H 
ENDROOT
BRANCH  10  15
ATOM     15  C   LIG d   1       6.042  -0.772  -5.886  0.00  0.00     0.022 A 
ATOM     16  C   LIG d   1       4.981  -0.534  -4.994  0.00  0.00     0.136 A 
ATOM     17  C   LIG d   1       4.961  -1.171  -3.766  0.00  0.00     0.022 A 
ATOM     18  O   LIG d   1       3.989   0.323  -5.347  0.00  0.00    -0.465 OA
ATOM     19  C   LIG d   1       5.981  -2.036  -3.417  0.00  0.00    -0.039 A 
ATOM     20  C   LIG d   1       3.828  -0.929  -2.801  0.00  0.00     0.080 C 
ATOM     21  C   LIG d   1       7.031  -2.274  -4.291  0.00  0.00     0.019 A 
ATOM     22  H   LIG d   1       5.962  -2.529  -2.456  0.00  0.00     0.063 H 
ATOM     23  C   LIG d   1       7.066  -1.656  -5.522  0.00  0.00    -0.037 A 
ATOM     24 BR   LIG d   1       8.418  -3.460  -3.795  0.00  0.00    -0.050 Br
ATOM     25  H   LIG d   1       7.882  -1.848  -6.202  0.00  0.00     0.064 H 
ATOM     26  O   LIG d   1       3.113   0.247  -3.194  0.00  0.00    -0.339 OA
ATOM     27  H   LIG d   1       3.148  -1.794  -2.810  0.00  0.00     0.061 H 
ATOM     28  H   LIG d   1       4.232  -0.792  -1.787  0.00  0.00     0.061 H 
ATOM     29  C   LIG d   1       2.779   0.258  -4.588  0.00  0.00     0.191 C 
ATOM     30  H   LIG d   1       2.155   1.135  -4.816  0.00  0.00     0.102 H 
ATOM     31  H   LIG d   1       2.231  -0.659  -4.849  0.00  0.00     0.102 H 
ENDBRANCH  10  15
BRANCH   4  32
ATOM     32  C   LIG d   1       9.787   3.201  -5.000  0.00  0.00     0.031 C 
ATOM     33  H   LIG d   1       9.907   4.200  -4.556  0.00  0.00     0.048 H 
ATOM     34  H   LIG d   1       8.986   2.659  -4.475  0.00  0.00     0.048 H 
BRANCH  32  35
ATOM     35  N   LIG d   1      11.046   2.455  -4.877  0.00  0.00    -0.294 N 
ATOM     36  C   LIG d   1      11.923   3.064  -3.866  0.00  0.00     0.023 C 
ATOM     37  C   LIG d   1      13.244   2.292  -3.812  0.00  0.00     0.060 C 
ATOM     38  H   LIG d   1      12.118   4.113  -4.134  0.00  0.00     0.045 H 
ATOM     39  H   LIG d   1      11.431   3.023  -2.882  0.00  0.00     0.045 H 
ATOM     40  O   LIG d   1      12.975   0.916  -3.536  0.00  0.00    -0.377 OA
ATOM     41  H   LIG d   1      13.881   2.708  -3.017  0.00  0.00     0.057 H 
ATOM     42  H   LIG d   1      13.760   2.378  -4.779  0.00  0.00     0.057 H 
ATOM     43  C   LIG d   1      12.125   0.290  -4.500  0.00  0.00     0.060 C 
ATOM     44  C   LIG d   1      10.792   1.041  -4.562  0.00  0.00     0.023 C 
ATOM     45  H   LIG d   1      11.943  -0.755  -4.210  0.00  0.00     0.057 H 
ATOM     46  H   LIG d   1      12.606   0.317  -5.489  0.00  0.00     0.057 H 
ATOM     47  H   LIG d   1      10.283   0.968  -3.590  0.00  0.00     0.045 H 
ATOM     48  H   LIG d   1      10.155   0.600  -5.343  0.00  0.00     0.045 H 
ENDBRANCH  32  35
ENDBRANCH   4  32
BRANCH   3  49
ATOM     49  O   LIG d   1      10.968   5.130  -6.676  0.00  0.00    -0.506 OA
ATOM     50  H   LIG d   1      12.037   4.969  -6.878  0.00  0.00     0.292 HD
ENDBRANCH   3  49
TORSDOF 4
ENDMDL
MODEL 9
REMARK VINA RESULT:      -6.0      3.024      6.535
REMARK  4 active torsions:
REMARK  status: ('A' for Active; 'I' for Inactive)
REMARK    1  A    between atoms: C_3  and  O_30 
REMARK    2  A    between atoms: C_4  and  C_23 
REMARK    3  A    between atoms: C_10  and  C_11 
REMARK    4  A    between atoms: C_23  and  N_24 
ROOT
ATOM      1  C   LIG d   1       5.351   0.572  -8.992  0.00  0.00    -0.044 A 
ATOM      2  C   LIG d   1       4.546  -0.419  -8.505  0.00  0.00    -0.019 A 
ATOM      3  C   LIG d   1       4.821  -0.998  -7.269  0.00  0.00     0.125 A 
ATOM      4  C   LIG d   1       5.909  -0.579  -6.521  0.00  0.00     0.051 A 
ATOM      5  C   LIG d   1       6.736   0.428  -7.002  0.00  0.00     0.147 A 
ATOM      6  C   LIG d   1       6.449   1.004  -8.249  0.00  0.00     0.068 A 
ATOM      7  C   LIG d   1       7.486   2.025  -8.483  0.00  0.00     0.232 A 
ATOM      8  O   LIG d   1       7.606   2.759  -9.451  0.00  0.00    -0.283 OA
ATOM      9  C   LIG d   1       8.343   1.962  -7.292  0.00  0.00     0.176 A 
ATOM     10  C   LIG d   1       9.442   2.723  -7.051  0.00  0.00    -0.005 C 
ATOM     11  O   LIG d   1       7.842   1.002  -6.478  0.00  0.00    -0.451 OA
ATOM     12  H   LIG d   1       5.135   1.020  -9.951  0.00  0.00     0.063 H 
ATOM     13  H   LIG d   1       3.695  -0.755  -9.080  0.00  0.00     0.065 H 
ATOM     14  H   LIG d   1       9.805   3.422  -7.819  0.00  0.00     0.066 H 
ENDROOT
BRANCH  10  15
ATOM     15  C   LIG d   1      10.145   2.612  -5.769  0.00  0.00     0.022 A 
ATOM     16  C   LIG d   1      11.006   1.529  -5.525  0.00  0.00     0.136 A 
ATOM     17  C   LIG d   1      11.667   1.437  -4.312  0.00  0.00     0.022 A 
ATOM     18  O   LIG d   1      11.178   0.581  -6.481  0.00  0.00    -0.465 OA
ATOM     19  C   LIG d   1      11.478   2.406  -3.345  0.00  0.00    -0.039 A 
ATOM     20  C   LIG d   1      12.598   0.283  -4.037  0.00  0.00     0.080 C 
ATOM     21  C   LIG d   1      10.628   3.477  -3.579  0.00  0.00     0.019 A 
ATOM     22  H   LIG d   1      11.995   2.328  -2.399  0.00  0.00     0.063 H 
ATOM     23  C   LIG d   1       9.967   3.591  -4.782  0.00  0.00    -0.037 A 
ATOM     24 BR   LIG d   1      10.383   4.792  -2.243  0.00  0.00    -0.050 Br
ATOM     25  H   LIG d   1       9.311   4.429  -4.962  0.00  0.00     0.064 H 
ATOM     26  O   LIG d   1      12.355  -0.758  -4.988  0.00  0.00    -0.339 OA
ATOM     27  H   LIG d   1      13.641   0.624  -4.123  0.00  0.00     0.061 H 
ATOM     28  H   LIG d   1      12.420  -0.099  -3.021  0.00  0.00     0.061 H 
ATOM     29  C   LIG d   1      12.309  -0.283  -6.340  0.00  0.00     0.191 C 
ATOM     30  H   LIG d   1      12.211  -1.132  -7.032  0.00  0.00     0.102 H 
ATOM     31  H   LIG d   1      13.228   0.276  -6.571  0.00  0.00     0.102 H 
ENDBRANCH  10  15
BRANCH   4  32
ATOM     32  C   LIG d   1       6.194  -1.215  -5.184  0.00  0.00     0.031 C 
ATOM     33  H   LIG d   1       5.999  -2.296  -5.244  0.00  0.00     0.048 H 
ATOM     34  H   LIG d   1       7.248  -1.046  -4.916  0.00  0.00     0.048 H 
BRANCH  32  35
ATOM     35  N   LIG d   1       5.327  -0.616  -4.162  0.00  0.00    -0.294 N 
ATOM     36  C   LIG d   1       4.704  -1.653  -3.326  0.00  0.00     0.023 C 
ATOM     37  C   LIG d   1       3.765  -0.990  -2.315  0.00  0.00     0.060 C 
ATOM     38  H   LIG d   1       4.132  -2.343  -3.964  0.00  0.00     0.045 H 
ATOM     39  H   LIG d   1       5.486  -2.212  -2.792  0.00  0.00     0.045 H 
ATOM     40  O   LIG d   1       4.501  -0.041  -1.540  0.00  0.00    -0.377 OA
ATOM     41  H   LIG d   1       3.340  -1.757  -1.650  0.00  0.00     0.057 H 
ATOM     42  H   LIG d   1       2.952  -0.476  -2.849  0.00  0.00     0.057 H 
ATOM     43  C   LIG d   1       5.121   0.984  -2.321  0.00  0.00     0.060 C 
ATOM     44  C   LIG d   1       6.074   0.342  -3.333  0.00  0.00     0.023 C 
ATOM     45  H   LIG d   1       5.687   1.659  -1.663  0.00  0.00     0.057 H 
ATOM     46  H   LIG d   1       4.350   1.556  -2.857  0.00  0.00     0.057 H 
ATOM     47  H   LIG d   1       6.878  -0.185  -2.798  0.00  0.00     0.045 H 
ATOM     48  H   LIG d   1       6.510   1.121  -3.975  0.00  0.00     0.045 H 
ENDBRANCH  32  35
ENDBRANCH   4  32
BRANCH   3  49
ATOM     49  O   LIG d   1       4.016  -1.983  -6.794  0.00  0.00    -0.506 OA
ATOM     50  H   LIG d   1       4.200  -2.409  -5.797  0.00  0.00     0.292 HD
ENDBRANCH   3  49
TORSDOF 4
ENDMDL
