MODEL 1
REMARK VINA RESULT:      -7.8      0.000      0.000
REMARK  11 active torsions:
REMARK  status: ('A' for Active; 'I' for Inactive)
REMARK    1  A    between atoms: C_1  and  C_2 
REMARK    2  A    between atoms: C_4  and  O_12 
REMARK    3  A    between atoms: C_5  and  C_9 
REMARK    4  A    between atoms: C_9  and  C_10 
REMARK    5  A    between atoms: C_9  and  C_11 
REMARK    6  A    between atoms: O_12  and  C_13 
REMARK    7  A    between atoms: C_13  and  C_14 
REMARK    8  A    between atoms: C_16  and  C_22 
REMARK    9  A    between atoms: C_19  and  O_20 
REMARK   10  A    between atoms: O_20  and  C_21 
REMARK   11  A    between atoms: CA_35  and  C_37 
ROOT
ATOM      1  C   LIG d   1       9.681   1.620  -4.610  0.00  0.00     0.032 A 
ATOM      2  C   LIG d   1       9.291   2.704  -3.846  0.00  0.00    -0.043 A 
ATOM      3  C   LIG d   1      10.244   3.512  -3.255  0.00  0.00     0.007 A 
ATOM      4  C   LIG d   1      11.589   3.238  -3.426  0.00  0.00    -0.049 A 
ATOM      5  C   LIG d   1      11.982   2.152  -4.183  0.00  0.00    -0.019 A 
ATOM      6  C   LIG d   1      11.028   1.343  -4.783  0.00  0.00     0.127 A 
ATOM      7  H   LIG d   1       8.241   2.919  -3.712  0.00  0.00     0.063 H 
ATOM      8  H   LIG d   1      12.331   3.871  -2.963  0.00  0.00     0.062 H 
ATOM      9  H   LIG d   1      13.033   1.936  -4.313  0.00  0.00     0.065 H 
ENDROOT
BRANCH   1  10
ATOM     10  C   LIG d   1       8.641   0.739  -5.255  0.00  0.00     0.118 C 
ATOM     11  H   LIG d   1       7.676   1.244  -5.239  0.00  0.00     0.075 H 
ATOM     12  H   LIG d   1       8.928   0.534  -6.287  0.00  0.00     0.075 H 
BRANCH  10  13
ATOM     13  O   LIG d   1       8.547  -0.492  -4.535  0.00  0.00    -0.487 OA
BRANCH  13  14
ATOM     14  C   LIG d   1       7.331  -0.814  -4.020  0.00  0.00     0.125 A 
ATOM     15  C   LIG d   1       6.617   0.123  -3.288  0.00  0.00    -0.015 A 
ATOM     16  C   LIG d   1       5.378  -0.205  -2.770  0.00  0.00    -0.029 A 
ATOM     17  H   LIG d   1       7.026   1.109  -3.127  0.00  0.00     0.066 H 
ATOM     18  C   LIG d   1       4.856  -1.470  -2.971  0.00  0.00     0.044 A 
ATOM     19  C   LIG d   1       5.569  -2.407  -3.697  0.00  0.00    -0.036 A 
ATOM     20 CL   LIG d   1       3.303  -1.880  -2.312  0.00  0.00    -0.083 Cl
ATOM     21  C   LIG d   1       6.805  -2.081  -4.221  0.00  0.00    -0.002 A 
ATOM     22  H   LIG d   1       5.159  -3.394  -3.853  0.00  0.00     0.064 H 
BRANCH  16  23
ATOM     23  C   LIG d   1       4.599   0.816  -1.980  0.00  0.00    -0.038 C 
ATOM     24  H   LIG d   1       4.579   0.523  -0.930  0.00  0.00     0.028 H 
ATOM     25  H   LIG d   1       5.075   1.791  -2.076  0.00  0.00     0.028 H 
ATOM     26  H   LIG d   1       3.579   0.869  -2.361  0.00  0.00     0.028 H 
ENDBRANCH  16  23
BRANCH  21  27
ATOM     27  C   LIG d   1       7.581  -3.103  -5.012  0.00  0.00    -0.018 C 
ATOM     28  H   LIG d   1       8.172  -2.599  -5.775  0.00  0.00     0.035 H 
BRANCH  27  29
ATOM     29  C   LIG d   1       8.511  -3.875  -4.073  0.00  0.00    -0.059 C 
ATOM     30  H   LIG d   1       8.007  -4.772  -3.718  0.00  0.00     0.024 H 
ATOM     31  H   LIG d   1       9.418  -4.155  -4.611  0.00  0.00     0.024 H 
ATOM     32  H   LIG d   1       8.774  -3.245  -3.223  0.00  0.00     0.024 H 
ENDBRANCH  27  29
BRANCH  27  33
ATOM     33  C   LIG d   1       6.608  -4.077  -5.679  0.00  0.00    -0.059 C 
ATOM     34  H   LIG d   1       7.159  -4.737  -6.351  0.00  0.00     0.024 H 
ATOM     35  H   LIG d   1       6.108  -4.673  -4.915  0.00  0.00     0.024 H 
ATOM     36  H   LIG d   1       5.865  -3.518  -6.248  0.00  0.00     0.024 H 
ENDBRANCH  27  33
ENDBRANCH  21  27
ENDBRANCH  13  14
ENDBRANCH  10  13
ENDBRANCH   1  10
BRANCH   6  37
ATOM     37  O   LIG d   1      11.413   0.278  -5.534  0.00  0.00    -0.495 OA
BRANCH  37  38
ATOM     38  C   LIG d   1      12.142  -0.756  -4.868  0.00  0.00     0.079 C 
ATOM     39  H   LIG d   1      12.961  -1.092  -5.506  0.00  0.00     0.066 H 
ATOM     40  H   LIG d   1      11.477  -1.594  -4.660  0.00  0.00     0.066 H 
ATOM     41  H   LIG d   1      12.546  -0.370  -3.932  0.00  0.00     0.066 H 
ENDBRANCH  37  38
ENDBRANCH   6  37
BRANCH   3  42
ATOM     42  C   LIG d   1       9.816   4.693  -2.423  0.00  0.00     0.045 C 
ATOM     43  H   LIG d   1       8.813   4.522  -2.032  0.00  0.00     0.097 H 
ATOM     44  C   LIG d   1       9.826   5.942  -3.271  0.00  0.00     0.074 A 
ATOM     45  N   LIG d   1       9.353   6.079  -4.548  0.00  0.00    -0.353 N 
ATOM     46  C   LIG d   1      10.327   7.122  -2.841  0.00  0.00    -0.008 A 
ATOM     47  C   LIG d   1       9.540   7.363  -4.975  0.00  0.00     0.047 A 
ATOM     48  H   LIG d   1       8.946   5.371  -5.072  0.00  0.00     0.166 HD
ATOM     49  C   LIG d   1      10.163   8.074  -3.916  0.00  0.00     0.004 A 
ATOM     50  C   LIG d   1       9.237   8.001  -6.175  0.00  0.00    -0.038 A 
ATOM     51  C   LIG d   1      10.490   9.428  -4.046  0.00  0.00    -0.052 A 
ATOM     52  C   LIG d   1      10.179  10.030  -5.240  0.00  0.00    -0.061 A 
ATOM     53  H   LIG d   1      10.964   9.974  -3.245  0.00  0.00     0.062 H 
ATOM     54  C   LIG d   1       9.571   9.340  -6.276  0.00  0.00    -0.060 A 
ATOM     55  H   LIG d   1      10.417  11.075  -5.376  0.00  0.00     0.062 H 
ATOM     56  H   LIG d   1       9.349   9.865  -7.194  0.00  0.00     0.062 H 
ATOM     57  H   LIG d   1       8.763   7.474  -6.990  0.00  0.00     0.064 H 
ATOM     58  C   LIG d   1      10.927   7.321  -1.471  0.00  0.00     0.023 C 
ATOM     59  CA  LIG d   1      10.502   6.136  -0.591  0.00  0.00     0.023 C 
ATOM     60  H   LIG d   1      12.013   7.353  -1.546  0.00  0.00     0.037 H 
ATOM     61  H   LIG d   1      10.559   8.251  -1.039  0.00  0.00     0.037 H 
ATOM     62  HA  LIG d   1       9.439   6.215  -0.364  0.00  0.00     0.092 H 
ATOM     63  N   LIG d   1      10.768   4.870  -1.304  0.00  0.00     0.243 N 
ATOM     64  H1  LIG d   1      11.726   4.886  -1.675  0.00  0.00     0.203 HD
ATOM     65  H2  LIG d   1      10.670   4.086  -0.649  0.00  0.00     0.203 HD
BRANCH  59  66
ATOM     66  C   LIG d   1      11.293   6.154   0.691  0.00  0.00     0.090 C 
ATOM     67  O   LIG d   1      12.404   6.629   0.710  0.00  0.00    -0.544 OA
ATOM     68  OXT LIG d   1      10.763   5.643   1.813  0.00  0.00    -0.544 OA
ENDBRANCH  59  66
ENDBRANCH   3  42
TORSDOF 11
ENDMDL
MODEL 2
REMARK VINA RESULT:      -7.7      6.727      9.688
REMARK  11 active torsions:
REMARK  status: ('A' for Active; 'I' for Inactive)
REMARK    1  A    between atoms: C_1  and  C_2 
REMARK    2  A    between atoms: C_4  and  O_12 
REMARK    3  A    between atoms: C_5  and  C_9 
REMARK    4  A    between atoms: C_9  and  C_10 
REMARK    5  A    between atoms: C_9  and  C_11 
REMARK    6  A    between atoms: O_12  and  C_13 
REMARK    7  A    between atoms: C_13  and  C_14 
REMARK    8  A    between atoms: C_16  and  C_22 
REMARK    9  A    between atoms: C_19  and  O_20 
REMARK   10  A    between atoms: O_20  and  C_21 
REMARK   11  A    between atoms: CA_35  and  C_37 
ROOT
ATOM      1  C   LIG d   1       4.817  -3.665  -8.897  0.00  0.00     0.032 A 
ATOM      2  C   LIG d   1       5.458  -3.552  -7.678  0.00  0.00    -0.043 A 
ATOM      3  C   LIG d   1       5.074  -4.351  -6.618  0.00  0.00     0.007 A 
ATOM      4  C   LIG d   1       4.048  -5.266  -6.775  0.00  0.00    -0.049 A 
ATOM      5  C   LIG d   1       3.401  -5.378  -7.989  0.00  0.00    -0.019 A 
ATOM      6  C   LIG d   1       3.788  -4.581  -9.057  0.00  0.00     0.127 A 
ATOM      7  H   LIG d   1       6.259  -2.838  -7.554  0.00  0.00     0.063 H 
ATOM      8  H   LIG d   1       3.750  -5.889  -5.944  0.00  0.00     0.062 H 
ATOM      9  H   LIG d   1       2.597  -6.089  -8.110  0.00  0.00     0.065 H 
ENDROOT
BRANCH   1  10
ATOM     10  C   LIG d   1       5.236  -2.793 -10.053  0.00  0.00     0.118 C 
ATOM     11  H   LIG d   1       6.319  -2.669 -10.042  0.00  0.00     0.075 H 
ATOM     12  H   LIG d   1       4.932  -3.261 -10.990  0.00  0.00     0.075 H 
BRANCH  10  13
ATOM     13  O   LIG d   1       4.610  -1.513  -9.936  0.00  0.00    -0.487 OA
BRANCH  13  14
ATOM     14  C   LIG d   1       5.419  -0.451  -9.685  0.00  0.00     0.125 A 
ATOM     15  C   LIG d   1       6.736  -0.462 -10.122  0.00  0.00    -0.015 A 
ATOM     16  C   LIG d   1       7.555   0.621  -9.872  0.00  0.00    -0.029 A 
ATOM     17  H   LIG d   1       7.118  -1.315 -10.663  0.00  0.00     0.066 H 
ATOM     18  C   LIG d   1       7.068   1.712  -9.174  0.00  0.00     0.044 A 
ATOM     19  C   LIG d   1       5.757   1.723  -8.733  0.00  0.00    -0.036 A 
ATOM     20 CL   LIG d   1       8.103   3.068  -8.854  0.00  0.00    -0.083 Cl
ATOM     21  C   LIG d   1       4.933   0.644  -8.987  0.00  0.00    -0.002 A 
ATOM     22  H   LIG d   1       5.377   2.576  -8.189  0.00  0.00     0.064 H 
BRANCH  16  23
ATOM     23  C   LIG d   1       8.984   0.612 -10.353  0.00  0.00    -0.038 C 
ATOM     24  H   LIG d   1       9.235   1.591 -10.762  0.00  0.00     0.028 H 
ATOM     25  H   LIG d   1       9.648   0.387  -9.518  0.00  0.00     0.028 H 
ATOM     26  H   LIG d   1       9.102  -0.146 -11.127  0.00  0.00     0.028 H 
ENDBRANCH  16  23
BRANCH  21  27
ATOM     27  C   LIG d   1       3.504   0.657  -8.506  0.00  0.00    -0.018 C 
ATOM     28  H   LIG d   1       2.895   0.035  -9.160  0.00  0.00     0.035 H 
BRANCH  27  29
ATOM     29  C   LIG d   1       3.442   0.110  -7.078  0.00  0.00    -0.059 C 
ATOM     30  H   LIG d   1       3.015   0.864  -6.418  0.00  0.00     0.024 H 
ATOM     31  H   LIG d   1       2.820  -0.785  -7.059  0.00  0.00     0.024 H 
ATOM     32  H   LIG d   1       4.448  -0.140  -6.740  0.00  0.00     0.024 H 
ENDBRANCH  27  29
BRANCH  27  33
ATOM     33  C   LIG d   1       2.972   2.091  -8.526  0.00  0.00    -0.059 C 
ATOM     34  H   LIG d   1       2.042   2.141  -7.960  0.00  0.00     0.024 H 
ATOM     35  H   LIG d   1       3.707   2.758  -8.074  0.00  0.00     0.024 H 
ATOM     36  H   LIG d   1       2.788   2.398  -9.556  0.00  0.00     0.024 H 
ENDBRANCH  27  33
ENDBRANCH  21  27
ENDBRANCH  13  14
ENDBRANCH  10  13
ENDBRANCH   1  10
BRANCH   6  37
ATOM     37  O   LIG d   1       3.157  -4.693 -10.255  0.00  0.00    -0.495 OA
BRANCH  37  38
ATOM     38  C   LIG d   1       1.826  -4.179 -10.338  0.00  0.00     0.079 C 
ATOM     39  H   LIG d   1       1.263  -4.746 -11.079  0.00  0.00     0.066 H 
ATOM     40  H   LIG d   1       1.859  -3.130 -10.632  0.00  0.00     0.066 H 
ATOM     41  H   LIG d   1       1.341  -4.269  -9.366  0.00  0.00     0.066 H 
ENDBRANCH  37  38
ENDBRANCH   6  37
BRANCH   3  42
ATOM     42  C   LIG d   1       5.774  -4.227  -5.290  0.00  0.00     0.045 C 
ATOM     43  H   LIG d   1       5.599  -5.125  -4.697  0.00  0.00     0.097 H 
ATOM     44  C   LIG d   1       5.248  -3.020  -4.549  0.00  0.00     0.074 A 
ATOM     45  N   LIG d   1       3.943  -2.630  -4.424  0.00  0.00    -0.353 N 
ATOM     46  C   LIG d   1       6.049  -2.148  -3.896  0.00  0.00    -0.008 A 
ATOM     47  C   LIG d   1       3.871  -1.487  -3.680  0.00  0.00     0.047 A 
ATOM     48  H   LIG d   1       3.181  -3.095  -4.806  0.00  0.00     0.166 HD
ATOM     49  C   LIG d   1       5.197  -1.136  -3.316  0.00  0.00     0.004 A 
ATOM     50  C   LIG d   1       2.793  -0.705  -3.272  0.00  0.00    -0.038 A 
ATOM     51  C   LIG d   1       5.460   0.001  -2.545  0.00  0.00    -0.052 A 
ATOM     52  C   LIG d   1       4.378   0.753  -2.158  0.00  0.00    -0.061 A 
ATOM     53  H   LIG d   1       6.467   0.274  -2.266  0.00  0.00     0.062 H 
ATOM     54  C   LIG d   1       3.082   0.413  -2.509  0.00  0.00    -0.060 A 
ATOM     55  H   LIG d   1       4.544   1.638  -1.560  0.00  0.00     0.062 H 
ATOM     56  H   LIG d   1       2.269   1.042  -2.176  0.00  0.00     0.062 H 
ATOM     57  H   LIG d   1       1.778  -0.959  -3.540  0.00  0.00     0.064 H 
ATOM     58  C   LIG d   1       7.551  -2.286  -3.833  0.00  0.00     0.023 C 
ATOM     59  CA  LIG d   1       7.914  -3.717  -4.255  0.00  0.00     0.023 C 
ATOM     60  H   LIG d   1       8.015  -1.572  -4.512  0.00  0.00     0.037 H 
ATOM     61  H   LIG d   1       7.894  -2.104  -2.815  0.00  0.00     0.037 H 
ATOM     62  HA  LIG d   1       7.609  -4.415  -3.475  0.00  0.00     0.092 H 
ATOM     63  N   LIG d   1       7.224  -4.049  -5.519  0.00  0.00     0.243 N 
ATOM     64  H1  LIG d   1       7.369  -3.288  -6.193  0.00  0.00     0.203 HD
ATOM     65  H2  LIG d   1       7.616  -4.920  -5.898  0.00  0.00     0.203 HD
BRANCH  59  66
ATOM     66  C   LIG d   1       9.402  -3.816  -4.466  0.00  0.00     0.090 C 
ATOM     67  O   LIG d   1       9.855  -3.832  -5.586  0.00  0.00    -0.544 OA
ATOM     68  OXT LIG d   1      10.226  -3.886  -3.408  0.00  0.00    -0.544 OA
ENDBRANCH  59  66
ENDBRANCH   3  42
TORSDOF 11
ENDMDL
MODEL 3
REMARK VINA RESULT:      -7.7      6.555      9.526
REMARK  11 active torsions:
REMARK  status: ('A' for Active; 'I' for Inactive)
REMARK    1  A    between atoms: C_1  and  C_2 
REMARK    2  A    between atoms: C_4  and  O_12 
REMARK    3  A    between atoms: C_5  and  C_9 
REMARK    4  A    between atoms: C_9  and  C_10 
REMARK    5  A    between atoms: C_9  and  C_11 
REMARK    6  A    between atoms: O_12  and  C_13 
REMARK    7  A    between atoms: C_13  and  C_14 
REMARK    8  A    between atoms: C_16  and  C_22 
REMARK    9  A    between atoms: C_19  and  O_20 
REMARK   10  A    between atoms: O_20  and  C_21 
REMARK   11  A    between atoms: CA_35  and  C_37 
ROOT
ATOM      1  C   LIG d   1       4.654  -4.690  -8.128  0.00  0.00     0.032 A 
ATOM      2  C   LIG d   1       5.463  -4.084  -7.186  0.00  0.00    -0.043 A 
ATOM      3  C   LIG d   1       5.721  -4.718  -5.985  0.00  0.00     0.007 A 
ATOM      4  C   LIG d   1       5.171  -5.959  -5.723  0.00  0.00    -0.049 A 
ATOM      5  C   LIG d   1       4.357  -6.566  -6.659  0.00  0.00    -0.019 A 
ATOM      6  C   LIG d   1       4.101  -5.935  -7.868  0.00  0.00     0.127 A 
ATOM      7  H   LIG d   1       5.894  -3.115  -7.389  0.00  0.00     0.063 H 
ATOM      8  H   LIG d   1       5.374  -6.452  -4.784  0.00  0.00     0.062 H 
ATOM      9  H   LIG d   1       3.924  -7.534  -6.452  0.00  0.00     0.065 H 
ENDROOT
BRANCH   1  10
ATOM     10  C   LIG d   1       4.374  -3.999  -9.438  0.00  0.00     0.118 C 
ATOM     11  H   LIG d   1       5.117  -3.220  -9.605  0.00  0.00     0.075 H 
ATOM     12  H   LIG d   1       4.420  -4.726 -10.249  0.00  0.00     0.075 H 
BRANCH  10  13
ATOM     13  O   LIG d   1       3.071  -3.414  -9.398  0.00  0.00    -0.487 OA
BRANCH  13  14
ATOM     14  C   LIG d   1       3.003  -2.072  -9.193  0.00  0.00     0.125 A 
ATOM     15  C   LIG d   1       3.179  -1.554  -7.918  0.00  0.00    -0.015 A 
ATOM     16  C   LIG d   1       3.116  -0.189  -7.713  0.00  0.00    -0.029 A 
ATOM     17  H   LIG d   1       3.372  -2.217  -7.088  0.00  0.00     0.066 H 
ATOM     18  C   LIG d   1       2.864   0.660  -8.776  0.00  0.00     0.044 A 
ATOM     19  C   LIG d   1       2.682   0.145 -10.047  0.00  0.00    -0.036 A 
ATOM     20 CL   LIG d   1       2.777   2.374  -8.513  0.00  0.00    -0.083 Cl
ATOM     21  C   LIG d   1       2.751  -1.218 -10.257  0.00  0.00    -0.002 A 
ATOM     22  H   LIG d   1       2.486   0.810 -10.875  0.00  0.00     0.064 H 
BRANCH  16  23
ATOM     23  C   LIG d   1       3.315   0.374  -6.329  0.00  0.00    -0.038 C 
ATOM     24  H   LIG d   1       2.715   1.277  -6.215  0.00  0.00     0.028 H 
ATOM     25  H   LIG d   1       3.005  -0.363  -5.588  0.00  0.00     0.028 H 
ATOM     26  H   LIG d   1       4.367   0.617  -6.183  0.00  0.00     0.028 H 
ENDBRANCH  16  23
BRANCH  21  27
ATOM     27  C   LIG d   1       2.553  -1.778 -11.642  0.00  0.00    -0.018 C 
ATOM     28  H   LIG d   1       2.801  -2.839 -11.644  0.00  0.00     0.035 H 
BRANCH  27  29
ATOM     29  C   LIG d   1       1.093  -1.596 -12.062  0.00  0.00    -0.059 C 
ATOM     30  H   LIG d   1       0.484  -1.395 -11.181  0.00  0.00     0.024 H 
ATOM     31  H   LIG d   1       1.016  -0.758 -12.756  0.00  0.00     0.024 H 
ATOM     32  H   LIG d   1       0.738  -2.504 -12.549  0.00  0.00     0.024 H 
ENDBRANCH  27  29
BRANCH  27  33
ATOM     33  C   LIG d   1       3.462  -1.039 -12.626  0.00  0.00    -0.059 C 
ATOM     34  H   LIG d   1       2.868  -0.670 -13.462  0.00  0.00     0.024 H 
ATOM     35  H   LIG d   1       3.938  -0.199 -12.120  0.00  0.00     0.024 H 
ATOM     36  H   LIG d   1       4.228  -1.721 -12.997  0.00  0.00     0.024 H 
ENDBRANCH  27  33
ENDBRANCH  21  27
ENDBRANCH  13  14
ENDBRANCH  10  13
ENDBRANCH   1  10
BRANCH   6  37
ATOM     37  O   LIG d   1       3.306  -6.533  -8.794  0.00  0.00    -0.495 OA
BRANCH  37  38
ATOM     38  C   LIG d   1       3.596  -7.895  -9.116  0.00  0.00     0.079 C 
ATOM     39  H   LIG d   1       2.675  -8.407  -9.394  0.00  0.00     0.066 H 
ATOM     40  H   LIG d   1       4.037  -8.388  -8.249  0.00  0.00     0.066 H 
ATOM     41  H   LIG d   1       4.298  -7.930  -9.949  0.00  0.00     0.066 H 
ENDBRANCH  37  38
ENDBRANCH   6  37
BRANCH   3  42
ATOM     42  C   LIG d   1       6.604  -4.055  -4.959  0.00  0.00     0.045 C 
ATOM     43  H   LIG d   1       6.872  -4.775  -4.186  0.00  0.00     0.097 H 
ATOM     44  C   LIG d   1       5.872  -2.890  -4.336  0.00  0.00     0.074 A 
ATOM     45  N   LIG d   1       4.569  -2.860  -3.917  0.00  0.00    -0.353 N 
ATOM     46  C   LIG d   1       6.451  -1.689  -4.112  0.00  0.00    -0.008 A 
ATOM     47  C   LIG d   1       4.277  -1.626  -3.408  0.00  0.00     0.047 A 
ATOM     48  H   LIG d   1       3.947  -3.602  -3.973  0.00  0.00     0.166 HD
ATOM     49  C   LIG d   1       5.452  -0.837  -3.510  0.00  0.00     0.004 A 
ATOM     50  C   LIG d   1       3.111  -1.095  -2.861  0.00  0.00    -0.038 A 
ATOM     51  C   LIG d   1       5.473   0.491  -3.070  0.00  0.00    -0.052 A 
ATOM     52  C   LIG d   1       4.310   0.987  -2.536  0.00  0.00    -0.061 A 
ATOM     53  H   LIG d   1       6.363   1.096  -3.145  0.00  0.00     0.062 H 
ATOM     54  C   LIG d   1       3.161   0.220  -2.433  0.00  0.00    -0.060 A 
ATOM     55  H   LIG d   1       4.290   2.008  -2.185  0.00  0.00     0.062 H 
ATOM     56  H   LIG d   1       2.274   0.663  -2.004  0.00  0.00     0.062 H 
ATOM     57  H   LIG d   1       2.209  -1.683  -2.776  0.00  0.00     0.064 H 
ATOM     58  C   LIG d   1       7.888  -1.382  -4.456  0.00  0.00     0.023 C 
ATOM     59  CA  LIG d   1       8.614  -2.715  -4.692  0.00  0.00     0.023 C 
ATOM     60  H   LIG d   1       7.929  -0.775  -5.359  0.00  0.00     0.037 H 
ATOM     61  H   LIG d   1       8.358  -0.848  -3.630  0.00  0.00     0.037 H 
ATOM     62  HA  LIG d   1       8.736  -3.236  -3.742  0.00  0.00     0.092 H 
ATOM     63  N   LIG d   1       7.825  -3.549  -5.622  0.00  0.00     0.243 N 
ATOM     64  H1  LIG d   1       7.558  -2.985  -6.438  0.00  0.00     0.203 HD
ATOM     65  H2  LIG d   1       8.397  -4.345  -5.930  0.00  0.00     0.203 HD
BRANCH  59  66
ATOM     66  C   LIG d   1       9.968  -2.448  -5.297  0.00  0.00     0.090 C 
ATOM     67  O   LIG d   1      10.053  -2.014  -6.421  0.00  0.00    -0.544 OA
ATOM     68  OXT LIG d   1      11.080  -2.695  -4.586  0.00  0.00    -0.544 OA
ENDBRANCH  59  66
ENDBRANCH   3  42
TORSDOF 11
ENDMDL
MODEL 4
REMARK VINA RESULT:      -7.7      4.076      7.601
REMARK  11 active torsions:
REMARK  status: ('A' for Active; 'I' for Inactive)
REMARK    1  A    between atoms: C_1  and  C_2 
REMARK    2  A    between atoms: C_4  and  O_12 
REMARK    3  A    between atoms: C_5  and  C_9 
REMARK    4  A    between atoms: C_9  and  C_10 
REMARK    5  A    between atoms: C_9  and  C_11 
REMARK    6  A    between atoms: O_12  and  C_13 
REMARK    7  A    between atoms: C_13  and  C_14 
REMARK    8  A    between atoms: C_16  and  C_22 
REMARK    9  A    between atoms: C_19  and  O_20 
REMARK   10  A    between atoms: O_20  and  C_21 
REMARK   11  A    between atoms: CA_35  and  C_37 
ROOT
ATOM      1  C   LIG d   1       8.790   2.739  -5.432  0.00  0.00     0.032 A 
ATOM      2  C   LIG d   1       8.473   1.976  -6.540  0.00  0.00    -0.043 A 
ATOM      3  C   LIG d   1       8.835   2.407  -7.803  0.00  0.00     0.007 A 
ATOM      4  C   LIG d   1       9.513   3.601  -7.960  0.00  0.00    -0.049 A 
ATOM      5  C   LIG d   1       9.826   4.370  -6.857  0.00  0.00    -0.019 A 
ATOM      6  C   LIG d   1       9.470   3.937  -5.588  0.00  0.00     0.127 A 
ATOM      7  H   LIG d   1       7.943   1.043  -6.418  0.00  0.00     0.063 H 
ATOM      8  H   LIG d   1       9.794   3.935  -8.948  0.00  0.00     0.062 H 
ATOM      9  H   LIG d   1      10.352   5.305  -6.981  0.00  0.00     0.065 H 
ENDROOT
BRANCH   1  10
ATOM     10  C   LIG d   1       8.396   2.270  -4.055  0.00  0.00     0.118 C 
ATOM     11  H   LIG d   1       9.106   2.653  -3.322  0.00  0.00     0.075 H 
ATOM     12  H   LIG d   1       7.396   2.636  -3.818  0.00  0.00     0.075 H 
BRANCH  10  13
ATOM     13  O   LIG d   1       8.400   0.841  -4.020  0.00  0.00    -0.487 OA
BRANCH  13  14
ATOM     14  C   LIG d   1       7.236   0.229  -3.676  0.00  0.00     0.125 A 
ATOM     15  C   LIG d   1       6.218   0.957  -3.078  0.00  0.00    -0.015 A 
ATOM     16  C   LIG d   1       5.034   0.335  -2.734  0.00  0.00    -0.029 A 
ATOM     17  H   LIG d   1       6.350   2.012  -2.886  0.00  0.00     0.066 H 
ATOM     18  C   LIG d   1       4.867  -1.017  -2.974  0.00  0.00     0.044 A 
ATOM     19  C   LIG d   1       5.883  -1.747  -3.566  0.00  0.00    -0.036 A 
ATOM     20 CL   LIG d   1       3.381  -1.799  -2.534  0.00  0.00    -0.083 Cl
ATOM     21  C   LIG d   1       7.066  -1.127  -3.916  0.00  0.00    -0.002 A 
ATOM     22  H   LIG d   1       5.751  -2.802  -3.753  0.00  0.00     0.064 H 
BRANCH  16  23
ATOM     23  C   LIG d   1       3.925   1.128  -2.091  0.00  0.00    -0.038 C 
ATOM     24  H   LIG d   1       3.084   1.201  -2.781  0.00  0.00     0.028 H 
ATOM     25  H   LIG d   1       3.602   0.628  -1.178  0.00  0.00     0.028 H 
ATOM     26  H   LIG d   1       4.285   2.128  -1.851  0.00  0.00     0.028 H 
ENDBRANCH  16  23
BRANCH  21  27
ATOM     27  C   LIG d   1       8.172  -1.922  -4.561  0.00  0.00    -0.018 C 
ATOM     28  H   LIG d   1       9.131  -1.454  -4.342  0.00  0.00     0.035 H 
BRANCH  27  29
ATOM     29  C   LIG d   1       8.163  -3.349  -4.008  0.00  0.00    -0.059 C 
ATOM     30  H   LIG d   1       7.771  -3.342  -2.991  0.00  0.00     0.024 H 
ATOM     31  H   LIG d   1       7.532  -3.978  -4.637  0.00  0.00     0.024 H 
ATOM     32  H   LIG d   1       9.179  -3.744  -4.002  0.00  0.00     0.024 H 
ENDBRANCH  27  29
BRANCH  27  33
ATOM     33  C   LIG d   1       7.957  -1.961  -6.075  0.00  0.00    -0.059 C 
ATOM     34  H   LIG d   1       8.721  -1.358  -6.565  0.00  0.00     0.024 H 
ATOM     35  H   LIG d   1       8.027  -2.991  -6.426  0.00  0.00     0.024 H 
ATOM     36  H   LIG d   1       6.971  -1.562  -6.313  0.00  0.00     0.024 H 
ENDBRANCH  27  33
ENDBRANCH  21  27
ENDBRANCH  13  14
ENDBRANCH  10  13
ENDBRANCH   1  10
BRANCH   6  37
ATOM     37  O   LIG d   1       9.782   4.689  -4.499  0.00  0.00    -0.495 OA
BRANCH  37  38
ATOM     38  C   LIG d   1       9.314   6.040  -4.488  0.00  0.00     0.079 C 
ATOM     39  H   LIG d   1       8.268   6.059  -4.183  0.00  0.00     0.066 H 
ATOM     40  H   LIG d   1       9.409   6.466  -5.487  0.00  0.00     0.066 H 
ATOM     41  H   LIG d   1       9.908   6.624  -3.785  0.00  0.00     0.066 H 
ENDBRANCH  37  38
ENDBRANCH   6  37
BRANCH   3  42
ATOM     42  C   LIG d   1       8.489   1.573  -9.009  0.00  0.00     0.045 C 
ATOM     43  H   LIG d   1       8.853   2.065  -9.911  0.00  0.00     0.097 H 
ATOM     44  C   LIG d   1       6.991   1.400  -9.094  0.00  0.00     0.074 A 
ATOM     45  N   LIG d   1       6.035   2.359  -8.904  0.00  0.00    -0.353 N 
ATOM     46  C   LIG d   1       6.400   0.218  -9.382  0.00  0.00    -0.008 A 
ATOM     47  C   LIG d   1       4.793   1.813  -9.067  0.00  0.00     0.047 A 
ATOM     48  H   LIG d   1       6.211   3.288  -8.686  0.00  0.00     0.166 HD
ATOM     49  C   LIG d   1       4.973   0.440  -9.375  0.00  0.00     0.004 A 
ATOM     50  C   LIG d   1       3.514   2.360  -8.982  0.00  0.00    -0.038 A 
ATOM     51  C   LIG d   1       3.877  -0.402  -9.599  0.00  0.00    -0.052 A 
ATOM     52  C   LIG d   1       2.630   0.165  -9.509  0.00  0.00    -0.061 A 
ATOM     53  H   LIG d   1       4.008  -1.447  -9.833  0.00  0.00     0.062 H 
ATOM     54  C   LIG d   1       2.450   1.506  -9.209  0.00  0.00    -0.060 A 
ATOM     55  H   LIG d   1       1.762  -0.455  -9.676  0.00  0.00     0.062 H 
ATOM     56  H   LIG d   1       1.445   1.897  -9.152  0.00  0.00     0.062 H 
ATOM     57  H   LIG d   1       3.361   3.403  -8.749  0.00  0.00     0.064 H 
ATOM     58  C   LIG d   1       7.169  -1.052  -9.652  0.00  0.00     0.023 C 
ATOM     59  CA  LIG d   1       8.630  -0.671  -9.932  0.00  0.00     0.023 C 
ATOM     60  H   LIG d   1       7.119  -1.705  -8.782  0.00  0.00     0.037 H 
ATOM     61  H   LIG d   1       6.748  -1.560 -10.520  0.00  0.00     0.037 H 
ATOM     62  HA  LIG d   1       8.698  -0.178 -10.902  0.00  0.00     0.092 H 
ATOM     63  N   LIG d   1       9.115   0.240  -8.875  0.00  0.00     0.243 N 
ATOM     64  H1  LIG d   1       8.879  -0.154  -7.956  0.00  0.00     0.203 HD
ATOM     65  H2  LIG d   1      10.134   0.335  -8.953  0.00  0.00     0.203 HD
BRANCH  59  66
ATOM     66  C   LIG d   1       9.481  -1.915  -9.939  0.00  0.00     0.090 C 
ATOM     67  O   LIG d   1       9.021  -2.964  -9.556  0.00  0.00    -0.544 OA
ATOM     68  OXT LIG d   1      10.751  -1.856 -10.370  0.00  0.00    -0.544 OA
ENDBRANCH  59  66
ENDBRANCH   3  42
TORSDOF 11
ENDMDL
MODEL 5
REMARK VINA RESULT:      -7.6      0.970      2.421
REMARK  11 active torsions:
REMARK  status: ('A' for Active; 'I' for Inactive)
REMARK    1  A    between atoms: C_1  and  C_2 
REMARK    2  A    between atoms: C_4  and  O_12 
REMARK    3  A    between atoms: C_5  and  C_9 
REMARK    4  A    between atoms: C_9  and  C_10 
REMARK    5  A    between atoms: C_9  and  C_11 
REMARK    6  A    between atoms: O_12  and  C_13 
REMARK    7  A    between atoms: C_13  and  C_14 
REMARK    8  A    between atoms: C_16  and  C_22 
REMARK    9  A    between atoms: C_19  and  O_20 
REMARK   10  A    between atoms: O_20  and  C_21 
REMARK   11  A    between atoms: CA_35  and  C_37 
ROOT
ATOM      1  C   LIG d   1       9.557   1.943  -4.071  0.00  0.00     0.032 A 
ATOM      2  C   LIG d   1       9.202   3.099  -3.401  0.00  0.00    -0.043 A 
ATOM      3  C   LIG d   1      10.178   3.904  -2.845  0.00  0.00     0.007 A 
ATOM      4  C   LIG d   1      11.512   3.554  -2.956  0.00  0.00    -0.049 A 
ATOM      5  C   LIG d   1      11.871   2.397  -3.619  0.00  0.00    -0.019 A 
ATOM      6  C   LIG d   1      10.893   1.591  -4.184  0.00  0.00     0.127 A 
ATOM      7  H   LIG d   1       8.161   3.373  -3.314  0.00  0.00     0.063 H 
ATOM      8  H   LIG d   1      12.272   4.185  -2.520  0.00  0.00     0.062 H 
ATOM      9  H   LIG d   1      12.912   2.122  -3.701  0.00  0.00     0.065 H 
ENDROOT
BRANCH   1  10
ATOM     10  C   LIG d   1       8.492   1.066  -4.678  0.00  0.00     0.118 C 
ATOM     11  H   LIG d   1       7.989   1.606  -5.480  0.00  0.00     0.075 H 
ATOM     12  H   LIG d   1       8.951   0.162  -5.079  0.00  0.00     0.075 H 
BRANCH  10  13
ATOM     13  O   LIG d   1       7.539   0.709  -3.674  0.00  0.00    -0.487 OA
BRANCH  13  14
ATOM     14  C   LIG d   1       6.848  -0.446  -3.861  0.00  0.00     0.125 A 
ATOM     15  C   LIG d   1       7.507  -1.587  -4.295  0.00  0.00    -0.015 A 
ATOM     16  C   LIG d   1       6.804  -2.762  -4.479  0.00  0.00    -0.029 A 
ATOM     17  H   LIG d   1       8.570  -1.558  -4.483  0.00  0.00     0.066 H 
ATOM     18  C   LIG d   1       5.442  -2.798  -4.243  0.00  0.00     0.044 A 
ATOM     19  C   LIG d   1       4.782  -1.660  -3.816  0.00  0.00    -0.036 A 
ATOM     20 CL   LIG d   1       4.560  -4.274  -4.483  0.00  0.00    -0.083 Cl
ATOM     21  C   LIG d   1       5.482  -0.485  -3.624  0.00  0.00    -0.002 A 
ATOM     22  H   LIG d   1       3.718  -1.690  -3.631  0.00  0.00     0.064 H 
BRANCH  16  23
ATOM     23  C   LIG d   1       7.522  -4.004  -4.943  0.00  0.00    -0.038 C 
ATOM     24  H   LIG d   1       8.065  -3.785  -5.863  0.00  0.00     0.028 H 
ATOM     25  H   LIG d   1       8.224  -4.327  -4.175  0.00  0.00     0.028 H 
ATOM     26  H   LIG d   1       6.796  -4.795  -5.130  0.00  0.00     0.028 H 
ENDBRANCH  16  23
BRANCH  21  27
ATOM     27  C   LIG d   1       4.762   0.754  -3.158  0.00  0.00    -0.018 C 
ATOM     28  H   LIG d   1       5.296   1.637  -3.506  0.00  0.00     0.035 H 
BRANCH  27  29
ATOM     29  C   LIG d   1       3.341   0.762  -3.725  0.00  0.00    -0.059 C 
ATOM     30  H   LIG d   1       2.803   1.631  -3.348  0.00  0.00     0.024 H 
ATOM     31  H   LIG d   1       3.384   0.805  -4.814  0.00  0.00     0.024 H 
ATOM     32  H   LIG d   1       2.822  -0.147  -3.419  0.00  0.00     0.024 H 
ENDBRANCH  27  29
BRANCH  27  33
ATOM     33  C   LIG d   1       4.701   0.764  -1.630  0.00  0.00    -0.059 C 
ATOM     34  H   LIG d   1       4.255  -0.166  -1.278  0.00  0.00     0.024 H 
ATOM     35  H   LIG d   1       5.709   0.858  -1.226  0.00  0.00     0.024 H 
ATOM     36  H   LIG d   1       4.096   1.607  -1.295  0.00  0.00     0.024 H 
ENDBRANCH  27  33
ENDBRANCH  21  27
ENDBRANCH  13  14
ENDBRANCH  10  13
ENDBRANCH   1  10
BRANCH   6  37
ATOM     37  O   LIG d   1      11.244   0.454  -4.842  0.00  0.00    -0.495 OA
BRANCH  37  38
ATOM     38  C   LIG d   1      12.417  -0.223  -4.386  0.00  0.00     0.079 C 
ATOM     39  H   LIG d   1      12.248  -1.300  -4.413  0.00  0.00     0.066 H 
ATOM     40  H   LIG d   1      12.640   0.083  -3.363  0.00  0.00     0.066 H 
ATOM     41  H   LIG d   1      13.257   0.030  -5.032  0.00  0.00     0.066 H 
ENDBRANCH  37  38
ENDBRANCH   6  37
BRANCH   3  42
ATOM     42  C   LIG d   1       9.789   5.164  -2.116  0.00  0.00     0.045 C 
ATOM     43  H   LIG d   1       8.783   5.056  -1.711  0.00  0.00     0.097 H 
ATOM     44  C   LIG d   1       9.831   6.335  -3.068  0.00  0.00     0.074 A 
ATOM     45  N   LIG d   1       9.358   6.376  -4.351  0.00  0.00    -0.353 N 
ATOM     46  C   LIG d   1      10.368   7.532  -2.741  0.00  0.00    -0.008 A 
ATOM     47  C   LIG d   1       9.581   7.613  -4.886  0.00  0.00     0.047 A 
ATOM     48  H   LIG d   1       8.928   5.638  -4.812  0.00  0.00     0.166 HD
ATOM     49  C   LIG d   1      10.228   8.393  -3.893  0.00  0.00     0.004 A 
ATOM     50  C   LIG d   1       9.291   8.155  -6.136  0.00  0.00    -0.038 A 
ATOM     51  C   LIG d   1      10.594   9.721  -4.139  0.00  0.00    -0.052 A 
ATOM     52  C   LIG d   1      10.295  10.227  -5.379  0.00  0.00    -0.061 A 
ATOM     53  H   LIG d   1      11.087  10.319  -3.388  0.00  0.00     0.062 H 
ATOM     54  C   LIG d   1       9.663   9.470  -6.352  0.00  0.00    -0.060 A 
ATOM     55  H   LIG d   1      10.563  11.250  -5.604  0.00  0.00     0.062 H 
ATOM     56  H   LIG d   1       9.453   9.922  -7.310  0.00  0.00     0.062 H 
ATOM     57  H   LIG d   1       8.799   7.575  -6.903  0.00  0.00     0.064 H 
ATOM     58  C   LIG d   1      10.980   7.829  -1.394  0.00  0.00     0.023 C 
ATOM     59  CA  LIG d   1      10.524   6.737  -0.415  0.00  0.00     0.023 C 
ATOM     60  H   LIG d   1      12.066   7.823  -1.473  0.00  0.00     0.037 H 
ATOM     61  H   LIG d   1      10.640   8.803  -1.042  0.00  0.00     0.037 H 
ATOM     62  HA  LIG d   1       9.464   6.866  -0.194  0.00  0.00     0.092 H 
ATOM     63  N   LIG d   1      10.750   5.407  -1.018  0.00  0.00     0.243 N 
ATOM     64  H1  LIG d   1      11.707   5.364  -1.391  0.00  0.00     0.203 HD
ATOM     65  H2  LIG d   1      10.631   4.685  -0.298  0.00  0.00     0.203 HD
BRANCH  59  66
ATOM     66  C   LIG d   1      11.320   6.841   0.859  0.00  0.00     0.090 C 
ATOM     67  O   LIG d   1      11.277   5.951   1.675  0.00  0.00    -0.544 OA
ATOM     68  OXT LIG d   1      12.079   7.925   1.089  0.00  0.00    -0.544 OA
ENDBRANCH  59  66
ENDBRANCH   3  42
TORSDOF 11
ENDMDL
MODEL 6
REMARK VINA RESULT:      -7.5      5.115      8.108
REMARK  11 active torsions:
REMARK  status: ('A' for Active; 'I' for Inactive)
REMARK    1  A    between atoms: C_1  and  C_2 
REMARK    2  A    between atoms: C_4  and  O_12 
REMARK    3  A    between atoms: C_5  and  C_9 
REMARK    4  A    between atoms: C_9  and  C_10 
REMARK    5  A    between atoms: C_9  and  C_11 
REMARK    6  A    between atoms: O_12  and  C_13 
REMARK    7  A    between atoms: C_13  and  C_14 
REMARK    8  A    between atoms: C_16  and  C_22 
REMARK    9  A    between atoms: C_19  and  O_20 
REMARK   10  A    between atoms: O_20  and  C_21 
REMARK   11  A    between atoms: CA_35  and  C_37 
ROOT
ATOM      1  C   LIG d   1       7.354  -0.671  -9.290  0.00  0.00     0.032 A 
ATOM      2  C   LIG d   1       7.656  -0.248  -8.009  0.00  0.00    -0.043 A 
ATOM      3  C   LIG d   1       7.933  -1.174  -7.021  0.00  0.00     0.007 A 
ATOM      4  C   LIG d   1       7.909  -2.526  -7.312  0.00  0.00    -0.049 A 
ATOM      5  C   LIG d   1       7.602  -2.954  -8.588  0.00  0.00    -0.019 A 
ATOM      6  C   LIG d   1       7.330  -2.026  -9.583  0.00  0.00     0.127 A 
ATOM      7  H   LIG d   1       7.675   0.807  -7.781  0.00  0.00     0.063 H 
ATOM      8  H   LIG d   1       8.126  -3.247  -6.538  0.00  0.00     0.062 H 
ATOM      9  H   LIG d   1       7.579  -4.010  -8.813  0.00  0.00     0.065 H 
ENDROOT
BRANCH   1  10
ATOM     10  C   LIG d   1       7.053   0.339 -10.367  0.00  0.00     0.118 C 
ATOM     11  H   LIG d   1       7.866   1.062 -10.426  0.00  0.00     0.075 H 
ATOM     12  H   LIG d   1       6.950  -0.171 -11.325  0.00  0.00     0.075 H 
BRANCH  10  13
ATOM     13  O   LIG d   1       5.834   1.017 -10.056  0.00  0.00    -0.487 OA
BRANCH  13  14
ATOM     14  C   LIG d   1       4.681   0.447 -10.495  0.00  0.00     0.125 A 
ATOM     15  C   LIG d   1       4.616  -0.092 -11.772  0.00  0.00    -0.015 A 
ATOM     16  C   LIG d   1       3.445  -0.676 -12.215  0.00  0.00    -0.029 A 
ATOM     17  H   LIG d   1       5.481  -0.060 -12.417  0.00  0.00     0.066 H 
ATOM     18  C   LIG d   1       2.334  -0.713 -11.392  0.00  0.00     0.044 A 
ATOM     19  C   LIG d   1       2.396  -0.171 -10.120  0.00  0.00    -0.036 A 
ATOM     20 CL   LIG d   1       0.862  -1.441 -11.954  0.00  0.00    -0.083 Cl
ATOM     21  C   LIG d   1       3.566   0.408  -9.672  0.00  0.00    -0.002 A 
ATOM     22  H   LIG d   1       1.528  -0.201  -9.478  0.00  0.00     0.064 H 
BRANCH  16  23
ATOM     23  C   LIG d   1       3.376  -1.269 -13.600  0.00  0.00    -0.038 C 
ATOM     24  H   LIG d   1       2.487  -0.896 -14.110  0.00  0.00     0.028 H 
ATOM     25  H   LIG d   1       4.264  -0.982 -14.163  0.00  0.00     0.028 H 
ATOM     26  H   LIG d   1       3.325  -2.355 -13.529  0.00  0.00     0.028 H 
ENDBRANCH  16  23
BRANCH  21  27
ATOM     27  C   LIG d   1       3.632   0.998  -8.286  0.00  0.00    -0.018 C 
ATOM     28  H   LIG d   1       4.665   1.251  -8.048  0.00  0.00     0.035 H 
BRANCH  27  29
ATOM     29  C   LIG d   1       2.772   2.262  -8.228  0.00  0.00    -0.059 C 
ATOM     30  H   LIG d   1       1.922   2.154  -8.901  0.00  0.00     0.024 H 
ATOM     31  H   LIG d   1       2.413   2.411  -7.209  0.00  0.00     0.024 H 
ATOM     32  H   LIG d   1       3.368   3.122  -8.532  0.00  0.00     0.024 H 
ENDBRANCH  27  29
BRANCH  27  33
ATOM     33  C   LIG d   1       3.110  -0.021  -7.272  0.00  0.00    -0.059 C 
ATOM     34  H   LIG d   1       2.570   0.498  -6.480  0.00  0.00     0.024 H 
ATOM     35  H   LIG d   1       2.438  -0.719  -7.772  0.00  0.00     0.024 H 
ATOM     36  H   LIG d   1       3.948  -0.569  -6.842  0.00  0.00     0.024 H 
ENDBRANCH  27  33
ENDBRANCH  21  27
ENDBRANCH  13  14
ENDBRANCH  10  13
ENDBRANCH   1  10
BRANCH   6  37
ATOM     37  O   LIG d   1       7.034  -2.445 -10.842  0.00  0.00    -0.495 OA
BRANCH  37  38
ATOM     38  C   LIG d   1       8.077  -3.096 -11.571  0.00  0.00     0.079 C 
ATOM     39  H   LIG d   1       8.604  -3.787 -10.913  0.00  0.00     0.066 H 
ATOM     40  H   LIG d   1       8.776  -2.350 -11.949  0.00  0.00     0.066 H 
ATOM     41  H   LIG d   1       7.646  -3.647 -12.407  0.00  0.00     0.066 H 
ENDBRANCH  37  38
ENDBRANCH   6  37
BRANCH   3  42
ATOM     42  C   LIG d   1       8.262  -0.710  -5.626  0.00  0.00     0.045 C 
ATOM     43  H   LIG d   1       8.865  -1.465  -5.121  0.00  0.00     0.097 H 
ATOM     44  C   LIG d   1       6.985  -0.481  -4.853  0.00  0.00     0.074 A 
ATOM     45  N   LIG d   1       5.878  -1.284  -4.826  0.00  0.00    -0.353 N 
ATOM     46  C   LIG d   1       6.785   0.598  -4.063  0.00  0.00    -0.008 A 
ATOM     47  C   LIG d   1       4.930  -0.737  -4.010  0.00  0.00     0.047 A 
ATOM     48  H   LIG d   1       5.781  -2.118  -5.313  0.00  0.00     0.166 HD
ATOM     49  C   LIG d   1       5.462   0.474  -3.495  0.00  0.00     0.004 A 
ATOM     50  C   LIG d   1       3.651  -1.158  -3.651  0.00  0.00    -0.038 A 
ATOM     51  C   LIG d   1       4.723   1.276  -2.620  0.00  0.00    -0.052 A 
ATOM     52  C   LIG d   1       3.467   0.836  -2.284  0.00  0.00    -0.061 A 
ATOM     53  H   LIG d   1       5.122   2.198  -2.225  0.00  0.00     0.062 H 
ATOM     54  C   LIG d   1       2.943  -0.346  -2.784  0.00  0.00    -0.060 A 
ATOM     55  H   LIG d   1       2.867   1.430  -1.610  0.00  0.00     0.062 H 
ATOM     56  H   LIG d   1       1.948  -0.643  -2.485  0.00  0.00     0.062 H 
ATOM     57  H   LIG d   1       3.231  -2.077  -4.034  0.00  0.00     0.064 H 
ATOM     58  C   LIG d   1       7.812   1.686  -3.865  0.00  0.00     0.023 C 
ATOM     59  CA  LIG d   1       9.166   1.154  -4.355  0.00  0.00     0.023 C 
ATOM     60  H   LIG d   1       7.532   2.567  -4.442  0.00  0.00     0.037 H 
ATOM     61  H   LIG d   1       7.877   1.943  -2.808  0.00  0.00     0.037 H 
ATOM     62  HA  LIG d   1       9.532   0.396  -3.662  0.00  0.00     0.092 H 
ATOM     63  N   LIG d   1       9.009   0.565  -5.701  0.00  0.00     0.243 N 
ATOM     64  H1  LIG d   1       8.495   1.222  -6.300  0.00  0.00     0.203 HD
ATOM     65  H2  LIG d   1       9.937   0.390  -6.104  0.00  0.00     0.203 HD
BRANCH  59  66
ATOM     66  C   LIG d   1      10.155   2.289  -4.428  0.00  0.00     0.090 C 
ATOM     67  O   LIG d   1       9.907   3.266  -5.094  0.00  0.00    -0.544 OA
ATOM     68  OXT LIG d   1      11.312   2.213  -3.752  0.00  0.00    -0.544 OA
ENDBRANCH  59  66
ENDBRANCH   3  42
TORSDOF 11
ENDMDL
MODEL 7
REMARK VINA RESULT:      -7.5      5.067      9.353
REMARK  11 active torsions:
REMARK  status: ('A' for Active; 'I' for Inactive)
REMARK    1  A    between atoms: C_1  and  C_2 
REMARK    2  A    between atoms: C_4  and  O_12 
REMARK    3  A    between atoms: C_5  and  C_9 
REMARK    4  A    between atoms: C_9  and  C_10 
REMARK    5  A    between atoms: C_9  and  C_11 
REMARK    6  A    between atoms: O_12  and  C_13 
REMARK    7  A    between atoms: C_13  and  C_14 
REMARK    8  A    between atoms: C_16  and  C_22 
REMARK    9  A    between atoms: C_19  and  O_20 
REMARK   10  A    between atoms: O_20  and  C_21 
REMARK   11  A    between atoms: CA_35  and  C_37 
ROOT
ATOM      1  C   LIG d   1       8.044  -3.250  -6.302  0.00  0.00     0.032 A 
ATOM      2  C   LIG d   1       6.938  -3.198  -7.130  0.00  0.00    -0.043 A 
ATOM      3  C   LIG d   1       7.102  -3.137  -8.501  0.00  0.00     0.007 A 
ATOM      4  C   LIG d   1       8.372  -3.130  -9.048  0.00  0.00    -0.049 A 
ATOM      5  C   LIG d   1       9.480  -3.176  -8.225  0.00  0.00    -0.019 A 
ATOM      6  C   LIG d   1       9.318  -3.243  -6.849  0.00  0.00     0.127 A 
ATOM      7  H   LIG d   1       5.946  -3.204  -6.704  0.00  0.00     0.063 H 
ATOM      8  H   LIG d   1       8.497  -3.082 -10.120  0.00  0.00     0.062 H 
ATOM      9  H   LIG d   1      10.472  -3.165  -8.653  0.00  0.00     0.065 H 
ENDROOT
BRANCH   1  10
ATOM     10  C   LIG d   1       7.865  -3.317  -4.807  0.00  0.00     0.118 C 
ATOM     11  H   LIG d   1       6.834  -3.582  -4.576  0.00  0.00     0.075 H 
ATOM     12  H   LIG d   1       8.537  -4.069  -4.394  0.00  0.00     0.075 H 
BRANCH  10  13
ATOM     13  O   LIG d   1       8.169  -2.043  -4.235  0.00  0.00    -0.487 OA
BRANCH  13  14
ATOM     14  C   LIG d   1       7.124  -1.316  -3.759  0.00  0.00     0.125 A 
ATOM     15  C   LIG d   1       6.015  -1.958  -3.227  0.00  0.00    -0.015 A 
ATOM     16  C   LIG d   1       4.957  -1.217  -2.738  0.00  0.00    -0.029 A 
ATOM     17  H   LIG d   1       5.982  -3.037  -3.190  0.00  0.00     0.066 H 
ATOM     18  C   LIG d   1       4.996   0.165  -2.790  0.00  0.00     0.044 A 
ATOM     19  C   LIG d   1       6.099   0.807  -3.325  0.00  0.00    -0.036 A 
ATOM     20 CL   LIG d   1       3.661   1.093  -2.182  0.00  0.00    -0.083 Cl
ATOM     21  C   LIG d   1       7.161   0.070  -3.809  0.00  0.00    -0.002 A 
ATOM     22  H   LIG d   1       6.128   1.886  -3.364  0.00  0.00     0.064 H 
BRANCH  16  23
ATOM     23  C   LIG d   1       3.756  -1.915  -2.154  0.00  0.00    -0.038 C 
ATOM     24  H   LIG d   1       2.870  -1.295  -2.297  0.00  0.00     0.028 H 
ATOM     25  H   LIG d   1       3.612  -2.873  -2.653  0.00  0.00     0.028 H 
ATOM     26  H   LIG d   1       3.913  -2.081  -1.088  0.00  0.00     0.028 H 
ENDBRANCH  16  23
BRANCH  21  27
ATOM     27  C   LIG d   1       8.362   0.771  -4.391  0.00  0.00    -0.018 C 
ATOM     28  H   LIG d   1       9.262   0.202  -4.161  0.00  0.00     0.035 H 
BRANCH  27  29
ATOM     29  C   LIG d   1       8.201   0.881  -5.909  0.00  0.00    -0.059 C 
ATOM     30  H   LIG d   1       8.451   1.892  -6.228  0.00  0.00     0.024 H 
ATOM     31  H   LIG d   1       8.869   0.169  -6.397  0.00  0.00     0.024 H 
ATOM     32  H   LIG d   1       7.171   0.658  -6.183  0.00  0.00     0.024 H 
ENDBRANCH  27  29
BRANCH  27  33
ATOM     33  C   LIG d   1       8.477   2.172  -3.788  0.00  0.00    -0.059 C 
ATOM     34  H   LIG d   1       9.494   2.331  -3.430  0.00  0.00     0.024 H 
ATOM     35  H   LIG d   1       8.239   2.916  -4.548  0.00  0.00     0.024 H 
ATOM     36  H   LIG d   1       7.779   2.269  -2.955  0.00  0.00     0.024 H 
ENDBRANCH  27  33
ENDBRANCH  21  27
ENDBRANCH  13  14
ENDBRANCH  10  13
ENDBRANCH   1  10
BRANCH   6  37
ATOM     37  O   LIG d   1      10.407  -3.295  -6.037  0.00  0.00    -0.495 OA
BRANCH  37  38
ATOM     38  C   LIG d   1      11.251  -2.141  -6.008  0.00  0.00     0.079 C 
ATOM     39  H   LIG d   1      11.137  -1.585  -6.939  0.00  0.00     0.066 H 
ATOM     40  H   LIG d   1      12.290  -2.453  -5.896  0.00  0.00     0.066 H 
ATOM     41  H   LIG d   1      10.970  -1.506  -5.169  0.00  0.00     0.066 H 
ENDBRANCH  37  38
ENDBRANCH   6  37
BRANCH   3  42
ATOM     42  C   LIG d   1       5.895  -3.080  -9.401  0.00  0.00     0.045 C 
ATOM     43  H   LIG d   1       6.193  -3.289 -10.428  0.00  0.00     0.097 H 
ATOM     44  C   LIG d   1       5.268  -1.709  -9.323  0.00  0.00     0.074 A 
ATOM     45  N   LIG d   1       5.913  -0.502  -9.335  0.00  0.00    -0.353 N 
ATOM     46  C   LIG d   1       3.934  -1.512  -9.229  0.00  0.00    -0.008 A 
ATOM     47  C   LIG d   1       5.000   0.511  -9.248  0.00  0.00     0.047 A 
ATOM     48  H   LIG d   1       6.874  -0.383  -9.396  0.00  0.00     0.166 HD
ATOM     49  C   LIG d   1       3.714  -0.084  -9.177  0.00  0.00     0.004 A 
ATOM     50  C   LIG d   1       5.143   1.896  -9.223  0.00  0.00    -0.038 A 
ATOM     51  C   LIG d   1       2.558   0.698  -9.078  0.00  0.00    -0.052 A 
ATOM     52  C   LIG d   1       2.730   2.060  -9.056  0.00  0.00    -0.061 A 
ATOM     53  H   LIG d   1       1.577   0.251  -9.023  0.00  0.00     0.062 H 
ATOM     54  C   LIG d   1       3.984   2.645  -9.125  0.00  0.00    -0.060 A 
ATOM     55  H   LIG d   1       1.859   2.695  -8.980  0.00  0.00     0.062 H 
ATOM     56  H   LIG d   1       4.058   3.722  -9.104  0.00  0.00     0.062 H 
ATOM     57  H   LIG d   1       6.115   2.365  -9.276  0.00  0.00     0.064 H 
ATOM     58  C   LIG d   1       2.928  -2.636  -9.194  0.00  0.00     0.023 C 
ATOM     59  CA  LIG d   1       3.628  -3.914  -9.676  0.00  0.00     0.023 C 
ATOM     60  H   LIG d   1       2.566  -2.775  -8.175  0.00  0.00     0.037 H 
ATOM     61  H   LIG d   1       2.092  -2.403  -9.853  0.00  0.00     0.037 H 
ATOM     62  HA  LIG d   1       3.820  -3.842 -10.747  0.00  0.00     0.092 H 
ATOM     63  N   LIG d   1       4.904  -4.082  -8.950  0.00  0.00     0.243 N 
ATOM     64  H1  LIG d   1       4.738  -3.964  -7.944  0.00  0.00     0.203 HD
ATOM     65  H2  LIG d   1       5.272  -5.024  -9.128  0.00  0.00     0.203 HD
BRANCH  59  66
ATOM     66  C   LIG d   1       2.746  -5.104  -9.402  0.00  0.00     0.090 C 
ATOM     67  O   LIG d   1       3.046  -5.894  -8.538  0.00  0.00    -0.544 OA
ATOM     68  OXT LIG d   1       1.625  -5.287 -10.118  0.00  0.00    -0.544 OA
ENDBRANCH  59  66
ENDBRANCH   3  42
TORSDOF 11
ENDMDL
MODEL 8
REMARK VINA RESULT:      -7.5      3.574      9.290
REMARK  11 active torsions:
REMARK  status: ('A' for Active; 'I' for Inactive)
REMARK    1  A    between atoms: C_1  and  C_2 
REMARK    2  A    between atoms: C_4  and  O_12 
REMARK    3  A    between atoms: C_5  and  C_9 
REMARK    4  A    between atoms: C_9  and  C_10 
REMARK    5  A    between atoms: C_9  and  C_11 
REMARK    6  A    between atoms: O_12  and  C_13 
REMARK    7  A    between atoms: C_13  and  C_14 
REMARK    8  A    between atoms: C_16  and  C_22 
REMARK    9  A    between atoms: C_19  and  O_20 
REMARK   10  A    between atoms: O_20  and  C_21 
REMARK   11  A    between atoms: CA_35  and  C_37 
ROOT
ATOM      1  C   LIG d   1       9.745   5.166  -3.653  0.00  0.00     0.032 A 
ATOM      2  C   LIG d   1       9.128   4.232  -4.464  0.00  0.00    -0.043 A 
ATOM      3  C   LIG d   1       9.367   2.884  -4.271  0.00  0.00     0.007 A 
ATOM      4  C   LIG d   1      10.223   2.467  -3.268  0.00  0.00    -0.049 A 
ATOM      5  C   LIG d   1      10.846   3.397  -2.460  0.00  0.00    -0.019 A 
ATOM      6  C   LIG d   1      10.603   4.751  -2.647  0.00  0.00     0.127 A 
ATOM      7  H   LIG d   1       8.459   4.555  -5.248  0.00  0.00     0.063 H 
ATOM      8  H   LIG d   1      10.407   1.413  -3.120  0.00  0.00     0.062 H 
ATOM      9  H   LIG d   1      11.518   3.071  -1.680  0.00  0.00     0.065 H 
ENDROOT
BRANCH   1  10
ATOM     10  C   LIG d   1       9.484   6.636  -3.863  0.00  0.00     0.118 C 
ATOM     11  H   LIG d   1       8.813   7.001  -3.086  0.00  0.00     0.075 H 
ATOM     12  H   LIG d   1      10.427   7.182  -3.817  0.00  0.00     0.075 H 
BRANCH  10  13
ATOM     13  O   LIG d   1       8.882   6.834  -5.144  0.00  0.00    -0.487 OA
BRANCH  13  14
ATOM     14  C   LIG d   1       9.393   7.827  -5.919  0.00  0.00     0.125 A 
ATOM     15  C   LIG d   1       9.478   9.120  -5.425  0.00  0.00    -0.015 A 
ATOM     16  C   LIG d   1      10.003  10.127  -6.212  0.00  0.00    -0.029 A 
ATOM     17  H   LIG d   1       9.139   9.339  -4.423  0.00  0.00     0.066 H 
ATOM     18  C   LIG d   1      10.432   9.848  -7.497  0.00  0.00     0.044 A 
ATOM     19  C   LIG d   1      10.343   8.560  -7.994  0.00  0.00    -0.036 A 
ATOM     20 CL   LIG d   1      11.084  11.117  -8.487  0.00  0.00    -0.083 Cl
ATOM     21  C   LIG d   1       9.824   7.550  -7.208  0.00  0.00    -0.002 A 
ATOM     22  H   LIG d   1      10.679   8.344  -8.998  0.00  0.00     0.064 H 
BRANCH  16  23
ATOM     23  C   LIG d   1      10.102  11.531  -5.672  0.00  0.00    -0.038 C 
ATOM     24  H   LIG d   1      10.821  12.097  -6.264  0.00  0.00     0.028 H 
ATOM     25  H   LIG d   1       9.126  12.013  -5.730  0.00  0.00     0.028 H 
ATOM     26  H   LIG d   1      10.431  11.499  -4.634  0.00  0.00     0.028 H 
ENDBRANCH  16  23
BRANCH  21  27
ATOM     27  C   LIG d   1       9.728   6.147  -7.750  0.00  0.00    -0.018 C 
ATOM     28  H   LIG d   1       8.959   5.599  -7.206  0.00  0.00     0.035 H 
BRANCH  27  29
ATOM     29  C   LIG d   1       9.364   6.198  -9.236  0.00  0.00    -0.059 C 
ATOM     30  H   LIG d   1       9.231   7.235  -9.541  0.00  0.00     0.024 H 
ATOM     31  H   LIG d   1      10.165   5.745  -9.821  0.00  0.00     0.024 H 
ATOM     32  H   LIG d   1       8.438   5.649  -9.402  0.00  0.00     0.024 H 
ENDBRANCH  27  29
BRANCH  27  33
ATOM     33  C   LIG d   1      11.074   5.441  -7.579  0.00  0.00    -0.059 C 
ATOM     34  H   LIG d   1      10.960   4.603  -6.891  0.00  0.00     0.024 H 
ATOM     35  H   LIG d   1      11.417   5.072  -8.546  0.00  0.00     0.024 H 
ATOM     36  H   LIG d   1      11.806   6.143  -7.178  0.00  0.00     0.024 H 
ENDBRANCH  27  33
ENDBRANCH  21  27
ENDBRANCH  13  14
ENDBRANCH  10  13
ENDBRANCH   1  10
BRANCH   6  37
ATOM     37  O   LIG d   1      11.211   5.668  -1.849  0.00  0.00    -0.495 OA
BRANCH  37  38
ATOM     38  C   LIG d   1      12.566   5.408  -1.476  0.00  0.00     0.079 C 
ATOM     39  H   LIG d   1      12.591   4.620  -0.723  0.00  0.00     0.066 H 
ATOM     40  H   LIG d   1      13.011   6.315  -1.068  0.00  0.00     0.066 H 
ATOM     41  H   LIG d   1      13.129   5.089  -2.353  0.00  0.00     0.066 H 
ENDBRANCH  37  38
ENDBRANCH   6  37
BRANCH   3  42
ATOM     42  C   LIG d   1       8.693   1.867  -5.156  0.00  0.00     0.045 C 
ATOM     43  H   LIG d   1       8.247   2.368  -6.016  0.00  0.00     0.097 H 
ATOM     44  C   LIG d   1       7.620   1.146  -4.376  0.00  0.00     0.074 A 
ATOM     45  N   LIG d   1       6.704   1.699  -3.523  0.00  0.00    -0.353 N 
ATOM     46  C   LIG d   1       7.437  -0.192  -4.436  0.00  0.00    -0.008 A 
ATOM     47  C   LIG d   1       5.901   0.721  -3.010  0.00  0.00     0.047 A 
ATOM     48  H   LIG d   1       6.634   2.644  -3.314  0.00  0.00     0.166 HD
ATOM     49  C   LIG d   1       6.331  -0.513  -3.564  0.00  0.00     0.004 A 
ATOM     50  C   LIG d   1       4.834   0.763  -2.115  0.00  0.00    -0.038 A 
ATOM     51  C   LIG d   1       5.701  -1.717  -3.228  0.00  0.00    -0.052 A 
ATOM     52  C   LIG d   1       4.653  -1.644  -2.345  0.00  0.00    -0.061 A 
ATOM     53  H   LIG d   1       6.024  -2.658  -3.646  0.00  0.00     0.062 H 
ATOM     54  C   LIG d   1       4.230  -0.442  -1.802  0.00  0.00    -0.060 A 
ATOM     55  H   LIG d   1       4.144  -2.554  -2.063  0.00  0.00     0.062 H 
ATOM     56  H   LIG d   1       3.399  -0.445  -1.111  0.00  0.00     0.062 H 
ATOM     57  H   LIG d   1       4.495   1.693  -1.684  0.00  0.00     0.064 H 
ATOM     58  C   LIG d   1       8.280  -1.109  -5.289  0.00  0.00     0.023 C 
ATOM     59  CA  LIG d   1       9.036  -0.245  -6.309  0.00  0.00     0.023 C 
ATOM     60  H   LIG d   1       8.990  -1.646  -4.661  0.00  0.00     0.037 H 
ATOM     61  H   LIG d   1       7.638  -1.819  -5.811  0.00  0.00     0.037 H 
ATOM     62  HA  LIG d   1       8.335   0.140  -7.049  0.00  0.00     0.092 H 
ATOM     63  N   LIG d   1       9.695   0.879  -5.612  0.00  0.00     0.243 N 
ATOM     64  H1  LIG d   1      10.208   0.518  -4.799  0.00  0.00     0.203 HD
ATOM     65  H2  LIG d   1      10.352   1.336  -6.255  0.00  0.00     0.203 HD
BRANCH  59  66
ATOM     66  C   LIG d   1      10.085  -1.082  -6.995  0.00  0.00     0.090 C 
ATOM     67  O   LIG d   1      10.445  -2.124  -6.501  0.00  0.00    -0.544 OA
ATOM     68  OXT LIG d   1      10.619  -0.668  -8.155  0.00  0.00    -0.544 OA
ENDBRANCH  59  66
ENDBRANCH   3  42
TORSDOF 11
ENDMDL
MODEL 9
REMARK VINA RESULT:      -7.4      5.880      9.382
REMARK  11 active torsions:
REMARK  status: ('A' for Active; 'I' for Inactive)
REMARK    1  A    between atoms: C_1  and  C_2 
REMARK    2  A    between atoms: C_4  and  O_12 
REMARK    3  A    between atoms: C_5  and  C_9 
REMARK    4  A    between atoms: C_9  and  C_10 
REMARK    5  A    between atoms: C_9  and  C_11 
REMARK    6  A    between atoms: O_12  and  C_13 
REMARK    7  A    between atoms: C_13  and  C_14 
REMARK    8  A    between atoms: C_16  and  C_22 
REMARK    9  A    between atoms: C_19  and  O_20 
REMARK   10  A    between atoms: O_20  and  C_21 
REMARK   11  A    between atoms: CA_35  and  C_37 
ROOT
ATOM      1  C   LIG d   1       7.558   0.557  -8.658  0.00  0.00     0.032 A 
ATOM      2  C   LIG d   1       6.934   0.066  -7.526  0.00  0.00    -0.043 A 
ATOM      3  C   LIG d   1       7.511   0.250  -6.283  0.00  0.00     0.007 A 
ATOM      4  C   LIG d   1       8.712   0.925  -6.169  0.00  0.00    -0.049 A 
ATOM      5  C   LIG d   1       9.342   1.412  -7.297  0.00  0.00    -0.019 A 
ATOM      6  C   LIG d   1       8.762   1.234  -8.545  0.00  0.00     0.127 A 
ATOM      7  H   LIG d   1       5.996  -0.462  -7.614  0.00  0.00     0.063 H 
ATOM      8  H   LIG d   1       9.160   1.068  -5.197  0.00  0.00     0.062 H 
ATOM      9  H   LIG d   1      10.282   1.936  -7.208  0.00  0.00     0.065 H 
ENDROOT
BRANCH   1  10
ATOM     10  C   LIG d   1       6.928   0.356 -10.013  0.00  0.00     0.118 C 
ATOM     11  H   LIG d   1       7.626   0.671 -10.788  0.00  0.00     0.075 H 
ATOM     12  H   LIG d   1       6.686  -0.698 -10.148  0.00  0.00     0.075 H 
BRANCH  10  13
ATOM     13  O   LIG d   1       5.733   1.135 -10.103  0.00  0.00    -0.487 OA
BRANCH  13  14
ATOM     14  C   LIG d   1       4.620   0.506 -10.563  0.00  0.00     0.125 A 
ATOM     15  C   LIG d   1       4.601  -0.019 -11.847  0.00  0.00    -0.015 A 
ATOM     16  C   LIG d   1       3.470  -0.664 -12.312  0.00  0.00    -0.029 A 
ATOM     17  H   LIG d   1       5.471   0.070 -12.481  0.00  0.00     0.066 H 
ATOM     18  C   LIG d   1       2.354  -0.774 -11.503  0.00  0.00     0.044 A 
ATOM     19  C   LIG d   1       2.369  -0.246 -10.224  0.00  0.00    -0.036 A 
ATOM     20 CL   LIG d   1       0.932  -1.577 -12.093  0.00  0.00    -0.083 Cl
ATOM     21  C   LIG d   1       3.500   0.393  -9.754  0.00  0.00    -0.002 A 
ATOM     22  H   LIG d   1       1.497  -0.334  -9.594  0.00  0.00     0.064 H 
BRANCH  16  23
ATOM     23  C   LIG d   1       3.452  -1.241 -13.704  0.00  0.00    -0.038 C 
ATOM     24  H   LIG d   1       2.437  -1.550 -13.955  0.00  0.00     0.028 H 
ATOM     25  H   LIG d   1       3.787  -0.486 -14.416  0.00  0.00     0.028 H 
ATOM     26  H   LIG d   1       4.115  -2.104 -13.749  0.00  0.00     0.028 H 
ENDBRANCH  16  23
BRANCH  21  27
ATOM     27  C   LIG d   1       3.516   0.968  -8.360  0.00  0.00    -0.018 C 
ATOM     28  H   LIG d   1       4.546   1.131  -8.047  0.00  0.00     0.035 H 
BRANCH  27  29
ATOM     29  C   LIG d   1       2.763   2.300  -8.350  0.00  0.00    -0.059 C 
ATOM     30  H   LIG d   1       2.002   2.281  -7.570  0.00  0.00     0.024 H 
ATOM     31  H   LIG d   1       3.464   3.112  -8.155  0.00  0.00     0.024 H 
ATOM     32  H   LIG d   1       2.286   2.456  -9.317  0.00  0.00     0.024 H 
ENDBRANCH  27  29
BRANCH  27  33
ATOM     33  C   LIG d   1       2.838  -0.009  -7.398  0.00  0.00    -0.059 C 
ATOM     34  H   LIG d   1       2.956   0.349  -6.375  0.00  0.00     0.024 H 
ATOM     35  H   LIG d   1       1.777  -0.078  -7.638  0.00  0.00     0.024 H 
ATOM     36  H   LIG d   1       3.297  -0.993  -7.494  0.00  0.00     0.024 H 
ENDBRANCH  27  33
ENDBRANCH  21  27
ENDBRANCH  13  14
ENDBRANCH  10  13
ENDBRANCH   1  10
BRANCH   6  37
ATOM     37  O   LIG d   1       9.377   1.718  -9.657  0.00  0.00    -0.495 OA
BRANCH  37  38
ATOM     38  C   LIG d   1      10.757   1.388  -9.831  0.00  0.00     0.079 C 
ATOM     39  H   LIG d   1      11.035   1.529 -10.875  0.00  0.00     0.066 H 
ATOM     40  H   LIG d   1      10.920   0.347  -9.550  0.00  0.00     0.066 H 
ATOM     41  H   LIG d   1      11.367   2.034  -9.201  0.00  0.00     0.066 H 
ENDBRANCH  37  38
ENDBRANCH   6  37
BRANCH   3  42
ATOM     42  C   LIG d   1       6.829  -0.286  -5.051  0.00  0.00     0.045 C 
ATOM     43  H   LIG d   1       7.482  -0.160  -4.187  0.00  0.00     0.097 H 
ATOM     44  C   LIG d   1       6.514  -1.750  -5.241  0.00  0.00     0.074 A 
ATOM     45  N   LIG d   1       7.331  -2.710  -5.774  0.00  0.00    -0.353 N 
ATOM     46  C   LIG d   1       5.332  -2.303  -4.888  0.00  0.00    -0.008 A 
ATOM     47  C   LIG d   1       6.688  -3.915  -5.776  0.00  0.00     0.047 A 
ATOM     48  H   LIG d   1       8.232  -2.558  -6.101  0.00  0.00     0.166 HD
ATOM     49  C   LIG d   1       5.400  -3.708  -5.218  0.00  0.00     0.004 A 
ATOM     50  C   LIG d   1       7.080  -5.182  -6.204  0.00  0.00    -0.038 A 
ATOM     51  C   LIG d   1       4.490  -4.763  -5.084  0.00  0.00    -0.052 A 
ATOM     52  C   LIG d   1       4.904  -5.999  -5.514  0.00  0.00    -0.061 A 
ATOM     53  H   LIG d   1       3.509  -4.611  -4.660  0.00  0.00     0.062 H 
ATOM     54  C   LIG d   1       6.161  -6.206  -6.059  0.00  0.00    -0.060 A 
ATOM     55  H   LIG d   1       4.228  -6.836  -5.425  0.00  0.00     0.062 H 
ATOM     56  H   LIG d   1       6.433  -7.201  -6.380  0.00  0.00     0.062 H 
ATOM     57  H   LIG d   1       8.057  -5.356  -6.631  0.00  0.00     0.064 H 
ATOM     58  C   LIG d   1       4.201  -1.521  -4.266  0.00  0.00     0.023 C 
ATOM     59  CA  LIG d   1       4.770  -0.185  -3.764  0.00  0.00     0.023 C 
ATOM     60  H   LIG d   1       3.427  -1.336  -5.010  0.00  0.00     0.037 H 
ATOM     61  H   LIG d   1       3.783  -2.080  -3.429  0.00  0.00     0.037 H 
ATOM     62  HA  LIG d   1       5.402  -0.362  -2.894  0.00  0.00     0.092 H 
ATOM     63  N   LIG d   1       5.563   0.449  -4.837  0.00  0.00     0.243 N 
ATOM     64  H1  LIG d   1       5.018   0.444  -5.708  0.00  0.00     0.203 HD
ATOM     65  H2  LIG d   1       5.775   1.418  -4.573  0.00  0.00     0.203 HD
BRANCH  59  66
ATOM     66  C   LIG d   1       3.635   0.731  -3.384  0.00  0.00     0.090 C 
ATOM     67  O   LIG d   1       2.994   1.288  -4.243  0.00  0.00    -0.544 OA
ATOM     68  OXT LIG d   1       3.339   0.929  -2.089  0.00  0.00    -0.544 OA
ENDBRANCH  59  66
ENDBRANCH   3  42
TORSDOF 11
ENDMDL
