MODEL 1
REMARK VINA RESULT:      -6.0      0.000      0.000
REMARK  8 active torsions:
REMARK  status: ('A' for Active; 'I' for Inactive)
REMARK    1  A    between atoms: C_1  and  O_2 
REMARK    2  A    between atoms: O_2  and  C_3 
REMARK    3  A    between atoms: C_7  and  C_9 
REMARK       I    between atoms: N_19  and  C_20 
REMARK       I    between atoms: C_20  and  N_22 
REMARK    4  A    between atoms: N_22  and  C_23 
REMARK    5  A    between atoms: C_23  and  C_24 
REMARK    6  A    between atoms: C_24  and  C_25 
REMARK    7  A    between atoms: C_25  and  O_27 
REMARK    8  A    between atoms: O_27  and  C_28 
ROOT
ATOM      1  C   LIG d   1       4.729  -1.063  -6.646  0.00  0.00     0.097 C 
ATOM      2  H   LIG d   1       5.340  -1.079  -5.745  0.00  0.00     0.062 H 
ATOM      3  C   LIG d   1       5.481  -0.381  -7.766  0.00  0.00     0.087 A 
ATOM      4  C   LIG d   1       4.956   0.596  -8.534  0.00  0.00     0.042 A 
ATOM      5  N   LIG d   1       5.917   0.958  -9.428  0.00  0.00    -0.348 N 
ATOM      6  C   LIG d   1       7.002   0.191  -9.176  0.00  0.00     0.094 A 
ATOM      7  N   LIG d   1       6.730  -0.608  -8.178  0.00  0.00    -0.238 NA
ATOM      8  H   LIG d   1       5.838   1.637 -10.116  0.00  0.00     0.167 HD
ATOM      9  C   LIG d   1       3.563   1.151  -8.389  0.00  0.00     0.005 C 
ATOM     10  C   LIG d   1       2.720   0.163  -7.571  0.00  0.00     0.022 C 
ATOM     11  N   LIG d   1       3.499  -0.287  -6.407  0.00  0.00    -0.273 N 
ATOM     12  C   LIG d   1       3.099   0.003  -5.153  0.00  0.00     0.303 C 
ATOM     13  O   LIG d   1       2.037   0.565  -4.967  0.00  0.00    -0.253 OA
ATOM     14  N   LIG d   1       3.879  -0.328  -4.104  0.00  0.00    -0.299 N 
ATOM     15  H   LIG d   1       7.940   0.231  -9.711  0.00  0.00     0.103 H 
ATOM     16  H   LIG d   1       3.603   2.110  -7.873  0.00  0.00     0.034 H 
ATOM     17  H   LIG d   1       3.116   1.282  -9.374  0.00  0.00     0.034 H 
ATOM     18  H   LIG d   1       1.809   0.655  -7.232  0.00  0.00     0.047 H 
ATOM     19  H   LIG d   1       2.462  -0.696  -8.191  0.00  0.00     0.047 H 
ATOM     20  H   LIG d   1       4.758  -0.708  -4.254  0.00  0.00     0.150 HD
ENDROOT
BRANCH   1  21
ATOM     21  C   LIG d   1       4.377  -2.472  -7.050  0.00  0.00    -0.018 A 
ATOM     22  C   LIG d   1       4.059  -2.754  -8.366  0.00  0.00    -0.056 A 
ATOM     23  C   LIG d   1       3.736  -4.045  -8.740  0.00  0.00    -0.058 A 
ATOM     24  H   LIG d   1       4.062  -1.964  -9.102  0.00  0.00     0.062 H 
ATOM     25  C   LIG d   1       3.731  -5.058  -7.800  0.00  0.00    -0.020 A 
ATOM     26  H   LIG d   1       3.488  -4.263  -9.768  0.00  0.00     0.062 H 
ATOM     27  C   LIG d   1       4.050  -4.777  -6.479  0.00  0.00     0.120 A 
ATOM     28  H   LIG d   1       3.479  -6.066  -8.093  0.00  0.00     0.065 H 
ATOM     29  C   LIG d   1       4.368  -3.480  -6.105  0.00  0.00    -0.015 A 
ATOM     30  H   LIG d   1       4.613  -3.258  -5.076  0.00  0.00     0.066 H 
BRANCH  27  31
ATOM     31  O   LIG d   1       4.045  -5.770  -5.553  0.00  0.00    -0.495 OA
BRANCH  31  32
ATOM     32  C   LIG d   1       5.157  -6.668  -5.556  0.00  0.00     0.079 C 
ATOM     33  H   LIG d   1       4.911  -7.554  -4.972  0.00  0.00     0.066 H 
ATOM     34  H   LIG d   1       5.386  -6.960  -6.581  0.00  0.00     0.066 H 
ATOM     35  H   LIG d   1       6.024  -6.173  -5.117  0.00  0.00     0.066 H 
ENDBRANCH  31  32
ENDBRANCH  27  31
ENDBRANCH   1  21
BRANCH  14  36
ATOM     36  C   LIG d   1       3.397  -0.113  -2.737  0.00  0.00     0.023 C 
ATOM     37  H   LIG d   1       2.594   0.624  -2.747  0.00  0.00     0.047 H 
ATOM     38  H   LIG d   1       3.023  -1.053  -2.332  0.00  0.00     0.047 H 
BRANCH  36  39
ATOM     39  C   LIG d   1       4.546   0.398  -1.866  0.00  0.00     0.060 C 
ATOM     40  H   LIG d   1       4.254   1.336  -1.393  0.00  0.00     0.039 H 
ATOM     41  H   LIG d   1       4.774  -0.340  -1.097  0.00  0.00     0.039 H 
BRANCH  39  42
ATOM     42  C   LIG d   1       5.765   0.625  -2.723  0.00  0.00     0.308 C 
ATOM     43  O   LIG d   1       6.009   1.732  -3.142  0.00  0.00    -0.251 OA
BRANCH  42  44
ATOM     44  O   LIG d   1       6.577  -0.401  -3.020  0.00  0.00    -0.468 OA
BRANCH  44  45
ATOM     45  C   LIG d   1       7.439  -0.239  -4.148  0.00  0.00     0.082 C 
ATOM     46  H   LIG d   1       8.264   0.423  -3.882  0.00  0.00     0.066 H 
ATOM     47  H   LIG d   1       7.835  -1.211  -4.446  0.00  0.00     0.066 H 
ATOM     48  H   LIG d   1       6.878   0.194  -4.975  0.00  0.00     0.066 H 
ENDBRANCH  44  45
ENDBRANCH  42  44
ENDBRANCH  39  42
ENDBRANCH  36  39
ENDBRANCH  14  36
TORSDOF 8
ENDMDL
MODEL 2
REMARK VINA RESULT:      -5.9      2.575      5.540
REMARK  8 active torsions:
REMARK  status: ('A' for Active; 'I' for Inactive)
REMARK    1  A    between atoms: C_1  and  O_2 
REMARK    2  A    between atoms: O_2  and  C_3 
REMARK    3  A    between atoms: C_7  and  C_9 
REMARK       I    between atoms: N_19  and  C_20 
REMARK       I    between atoms: C_20  and  N_22 
REMARK    4  A    between atoms: N_22  and  C_23 
REMARK    5  A    between atoms: C_23  and  C_24 
REMARK    6  A    between atoms: C_24  and  C_25 
REMARK    7  A    between atoms: C_25  and  O_27 
REMARK    8  A    between atoms: O_27  and  C_28 
ROOT
ATOM      1  C   LIG d   1       6.846   0.880  -5.091  0.00  0.00     0.097 C 
ATOM      2  H   LIG d   1       6.328   1.744  -5.506  0.00  0.00     0.062 H 
ATOM      3  C   LIG d   1       8.154   1.314  -4.470  0.00  0.00     0.087 A 
ATOM      4  C   LIG d   1       9.337   0.713  -4.718  0.00  0.00     0.042 A 
ATOM      5  N   LIG d   1      10.278   1.370  -3.984  0.00  0.00    -0.348 N 
ATOM      6  C   LIG d   1       9.639   2.355  -3.312  0.00  0.00     0.094 A 
ATOM      7  N   LIG d   1       8.367   2.312  -3.610  0.00  0.00    -0.238 NA
ATOM      8  H   LIG d   1      11.226   1.169  -3.951  0.00  0.00     0.167 HD
ATOM      9  C   LIG d   1       9.529  -0.459  -5.644  0.00  0.00     0.005 C 
ATOM     10  C   LIG d   1       8.167  -1.121  -5.894  0.00  0.00     0.022 C 
ATOM     11  N   LIG d   1       7.167  -0.077  -6.165  0.00  0.00    -0.273 N 
ATOM     12  C   LIG d   1       6.558   0.003  -7.364  0.00  0.00     0.303 C 
ATOM     13  O   LIG d   1       6.764  -0.847  -8.209  0.00  0.00    -0.253 OA
ATOM     14  N   LIG d   1       5.721   1.026  -7.629  0.00  0.00    -0.299 N 
ATOM     15  H   LIG d   1      10.104   3.060  -2.638  0.00  0.00     0.103 H 
ATOM     16  H   LIG d   1       9.946  -0.114  -6.589  0.00  0.00     0.034 H 
ATOM     17  H   LIG d   1      10.206  -1.180  -5.185  0.00  0.00     0.034 H 
ATOM     18  H   LIG d   1       8.238  -1.789  -6.751  0.00  0.00     0.047 H 
ATOM     19  H   LIG d   1       7.871  -1.689  -5.011  0.00  0.00     0.047 H 
ATOM     20  H   LIG d   1       5.613   1.743  -6.985  0.00  0.00     0.150 HD
ENDROOT
BRANCH   1  21
ATOM     21  C   LIG d   1       5.981   0.215  -4.051  0.00  0.00    -0.018 A 
ATOM     22  C   LIG d   1       5.616   0.908  -2.911  0.00  0.00    -0.056 A 
ATOM     23  C   LIG d   1       4.822   0.301  -1.956  0.00  0.00    -0.058 A 
ATOM     24  H   LIG d   1       5.951   1.923  -2.767  0.00  0.00     0.062 H 
ATOM     25  C   LIG d   1       4.391  -0.999  -2.138  0.00  0.00    -0.020 A 
ATOM     26  H   LIG d   1       4.537   0.843  -1.067  0.00  0.00     0.062 H 
ATOM     27  C   LIG d   1       4.757  -1.696  -3.281  0.00  0.00     0.120 A 
ATOM     28  H   LIG d   1       3.771  -1.473  -1.391  0.00  0.00     0.065 H 
ATOM     29  C   LIG d   1       5.558  -1.088  -4.235  0.00  0.00    -0.015 A 
ATOM     30  H   LIG d   1       5.848  -1.629  -5.124  0.00  0.00     0.066 H 
BRANCH  27  31
ATOM     31  O   LIG d   1       4.336  -2.975  -3.461  0.00  0.00    -0.495 OA
BRANCH  31  32
ATOM     32  C   LIG d   1       4.859  -3.679  -4.589  0.00  0.00     0.079 C 
ATOM     33  H   LIG d   1       4.378  -4.653  -4.665  0.00  0.00     0.066 H 
ATOM     34  H   LIG d   1       4.665  -3.107  -5.498  0.00  0.00     0.066 H 
ATOM     35  H   LIG d   1       5.934  -3.813  -4.467  0.00  0.00     0.066 H 
ENDBRANCH  31  32
ENDBRANCH  27  31
ENDBRANCH   1  21
BRANCH  14  36
ATOM     36  C   LIG d   1       4.975   1.056  -8.889  0.00  0.00     0.023 C 
ATOM     37  H   LIG d   1       5.439   1.771  -9.568  0.00  0.00     0.047 H 
ATOM     38  H   LIG d   1       4.987   0.065  -9.342  0.00  0.00     0.047 H 
BRANCH  36  39
ATOM     39  C   LIG d   1       3.530   1.475  -8.617  0.00  0.00     0.060 C 
ATOM     40  H   LIG d   1       3.504   2.528  -8.334  0.00  0.00     0.039 H 
ATOM     41  H   LIG d   1       2.932   1.327  -9.515  0.00  0.00     0.039 H 
BRANCH  39  42
ATOM     42  C   LIG d   1       2.967   0.641  -7.495  0.00  0.00     0.308 C 
ATOM     43  O   LIG d   1       2.308  -0.340  -7.744  0.00  0.00    -0.251 OA
BRANCH  42  44
ATOM     44  O   LIG d   1       3.197   0.989  -6.218  0.00  0.00    -0.468 OA
BRANCH  44  45
ATOM     45  C   LIG d   1       2.348   0.411  -5.226  0.00  0.00     0.082 C 
ATOM     46  H   LIG d   1       2.955   0.042  -4.399  0.00  0.00     0.066 H 
ATOM     47  H   LIG d   1       1.652   1.166  -4.857  0.00  0.00     0.066 H 
ATOM     48  H   LIG d   1       1.789  -0.416  -5.662  0.00  0.00     0.066 H 
ENDBRANCH  44  45
ENDBRANCH  42  44
ENDBRANCH  39  42
ENDBRANCH  36  39
ENDBRANCH  14  36
TORSDOF 8
ENDMDL
MODEL 3
REMARK VINA RESULT:      -5.7      2.558      4.599
REMARK  8 active torsions:
REMARK  status: ('A' for Active; 'I' for Inactive)
REMARK    1  A    between atoms: C_1  and  O_2 
REMARK    2  A    between atoms: O_2  and  C_3 
REMARK    3  A    between atoms: C_7  and  C_9 
REMARK       I    between atoms: N_19  and  C_20 
REMARK       I    between atoms: C_20  and  N_22 
REMARK    4  A    between atoms: N_22  and  C_23 
REMARK    5  A    between atoms: C_23  and  C_24 
REMARK    6  A    between atoms: C_24  and  C_25 
REMARK    7  A    between atoms: C_25  and  O_27 
REMARK    8  A    between atoms: O_27  and  C_28 
ROOT
ATOM      1  C   LIG d   1       4.586  -0.431  -7.768  0.00  0.00     0.097 C 
ATOM      2  H   LIG d   1       5.646  -0.679  -7.728  0.00  0.00     0.062 H 
ATOM      3  C   LIG d   1       3.827  -1.530  -8.475  0.00  0.00     0.087 A 
ATOM      4  C   LIG d   1       2.946  -1.310  -9.473  0.00  0.00     0.042 A 
ATOM      5  N   LIG d   1       2.464  -2.526  -9.854  0.00  0.00    -0.348 N 
ATOM      6  C   LIG d   1       3.069  -3.453  -9.076  0.00  0.00     0.094 A 
ATOM      7  N   LIG d   1       3.883  -2.845  -8.253  0.00  0.00    -0.238 NA
ATOM      8  H   LIG d   1       1.811  -2.695 -10.550  0.00  0.00     0.167 HD
ATOM      9  C   LIG d   1       2.597   0.045 -10.030  0.00  0.00     0.005 C 
ATOM     10  C   LIG d   1       3.034   1.120  -9.026  0.00  0.00     0.022 C 
ATOM     11  N   LIG d   1       4.388   0.806  -8.544  0.00  0.00    -0.273 N 
ATOM     12  C   LIG d   1       5.423   1.630  -8.804  0.00  0.00     0.303 C 
ATOM     13  O   LIG d   1       5.230   2.691  -9.365  0.00  0.00    -0.253 OA
ATOM     14  N   LIG d   1       6.673   1.276  -8.444  0.00  0.00    -0.299 N 
ATOM     15  H   LIG d   1       2.906  -4.520  -9.125  0.00  0.00     0.103 H 
ATOM     16  H   LIG d   1       3.117   0.197 -10.976  0.00  0.00     0.034 H 
ATOM     17  H   LIG d   1       1.520   0.110 -10.187  0.00  0.00     0.034 H 
ATOM     18  H   LIG d   1       3.038   2.094  -9.513  0.00  0.00     0.047 H 
ATOM     19  H   LIG d   1       2.342   1.134  -8.183  0.00  0.00     0.047 H 
ATOM     20  H   LIG d   1       6.839   0.399  -8.063  0.00  0.00     0.150 HD
ENDROOT
BRANCH   1  21
ATOM     21  C   LIG d   1       4.048  -0.254  -6.371  0.00  0.00    -0.018 A 
ATOM     22  C   LIG d   1       2.783   0.270  -6.181  0.00  0.00    -0.056 A 
ATOM     23  C   LIG d   1       2.286   0.433  -4.901  0.00  0.00    -0.058 A 
ATOM     24  H   LIG d   1       2.182   0.553  -7.032  0.00  0.00     0.062 H 
ATOM     25  C   LIG d   1       3.052   0.072  -3.809  0.00  0.00    -0.020 A 
ATOM     26  H   LIG d   1       1.297   0.843  -4.753  0.00  0.00     0.062 H 
ATOM     27  C   LIG d   1       4.322  -0.454  -3.999  0.00  0.00     0.120 A 
ATOM     28  H   LIG d   1       2.663   0.200  -2.810  0.00  0.00     0.065 H 
ATOM     29  C   LIG d   1       4.820  -0.611  -5.283  0.00  0.00    -0.015 A 
ATOM     30  H   LIG d   1       5.810  -1.017  -5.433  0.00  0.00     0.066 H 
BRANCH  27  31
ATOM     31  O   LIG d   1       5.077  -0.808  -2.927  0.00  0.00    -0.495 OA
BRANCH  31  32
ATOM     32  C   LIG d   1       4.409  -1.468  -1.850  0.00  0.00     0.079 C 
ATOM     33  H   LIG d   1       4.862  -2.445  -1.685  0.00  0.00     0.066 H 
ATOM     34  H   LIG d   1       4.497  -0.868  -0.944  0.00  0.00     0.066 H 
ATOM     35  H   LIG d   1       3.355  -1.595  -2.100  0.00  0.00     0.066 H 
ENDBRANCH  31  32
ENDBRANCH  27  31
ENDBRANCH   1  21
BRANCH  14  36
ATOM     36  C   LIG d   1       7.782   2.216  -8.626  0.00  0.00     0.023 C 
ATOM     37  H   LIG d   1       8.368   1.921  -9.497  0.00  0.00     0.047 H 
ATOM     38  H   LIG d   1       7.386   3.220  -8.778  0.00  0.00     0.047 H 
BRANCH  36  39
ATOM     39  C   LIG d   1       8.674   2.201  -7.383  0.00  0.00     0.060 C 
ATOM     40  H   LIG d   1       9.671   1.856  -7.656  0.00  0.00     0.039 H 
ATOM     41  H   LIG d   1       8.738   3.207  -6.970  0.00  0.00     0.039 H 
BRANCH  39  42
ATOM     42  C   LIG d   1       8.085   1.270  -6.354  0.00  0.00     0.308 C 
ATOM     43  O   LIG d   1       8.278   0.080  -6.436  0.00  0.00    -0.251 OA
BRANCH  42  44
ATOM     44  O   LIG d   1       7.347   1.764  -5.347  0.00  0.00    -0.468 OA
BRANCH  44  45
ATOM     45  C   LIG d   1       7.744   1.414  -4.020  0.00  0.00     0.082 C 
ATOM     46  H   LIG d   1       8.631   0.781  -4.061  0.00  0.00     0.066 H 
ATOM     47  H   LIG d   1       7.971   2.320  -3.458  0.00  0.00     0.066 H 
ATOM     48  H   LIG d   1       6.935   0.874  -3.529  0.00  0.00     0.066 H 
ENDBRANCH  44  45
ENDBRANCH  42  44
ENDBRANCH  39  42
ENDBRANCH  36  39
ENDBRANCH  14  36
TORSDOF 8
ENDMDL
MODEL 4
REMARK VINA RESULT:      -5.5      2.404      4.956
REMARK  8 active torsions:
REMARK  status: ('A' for Active; 'I' for Inactive)
REMARK    1  A    between atoms: C_1  and  O_2 
REMARK    2  A    between atoms: O_2  and  C_3 
REMARK    3  A    between atoms: C_7  and  C_9 
REMARK       I    between atoms: N_19  and  C_20 
REMARK       I    between atoms: C_20  and  N_22 
REMARK    4  A    between atoms: N_22  and  C_23 
REMARK    5  A    between atoms: C_23  and  C_24 
REMARK    6  A    between atoms: C_24  and  C_25 
REMARK    7  A    between atoms: C_25  and  O_27 
REMARK    8  A    between atoms: O_27  and  C_28 
ROOT
ATOM      1  C   LIG d   1       4.753  -3.313  -5.265  0.00  0.00     0.097 C 
ATOM      2  H   LIG d   1       3.919  -3.203  -4.573  0.00  0.00     0.062 H 
ATOM      3  C   LIG d   1       4.983  -4.776  -5.564  0.00  0.00     0.087 A 
ATOM      4  C   LIG d   1       6.192  -5.373  -5.498  0.00  0.00     0.042 A 
ATOM      5  N   LIG d   1       6.009  -6.680  -5.835  0.00  0.00    -0.348 N 
ATOM      6  C   LIG d   1       4.691  -6.842  -6.093  0.00  0.00     0.094 A 
ATOM      7  N   LIG d   1       4.086  -5.694  -5.928  0.00  0.00    -0.238 NA
ATOM      8  H   LIG d   1       6.694  -7.364  -5.881  0.00  0.00     0.167 HD
ATOM      9  C   LIG d   1       7.474  -4.681  -5.116  0.00  0.00     0.005 C 
ATOM     10  C   LIG d   1       7.277  -3.165  -5.252  0.00  0.00     0.022 C 
ATOM     11  N   LIG d   1       5.987  -2.791  -4.651  0.00  0.00    -0.273 N 
ATOM     12  C   LIG d   1       5.934  -1.991  -3.568  0.00  0.00     0.303 C 
ATOM     13  O   LIG d   1       6.953  -1.494  -3.128  0.00  0.00    -0.253 OA
ATOM     14  N   LIG d   1       4.751  -1.743  -2.971  0.00  0.00    -0.299 N 
ATOM     15  H   LIG d   1       4.217  -7.766  -6.389  0.00  0.00     0.103 H 
ATOM     16  H   LIG d   1       7.728  -4.924  -4.085  0.00  0.00     0.034 H 
ATOM     17  H   LIG d   1       8.277  -5.004  -5.779  0.00  0.00     0.034 H 
ATOM     18  H   LIG d   1       8.083  -2.645  -4.736  0.00  0.00     0.047 H 
ATOM     19  H   LIG d   1       7.282  -2.890  -6.307  0.00  0.00     0.047 H 
ATOM     20  H   LIG d   1       3.949  -2.196  -3.275  0.00  0.00     0.150 HD
ENDROOT
BRANCH   1  21
ATOM     21  C   LIG d   1       4.460  -2.570  -6.543  0.00  0.00    -0.018 A 
ATOM     22  C   LIG d   1       4.198  -3.271  -7.705  0.00  0.00    -0.056 A 
ATOM     23  C   LIG d   1       3.927  -2.592  -8.879  0.00  0.00    -0.058 A 
ATOM     24  H   LIG d   1       4.204  -4.351  -7.696  0.00  0.00     0.062 H 
ATOM     25  C   LIG d   1       3.918  -1.211  -8.893  0.00  0.00    -0.020 A 
ATOM     26  H   LIG d   1       3.723  -3.142  -9.786  0.00  0.00     0.062 H 
ATOM     27  C   LIG d   1       4.181  -0.505  -7.727  0.00  0.00     0.120 A 
ATOM     28  H   LIG d   1       3.707  -0.681  -9.810  0.00  0.00     0.065 H 
ATOM     29  C   LIG d   1       4.457  -1.188  -6.553  0.00  0.00    -0.015 A 
ATOM     30  H   LIG d   1       4.666  -0.641  -5.645  0.00  0.00     0.066 H 
BRANCH  27  31
ATOM     31  O   LIG d   1       4.173   0.853  -7.740  0.00  0.00    -0.495 OA
BRANCH  31  32
ATOM     32  C   LIG d   1       3.041   1.492  -8.333  0.00  0.00     0.079 C 
ATOM     33  H   LIG d   1       2.629   0.851  -9.111  0.00  0.00     0.066 H 
ATOM     34  H   LIG d   1       2.283   1.671  -7.570  0.00  0.00     0.066 H 
ATOM     35  H   LIG d   1       3.348   2.442  -8.770  0.00  0.00     0.066 H 
ENDBRANCH  31  32
ENDBRANCH  27  31
ENDBRANCH   1  21
BRANCH  14  36
ATOM     36  C   LIG d   1       4.676  -0.788  -1.862  0.00  0.00     0.023 C 
ATOM     37  H   LIG d   1       4.421  -1.317  -0.944  0.00  0.00     0.047 H 
ATOM     38  H   LIG d   1       5.641  -0.295  -1.741  0.00  0.00     0.047 H 
BRANCH  36  39
ATOM     39  C   LIG d   1       3.602   0.259  -2.162  0.00  0.00     0.060 C 
ATOM     40  H   LIG d   1       2.681  -0.242  -2.463  0.00  0.00     0.039 H 
ATOM     41  H   LIG d   1       3.416   0.855  -1.270  0.00  0.00     0.039 H 
BRANCH  39  42
ATOM     42  C   LIG d   1       4.072   1.157  -3.278  0.00  0.00     0.308 C 
ATOM     43  O   LIG d   1       5.224   1.517  -3.318  0.00  0.00    -0.251 OA
BRANCH  42  44
ATOM     44  O   LIG d   1       3.209   1.557  -4.226  0.00  0.00    -0.468 OA
BRANCH  44  45
ATOM     45  C   LIG d   1       2.280   0.585  -4.709  0.00  0.00     0.082 C 
ATOM     46  H   LIG d   1       1.263   0.941  -4.545  0.00  0.00     0.066 H 
ATOM     47  H   LIG d   1       2.442   0.426  -5.776  0.00  0.00     0.066 H 
ATOM     48  H   LIG d   1       2.427  -0.354  -4.176  0.00  0.00     0.066 H 
ENDBRANCH  44  45
ENDBRANCH  42  44
ENDBRANCH  39  42
ENDBRANCH  36  39
ENDBRANCH  14  36
TORSDOF 8
ENDMDL
MODEL 5
REMARK VINA RESULT:      -5.5      1.984      4.520
REMARK  8 active torsions:
REMARK  status: ('A' for Active; 'I' for Inactive)
REMARK    1  A    between atoms: C_1  and  O_2 
REMARK    2  A    between atoms: O_2  and  C_3 
REMARK    3  A    between atoms: C_7  and  C_9 
REMARK       I    between atoms: N_19  and  C_20 
REMARK       I    between atoms: C_20  and  N_22 
REMARK    4  A    between atoms: N_22  and  C_23 
REMARK    5  A    between atoms: C_23  and  C_24 
REMARK    6  A    between atoms: C_24  and  C_25 
REMARK    7  A    between atoms: C_25  and  O_27 
REMARK    8  A    between atoms: O_27  and  C_28 
ROOT
ATOM      1  C   LIG d   1       4.072  -0.903  -6.973  0.00  0.00     0.097 C 
ATOM      2  H   LIG d   1       3.522  -0.466  -6.140  0.00  0.00     0.062 H 
ATOM      3  C   LIG d   1       3.166  -1.035  -8.175  0.00  0.00     0.087 A 
ATOM      4  C   LIG d   1       3.041  -2.168  -8.898  0.00  0.00     0.042 A 
ATOM      5  N   LIG d   1       2.148  -1.908  -9.893  0.00  0.00    -0.348 N 
ATOM      6  C   LIG d   1       1.753  -0.623  -9.745  0.00  0.00     0.094 A 
ATOM      7  N   LIG d   1       2.369  -0.110  -8.712  0.00  0.00    -0.238 NA
ATOM      8  H   LIG d   1       1.853  -2.527 -10.578  0.00  0.00     0.167 HD
ATOM      9  C   LIG d   1       3.772  -3.455  -8.615  0.00  0.00     0.005 C 
ATOM     10  C   LIG d   1       4.966  -3.154  -7.699  0.00  0.00     0.022 C 
ATOM     11  N   LIG d   1       4.530  -2.258  -6.617  0.00  0.00    -0.273 N 
ATOM     12  C   LIG d   1       4.548  -2.665  -5.333  0.00  0.00     0.303 C 
ATOM     13  O   LIG d   1       5.013  -3.751  -5.044  0.00  0.00    -0.253 OA
ATOM     14  N   LIG d   1       4.049  -1.869  -4.366  0.00  0.00    -0.299 N 
ATOM     15  H   LIG d   1       1.045  -0.106 -10.376  0.00  0.00     0.103 H 
ATOM     16  H   LIG d   1       3.100  -4.155  -8.121  0.00  0.00     0.034 H 
ATOM     17  H   LIG d   1       4.129  -3.885  -9.550  0.00  0.00     0.034 H 
ATOM     18  H   LIG d   1       5.341  -4.084  -7.273  0.00  0.00     0.047 H 
ATOM     19  H   LIG d   1       5.755  -2.671  -8.277  0.00  0.00     0.047 H 
ATOM     20  H   LIG d   1       3.611  -1.036  -4.602  0.00  0.00     0.150 HD
ENDROOT
BRANCH   1  21
ATOM     21  C   LIG d   1       5.255  -0.035  -7.317  0.00  0.00    -0.018 A 
ATOM     22  C   LIG d   1       5.264   0.682  -8.499  0.00  0.00    -0.056 A 
ATOM     23  C   LIG d   1       6.348   1.480  -8.817  0.00  0.00    -0.058 A 
ATOM     24  H   LIG d   1       4.425   0.619  -9.175  0.00  0.00     0.062 H 
ATOM     25  C   LIG d   1       7.424   1.563  -7.955  0.00  0.00    -0.020 A 
ATOM     26  H   LIG d   1       6.353   2.040  -9.741  0.00  0.00     0.062 H 
ATOM     27  C   LIG d   1       7.416   0.844  -6.768  0.00  0.00     0.120 A 
ATOM     28  H   LIG d   1       8.270   2.187  -8.204  0.00  0.00     0.065 H 
ATOM     29  C   LIG d   1       6.332   0.040  -6.454  0.00  0.00    -0.015 A 
ATOM     30  H   LIG d   1       6.325  -0.524  -5.532  0.00  0.00     0.066 H 
BRANCH  27  31
ATOM     31  O   LIG d   1       8.474   0.923  -5.919  0.00  0.00    -0.495 OA
BRANCH  31  32
ATOM     32  C   LIG d   1       8.433   1.947  -4.924  0.00  0.00     0.079 C 
ATOM     33  H   LIG d   1       7.397   2.171  -4.675  0.00  0.00     0.066 H 
ATOM     34  H   LIG d   1       8.957   1.607  -4.030  0.00  0.00     0.066 H 
ATOM     35  H   LIG d   1       8.916   2.846  -5.308  0.00  0.00     0.066 H 
ENDBRANCH  31  32
ENDBRANCH  27  31
ENDBRANCH   1  21
BRANCH  14  36
ATOM     36  C   LIG d   1       4.167  -2.261  -2.960  0.00  0.00     0.023 C 
ATOM     37  H   LIG d   1       3.230  -2.707  -2.628  0.00  0.00     0.047 H 
ATOM     38  H   LIG d   1       4.973  -2.985  -2.851  0.00  0.00     0.047 H 
BRANCH  36  39
ATOM     39  C   LIG d   1       4.472  -1.026  -2.110  0.00  0.00     0.060 C 
ATOM     40  H   LIG d   1       3.542  -0.501  -1.885  0.00  0.00     0.039 H 
ATOM     41  H   LIG d   1       4.948  -1.334  -1.179  0.00  0.00     0.039 H 
BRANCH  39  42
ATOM     42  C   LIG d   1       5.395  -0.108  -2.869  0.00  0.00     0.308 C 
ATOM     43  O   LIG d   1       6.553  -0.416  -3.031  0.00  0.00    -0.251 OA
BRANCH  42  44
ATOM     44  O   LIG d   1       4.933   1.051  -3.363  0.00  0.00    -0.468 OA
BRANCH  44  45
ATOM     45  C   LIG d   1       3.700   1.537  -2.829  0.00  0.00     0.082 C 
ATOM     46  H   LIG d   1       3.785   1.630  -1.745  0.00  0.00     0.066 H 
ATOM     47  H   LIG d   1       3.477   2.514  -3.260  0.00  0.00     0.066 H 
ATOM     48  H   LIG d   1       2.899   0.841  -3.071  0.00  0.00     0.066 H 
ENDBRANCH  44  45
ENDBRANCH  42  44
ENDBRANCH  39  42
ENDBRANCH  36  39
ENDBRANCH  14  36
TORSDOF 8
ENDMDL
MODEL 6
REMARK VINA RESULT:      -5.5      2.022      5.182
REMARK  8 active torsions:
REMARK  status: ('A' for Active; 'I' for Inactive)
REMARK    1  A    between atoms: C_1  and  O_2 
REMARK    2  A    between atoms: O_2  and  C_3 
REMARK    3  A    between atoms: C_7  and  C_9 
REMARK       I    between atoms: N_19  and  C_20 
REMARK       I    between atoms: C_20  and  N_22 
REMARK    4  A    between atoms: N_22  and  C_23 
REMARK    5  A    between atoms: C_23  and  C_24 
REMARK    6  A    between atoms: C_24  and  C_25 
REMARK    7  A    between atoms: C_25  and  O_27 
REMARK    8  A    between atoms: O_27  and  C_28 
ROOT
ATOM      1  C   LIG d   1       4.787  -0.956  -5.665  0.00  0.00     0.097 C 
ATOM      2  H   LIG d   1       4.084  -0.389  -6.273  0.00  0.00     0.062 H 
ATOM      3  C   LIG d   1       4.470  -0.768  -4.200  0.00  0.00     0.087 A 
ATOM      4  C   LIG d   1       5.391  -0.442  -3.270  0.00  0.00     0.042 A 
ATOM      5  N   LIG d   1       4.740  -0.365  -2.075  0.00  0.00    -0.348 N 
ATOM      6  C   LIG d   1       3.438  -0.644  -2.315  0.00  0.00     0.094 A 
ATOM      7  N   LIG d   1       3.288  -0.884  -3.591  0.00  0.00    -0.238 NA
ATOM      8  H   LIG d   1       5.135  -0.151  -1.217  0.00  0.00     0.167 HD
ATOM      9  C   LIG d   1       6.854  -0.213  -3.549  0.00  0.00     0.005 C 
ATOM     10  C   LIG d   1       7.198  -0.828  -4.912  0.00  0.00     0.022 C 
ATOM     11  N   LIG d   1       6.157  -0.459  -5.884  0.00  0.00    -0.273 N 
ATOM     12  C   LIG d   1       6.448   0.315  -6.949  0.00  0.00     0.303 C 
ATOM     13  O   LIG d   1       7.599   0.643  -7.167  0.00  0.00    -0.253 OA
ATOM     14  N   LIG d   1       5.463   0.728  -7.772  0.00  0.00    -0.299 N 
ATOM     15  H   LIG d   1       2.653  -0.666  -1.574  0.00  0.00     0.103 H 
ATOM     16  H   LIG d   1       7.059   0.856  -3.569  0.00  0.00     0.034 H 
ATOM     17  H   LIG d   1       7.453  -0.689  -2.773  0.00  0.00     0.034 H 
ATOM     18  H   LIG d   1       8.162  -0.449  -5.249  0.00  0.00     0.047 H 
ATOM     19  H   LIG d   1       7.243  -1.914  -4.821  0.00  0.00     0.047 H 
ATOM     20  H   LIG d   1       4.538   0.529  -7.558  0.00  0.00     0.150 HD
ENDROOT
BRANCH   1  21
ATOM     21  C   LIG d   1       4.709  -2.419  -6.022  0.00  0.00    -0.018 A 
ATOM     22  C   LIG d   1       4.963  -3.379  -5.060  0.00  0.00    -0.056 A 
ATOM     23  C   LIG d   1       4.890  -4.721  -5.384  0.00  0.00    -0.058 A 
ATOM     24  H   LIG d   1       5.218  -3.080  -4.055  0.00  0.00     0.062 H 
ATOM     25  C   LIG d   1       4.563  -5.106  -6.670  0.00  0.00    -0.020 A 
ATOM     26  H   LIG d   1       5.089  -5.469  -4.631  0.00  0.00     0.062 H 
ATOM     27  C   LIG d   1       4.308  -4.144  -7.637  0.00  0.00     0.120 A 
ATOM     28  H   LIG d   1       4.507  -6.155  -6.923  0.00  0.00     0.065 H 
ATOM     29  C   LIG d   1       4.387  -2.799  -7.311  0.00  0.00    -0.015 A 
ATOM     30  H   LIG d   1       4.192  -2.047  -8.063  0.00  0.00     0.066 H 
BRANCH  27  31
ATOM     31  O   LIG d   1       3.987  -4.520  -8.902  0.00  0.00    -0.495 OA
BRANCH  31  32
ATOM     32  C   LIG d   1       2.948  -3.788  -9.555  0.00  0.00     0.079 C 
ATOM     33  H   LIG d   1       2.856  -4.129 -10.585  0.00  0.00     0.066 H 
ATOM     34  H   LIG d   1       2.005  -3.950  -9.032  0.00  0.00     0.066 H 
ATOM     35  H   LIG d   1       3.192  -2.725  -9.544  0.00  0.00     0.066 H 
ENDBRANCH  31  32
ENDBRANCH  27  31
ENDBRANCH   1  21
BRANCH  14  36
ATOM     36  C   LIG d   1       5.790   1.475  -8.988  0.00  0.00     0.023 C 
ATOM     37  H   LIG d   1       6.693   2.063  -8.821  0.00  0.00     0.047 H 
ATOM     38  H   LIG d   1       5.956   0.779  -9.809  0.00  0.00     0.047 H 
BRANCH  36  39
ATOM     39  C   LIG d   1       4.631   2.411  -9.339  0.00  0.00     0.060 C 
ATOM     40  H   LIG d   1       4.798   3.385  -8.877  0.00  0.00     0.039 H 
ATOM     41  H   LIG d   1       4.573   2.528 -10.420  0.00  0.00     0.039 H 
BRANCH  39  42
ATOM     42  C   LIG d   1       3.340   1.827  -8.825  0.00  0.00     0.308 C 
ATOM     43  O   LIG d   1       2.846   2.255  -7.808  0.00  0.00    -0.251 OA
BRANCH  42  44
ATOM     44  O   LIG d   1       2.740   0.831  -9.496  0.00  0.00    -0.468 OA
BRANCH  44  45
ATOM     45  C   LIG d   1       2.176  -0.226  -8.718  0.00  0.00     0.082 C 
ATOM     46  H   LIG d   1       2.885  -1.053  -8.660  0.00  0.00     0.066 H 
ATOM     47  H   LIG d   1       1.958   0.137  -7.713  0.00  0.00     0.066 H 
ATOM     48  H   LIG d   1       1.255  -0.571  -9.187  0.00  0.00     0.066 H 
ENDBRANCH  44  45
ENDBRANCH  42  44
ENDBRANCH  39  42
ENDBRANCH  36  39
ENDBRANCH  14  36
TORSDOF 8
ENDMDL
MODEL 7
REMARK VINA RESULT:      -5.5      7.141     10.264
REMARK  8 active torsions:
REMARK  status: ('A' for Active; 'I' for Inactive)
REMARK    1  A    between atoms: C_1  and  O_2 
REMARK    2  A    between atoms: O_2  and  C_3 
REMARK    3  A    between atoms: C_7  and  C_9 
REMARK       I    between atoms: N_19  and  C_20 
REMARK       I    between atoms: C_20  and  N_22 
REMARK    4  A    between atoms: N_22  and  C_23 
REMARK    5  A    between atoms: C_23  and  C_24 
REMARK    6  A    between atoms: C_24  and  C_25 
REMARK    7  A    between atoms: C_25  and  O_27 
REMARK    8  A    between atoms: O_27  and  C_28 
ROOT
ATOM      1  C   LIG d   1       9.612   4.373  -3.445  0.00  0.00     0.097 C 
ATOM      2  H   LIG d   1       8.918   4.761  -2.702  0.00  0.00     0.062 H 
ATOM      3  C   LIG d   1       9.196   2.980  -3.860  0.00  0.00     0.087 A 
ATOM      4  C   LIG d   1      10.040   1.928  -3.905  0.00  0.00     0.042 A 
ATOM      5  N   LIG d   1       9.315   0.854  -4.323  0.00  0.00    -0.348 N 
ATOM      6  C   LIG d   1       8.047   1.284  -4.519  0.00  0.00     0.094 A 
ATOM      7  N   LIG d   1       7.988   2.560  -4.238  0.00  0.00    -0.238 NA
ATOM      8  H   LIG d   1       9.645  -0.048  -4.456  0.00  0.00     0.167 HD
ATOM      9  C   LIG d   1      11.503   1.981  -3.546  0.00  0.00     0.005 C 
ATOM     10  C   LIG d   1      11.963   3.446  -3.563  0.00  0.00     0.022 C 
ATOM     11  N   LIG d   1      10.964   4.272  -2.866  0.00  0.00    -0.273 N 
ATOM     12  C   LIG d   1      11.277   4.921  -1.727  0.00  0.00     0.303 C 
ATOM     13  O   LIG d   1      12.419   4.904  -1.310  0.00  0.00    -0.253 OA
ATOM     14  N   LIG d   1      10.323   5.589  -1.048  0.00  0.00    -0.299 N 
ATOM     15  H   LIG d   1       7.220   0.674  -4.852  0.00  0.00     0.103 H 
ATOM     16  H   LIG d   1      11.650   1.564  -2.551  0.00  0.00     0.034 H 
ATOM     17  H   LIG d   1      12.079   1.411  -4.274  0.00  0.00     0.034 H 
ATOM     18  H   LIG d   1      12.923   3.531  -3.056  0.00  0.00     0.047 H 
ATOM     19  H   LIG d   1      12.061   3.785  -4.594  0.00  0.00     0.047 H 
ATOM     20  H   LIG d   1       9.398   5.543  -1.339  0.00  0.00     0.150 HD
ENDROOT
BRANCH   1  21
ATOM     21  C   LIG d   1       9.635   5.280  -4.649  0.00  0.00    -0.018 A 
ATOM     22  C   LIG d   1       9.888   4.757  -5.903  0.00  0.00    -0.056 A 
ATOM     23  C   LIG d   1       9.909   5.586  -7.009  0.00  0.00    -0.058 A 
ATOM     24  H   LIG d   1      10.070   3.699  -6.019  0.00  0.00     0.062 H 
ATOM     25  C   LIG d   1       9.676   6.940  -6.864  0.00  0.00    -0.020 A 
ATOM     26  H   LIG d   1      10.107   5.175  -7.988  0.00  0.00     0.062 H 
ATOM     27  C   LIG d   1       9.422   7.467  -5.605  0.00  0.00     0.120 A 
ATOM     28  H   LIG d   1       9.693   7.588  -7.728  0.00  0.00     0.065 H 
ATOM     29  C   LIG d   1       9.407   6.635  -4.497  0.00  0.00    -0.015 A 
ATOM     30  H   LIG d   1       9.214   7.043  -3.515  0.00  0.00     0.066 H 
BRANCH  27  31
ATOM     31  O   LIG d   1       9.194   8.798  -5.459  0.00  0.00    -0.495 OA
BRANCH  31  32
ATOM     32  C   LIG d   1      10.012   9.685  -6.224  0.00  0.00     0.079 C 
ATOM     33  H   LIG d   1      10.292  10.541  -5.611  0.00  0.00     0.066 H 
ATOM     34  H   LIG d   1      10.911   9.162  -6.551  0.00  0.00     0.066 H 
ATOM     35  H   LIG d   1       9.457  10.030  -7.097  0.00  0.00     0.066 H 
ENDBRANCH  31  32
ENDBRANCH  27  31
ENDBRANCH   1  21
BRANCH  14  36
ATOM     36  C   LIG d   1      10.682   6.385   0.128  0.00  0.00     0.023 C 
ATOM     37  H   LIG d   1       9.909   6.276   0.889  0.00  0.00     0.047 H 
ATOM     38  H   LIG d   1      11.635   6.038   0.525  0.00  0.00     0.047 H 
BRANCH  36  39
ATOM     39  C   LIG d   1      10.799   7.858  -0.270  0.00  0.00     0.060 C 
ATOM     40  H   LIG d   1      10.831   8.475   0.629  0.00  0.00     0.039 H 
ATOM     41  H   LIG d   1      11.712   8.007  -0.845  0.00  0.00     0.039 H 
BRANCH  39  42
ATOM     42  C   LIG d   1       9.608   8.250  -1.106  0.00  0.00     0.308 C 
ATOM     43  O   LIG d   1       8.521   7.783  -0.864  0.00  0.00    -0.251 OA
BRANCH  42  44
ATOM     44  O   LIG d   1       9.756   9.118  -2.120  0.00  0.00    -0.468 OA
BRANCH  44  45
ATOM     45  C   LIG d   1      11.093   9.449  -2.499  0.00  0.00     0.082 C 
ATOM     46  H   LIG d   1      11.791   8.785  -1.988  0.00  0.00     0.066 H 
ATOM     47  H   LIG d   1      11.204   9.334  -3.577  0.00  0.00     0.066 H 
ATOM     48  H   LIG d   1      11.304  10.481  -2.220  0.00  0.00     0.066 H 
ENDBRANCH  44  45
ENDBRANCH  42  44
ENDBRANCH  39  42
ENDBRANCH  36  39
ENDBRANCH  14  36
TORSDOF 8
ENDMDL
MODEL 8
REMARK VINA RESULT:      -5.5      2.889      5.621
REMARK  8 active torsions:
REMARK  status: ('A' for Active; 'I' for Inactive)
REMARK    1  A    between atoms: C_1  and  O_2 
REMARK    2  A    between atoms: O_2  and  C_3 
REMARK    3  A    between atoms: C_7  and  C_9 
REMARK       I    between atoms: N_19  and  C_20 
REMARK       I    between atoms: C_20  and  N_22 
REMARK    4  A    between atoms: N_22  and  C_23 
REMARK    5  A    between atoms: C_23  and  C_24 
REMARK    6  A    between atoms: C_24  and  C_25 
REMARK    7  A    between atoms: C_25  and  O_27 
REMARK    8  A    between atoms: O_27  and  C_28 
ROOT
ATOM      1  C   LIG d   1       6.078  -1.625  -5.048  0.00  0.00     0.097 C 
ATOM      2  H   LIG d   1       5.488  -1.816  -5.943  0.00  0.00     0.062 H 
ATOM      3  C   LIG d   1       5.182  -1.618  -3.832  0.00  0.00     0.087 A 
ATOM      4  C   LIG d   1       5.193  -0.644  -2.898  0.00  0.00     0.042 A 
ATOM      5  N   LIG d   1       4.263  -0.981  -1.962  0.00  0.00    -0.348 N 
ATOM      6  C   LIG d   1       3.710  -2.151  -2.355  0.00  0.00     0.094 A 
ATOM      7  N   LIG d   1       4.268  -2.524  -3.476  0.00  0.00    -0.238 NA
ATOM      8  H   LIG d   1       4.040  -0.477  -1.164  0.00  0.00     0.167 HD
ATOM      9  C   LIG d   1       6.083   0.571  -2.932  0.00  0.00     0.005 C 
ATOM     10  C   LIG d   1       7.241   0.309  -3.905  0.00  0.00     0.022 C 
ATOM     11  N   LIG d   1       6.707  -0.295  -5.136  0.00  0.00    -0.273 N 
ATOM     12  C   LIG d   1       6.792   0.352  -6.315  0.00  0.00     0.303 C 
ATOM     13  O   LIG d   1       7.393   1.406  -6.390  0.00  0.00    -0.253 OA
ATOM     14  N   LIG d   1       6.207  -0.169  -7.413  0.00  0.00    -0.299 N 
ATOM     15  H   LIG d   1       2.935  -2.689  -1.828  0.00  0.00     0.103 H 
ATOM     16  H   LIG d   1       5.511   1.434  -3.269  0.00  0.00     0.034 H 
ATOM     17  H   LIG d   1       6.481   0.760  -1.935  0.00  0.00     0.034 H 
ATOM     18  H   LIG d   1       7.735   1.249  -4.144  0.00  0.00     0.047 H 
ATOM     19  H   LIG d   1       7.956  -0.374  -3.444  0.00  0.00     0.047 H 
ATOM     20  H   LIG d   1       5.665  -0.970  -7.340  0.00  0.00     0.150 HD
ENDROOT
BRANCH   1  21
ATOM     21  C   LIG d   1       7.138  -2.686  -4.897  0.00  0.00    -0.018 A 
ATOM     22  C   LIG d   1       7.458  -3.499  -5.968  0.00  0.00    -0.056 A 
ATOM     23  C   LIG d   1       8.430  -4.473  -5.834  0.00  0.00    -0.058 A 
ATOM     24  H   LIG d   1       6.946  -3.375  -6.911  0.00  0.00     0.062 H 
ATOM     25  C   LIG d   1       9.086  -4.634  -4.629  0.00  0.00    -0.020 A 
ATOM     26  H   LIG d   1       8.679  -5.108  -6.671  0.00  0.00     0.062 H 
ATOM     27  C   LIG d   1       8.767  -3.818  -3.552  0.00  0.00     0.120 A 
ATOM     28  H   LIG d   1       9.846  -5.395  -4.524  0.00  0.00     0.065 H 
ATOM     29  C   LIG d   1       7.787  -2.846  -3.688  0.00  0.00    -0.015 A 
ATOM     30  H   LIG d   1       7.534  -2.212  -2.851  0.00  0.00     0.066 H 
BRANCH  27  31
ATOM     31  O   LIG d   1       9.410  -3.976  -2.366  0.00  0.00    -0.495 OA
BRANCH  31  32
ATOM     32  C   LIG d   1       9.876  -5.288  -2.049  0.00  0.00     0.079 C 
ATOM     33  H   LIG d   1       9.040  -5.987  -2.073  0.00  0.00     0.066 H 
ATOM     34  H   LIG d   1      10.627  -5.595  -2.778  0.00  0.00     0.066 H 
ATOM     35  H   LIG d   1      10.318  -5.286  -1.052  0.00  0.00     0.066 H 
ENDBRANCH  31  32
ENDBRANCH  27  31
ENDBRANCH   1  21
BRANCH  14  36
ATOM     36  C   LIG d   1       6.391   0.475  -8.716  0.00  0.00     0.023 C 
ATOM     37  H   LIG d   1       7.255   1.137  -8.675  0.00  0.00     0.047 H 
ATOM     38  H   LIG d   1       6.552  -0.287  -9.478  0.00  0.00     0.047 H 
BRANCH  36  39
ATOM     39  C   LIG d   1       5.142   1.288  -9.064  0.00  0.00     0.060 C 
ATOM     40  H   LIG d   1       5.248   2.300  -8.671  0.00  0.00     0.039 H 
ATOM     41  H   LIG d   1       5.025   1.329 -10.146  0.00  0.00     0.039 H 
BRANCH  39  42
ATOM     42  C   LIG d   1       3.930   0.636  -8.450  0.00  0.00     0.308 C 
ATOM     43  O   LIG d   1       3.470  -0.367  -8.942  0.00  0.00    -0.251 OA
BRANCH  42  44
ATOM     44  O   LIG d   1       3.361   1.170  -7.358  0.00  0.00    -0.468 OA
BRANCH  44  45
ATOM     45  C   LIG d   1       2.898   0.261  -6.358  0.00  0.00     0.082 C 
ATOM     46  H   LIG d   1       2.309  -0.527  -6.828  0.00  0.00     0.066 H 
ATOM     47  H   LIG d   1       3.752  -0.181  -5.844  0.00  0.00     0.066 H 
ATOM     48  H   LIG d   1       2.279   0.796  -5.639  0.00  0.00     0.066 H 
ENDBRANCH  44  45
ENDBRANCH  42  44
ENDBRANCH  39  42
ENDBRANCH  36  39
ENDBRANCH  14  36
TORSDOF 8
ENDMDL
MODEL 9
REMARK VINA RESULT:      -5.5      2.617      6.019
REMARK  8 active torsions:
REMARK  status: ('A' for Active; 'I' for Inactive)
REMARK    1  A    between atoms: C_1  and  O_2 
REMARK    2  A    between atoms: O_2  and  C_3 
REMARK    3  A    between atoms: C_7  and  C_9 
REMARK       I    between atoms: N_19  and  C_20 
REMARK       I    between atoms: C_20  and  N_22 
REMARK    4  A    between atoms: N_22  and  C_23 
REMARK    5  A    between atoms: C_23  and  C_24 
REMARK    6  A    between atoms: C_24  and  C_25 
REMARK    7  A    between atoms: C_25  and  O_27 
REMARK    8  A    between atoms: O_27  and  C_28 
ROOT
ATOM      1  C   LIG d   1       5.420  -2.913  -6.081  0.00  0.00     0.097 C 
ATOM      2  H   LIG d   1       5.411  -2.251  -6.946  0.00  0.00     0.062 H 
ATOM      3  C   LIG d   1       6.844  -3.276  -5.727  0.00  0.00     0.087 A 
ATOM      4  C   LIG d   1       7.262  -4.541  -5.511  0.00  0.00     0.042 A 
ATOM      5  N   LIG d   1       8.591  -4.475  -5.215  0.00  0.00    -0.348 N 
ATOM      6  C   LIG d   1       8.942  -3.170  -5.263  0.00  0.00     0.094 A 
ATOM      7  N   LIG d   1       7.888  -2.460  -5.570  0.00  0.00    -0.238 NA
ATOM      8  H   LIG d   1       9.173  -5.222  -5.009  0.00  0.00     0.167 HD
ATOM      9  C   LIG d   1       6.387  -5.764  -5.596  0.00  0.00     0.005 C 
ATOM     10  C   LIG d   1       4.918  -5.327  -5.519  0.00  0.00     0.022 C 
ATOM     11  N   LIG d   1       4.714  -4.167  -6.401  0.00  0.00    -0.273 N 
ATOM     12  C   LIG d   1       3.903  -4.248  -7.473  0.00  0.00     0.303 C 
ATOM     13  O   LIG d   1       3.256  -5.258  -7.674  0.00  0.00    -0.253 OA
ATOM     14  N   LIG d   1       3.808  -3.208  -8.327  0.00  0.00    -0.299 N 
ATOM     15  H   LIG d   1       9.931  -2.777  -5.076  0.00  0.00     0.103 H 
ATOM     16  H   LIG d   1       6.567  -6.277  -6.540  0.00  0.00     0.034 H 
ATOM     17  H   LIG d   1       6.612  -6.433  -4.765  0.00  0.00     0.034 H 
ATOM     18  H   LIG d   1       4.277  -6.147  -5.842  0.00  0.00     0.047 H 
ATOM     19  H   LIG d   1       4.673  -5.053  -4.493  0.00  0.00     0.047 H 
ATOM     20  H   LIG d   1       4.377  -2.431  -8.210  0.00  0.00     0.150 HD
ENDROOT
BRANCH   1  21
ATOM     21  C   LIG d   1       4.758  -2.235  -4.909  0.00  0.00    -0.018 A 
ATOM     22  C   LIG d   1       4.572  -2.927  -3.727  0.00  0.00    -0.056 A 
ATOM     23  C   LIG d   1       3.966  -2.308  -2.649  0.00  0.00    -0.058 A 
ATOM     24  H   LIG d   1       4.899  -3.952  -3.644  0.00  0.00     0.062 H 
ATOM     25  C   LIG d   1       3.545  -0.995  -2.751  0.00  0.00    -0.020 A 
ATOM     26  H   LIG d   1       3.821  -2.849  -1.726  0.00  0.00     0.062 H 
ATOM     27  C   LIG d   1       3.732  -0.299  -3.937  0.00  0.00     0.120 A 
ATOM     28  H   LIG d   1       3.072  -0.512  -1.909  0.00  0.00     0.065 H 
ATOM     29  C   LIG d   1       4.334  -0.924  -5.018  0.00  0.00    -0.015 A 
ATOM     30  H   LIG d   1       4.477  -0.386  -5.944  0.00  0.00     0.066 H 
BRANCH  27  31
ATOM     31  O   LIG d   1       3.318   0.990  -4.040  0.00  0.00    -0.495 OA
BRANCH  31  32
ATOM     32  C   LIG d   1       3.576   1.847  -2.926  0.00  0.00     0.079 C 
ATOM     33  H   LIG d   1       2.941   2.729  -2.992  0.00  0.00     0.066 H 
ATOM     34  H   LIG d   1       3.362   1.313  -1.999  0.00  0.00     0.066 H 
ATOM     35  H   LIG d   1       4.623   2.151  -2.937  0.00  0.00     0.066 H 
ENDBRANCH  31  32
ENDBRANCH  27  31
ENDBRANCH   1  21
BRANCH  14  36
ATOM     36  C   LIG d   1       2.845  -3.251  -9.430  0.00  0.00     0.023 C 
ATOM     37  H   LIG d   1       3.334  -3.642 -10.322  0.00  0.00     0.047 H 
ATOM     38  H   LIG d   1       2.011  -3.897  -9.159  0.00  0.00     0.047 H 
BRANCH  36  39
ATOM     39  C   LIG d   1       2.327  -1.839  -9.710  0.00  0.00     0.060 C 
ATOM     40  H   LIG d   1       2.537  -1.574 -10.747  0.00  0.00     0.039 H 
ATOM     41  H   LIG d   1       1.252  -1.805  -9.538  0.00  0.00     0.039 H 
BRANCH  39  42
ATOM     42  C   LIG d   1       3.015  -0.859  -8.794  0.00  0.00     0.308 C 
ATOM     43  O   LIG d   1       2.423  -0.404  -7.844  0.00  0.00    -0.251 OA
BRANCH  42  44
ATOM     44  O   LIG d   1       4.284  -0.492  -9.034  0.00  0.00    -0.468 OA
BRANCH  44  45
ATOM     45  C   LIG d   1       4.548   0.146 -10.285  0.00  0.00     0.082 C 
ATOM     46  H   LIG d   1       5.498   0.677 -10.228  0.00  0.00     0.066 H 
ATOM     47  H   LIG d   1       4.598  -0.606 -11.073  0.00  0.00     0.066 H 
ATOM     48  H   LIG d   1       3.750   0.853 -10.508  0.00  0.00     0.066 H 
ENDBRANCH  44  45
ENDBRANCH  42  44
ENDBRANCH  39  42
ENDBRANCH  36  39
ENDBRANCH  14  36
TORSDOF 8
ENDMDL
