MODEL 1
REMARK VINA RESULT:      -5.7      0.000      0.000
REMARK  2 active torsions:
REMARK  status: ('A' for Active; 'I' for Inactive)
REMARK    1  A    between atoms: C_4  and  C_7 
REMARK    2  A    between atoms: C_12  and  N_27 
ROOT
ATOM      1  C   LIG d   1       3.272   0.262  -3.677  0.00  0.00     0.027 C 
ATOM      2  H   LIG d   1       2.322   0.784  -3.567  0.00  0.00     0.040 H 
ATOM      3  C   LIG d   1       4.403   1.079  -3.019  0.00  0.00    -0.041 C 
ATOM      4  C   LIG d   1       4.540   0.467  -1.603  0.00  0.00    -0.047 C 
ATOM      5  C   LIG d   1       4.321  -1.044  -1.862  0.00  0.00    -0.009 C 
ATOM      6  C   LIG d   1       3.219  -1.091  -2.939  0.00  0.00    -0.017 C 
ATOM      7  H   LIG d   1       2.245  -1.224  -2.471  0.00  0.00     0.086 H 
ATOM      8  H   LIG d   1       4.126   2.132  -2.954  0.00  0.00     0.027 H 
ATOM      9  H   LIG d   1       5.332   0.962  -3.576  0.00  0.00     0.027 H 
ATOM     10  H   LIG d   1       3.773   0.860  -0.936  0.00  0.00     0.027 H 
ATOM     11  H   LIG d   1       5.535   0.649  -1.195  0.00  0.00     0.027 H 
ATOM     12  H   LIG d   1       5.238  -1.504  -2.232  0.00  0.00     0.032 H 
ATOM     13  H   LIG d   1       3.987  -1.542  -0.952  0.00  0.00     0.032 H 
ENDROOT
BRANCH   1  14
ATOM     14  C   LIG d   1       3.575   0.044  -5.137  0.00  0.00    -0.039 A 
ATOM     15  C   LIG d   1       2.585   0.234  -6.083  0.00  0.00    -0.058 A 
ATOM     16  C   LIG d   1       2.863   0.034  -7.423  0.00  0.00    -0.061 A 
ATOM     17  H   LIG d   1       1.596   0.538  -5.776  0.00  0.00     0.062 H 
ATOM     18  C   LIG d   1       4.130  -0.355  -7.816  0.00  0.00    -0.062 A 
ATOM     19  H   LIG d   1       2.090   0.183  -8.163  0.00  0.00     0.062 H 
ATOM     20  C   LIG d   1       5.119  -0.544  -6.869  0.00  0.00    -0.061 A 
ATOM     21  H   LIG d   1       4.347  -0.511  -8.862  0.00  0.00     0.062 H 
ATOM     22  C   LIG d   1       4.843  -0.340  -5.530  0.00  0.00    -0.058 A 
ATOM     23  H   LIG d   1       6.109  -0.848  -7.176  0.00  0.00     0.062 H 
ATOM     24  H   LIG d   1       5.617  -0.484  -4.791  0.00  0.00     0.062 H 
ENDBRANCH   1  14
BRANCH   6  25
ATOM     25  N   LIG d   1       3.504  -2.184  -3.887  0.00  0.00     0.221 N 
ATOM     26  H   LIG d   1       2.879  -2.969  -3.714  0.00  0.00     0.200 HD
ATOM     27  H   LIG d   1       3.381  -1.857  -4.844  0.00  0.00     0.200 HD
ATOM     28  H   LIG d   1       4.475  -2.494  -3.762  0.00  0.00     0.200 HD
ENDBRANCH   6  25
TORSDOF 2
ENDMDL
MODEL 2
REMARK VINA RESULT:      -5.4      2.823      4.019
REMARK  2 active torsions:
REMARK  status: ('A' for Active; 'I' for Inactive)
REMARK    1  A    between atoms: C_4  and  C_7 
REMARK    2  A    between atoms: C_12  and  N_27 
ROOT
ATOM      1  C   LIG d   1       4.945  -1.144  -2.856  0.00  0.00     0.027 C 
ATOM      2  H   LIG d   1       5.383  -0.853  -1.900  0.00  0.00     0.040 H 
ATOM      3  C   LIG d   1       3.560  -1.784  -2.630  0.00  0.00    -0.041 C 
ATOM      4  C   LIG d   1       2.563  -0.616  -2.836  0.00  0.00    -0.047 C 
ATOM      5  C   LIG d   1       3.201   0.174  -4.006  0.00  0.00    -0.009 C 
ATOM      6  C   LIG d   1       4.717   0.104  -3.732  0.00  0.00    -0.017 C 
ATOM      7  H   LIG d   1       5.041   0.999  -3.201  0.00  0.00     0.086 H 
ATOM      8  H   LIG d   1       3.482  -2.177  -1.616  0.00  0.00     0.027 H 
ATOM      9  H   LIG d   1       3.381  -2.572  -3.361  0.00  0.00     0.027 H 
ATOM     10  H   LIG d   1       2.502   0.002  -1.941  0.00  0.00     0.027 H 
ATOM     11  H   LIG d   1       1.578  -0.990  -3.115  0.00  0.00     0.027 H 
ATOM     12  H   LIG d   1       2.963  -0.298  -4.960  0.00  0.00     0.032 H 
ATOM     13  H   LIG d   1       2.858   1.208  -3.999  0.00  0.00     0.032 H 
ENDROOT
BRANCH   1  14
ATOM     14  C   LIG d   1       5.854  -2.114  -3.565  0.00  0.00    -0.039 A 
ATOM     15  C   LIG d   1       7.220  -2.055  -3.363  0.00  0.00    -0.058 A 
ATOM     16  C   LIG d   1       8.054  -2.946  -4.013  0.00  0.00    -0.061 A 
ATOM     17  H   LIG d   1       7.636  -1.313  -2.697  0.00  0.00     0.062 H 
ATOM     18  C   LIG d   1       7.521  -3.896  -4.864  0.00  0.00    -0.062 A 
ATOM     19  H   LIG d   1       9.121  -2.900  -3.855  0.00  0.00     0.062 H 
ATOM     20  C   LIG d   1       6.155  -3.955  -5.066  0.00  0.00    -0.061 A 
ATOM     21  H   LIG d   1       8.172  -4.592  -5.373  0.00  0.00     0.062 H 
ATOM     22  C   LIG d   1       5.321  -3.067  -4.412  0.00  0.00    -0.058 A 
ATOM     23  H   LIG d   1       5.738  -4.697  -5.731  0.00  0.00     0.062 H 
ATOM     24  H   LIG d   1       4.253  -3.116  -4.566  0.00  0.00     0.062 H 
ENDBRANCH   1  14
BRANCH   6  25
ATOM     25  N   LIG d   1       5.441  -0.046  -5.007  0.00  0.00     0.221 N 
ATOM     26  H   LIG d   1       5.030   0.559  -5.716  0.00  0.00     0.200 HD
ATOM     27  H   LIG d   1       6.422   0.196  -4.882  0.00  0.00     0.200 HD
ATOM     28  H   LIG d   1       5.374  -1.021  -5.320  0.00  0.00     0.200 HD
ENDBRANCH   6  25
TORSDOF 2
ENDMDL
MODEL 3
REMARK VINA RESULT:      -5.4      2.934      3.789
REMARK  2 active torsions:
REMARK  status: ('A' for Active; 'I' for Inactive)
REMARK    1  A    between atoms: C_4  and  C_7 
REMARK    2  A    between atoms: C_12  and  N_27 
ROOT
ATOM      1  C   LIG d   1       5.842  -0.734  -2.535  0.00  0.00     0.027 C 
ATOM      2  H   LIG d   1       6.617  -0.840  -1.775  0.00  0.00     0.040 H 
ATOM      3  C   LIG d   1       4.454  -0.656  -1.867  0.00  0.00    -0.041 C 
ATOM      4  C   LIG d   1       4.171   0.863  -1.754  0.00  0.00    -0.047 C 
ATOM      5  C   LIG d   1       4.758   1.419  -3.075  0.00  0.00    -0.009 C 
ATOM      6  C   LIG d   1       6.037   0.588  -3.304  0.00  0.00    -0.017 C 
ATOM      7  H   LIG d   1       6.903   1.123  -2.917  0.00  0.00     0.086 H 
ATOM      8  H   LIG d   1       4.479  -1.113  -0.878  0.00  0.00     0.027 H 
ATOM      9  H   LIG d   1       3.702  -1.137  -2.493  0.00  0.00     0.027 H 
ATOM     10  H   LIG d   1       4.688   1.289  -0.894  0.00  0.00     0.027 H 
ATOM     11  H   LIG d   1       3.100   1.057  -1.695  0.00  0.00     0.027 H 
ATOM     12  H   LIG d   1       4.055   1.272  -3.896  0.00  0.00     0.032 H 
ATOM     13  H   LIG d   1       5.003   2.475  -2.969  0.00  0.00     0.032 H 
ENDROOT
BRANCH   1  14
ATOM     14  C   LIG d   1       5.892  -1.899  -3.489  0.00  0.00    -0.039 A 
ATOM     15  C   LIG d   1       7.110  -2.443  -3.852  0.00  0.00    -0.058 A 
ATOM     16  C   LIG d   1       7.156  -3.513  -4.727  0.00  0.00    -0.061 A 
ATOM     17  H   LIG d   1       8.025  -2.032  -3.453  0.00  0.00     0.062 H 
ATOM     18  C   LIG d   1       5.984  -4.039  -5.237  0.00  0.00    -0.062 A 
ATOM     19  H   LIG d   1       8.107  -3.938  -5.011  0.00  0.00     0.062 H 
ATOM     20  C   LIG d   1       4.766  -3.496  -4.872  0.00  0.00    -0.061 A 
ATOM     21  H   LIG d   1       6.019  -4.875  -5.920  0.00  0.00     0.062 H 
ATOM     22  C   LIG d   1       4.720  -2.429  -3.994  0.00  0.00    -0.058 A 
ATOM     23  H   LIG d   1       3.850  -3.907  -5.271  0.00  0.00     0.062 H 
ATOM     24  H   LIG d   1       3.768  -2.007  -3.707  0.00  0.00     0.062 H 
ENDBRANCH   1  14
BRANCH   6  25
ATOM     25  N   LIG d   1       6.189   0.307  -4.743  0.00  0.00     0.221 N 
ATOM     26  H   LIG d   1       6.528   1.135  -5.228  0.00  0.00     0.200 HD
ATOM     27  H   LIG d   1       6.846  -0.460  -4.882  0.00  0.00     0.200 HD
ATOM     28  H   LIG d   1       5.277   0.040  -5.133  0.00  0.00     0.200 HD
ENDBRANCH   6  25
TORSDOF 2
ENDMDL
MODEL 4
REMARK VINA RESULT:      -5.4      2.982      4.846
REMARK  2 active torsions:
REMARK  status: ('A' for Active; 'I' for Inactive)
REMARK    1  A    between atoms: C_4  and  C_7 
REMARK    2  A    between atoms: C_12  and  N_27 
ROOT
ATOM      1  C   LIG d   1       7.676   0.267  -4.107  0.00  0.00     0.027 C 
ATOM      2  H   LIG d   1       8.393  -0.509  -3.835  0.00  0.00     0.040 H 
ATOM      3  C   LIG d   1       8.265   1.660  -3.800  0.00  0.00    -0.041 C 
ATOM      4  C   LIG d   1       8.869   2.123  -5.149  0.00  0.00    -0.047 C 
ATOM      5  C   LIG d   1       7.840   1.598  -6.181  0.00  0.00    -0.009 C 
ATOM      6  C   LIG d   1       7.407   0.227  -5.624  0.00  0.00    -0.017 C 
ATOM      7  H   LIG d   1       7.992  -0.566  -6.088  0.00  0.00     0.086 H 
ATOM      8  H   LIG d   1       9.043   1.587  -3.039  0.00  0.00     0.027 H 
ATOM      9  H   LIG d   1       7.479   2.343  -3.479  0.00  0.00     0.027 H 
ATOM     10  H   LIG d   1       9.846   1.668  -5.311  0.00  0.00     0.027 H 
ATOM     11  H   LIG d   1       8.938   3.210  -5.192  0.00  0.00     0.027 H 
ATOM     12  H   LIG d   1       6.986   2.272  -6.245  0.00  0.00     0.032 H 
ATOM     13  H   LIG d   1       8.307   1.483  -7.159  0.00  0.00     0.032 H 
ENDROOT
BRANCH   1  14
ATOM     14  C   LIG d   1       6.390   0.071  -3.347  0.00  0.00    -0.039 A 
ATOM     15  C   LIG d   1       5.922  -1.206  -3.099  0.00  0.00    -0.058 A 
ATOM     16  C   LIG d   1       4.742  -1.386  -2.402  0.00  0.00    -0.061 A 
ATOM     17  H   LIG d   1       6.478  -2.063  -3.451  0.00  0.00     0.062 H 
ATOM     18  C   LIG d   1       4.031  -0.290  -1.951  0.00  0.00    -0.062 A 
ATOM     19  H   LIG d   1       4.376  -2.383  -2.208  0.00  0.00     0.062 H 
ATOM     20  C   LIG d   1       4.500   0.987  -2.199  0.00  0.00    -0.061 A 
ATOM     21  H   LIG d   1       3.109  -0.430  -1.407  0.00  0.00     0.062 H 
ATOM     22  C   LIG d   1       5.682   1.167  -2.892  0.00  0.00    -0.058 A 
ATOM     23  H   LIG d   1       3.945   1.844  -1.847  0.00  0.00     0.062 H 
ATOM     24  H   LIG d   1       6.050   2.165  -3.082  0.00  0.00     0.062 H 
ENDBRANCH   1  14
BRANCH   6  25
ATOM     25  N   LIG d   1       5.966   0.031  -5.866  0.00  0.00     0.221 N 
ATOM     26  H   LIG d   1       5.696  -0.920  -5.625  0.00  0.00     0.200 HD
ATOM     27  H   LIG d   1       5.425   0.689  -5.307  0.00  0.00     0.200 HD
ATOM     28  H   LIG d   1       5.766   0.194  -6.860  0.00  0.00     0.200 HD
ENDBRANCH   6  25
TORSDOF 2
ENDMDL
MODEL 5
REMARK VINA RESULT:      -5.4      2.596      4.157
REMARK  2 active torsions:
REMARK  status: ('A' for Active; 'I' for Inactive)
REMARK    1  A    between atoms: C_4  and  C_7 
REMARK    2  A    between atoms: C_12  and  N_27 
ROOT
ATOM      1  C   LIG d   1       5.622  -2.438  -3.467  0.00  0.00     0.027 C 
ATOM      2  H   LIG d   1       5.345  -3.196  -2.734  0.00  0.00     0.040 H 
ATOM      3  C   LIG d   1       7.157  -2.308  -3.539  0.00  0.00    -0.041 C 
ATOM      4  C   LIG d   1       7.561  -3.216  -4.727  0.00  0.00    -0.047 C 
ATOM      5  C   LIG d   1       6.417  -2.977  -5.743  0.00  0.00    -0.009 C 
ATOM      6  C   LIG d   1       5.149  -2.865  -4.871  0.00  0.00    -0.017 C 
ATOM      7  H   LIG d   1       4.645  -3.829  -4.819  0.00  0.00     0.086 H 
ATOM      8  H   LIG d   1       7.614  -2.664  -2.615  0.00  0.00     0.027 H 
ATOM      9  H   LIG d   1       7.443  -1.275  -3.734  0.00  0.00     0.027 H 
ATOM     10  H   LIG d   1       7.593  -4.261  -4.420  0.00  0.00     0.027 H 
ATOM     11  H   LIG d   1       8.519  -2.907  -5.145  0.00  0.00     0.027 H 
ATOM     12  H   LIG d   1       6.583  -2.051  -6.294  0.00  0.00     0.032 H 
ATOM     13  H   LIG d   1       6.334  -3.819  -6.430  0.00  0.00     0.032 H 
ENDROOT
BRANCH   1  14
ATOM     14  C   LIG d   1       5.008  -1.113  -3.095  0.00  0.00    -0.039 A 
ATOM     15  C   LIG d   1       3.670  -1.043  -2.757  0.00  0.00    -0.058 A 
ATOM     16  C   LIG d   1       3.106   0.173  -2.415  0.00  0.00    -0.061 A 
ATOM     17  H   LIG d   1       3.064  -1.937  -2.760  0.00  0.00     0.062 H 
ATOM     18  C   LIG d   1       3.882   1.317  -2.411  0.00  0.00    -0.062 A 
ATOM     19  H   LIG d   1       2.061   0.229  -2.151  0.00  0.00     0.062 H 
ATOM     20  C   LIG d   1       5.220   1.246  -2.749  0.00  0.00    -0.061 A 
ATOM     21  H   LIG d   1       3.442   2.267  -2.145  0.00  0.00     0.062 H 
ATOM     22  C   LIG d   1       5.784   0.030  -3.086  0.00  0.00    -0.058 A 
ATOM     23  H   LIG d   1       5.826   2.140  -2.746  0.00  0.00     0.062 H 
ATOM     24  H   LIG d   1       6.831  -0.026  -3.346  0.00  0.00     0.062 H 
ENDBRANCH   1  14
BRANCH   6  25
ATOM     25  N   LIG d   1       4.258  -1.832  -5.429  0.00  0.00     0.221 N 
ATOM     26  H   LIG d   1       4.381  -0.955  -4.928  0.00  0.00     0.200 HD
ATOM     27  H   LIG d   1       4.464  -1.690  -6.417  0.00  0.00     0.200 HD
ATOM     28  H   LIG d   1       3.283  -2.140  -5.332  0.00  0.00     0.200 HD
ENDBRANCH   6  25
TORSDOF 2
ENDMDL
MODEL 6
REMARK VINA RESULT:      -5.3      2.790      4.732
REMARK  2 active torsions:
REMARK  status: ('A' for Active; 'I' for Inactive)
REMARK    1  A    between atoms: C_4  and  C_7 
REMARK    2  A    between atoms: C_12  and  N_27 
ROOT
ATOM      1  C   LIG d   1       5.912  -1.953  -4.937  0.00  0.00     0.027 C 
ATOM      2  H   LIG d   1       5.800  -1.422  -5.883  0.00  0.00     0.040 H 
ATOM      3  C   LIG d   1       5.096  -3.262  -4.967  0.00  0.00    -0.041 C 
ATOM      4  C   LIG d   1       6.126  -4.342  -5.385  0.00  0.00    -0.047 C 
ATOM      5  C   LIG d   1       7.409  -3.896  -4.640  0.00  0.00    -0.009 C 
ATOM      6  C   LIG d   1       7.385  -2.356  -4.730  0.00  0.00    -0.017 C 
ATOM      7  H   LIG d   1       7.987  -2.022  -5.574  0.00  0.00     0.086 H 
ATOM      8  H   LIG d   1       4.294  -3.196  -5.704  0.00  0.00     0.027 H 
ATOM      9  H   LIG d   1       4.692  -3.482  -3.980  0.00  0.00     0.027 H 
ATOM     10  H   LIG d   1       6.282  -4.331  -6.463  0.00  0.00     0.027 H 
ATOM     11  H   LIG d   1       5.810  -5.330  -5.050  0.00  0.00     0.027 H 
ATOM     12  H   LIG d   1       7.378  -4.218  -3.599  0.00  0.00     0.032 H 
ATOM     13  H   LIG d   1       8.294  -4.294  -5.135  0.00  0.00     0.032 H 
ENDROOT
BRANCH   1  14
ATOM     14  C   LIG d   1       5.448  -1.082  -3.799  0.00  0.00    -0.039 A 
ATOM     15  C   LIG d   1       5.699   0.277  -3.823  0.00  0.00    -0.058 A 
ATOM     16  C   LIG d   1       5.273   1.077  -2.778  0.00  0.00    -0.061 A 
ATOM     17  H   LIG d   1       6.227   0.715  -4.656  0.00  0.00     0.062 H 
ATOM     18  C   LIG d   1       4.596   0.517  -1.711  0.00  0.00    -0.062 A 
ATOM     19  H   LIG d   1       5.469   2.139  -2.796  0.00  0.00     0.062 H 
ATOM     20  C   LIG d   1       4.345  -0.842  -1.687  0.00  0.00    -0.061 A 
ATOM     21  H   LIG d   1       4.264   1.142  -0.894  0.00  0.00     0.062 H 
ATOM     22  C   LIG d   1       4.767  -1.641  -2.734  0.00  0.00    -0.058 A 
ATOM     23  H   LIG d   1       3.816  -1.280  -0.854  0.00  0.00     0.062 H 
ATOM     24  H   LIG d   1       4.567  -2.702  -2.718  0.00  0.00     0.062 H 
ENDBRANCH   1  14
BRANCH   6  25
ATOM     25  N   LIG d   1       7.883  -1.783  -3.466  0.00  0.00     0.221 N 
ATOM     26  H   LIG d   1       8.851  -1.487  -3.573  0.00  0.00     0.200 HD
ATOM     27  H   LIG d   1       7.312  -0.983  -3.197  0.00  0.00     0.200 HD
ATOM     28  H   LIG d   1       7.829  -2.495  -2.728  0.00  0.00     0.200 HD
ENDBRANCH   6  25
TORSDOF 2
ENDMDL
MODEL 7
REMARK VINA RESULT:      -5.3      2.487      3.405
REMARK  2 active torsions:
REMARK  status: ('A' for Active; 'I' for Inactive)
REMARK    1  A    between atoms: C_4  and  C_7 
REMARK    2  A    between atoms: C_12  and  N_27 
ROOT
ATOM      1  C   LIG d   1       5.436  -0.368  -2.630  0.00  0.00     0.027 C 
ATOM      2  H   LIG d   1       5.957  -0.310  -1.674  0.00  0.00     0.040 H 
ATOM      3  C   LIG d   1       5.092  -1.837  -2.954  0.00  0.00    -0.041 C 
ATOM      4  C   LIG d   1       3.634  -2.004  -2.458  0.00  0.00    -0.047 C 
ATOM      5  C   LIG d   1       2.989  -0.645  -2.829  0.00  0.00    -0.009 C 
ATOM      6  C   LIG d   1       4.097   0.391  -2.549  0.00  0.00    -0.017 C 
ATOM      7  H   LIG d   1       3.967   0.817  -1.554  0.00  0.00     0.086 H 
ATOM      8  H   LIG d   1       5.758  -2.513  -2.417  0.00  0.00     0.027 H 
ATOM      9  H   LIG d   1       5.152  -2.014  -4.028  0.00  0.00     0.027 H 
ATOM     10  H   LIG d   1       3.609  -2.162  -1.380  0.00  0.00     0.027 H 
ATOM     11  H   LIG d   1       3.137  -2.822  -2.980  0.00  0.00     0.027 H 
ATOM     12  H   LIG d   1       2.710  -0.630  -3.882  0.00  0.00     0.032 H 
ATOM     13  H   LIG d   1       2.119  -0.453  -2.202  0.00  0.00     0.032 H 
ENDROOT
BRANCH   1  14
ATOM     14  C   LIG d   1       6.296   0.214  -3.721  0.00  0.00    -0.039 A 
ATOM     15  C   LIG d   1       6.286  -0.349  -4.984  0.00  0.00    -0.058 A 
ATOM     16  C   LIG d   1       7.075   0.185  -5.985  0.00  0.00    -0.061 A 
ATOM     17  H   LIG d   1       5.662  -1.207  -5.187  0.00  0.00     0.062 H 
ATOM     18  C   LIG d   1       7.872   1.284  -5.725  0.00  0.00    -0.062 A 
ATOM     19  H   LIG d   1       7.067  -0.254  -6.972  0.00  0.00     0.062 H 
ATOM     20  C   LIG d   1       7.882   1.848  -4.462  0.00  0.00    -0.061 A 
ATOM     21  H   LIG d   1       8.489   1.702  -6.507  0.00  0.00     0.062 H 
ATOM     22  C   LIG d   1       7.090   1.316  -3.462  0.00  0.00    -0.058 A 
ATOM     23  H   LIG d   1       8.505   2.706  -4.259  0.00  0.00     0.062 H 
ATOM     24  H   LIG d   1       7.094   1.759  -2.477  0.00  0.00     0.062 H 
ENDBRANCH   1  14
BRANCH   6  25
ATOM     25  N   LIG d   1       4.059   1.442  -3.582  0.00  0.00     0.221 N 
ATOM     26  H   LIG d   1       3.141   1.882  -3.600  0.00  0.00     0.200 HD
ATOM     27  H   LIG d   1       4.769   2.146  -3.390  0.00  0.00     0.200 HD
ATOM     28  H   LIG d   1       4.247   1.019  -4.499  0.00  0.00     0.200 HD
ENDBRANCH   6  25
TORSDOF 2
ENDMDL
MODEL 8
REMARK VINA RESULT:      -5.3      2.455      4.352
REMARK  2 active torsions:
REMARK  status: ('A' for Active; 'I' for Inactive)
REMARK    1  A    between atoms: C_4  and  C_7 
REMARK    2  A    between atoms: C_12  and  N_27 
ROOT
ATOM      1  C   LIG d   1       5.407  -2.537  -3.761  0.00  0.00     0.027 C 
ATOM      2  H   LIG d   1       5.044  -3.326  -3.102  0.00  0.00     0.040 H 
ATOM      3  C   LIG d   1       6.948  -2.567  -3.823  0.00  0.00    -0.041 C 
ATOM      4  C   LIG d   1       7.261  -3.398  -5.093  0.00  0.00    -0.047 C 
ATOM      5  C   LIG d   1       6.157  -2.942  -6.079  0.00  0.00    -0.009 C 
ATOM      6  C   LIG d   1       4.902  -2.777  -5.198  0.00  0.00    -0.017 C 
ATOM      7  H   LIG d   1       4.297  -3.682  -5.236  0.00  0.00     0.086 H 
ATOM      8  H   LIG d   1       7.356  -3.056  -2.938  0.00  0.00     0.027 H 
ATOM      9  H   LIG d   1       7.345  -1.557  -3.921  0.00  0.00     0.027 H 
ATOM     10  H   LIG d   1       7.177  -4.465  -4.886  0.00  0.00     0.027 H 
ATOM     11  H   LIG d   1       8.250  -3.157  -5.482  0.00  0.00     0.027 H 
ATOM     12  H   LIG d   1       6.427  -1.993  -6.542  0.00  0.00     0.032 H 
ATOM     13  H   LIG d   1       5.990  -3.703  -6.842  0.00  0.00     0.032 H 
ENDROOT
BRANCH   1  14
ATOM     14  C   LIG d   1       4.936  -1.194  -3.265  0.00  0.00    -0.039 A 
ATOM     15  C   LIG d   1       5.811  -0.125  -3.229  0.00  0.00    -0.058 A 
ATOM     16  C   LIG d   1       5.380   1.107  -2.774  0.00  0.00    -0.061 A 
ATOM     17  H   LIG d   1       6.833  -0.252  -3.556  0.00  0.00     0.062 H 
ATOM     18  C   LIG d   1       4.072   1.270  -2.356  0.00  0.00    -0.062 A 
ATOM     19  H   LIG d   1       6.063   1.942  -2.746  0.00  0.00     0.062 H 
ATOM     20  C   LIG d   1       3.197   0.200  -2.392  0.00  0.00    -0.061 A 
ATOM     21  H   LIG d   1       3.735   2.232  -2.000  0.00  0.00     0.062 H 
ATOM     22  C   LIG d   1       3.627  -1.030  -2.852  0.00  0.00    -0.058 A 
ATOM     23  H   LIG d   1       2.175   0.327  -2.066  0.00  0.00     0.062 H 
ATOM     24  H   LIG d   1       2.942  -1.864  -2.884  0.00  0.00     0.062 H 
ENDBRANCH   1  14
BRANCH   6  25
ATOM     25  N   LIG d   1       4.132  -1.606  -5.655  0.00  0.00     0.221 N 
ATOM     26  H   LIG d   1       3.943  -0.984  -4.871  0.00  0.00     0.200 HD
ATOM     27  H   LIG d   1       4.654  -1.102  -6.369  0.00  0.00     0.200 HD
ATOM     28  H   LIG d   1       3.240  -1.924  -6.053  0.00  0.00     0.200 HD
ENDBRANCH   6  25
TORSDOF 2
ENDMDL
MODEL 9
REMARK VINA RESULT:      -5.2      1.536      2.197
REMARK  2 active torsions:
REMARK  status: ('A' for Active; 'I' for Inactive)
REMARK    1  A    between atoms: C_4  and  C_7 
REMARK    2  A    between atoms: C_12  and  N_27 
ROOT
ATOM      1  C   LIG d   1       4.291  -0.672  -3.772  0.00  0.00     0.027 C 
ATOM      2  H   LIG d   1       4.328  -1.684  -3.366  0.00  0.00     0.040 H 
ATOM      3  C   LIG d   1       3.228   0.158  -3.023  0.00  0.00    -0.041 C 
ATOM      4  C   LIG d   1       4.032   0.914  -1.936  0.00  0.00    -0.047 C 
ATOM      5  C   LIG d   1       5.348   1.270  -2.670  0.00  0.00    -0.009 C 
ATOM      6  C   LIG d   1       5.642   0.035  -3.546  0.00  0.00    -0.017 C 
ATOM      7  H   LIG d   1       6.333  -0.631  -3.031  0.00  0.00     0.086 H 
ATOM      8  H   LIG d   1       2.486  -0.496  -2.563  0.00  0.00     0.027 H 
ATOM      9  H   LIG d   1       2.748   0.864  -3.702  0.00  0.00     0.027 H 
ATOM     10  H   LIG d   1       4.229   0.266  -1.082  0.00  0.00     0.027 H 
ATOM     11  H   LIG d   1       3.508   1.817  -1.622  0.00  0.00     0.027 H 
ATOM     12  H   LIG d   1       5.210   2.155  -3.292  0.00  0.00     0.032 H 
ATOM     13  H   LIG d   1       6.153   1.431  -1.954  0.00  0.00     0.032 H 
ENDROOT
BRANCH   1  14
ATOM     14  C   LIG d   1       3.970  -0.718  -5.243  0.00  0.00    -0.039 A 
ATOM     15  C   LIG d   1       4.544  -1.685  -6.046  0.00  0.00    -0.058 A 
ATOM     16  C   LIG d   1       4.250  -1.727  -7.396  0.00  0.00    -0.061 A 
ATOM     17  H   LIG d   1       5.225  -2.407  -5.619  0.00  0.00     0.062 H 
ATOM     18  C   LIG d   1       3.379  -0.803  -7.942  0.00  0.00    -0.062 A 
ATOM     19  H   LIG d   1       4.698  -2.482  -8.024  0.00  0.00     0.062 H 
ATOM     20  C   LIG d   1       2.803   0.164  -7.139  0.00  0.00    -0.061 A 
ATOM     21  H   LIG d   1       3.148  -0.835  -8.997  0.00  0.00     0.062 H 
ATOM     22  C   LIG d   1       3.095   0.203  -5.788  0.00  0.00    -0.058 A 
ATOM     23  H   LIG d   1       2.123   0.886  -7.565  0.00  0.00     0.062 H 
ATOM     24  H   LIG d   1       2.642   0.956  -5.160  0.00  0.00     0.062 H 
ENDBRANCH   1  14
BRANCH   6  25
ATOM     25  N   LIG d   1       6.195   0.472  -4.841  0.00  0.00     0.221 N 
ATOM     26  H   LIG d   1       6.216  -0.309  -5.494  0.00  0.00     0.200 HD
ATOM     27  H   LIG d   1       5.626   1.222  -5.229  0.00  0.00     0.200 HD
ATOM     28  H   LIG d   1       7.152   0.816  -4.700  0.00  0.00     0.200 HD
ENDBRANCH   6  25
TORSDOF 2
ENDMDL
MODEL 10
REMARK VINA RESULT:      -5.0      1.534      4.500
REMARK  2 active torsions:
REMARK  status: ('A' for Active; 'I' for Inactive)
REMARK    1  A    between atoms: C_4  and  C_7 
REMARK    2  A    between atoms: C_12  and  N_27 
ROOT
ATOM      1  C   LIG d   1       4.276  -0.339  -6.361  0.00  0.00     0.027 C 
ATOM      2  H   LIG d   1       5.179   0.261  -6.480  0.00  0.00     0.040 H 
ATOM      3  C   LIG d   1       3.036   0.491  -6.754  0.00  0.00    -0.041 C 
ATOM      4  C   LIG d   1       2.772   0.106  -8.231  0.00  0.00    -0.047 C 
ATOM      5  C   LIG d   1       3.099  -1.408  -8.252  0.00  0.00    -0.009 C 
ATOM      6  C   LIG d   1       4.317  -1.548  -7.316  0.00  0.00    -0.017 C 
ATOM      7  H   LIG d   1       5.238  -1.535  -7.898  0.00  0.00     0.086 H 
ATOM      8  H   LIG d   1       3.248   1.557  -6.670  0.00  0.00     0.027 H 
ATOM      9  H   LIG d   1       2.183   0.220  -6.131  0.00  0.00     0.027 H 
ATOM     10  H   LIG d   1       3.438   0.653  -8.897  0.00  0.00     0.027 H 
ATOM     11  H   LIG d   1       1.730   0.279  -8.498  0.00  0.00     0.027 H 
ATOM     12  H   LIG d   1       2.257  -1.986  -7.871  0.00  0.00     0.032 H 
ATOM     13  H   LIG d   1       3.354  -1.729  -9.262  0.00  0.00     0.032 H 
ENDROOT
BRANCH   1  14
ATOM     14  C   LIG d   1       4.153  -0.809  -4.935  0.00  0.00    -0.039 A 
ATOM     15  C   LIG d   1       5.230  -1.409  -4.310  0.00  0.00    -0.058 A 
ATOM     16  C   LIG d   1       5.117  -1.841  -3.002  0.00  0.00    -0.061 A 
ATOM     17  H   LIG d   1       6.159  -1.541  -4.844  0.00  0.00     0.062 H 
ATOM     18  C   LIG d   1       3.928  -1.671  -2.318  0.00  0.00    -0.062 A 
ATOM     19  H   LIG d   1       5.958  -2.309  -2.513  0.00  0.00     0.062 H 
ATOM     20  C   LIG d   1       2.851  -1.070  -2.943  0.00  0.00    -0.061 A 
ATOM     21  H   LIG d   1       3.839  -2.008  -1.296  0.00  0.00     0.062 H 
ATOM     22  C   LIG d   1       2.965  -0.635  -4.250  0.00  0.00    -0.058 A 
ATOM     23  H   LIG d   1       1.921  -0.938  -2.410  0.00  0.00     0.062 H 
ATOM     24  H   LIG d   1       2.125  -0.162  -4.737  0.00  0.00     0.062 H 
ENDBRANCH   1  14
BRANCH   6  25
ATOM     25  N   LIG d   1       4.200  -2.797  -6.540  0.00  0.00     0.221 N 
ATOM     26  H   LIG d   1       4.861  -3.489  -6.889  0.00  0.00     0.200 HD
ATOM     27  H   LIG d   1       4.388  -2.615  -5.556  0.00  0.00     0.200 HD
ATOM     28  H   LIG d   1       3.246  -3.165  -6.637  0.00  0.00     0.200 HD
ENDBRANCH   6  25
TORSDOF 2
ENDMDL
