MODEL 1
REMARK VINA RESULT:      -7.5      0.000      0.000
REMARK  6 active torsions:
REMARK  status: ('A' for Active; 'I' for Inactive)
REMARK    1  A    between atoms: C_1  and  C_2 
REMARK    2  A    between atoms: C_10  and  C_14 
REMARK    3  A    between atoms: C_18  and  C_20 
REMARK    4  A    between atoms: C_20  and  N_21 
REMARK    5  A    between atoms: N_24  and  C_27 
REMARK    6  A    between atoms: C_27  and  C_28 
ROOT
ATOM      1  C   LIG d   1       4.611  -0.003  -2.734  0.00  0.00    -0.073 C 
ATOM      2  C   LIG d   1       5.460  -0.305  -3.670  0.00  0.00    -0.064 C 
ATOM      3  C   LIG d   1       6.569   0.670  -4.005  0.00  0.00    -0.024 C 
ATOM      4  C   LIG d   1       7.927  -0.030  -3.896  0.00  0.00     0.014 C 
ATOM      5  H   LIG d   1       8.166  -0.113  -2.825  0.00  0.00     0.035 H 
ATOM      6  C   LIG d   1       7.919  -1.383  -4.629  0.00  0.00     0.108 C 
ATOM      7  H   LIG d   1       8.780  -2.024  -4.389  0.00  0.00     0.074 H 
ATOM      8  C   LIG d   1       6.769  -2.286  -4.266  0.00  0.00    -0.006 C 
ATOM      9  C   LIG d   1       5.425  -1.583  -4.462  0.00  0.00    -0.007 C 
ATOM     10  C   LIG d   1       4.279  -2.499  -4.081  0.00  0.00    -0.043 C 
ATOM     11  C   LIG d   1       3.934  -2.369  -2.599  0.00  0.00    -0.049 C 
ATOM     12  C   LIG d   1       3.493  -0.924  -2.330  0.00  0.00    -0.032 C 
ATOM     13  O   LIG d   1       7.956  -1.012  -6.035  0.00  0.00    -0.461 OA
ATOM     14  C   LIG d   1       8.829   0.014  -6.148  0.00  0.00     0.312 C 
ATOM     15  O   LIG d   1       9.458   0.292  -7.142  0.00  0.00    -0.251 OA
ATOM     16  C   LIG d   1       8.894   0.761  -4.829  0.00  0.00     0.075 C 
ATOM     17  H   LIG d   1       9.924   0.827  -4.448  0.00  0.00     0.043 H 
ATOM     18  H   LIG d   1       6.432   1.041  -5.032  0.00  0.00     0.031 H 
ATOM     19  H   LIG d   1       6.537   1.517  -3.303  0.00  0.00     0.031 H 
ATOM     20  H   LIG d   1       6.791  -3.183  -4.903  0.00  0.00     0.031 H 
ATOM     21  H   LIG d   1       6.857  -2.585  -3.210  0.00  0.00     0.031 H 
ATOM     22  H   LIG d   1       3.389  -2.236  -4.673  0.00  0.00     0.027 H 
ATOM     23  H   LIG d   1       4.560  -3.542  -4.285  0.00  0.00     0.027 H 
ATOM     24  H   LIG d   1       3.118  -3.063  -2.350  0.00  0.00     0.027 H 
ATOM     25  H   LIG d   1       4.820  -2.611  -1.993  0.00  0.00     0.027 H 
ATOM     26  H   LIG d   1       3.276  -0.791  -1.261  0.00  0.00     0.031 H 
ATOM     27  H   LIG d   1       2.593  -0.691  -2.919  0.00  0.00     0.031 H 
ENDROOT
BRANCH  16  28
ATOM     28  C   LIG d   1       8.411   2.202  -5.004  0.00  0.00     0.013 C 
ATOM     29  H   LIG d   1       8.166   2.380  -6.061  0.00  0.00     0.043 H 
ATOM     30  H   LIG d   1       7.516   2.367  -4.387  0.00  0.00     0.043 H 
BRANCH  28  31
ATOM     31  N   LIG d   1       9.472   3.129  -4.585  0.00  0.00    -0.292 N 
ATOM     32  C   LIG d   1       9.653   3.096  -3.127  0.00  0.00     0.039 C 
ATOM     33  C   LIG d   1      10.817   4.013  -2.740  0.00  0.00    -0.018 C 
ATOM     34  H   LIG d   1       8.733   3.443  -2.635  0.00  0.00     0.048 H 
ATOM     35  H   LIG d   1       9.875   2.067  -2.809  0.00  0.00     0.048 H 
ATOM     36  N   LIG d   1      10.535   5.379  -3.203  0.00  0.00     0.240 N 
ATOM     37  H   LIG d   1      11.742   3.651  -3.211  0.00  0.00     0.083 H 
ATOM     38  H   LIG d   1      10.937   4.014  -1.647  0.00  0.00     0.083 H 
ATOM     39  C   LIG d   1      10.353   5.412  -4.660  0.00  0.00    -0.018 C 
ATOM     40  H   LIG d   1       9.595   5.708  -2.735  0.00  0.00     0.204 HD
ATOM     41  C   LIG d   1       9.190   4.495  -5.047  0.00  0.00     0.039 C 
ATOM     42  H   LIG d   1      11.273   5.065  -5.154  0.00  0.00     0.083 H 
ATOM     43  H   LIG d   1      10.131   6.441  -4.980  0.00  0.00     0.083 H 
ATOM     44  H   LIG d   1       9.069   4.495  -6.141  0.00  0.00     0.048 H 
ATOM     45  H   LIG d   1       8.264   4.858  -4.578  0.00  0.00     0.048 H 
BRANCH  36  46
ATOM     46  C   LIG d   1      11.595   6.306  -2.783  0.00  0.00    -0.006 C 
ATOM     47  H   LIG d   1      12.335   5.764  -2.177  0.00  0.00     0.087 H 
ATOM     48  H   LIG d   1      12.087   6.726  -3.673  0.00  0.00     0.087 H 
BRANCH  46  49
ATOM     49  C   LIG d   1      10.994   7.421  -1.968  0.00  0.00     0.001 A 
ATOM     50  C   LIG d   1      11.786   8.473  -1.550  0.00  0.00    -0.008 A 
ATOM     51  C   LIG d   1      11.235   9.500  -0.799  0.00  0.00     0.167 A 
ATOM     52  H   LIG d   1      12.834   8.496  -1.808  0.00  0.00     0.066 H 
ATOM     53  C   LIG d   1       9.882   9.471  -0.473  0.00  0.00     0.166 A 
ATOM     54  O   LIG d   1      11.786  10.631  -0.272  0.00  0.00    -0.453 OA
ATOM     55  C   LIG d   1       9.094   8.409  -0.892  0.00  0.00    -0.016 A 
ATOM     56  O   LIG d   1       9.586  10.579   0.266  0.00  0.00    -0.453 OA
ATOM     57  C   LIG d   1       9.651   7.389  -1.640  0.00  0.00    -0.050 A 
ATOM     58  H   LIG d   1       8.045   8.382  -0.637  0.00  0.00     0.066 H 
ATOM     59  H   LIG d   1       9.035   6.565  -1.969  0.00  0.00     0.062 H 
ATOM     60  C   LIG d   1      10.853  11.084   0.728  0.00  0.00     0.233 C 
ATOM     61  H   LIG d   1      11.135  10.668   1.707  0.00  0.00     0.117 H 
ATOM     62  H   LIG d   1      10.872  12.182   0.778  0.00  0.00     0.117 H 
ENDBRANCH  46  49
ENDBRANCH  36  46
ENDBRANCH  28  31
ENDBRANCH  16  28
BRANCH   1  63
ATOM     63  C   LIG d   1       4.751   1.321  -2.028  0.00  0.00    -0.043 C 
ATOM     64  H   LIG d   1       5.788   1.675  -2.116  0.00  0.00     0.027 H 
ATOM     65  H   LIG d   1       4.494   1.197  -0.964  0.00  0.00     0.027 H 
ATOM     66  H   LIG d   1       4.072   2.054  -2.486  0.00  0.00     0.027 H 
ENDBRANCH   1  63
BRANCH   9  67
ATOM     67  C   LIG d   1       5.291  -1.229  -5.944  0.00  0.00    -0.056 C 
ATOM     68  H   LIG d   1       5.232  -2.154  -6.537  0.00  0.00     0.024 H 
ATOM     69  H   LIG d   1       6.167  -0.645  -6.261  0.00  0.00     0.024 H 
ATOM     70  H   LIG d   1       4.379  -0.635  -6.098  0.00  0.00     0.024 H 
ENDBRANCH   9  67
TORSDOF 6
ENDMDL
MODEL 2
REMARK VINA RESULT:      -7.1      3.945      4.916
REMARK  6 active torsions:
REMARK  status: ('A' for Active; 'I' for Inactive)
REMARK    1  A    between atoms: C_1  and  C_2 
REMARK    2  A    between atoms: C_10  and  C_14 
REMARK    3  A    between atoms: C_18  and  C_20 
REMARK    4  A    between atoms: C_20  and  N_21 
REMARK    5  A    between atoms: N_24  and  C_27 
REMARK    6  A    between atoms: C_27  and  C_28 
ROOT
ATOM      1  C   LIG d   1       3.330  -0.239  -5.003  0.00  0.00    -0.073 C 
ATOM      2  C   LIG d   1       4.471  -0.827  -4.805  0.00  0.00    -0.064 C 
ATOM      3  C   LIG d   1       5.603  -0.595  -5.784  0.00  0.00    -0.024 C 
ATOM      4  C   LIG d   1       6.840  -0.089  -5.036  0.00  0.00     0.014 C 
ATOM      5  H   LIG d   1       6.670   0.973  -4.804  0.00  0.00     0.035 H 
ATOM      6  C   LIG d   1       7.134  -0.948  -3.795  0.00  0.00     0.108 C 
ATOM      7  H   LIG d   1       7.860  -0.497  -3.103  0.00  0.00     0.074 H 
ATOM      8  C   LIG d   1       5.952  -1.160  -2.884  0.00  0.00    -0.006 C 
ATOM      9  C   LIG d   1       4.760  -1.741  -3.646  0.00  0.00    -0.007 C 
ATOM     10  C   LIG d   1       3.575  -1.937  -2.721  0.00  0.00    -0.043 C 
ATOM     11  C   LIG d   1       2.705  -0.683  -2.661  0.00  0.00    -0.049 C 
ATOM     12  C   LIG d   1       2.163  -0.404  -4.069  0.00  0.00    -0.032 C 
ATOM     13  O   LIG d   1       7.679  -2.178  -4.349  0.00  0.00    -0.461 OA
ATOM     14  C   LIG d   1       8.509  -1.822  -5.356  0.00  0.00     0.312 C 
ATOM     15  O   LIG d   1       9.453  -2.466  -5.746  0.00  0.00    -0.251 OA
ATOM     16  C   LIG d   1       8.065  -0.483  -5.917  0.00  0.00     0.075 C 
ATOM     17  H   LIG d   1       8.880   0.255  -5.902  0.00  0.00     0.043 H 
ATOM     18  H   LIG d   1       5.846  -1.540  -6.293  0.00  0.00     0.031 H 
ATOM     19  H   LIG d   1       5.295   0.154  -6.529  0.00  0.00     0.031 H 
ATOM     20  H   LIG d   1       6.228  -1.859  -2.081  0.00  0.00     0.031 H 
ATOM     21  H   LIG d   1       5.651  -0.197  -2.444  0.00  0.00     0.031 H 
ATOM     22  H   LIG d   1       2.961  -2.774  -3.086  0.00  0.00     0.027 H 
ATOM     23  H   LIG d   1       3.935  -2.162  -1.707  0.00  0.00     0.027 H 
ATOM     24  H   LIG d   1       1.871  -0.849  -1.963  0.00  0.00     0.027 H 
ATOM     25  H   LIG d   1       3.310   0.167  -2.315  0.00  0.00     0.027 H 
ATOM     26  H   LIG d   1       1.564   0.518  -4.064  0.00  0.00     0.031 H 
ATOM     27  H   LIG d   1       1.539  -1.245  -4.405  0.00  0.00     0.031 H 
ENDROOT
BRANCH  16  28
ATOM     28  C   LIG d   1       7.648  -0.628  -7.382  0.00  0.00     0.013 C 
ATOM     29  H   LIG d   1       8.051  -1.568  -7.786  0.00  0.00     0.043 H 
ATOM     30  H   LIG d   1       6.551  -0.639  -7.452  0.00  0.00     0.043 H 
BRANCH  28  31
ATOM     31  N   LIG d   1       8.177   0.504  -8.156  0.00  0.00    -0.292 N 
ATOM     32  C   LIG d   1       9.461   0.963  -7.607  0.00  0.00     0.039 C 
ATOM     33  C   LIG d   1      10.015   2.087  -8.486  0.00  0.00    -0.018 C 
ATOM     34  H   LIG d   1       9.309   1.336  -6.584  0.00  0.00     0.048 H 
ATOM     35  H   LIG d   1      10.172   0.123  -7.590  0.00  0.00     0.048 H 
ATOM     36  N   LIG d   1       9.044   3.188  -8.538  0.00  0.00     0.240 N 
ATOM     37  H   LIG d   1      10.192   1.705  -9.502  0.00  0.00     0.083 H 
ATOM     38  H   LIG d   1      10.962   2.452  -8.062  0.00  0.00     0.083 H 
ATOM     39  C   LIG d   1       7.761   2.730  -9.087  0.00  0.00    -0.018 C 
ATOM     40  H   LIG d   1       8.869   3.536  -7.509  0.00  0.00     0.204 HD
ATOM     41  C   LIG d   1       7.206   1.606  -8.208  0.00  0.00     0.039 C 
ATOM     42  H   LIG d   1       7.910   2.355 -10.110  0.00  0.00     0.083 H 
ATOM     43  H   LIG d   1       7.047   3.567  -9.104  0.00  0.00     0.083 H 
ATOM     44  H   LIG d   1       6.259   1.240  -8.632  0.00  0.00     0.048 H 
ATOM     45  H   LIG d   1       7.028   1.987  -7.192  0.00  0.00     0.048 H 
BRANCH  36  46
ATOM     46  C   LIG d   1       9.573   4.319  -9.311  0.00  0.00    -0.006 C 
ATOM     47  H   LIG d   1      10.595   4.089  -9.645  0.00  0.00     0.087 H 
ATOM     48  H   LIG d   1       8.932   4.495 -10.189  0.00  0.00     0.087 H 
BRANCH  46  49
ATOM     49  C   LIG d   1       9.592   5.554  -8.448  0.00  0.00     0.001 A 
ATOM     50  C   LIG d   1       9.386   6.796  -9.016  0.00  0.00    -0.008 A 
ATOM     51  C   LIG d   1       9.403   7.933  -8.224  0.00  0.00     0.167 A 
ATOM     52  H   LIG d   1       9.212   6.882 -10.078  0.00  0.00     0.066 H 
ATOM     53  C   LIG d   1       9.622   7.818  -6.853  0.00  0.00     0.166 A 
ATOM     54  O   LIG d   1       9.231   9.252  -8.529  0.00  0.00    -0.453 OA
ATOM     55  C   LIG d   1       9.833   6.569  -6.290  0.00  0.00    -0.016 A 
ATOM     56  O   LIG d   1       9.596   9.067  -6.301  0.00  0.00    -0.453 OA
ATOM     57  C   LIG d   1       9.814   5.441  -7.087  0.00  0.00    -0.050 A 
ATOM     58  H   LIG d   1      10.007   6.478  -5.229  0.00  0.00     0.066 H 
ATOM     59  H   LIG d   1       9.974   4.467  -6.647  0.00  0.00     0.062 H 
ATOM     60  C   LIG d   1       9.758   9.980  -7.403  0.00  0.00     0.233 C 
ATOM     61  H   LIG d   1      10.813  10.227  -7.588  0.00  0.00     0.117 H 
ATOM     62  H   LIG d   1       9.183  10.907  -7.264  0.00  0.00     0.117 H 
ENDBRANCH  46  49
ENDBRANCH  36  46
ENDBRANCH  28  31
ENDBRANCH  16  28
BRANCH   1  63
ATOM     63  C   LIG d   1       3.169   0.641  -6.216  0.00  0.00    -0.043 C 
ATOM     64  H   LIG d   1       2.565   1.522  -5.952  0.00  0.00     0.027 H 
ATOM     65  H   LIG d   1       2.665   0.076  -7.015  0.00  0.00     0.027 H 
ATOM     66  H   LIG d   1       4.160   0.968  -6.566  0.00  0.00     0.027 H 
ENDBRANCH   1  63
BRANCH   9  67
ATOM     67  C   LIG d   1       5.174  -3.106  -4.199  0.00  0.00    -0.056 C 
ATOM     68  H   LIG d   1       4.283  -3.739  -4.318  0.00  0.00     0.024 H 
ATOM     69  H   LIG d   1       5.875  -3.586  -3.500  0.00  0.00     0.024 H 
ATOM     70  H   LIG d   1       5.663  -2.973  -5.175  0.00  0.00     0.024 H 
ENDBRANCH   9  67
TORSDOF 6
ENDMDL
MODEL 3
REMARK VINA RESULT:      -7.0      7.332     12.485
REMARK  6 active torsions:
REMARK  status: ('A' for Active; 'I' for Inactive)
REMARK    1  A    between atoms: C_1  and  C_2 
REMARK    2  A    between atoms: C_10  and  C_14 
REMARK    3  A    between atoms: C_18  and  C_20 
REMARK    4  A    between atoms: C_20  and  N_21 
REMARK    5  A    between atoms: N_24  and  C_27 
REMARK    6  A    between atoms: C_27  and  C_28 
ROOT
ATOM      1  C   LIG d   1       3.329   0.530  -3.904  0.00  0.00    -0.073 C 
ATOM      2  C   LIG d   1       3.999  -0.580  -3.985  0.00  0.00    -0.064 C 
ATOM      3  C   LIG d   1       4.067  -1.307  -5.311  0.00  0.00    -0.024 C 
ATOM      4  C   LIG d   1       5.530  -1.533  -5.705  0.00  0.00     0.014 C 
ATOM      5  H   LIG d   1       5.920  -0.575  -6.079  0.00  0.00     0.035 H 
ATOM      6  C   LIG d   1       6.343  -2.108  -4.532  0.00  0.00     0.108 C 
ATOM      7  H   LIG d   1       7.432  -2.070  -4.684  0.00  0.00     0.074 H 
ATOM      8  C   LIG d   1       6.200  -1.348  -3.238  0.00  0.00    -0.006 C 
ATOM      9  C   LIG d   1       4.732  -1.210  -2.833  0.00  0.00    -0.007 C 
ATOM     10  C   LIG d   1       4.603  -0.433  -1.538  0.00  0.00    -0.043 C 
ATOM     11  C   LIG d   1       4.492   1.068  -1.799  0.00  0.00    -0.049 C 
ATOM     12  C   LIG d   1       3.228   1.321  -2.629  0.00  0.00    -0.032 C 
ATOM     13  O   LIG d   1       5.902  -3.492  -4.454  0.00  0.00    -0.461 OA
ATOM     14  C   LIG d   1       5.802  -3.945  -5.724  0.00  0.00     0.312 C 
ATOM     15  O   LIG d   1       5.907  -5.099  -6.067  0.00  0.00    -0.251 OA
ATOM     16  C   LIG d   1       5.534  -2.773  -6.651  0.00  0.00     0.075 C 
ATOM     17  H   LIG d   1       6.278  -2.714  -7.458  0.00  0.00     0.043 H 
ATOM     18  H   LIG d   1       3.560  -2.280  -5.222  0.00  0.00     0.031 H 
ATOM     19  H   LIG d   1       3.570  -0.705  -6.086  0.00  0.00     0.031 H 
ATOM     20  H   LIG d   1       6.736  -1.881  -2.438  0.00  0.00     0.031 H 
ATOM     21  H   LIG d   1       6.628  -0.340  -3.356  0.00  0.00     0.031 H 
ATOM     22  H   LIG d   1       3.701  -0.763  -1.001  0.00  0.00     0.027 H 
ATOM     23  H   LIG d   1       5.488  -0.615  -0.911  0.00  0.00     0.027 H 
ATOM     24  H   LIG d   1       4.427   1.603  -0.841  0.00  0.00     0.027 H 
ATOM     25  H   LIG d   1       5.380   1.410  -2.351  0.00  0.00     0.027 H 
ATOM     26  H   LIG d   1       3.144   2.392  -2.867  0.00  0.00     0.031 H 
ATOM     27  H   LIG d   1       2.339   1.000  -2.067  0.00  0.00     0.031 H 
ENDROOT
BRANCH  16  28
ATOM     28  C   LIG d   1       4.174  -2.930  -7.335  0.00  0.00     0.013 C 
ATOM     29  H   LIG d   1       3.892  -3.992  -7.349  0.00  0.00     0.043 H 
ATOM     30  H   LIG d   1       3.417  -2.356  -6.781  0.00  0.00     0.043 H 
BRANCH  28  31
ATOM     31  N   LIG d   1       4.259  -2.428  -8.713  0.00  0.00    -0.292 N 
ATOM     32  C   LIG d   1       3.267  -1.369  -8.949  0.00  0.00     0.039 C 
ATOM     33  C   LIG d   1       3.439  -0.819 -10.367  0.00  0.00    -0.018 C 
ATOM     34  H   LIG d   1       2.254  -1.783  -8.836  0.00  0.00     0.048 H 
ATOM     35  H   LIG d   1       3.416  -0.559  -8.219  0.00  0.00     0.048 H 
ATOM     36  N   LIG d   1       3.280  -1.912 -11.336  0.00  0.00     0.240 N 
ATOM     37  H   LIG d   1       4.443  -0.381 -10.472  0.00  0.00     0.083 H 
ATOM     38  H   LIG d   1       2.680  -0.047 -10.557  0.00  0.00     0.083 H 
ATOM     39  C   LIG d   1       4.271  -2.971 -11.100  0.00  0.00    -0.018 C 
ATOM     40  H   LIG d   1       2.278  -2.346 -11.196  0.00  0.00     0.204 HD
ATOM     41  C   LIG d   1       4.098  -3.520  -9.682  0.00  0.00     0.039 C 
ATOM     42  H   LIG d   1       5.284  -2.558 -11.213  0.00  0.00     0.083 H 
ATOM     43  H   LIG d   1       4.123  -3.782 -11.829  0.00  0.00     0.083 H 
ATOM     44  H   LIG d   1       4.858  -4.294  -9.493  0.00  0.00     0.048 H 
ATOM     45  H   LIG d   1       3.096  -3.960  -9.578  0.00  0.00     0.048 H 
BRANCH  36  46
ATOM     46  C   LIG d   1       3.363  -1.410 -12.714  0.00  0.00    -0.006 C 
ATOM     47  H   LIG d   1       3.402  -0.311 -12.701  0.00  0.00     0.087 H 
ATOM     48  H   LIG d   1       4.272  -1.804 -13.193  0.00  0.00     0.087 H 
BRANCH  46  49
ATOM     49  C   LIG d   1       2.152  -1.862 -13.488  0.00  0.00     0.001 A 
ATOM     50  C   LIG d   1       0.932  -1.983 -12.850  0.00  0.00    -0.008 A 
ATOM     51  C   LIG d   1      -0.183  -2.399 -13.560  0.00  0.00     0.167 A 
ATOM     52  H   LIG d   1       0.847  -1.754 -11.799  0.00  0.00     0.066 H 
ATOM     53  C   LIG d   1      -0.072  -2.689 -14.918  0.00  0.00     0.166 A 
ATOM     54  O   LIG d   1      -1.478  -2.598 -13.177  0.00  0.00    -0.453 OA
ATOM     55  C   LIG d   1       1.156  -2.570 -15.550  0.00  0.00    -0.016 A 
ATOM     56  O   LIG d   1      -1.295  -3.077 -15.383  0.00  0.00    -0.453 OA
ATOM     57  C   LIG d   1       2.264  -2.155 -14.835  0.00  0.00    -0.050 A 
ATOM     58  H   LIG d   1       1.247  -2.798 -16.601  0.00  0.00     0.066 H 
ATOM     59  H   LIG d   1       3.219  -2.058 -15.330  0.00  0.00     0.062 H 
ATOM     60  C   LIG d   1      -2.067  -3.407 -14.214  0.00  0.00     0.233 C 
ATOM     61  H   LIG d   1      -1.980  -4.469 -13.942  0.00  0.00     0.117 H 
ATOM     62  H   LIG d   1      -3.128  -3.143 -14.326  0.00  0.00     0.117 H 
ENDBRANCH  46  49
ENDBRANCH  36  46
ENDBRANCH  28  31
ENDBRANCH  16  28
BRANCH   1  63
ATOM     63  C   LIG d   1       2.627   1.044  -5.134  0.00  0.00    -0.043 C 
ATOM     64  H   LIG d   1       1.539   0.978  -4.990  0.00  0.00     0.027 H 
ATOM     65  H   LIG d   1       2.919   0.436  -6.004  0.00  0.00     0.027 H 
ATOM     66  H   LIG d   1       2.911   2.093  -5.307  0.00  0.00     0.027 H 
ENDBRANCH   1  63
BRANCH   9  67
ATOM     67  C   LIG d   1       4.170  -2.616  -2.613  0.00  0.00    -0.056 C 
ATOM     68  H   LIG d   1       3.365  -2.806  -3.338  0.00  0.00     0.024 H 
ATOM     69  H   LIG d   1       3.771  -2.694  -1.591  0.00  0.00     0.024 H 
ATOM     70  H   LIG d   1       4.971  -3.356  -2.751  0.00  0.00     0.024 H 
ENDBRANCH   9  67
TORSDOF 6
ENDMDL
MODEL 4
REMARK VINA RESULT:      -6.9      2.368      9.959
REMARK  6 active torsions:
REMARK  status: ('A' for Active; 'I' for Inactive)
REMARK    1  A    between atoms: C_1  and  C_2 
REMARK    2  A    between atoms: C_10  and  C_14 
REMARK    3  A    between atoms: C_18  and  C_20 
REMARK    4  A    between atoms: C_20  and  N_21 
REMARK    5  A    between atoms: N_24  and  C_27 
REMARK    6  A    between atoms: C_27  and  C_28 
ROOT
ATOM      1  C   LIG d   1      11.279   7.297   0.752  0.00  0.00    -0.073 C 
ATOM      2  C   LIG d   1      11.246   7.464  -0.536  0.00  0.00    -0.064 C 
ATOM      3  C   LIG d   1      10.955   6.275  -1.428  0.00  0.00    -0.024 C 
ATOM      4  C   LIG d   1       9.764   6.589  -2.338  0.00  0.00     0.014 C 
ATOM      5  H   LIG d   1       8.853   6.499  -1.727  0.00  0.00     0.035 H 
ATOM      6  C   LIG d   1       9.918   7.965  -3.008  0.00  0.00     0.108 C 
ATOM      7  H   LIG d   1       8.996   8.336  -3.481  0.00  0.00     0.074 H 
ATOM      8  C   LIG d   1      10.237   9.092  -2.060  0.00  0.00    -0.006 C 
ATOM      9  C   LIG d   1      11.479   8.780  -1.223  0.00  0.00    -0.007 C 
ATOM     10  C   LIG d   1      11.780   9.917  -0.266  0.00  0.00    -0.043 C 
ATOM     11  C   LIG d   1      11.051   9.731   1.063  0.00  0.00    -0.049 C 
ATOM     12  C   LIG d   1      11.543   8.429   1.706  0.00  0.00    -0.032 C 
ATOM     13  O   LIG d   1      10.937   7.741  -4.022  0.00  0.00    -0.461 OA
ATOM     14  C   LIG d   1      10.672   6.542  -4.588  0.00  0.00     0.312 C 
ATOM     15  O   LIG d   1      10.980   6.213  -5.709  0.00  0.00    -0.251 OA
ATOM     16  C   LIG d   1       9.927   5.674  -3.591  0.00  0.00     0.075 C 
ATOM     17  H   LIG d   1       8.975   5.308  -4.000  0.00  0.00     0.043 H 
ATOM     18  H   LIG d   1      11.839   6.057  -2.048  0.00  0.00     0.031 H 
ATOM     19  H   LIG d   1      10.719   5.399  -0.806  0.00  0.00     0.031 H 
ATOM     20  H   LIG d   1      10.423  10.013  -2.633  0.00  0.00     0.031 H 
ATOM     21  H   LIG d   1       9.386   9.250  -1.379  0.00  0.00     0.031 H 
ATOM     22  H   LIG d   1      12.863   9.953  -0.070  0.00  0.00     0.027 H 
ATOM     23  H   LIG d   1      11.457  10.868  -0.713  0.00  0.00     0.027 H 
ATOM     24  H   LIG d   1      11.269  10.583   1.724  0.00  0.00     0.027 H 
ATOM     25  H   LIG d   1       9.967   9.675   0.882  0.00  0.00     0.027 H 
ATOM     26  H   LIG d   1      11.005   8.248   2.648  0.00  0.00     0.031 H 
ATOM     27  H   LIG d   1      12.623   8.494   1.908  0.00  0.00     0.031 H 
ENDROOT
BRANCH  16  28
ATOM     28  C   LIG d   1      10.748   4.431  -3.243  0.00  0.00     0.013 C 
ATOM     29  H   LIG d   1      11.805   4.610  -3.489  0.00  0.00     0.043 H 
ATOM     30  H   LIG d   1      10.652   4.216  -2.169  0.00  0.00     0.043 H 
BRANCH  28  31
ATOM     31  N   LIG d   1      10.253   3.284  -4.017  0.00  0.00    -0.292 N 
ATOM     32  C   LIG d   1       8.810   3.095  -3.813  0.00  0.00     0.039 C 
ATOM     33  C   LIG d   1       8.319   1.944  -4.695  0.00  0.00    -0.018 C 
ATOM     34  H   LIG d   1       8.617   2.857  -2.757  0.00  0.00     0.048 H 
ATOM     35  H   LIG d   1       8.278   4.019  -4.084  0.00  0.00     0.048 H 
ATOM     36  N   LIG d   1       9.061   0.722  -4.358  0.00  0.00     0.240 N 
ATOM     37  H   LIG d   1       8.487   2.195  -5.753  0.00  0.00     0.083 H 
ATOM     38  H   LIG d   1       7.245   1.781  -4.523  0.00  0.00     0.083 H 
ATOM     39  C   LIG d   1      10.503   0.910  -4.562  0.00  0.00    -0.018 C 
ATOM     40  H   LIG d   1       8.893   0.506  -3.292  0.00  0.00     0.204 HD
ATOM     41  C   LIG d   1      10.994   2.061  -3.680  0.00  0.00     0.039 C 
ATOM     42  H   LIG d   1      10.697   1.150  -5.618  0.00  0.00     0.083 H 
ATOM     43  H   LIG d   1      11.037  -0.012  -4.291  0.00  0.00     0.083 H 
ATOM     44  H   LIG d   1      12.068   2.224  -3.851  0.00  0.00     0.048 H 
ATOM     45  H   LIG d   1      10.827   1.811  -2.622  0.00  0.00     0.048 H 
BRANCH  36  46
ATOM     46  C   LIG d   1       8.565  -0.424  -5.132  0.00  0.00    -0.006 C 
ATOM     47  H   LIG d   1       8.651  -0.206  -6.206  0.00  0.00     0.087 H 
ATOM     48  H   LIG d   1       9.164  -1.316  -4.890  0.00  0.00     0.087 H 
BRANCH  46  49
ATOM     49  C   LIG d   1       7.122  -0.680  -4.783  0.00  0.00     0.001 A 
ATOM     50  C   LIG d   1       6.767  -0.958  -3.477  0.00  0.00    -0.008 A 
ATOM     51  C   LIG d   1       5.439  -1.193  -3.154  0.00  0.00     0.167 A 
ATOM     52  H   LIG d   1       7.523  -0.992  -2.707  0.00  0.00     0.066 H 
ATOM     53  C   LIG d   1       4.466  -1.143  -4.148  0.00  0.00     0.166 A 
ATOM     54  O   LIG d   1       4.835  -1.485  -1.966  0.00  0.00    -0.453 OA
ATOM     55  C   LIG d   1       4.830  -0.869  -5.457  0.00  0.00    -0.016 A 
ATOM     56  O   LIG d   1       3.252  -1.412  -3.584  0.00  0.00    -0.453 OA
ATOM     57  C   LIG d   1       6.155  -0.635  -5.771  0.00  0.00    -0.050 A 
ATOM     58  H   LIG d   1       4.077  -0.834  -6.231  0.00  0.00     0.066 H 
ATOM     59  H   LIG d   1       6.437  -0.417  -6.791  0.00  0.00     0.062 H 
ATOM     60  C   LIG d   1       3.543  -2.020  -2.312  0.00  0.00     0.233 C 
ATOM     61  H   LIG d   1       3.606  -3.116  -2.378  0.00  0.00     0.117 H 
ATOM     62  H   LIG d   1       2.812  -1.741  -1.540  0.00  0.00     0.117 H 
ENDBRANCH  46  49
ENDBRANCH  36  46
ENDBRANCH  28  31
ENDBRANCH  16  28
BRANCH   1  63
ATOM     63  C   LIG d   1      11.043   5.917   1.310  0.00  0.00    -0.043 C 
ATOM     64  H   LIG d   1       9.979   5.658   1.210  0.00  0.00     0.027 H 
ATOM     65  H   LIG d   1      11.326   5.899   2.374  0.00  0.00     0.027 H 
ATOM     66  H   LIG d   1      11.653   5.188   0.756  0.00  0.00     0.027 H 
ENDBRANCH   1  63
BRANCH   9  67
ATOM     67  C   LIG d   1      12.664   8.625  -2.179  0.00  0.00    -0.056 C 
ATOM     68  H   LIG d   1      12.711   7.586  -2.538  0.00  0.00     0.024 H 
ATOM     69  H   LIG d   1      13.595   8.873  -1.650  0.00  0.00     0.024 H 
ATOM     70  H   LIG d   1      12.536   9.303  -3.034  0.00  0.00     0.024 H 
ENDBRANCH   9  67
TORSDOF 6
ENDMDL
MODEL 5
REMARK VINA RESULT:      -6.7      7.098     10.454
REMARK  6 active torsions:
REMARK  status: ('A' for Active; 'I' for Inactive)
REMARK    1  A    between atoms: C_1  and  C_2 
REMARK    2  A    between atoms: C_10  and  C_14 
REMARK    3  A    between atoms: C_18  and  C_20 
REMARK    4  A    between atoms: C_20  and  N_21 
REMARK    5  A    between atoms: N_24  and  C_27 
REMARK    6  A    between atoms: C_27  and  C_28 
ROOT
ATOM      1  C   LIG d   1       8.371 -10.554  -2.251  0.00  0.00    -0.073 C 
ATOM      2  C   LIG d   1       9.307  -9.654  -2.262  0.00  0.00    -0.064 C 
ATOM      3  C   LIG d   1       9.194  -8.481  -3.214  0.00  0.00    -0.024 C 
ATOM      4  C   LIG d   1       9.289  -7.167  -2.432  0.00  0.00     0.014 C 
ATOM      5  H   LIG d   1       8.317  -7.010  -1.939  0.00  0.00     0.035 H 
ATOM      6  C   LIG d   1      10.476  -7.182  -1.454  0.00  0.00     0.108 C 
ATOM      7  H   LIG d   1      10.452  -6.371  -0.712  0.00  0.00     0.074 H 
ATOM      8  C   LIG d   1      10.538  -8.395  -0.561  0.00  0.00    -0.006 C 
ATOM      9  C   LIG d   1      10.523  -9.689  -1.378  0.00  0.00    -0.007 C 
ATOM     10  C   LIG d   1      10.573 -10.899  -0.467  0.00  0.00    -0.043 C 
ATOM     11  C   LIG d   1       9.170 -11.345  -0.058  0.00  0.00    -0.049 C 
ATOM     12  C   LIG d   1       8.400 -11.738  -1.324  0.00  0.00    -0.032 C 
ATOM     13  O   LIG d   1      11.635  -7.027  -2.319  0.00  0.00    -0.461 OA
ATOM     14  C   LIG d   1      11.310  -6.103  -3.251  0.00  0.00     0.312 C 
ATOM     15  O   LIG d   1      12.092  -5.392  -3.836  0.00  0.00    -0.251 OA
ATOM     16  C   LIG d   1       9.804  -6.100  -3.445  0.00  0.00     0.075 C 
ATOM     17  H   LIG d   1       9.375  -5.100  -3.294  0.00  0.00     0.043 H 
ATOM     18  H   LIG d   1      10.011  -8.526  -3.949  0.00  0.00     0.031 H 
ATOM     19  H   LIG d   1       8.227  -8.526  -3.737  0.00  0.00     0.031 H 
ATOM     20  H   LIG d   1      11.464  -8.367   0.033  0.00  0.00     0.031 H 
ATOM     21  H   LIG d   1       9.670  -8.397   0.115  0.00  0.00     0.031 H 
ATOM     22  H   LIG d   1      11.067 -11.731  -0.991  0.00  0.00     0.027 H 
ATOM     23  H   LIG d   1      11.141 -10.651   0.441  0.00  0.00     0.027 H 
ATOM     24  H   LIG d   1       9.243 -12.206   0.622  0.00  0.00     0.027 H 
ATOM     25  H   LIG d   1       8.657 -10.517   0.453  0.00  0.00     0.027 H 
ATOM     26  H   LIG d   1       7.372 -12.026  -1.064  0.00  0.00     0.031 H 
ATOM     27  H   LIG d   1       8.902 -12.582  -1.822  0.00  0.00     0.031 H 
ENDROOT
BRANCH  16  28
ATOM     28  C   LIG d   1       9.448  -6.505  -4.877  0.00  0.00     0.013 C 
ATOM     29  H   LIG d   1      10.331  -6.384  -5.522  0.00  0.00     0.043 H 
ATOM     30  H   LIG d   1       9.124  -7.556  -4.892  0.00  0.00     0.043 H 
BRANCH  28  31
ATOM     31  N   LIG d   1       8.360  -5.650  -5.372  0.00  0.00    -0.292 N 
ATOM     32  C   LIG d   1       8.288  -4.396  -4.607  0.00  0.00     0.039 C 
ATOM     33  C   LIG d   1       7.197  -3.502  -5.202  0.00  0.00    -0.018 C 
ATOM     34  H   LIG d   1       8.047  -4.620  -3.557  0.00  0.00     0.048 H 
ATOM     35  H   LIG d   1       9.257  -3.879  -4.660  0.00  0.00     0.048 H 
ATOM     36  N   LIG d   1       5.912  -4.213  -5.168  0.00  0.00     0.240 N 
ATOM     37  H   LIG d   1       7.452  -3.256  -6.244  0.00  0.00     0.083 H 
ATOM     38  H   LIG d   1       7.120  -2.576  -4.615  0.00  0.00     0.083 H 
ATOM     39  C   LIG d   1       5.984  -5.465  -5.931  0.00  0.00    -0.018 C 
ATOM     40  H   LIG d   1       5.692  -4.465  -4.119  0.00  0.00     0.204 HD
ATOM     41  C   LIG d   1       7.075  -6.360  -5.336  0.00  0.00     0.039 C 
ATOM     42  H   LIG d   1       6.225  -5.243  -6.981  0.00  0.00     0.083 H 
ATOM     43  H   LIG d   1       5.016  -5.985  -5.880  0.00  0.00     0.083 H 
ATOM     44  H   LIG d   1       7.151  -7.287  -5.923  0.00  0.00     0.048 H 
ATOM     45  H   LIG d   1       6.820  -6.607  -4.295  0.00  0.00     0.048 H 
BRANCH  36  46
ATOM     46  C   LIG d   1       4.824  -3.357  -5.661  0.00  0.00    -0.006 C 
ATOM     47  H   LIG d   1       5.154  -2.835  -6.571  0.00  0.00     0.087 H 
ATOM     48  H   LIG d   1       3.946  -3.979  -5.893  0.00  0.00     0.087 H 
BRANCH  46  49
ATOM     49  C   LIG d   1       4.460  -2.347  -4.604  0.00  0.00     0.001 A 
ATOM     50  C   LIG d   1       4.228  -1.032  -4.958  0.00  0.00    -0.008 A 
ATOM     51  C   LIG d   1       3.893  -0.101  -3.987  0.00  0.00     0.167 A 
ATOM     52  H   LIG d   1       4.309  -0.728  -5.990  0.00  0.00     0.066 H 
ATOM     53  C   LIG d   1       3.784  -0.497  -2.656  0.00  0.00     0.166 A 
ATOM     54  O   LIG d   1       3.620   1.234  -4.068  0.00  0.00    -0.453 OA
ATOM     55  C   LIG d   1       4.023  -1.817  -2.308  0.00  0.00    -0.016 A 
ATOM     56  O   LIG d   1       3.452   0.592  -1.902  0.00  0.00    -0.453 OA
ATOM     57  C   LIG d   1       4.357  -2.739  -3.281  0.00  0.00    -0.050 A 
ATOM     58  H   LIG d   1       3.944  -2.126  -1.276  0.00  0.00     0.066 H 
ATOM     59  H   LIG d   1       4.537  -3.769  -3.009  0.00  0.00     0.062 H 
ATOM     60  C   LIG d   1       3.749   1.736  -2.724  0.00  0.00     0.233 C 
ATOM     61  H   LIG d   1       4.773   2.106  -2.569  0.00  0.00     0.117 H 
ATOM     62  H   LIG d   1       3.035   2.557  -2.569  0.00  0.00     0.117 H 
ENDBRANCH  46  49
ENDBRANCH  36  46
ENDBRANCH  28  31
ENDBRANCH  16  28
BRANCH   1  63
ATOM     63  C   LIG d   1       7.212 -10.407  -3.203  0.00  0.00    -0.043 C 
ATOM     64  H   LIG d   1       6.278 -10.304  -2.630  0.00  0.00     0.027 H 
ATOM     65  H   LIG d   1       7.151 -11.297  -3.847  0.00  0.00     0.027 H 
ATOM     66  H   LIG d   1       7.361  -9.512  -3.826  0.00  0.00     0.027 H 
ENDBRANCH   1  63
BRANCH   9  67
ATOM     67  C   LIG d   1      11.768  -9.699  -2.267  0.00  0.00    -0.056 C 
ATOM     68  H   LIG d   1      12.188  -8.684  -2.320  0.00  0.00     0.024 H 
ATOM     69  H   LIG d   1      11.492 -10.035  -3.277  0.00  0.00     0.024 H 
ATOM     70  H   LIG d   1      12.515 -10.385  -1.843  0.00  0.00     0.024 H 
ENDBRANCH   9  67
TORSDOF 6
ENDMDL
MODEL 6
REMARK VINA RESULT:      -6.7      7.034     12.180
REMARK  6 active torsions:
REMARK  status: ('A' for Active; 'I' for Inactive)
REMARK    1  A    between atoms: C_1  and  C_2 
REMARK    2  A    between atoms: C_10  and  C_14 
REMARK    3  A    between atoms: C_18  and  C_20 
REMARK    4  A    between atoms: C_20  and  N_21 
REMARK    5  A    between atoms: N_24  and  C_27 
REMARK    6  A    between atoms: C_27  and  C_28 
ROOT
ATOM      1  C   LIG d   1       3.336   0.346  -4.617  0.00  0.00    -0.073 C 
ATOM      2  C   LIG d   1       4.264  -0.489  -4.260  0.00  0.00    -0.064 C 
ATOM      3  C   LIG d   1       4.769  -1.505  -5.264  0.00  0.00    -0.024 C 
ATOM      4  C   LIG d   1       6.290  -1.385  -5.403  0.00  0.00     0.014 C 
ATOM      5  H   LIG d   1       6.493  -0.499  -6.024  0.00  0.00     0.035 H 
ATOM      6  C   LIG d   1       6.976  -1.338  -4.026  0.00  0.00     0.108 C 
ATOM      7  H   LIG d   1       8.029  -1.021  -4.065  0.00  0.00     0.074 H 
ATOM      8  C   LIG d   1       6.398  -0.324  -3.072  0.00  0.00    -0.006 C 
ATOM      9  C   LIG d   1       4.892  -0.523  -2.895  0.00  0.00    -0.007 C 
ATOM     10  C   LIG d   1       4.323   0.511  -1.943  0.00  0.00    -0.043 C 
ATOM     11  C   LIG d   1       3.893   1.774  -2.687  0.00  0.00    -0.049 C 
ATOM     12  C   LIG d   1       2.793   1.395  -3.686  0.00  0.00    -0.032 C 
ATOM     13  O   LIG d   1       6.889  -2.710  -3.552  0.00  0.00    -0.461 OA
ATOM     14  C   LIG d   1       7.155  -3.510  -4.610  0.00  0.00     0.312 C 
ATOM     15  O   LIG d   1       7.611  -4.627  -4.547  0.00  0.00    -0.251 OA
ATOM     16  C   LIG d   1       6.789  -2.780  -5.890  0.00  0.00     0.075 C 
ATOM     17  H   LIG d   1       7.637  -2.730  -6.588  0.00  0.00     0.043 H 
ATOM     18  H   LIG d   1       4.515  -2.519  -4.919  0.00  0.00     0.031 H 
ATOM     19  H   LIG d   1       4.298  -1.321  -6.241  0.00  0.00     0.031 H 
ATOM     20  H   LIG d   1       6.883  -0.426  -2.090  0.00  0.00     0.031 H 
ATOM     21  H   LIG d   1       6.574   0.690  -3.464  0.00  0.00     0.031 H 
ATOM     22  H   LIG d   1       3.445   0.091  -1.429  0.00  0.00     0.027 H 
ATOM     23  H   LIG d   1       5.086   0.784  -1.200  0.00  0.00     0.027 H 
ATOM     24  H   LIG d   1       3.511   2.512  -1.967  0.00  0.00     0.027 H 
ATOM     25  H   LIG d   1       4.757   2.196  -3.221  0.00  0.00     0.027 H 
ATOM     26  H   LIG d   1       2.491   2.279  -4.265  0.00  0.00     0.031 H 
ATOM     27  H   LIG d   1       1.920   0.994  -3.148  0.00  0.00     0.031 H 
ENDROOT
BRANCH  16  28
ATOM     28  C   LIG d   1       5.672  -3.521  -6.628  0.00  0.00     0.013 C 
ATOM     29  H   LIG d   1       4.697  -3.197  -6.235  0.00  0.00     0.043 H 
ATOM     30  H   LIG d   1       5.728  -3.293  -7.703  0.00  0.00     0.043 H 
BRANCH  28  31
ATOM     31  N   LIG d   1       5.826  -4.968  -6.425  0.00  0.00    -0.292 N 
ATOM     32  C   LIG d   1       6.224  -5.635  -7.673  0.00  0.00     0.039 C 
ATOM     33  C   LIG d   1       6.451  -7.124  -7.402  0.00  0.00    -0.018 C 
ATOM     34  H   LIG d   1       5.429  -5.514  -8.423  0.00  0.00     0.048 H 
ATOM     35  H   LIG d   1       7.155  -5.183  -8.048  0.00  0.00     0.048 H 
ATOM     36  N   LIG d   1       5.218  -7.714  -6.862  0.00  0.00     0.240 N 
ATOM     37  H   LIG d   1       7.265  -7.245  -6.671  0.00  0.00     0.083 H 
ATOM     38  H   LIG d   1       6.721  -7.631  -8.339  0.00  0.00     0.083 H 
ATOM     39  C   LIG d   1       4.820  -7.048  -5.615  0.00  0.00    -0.018 C 
ATOM     40  H   LIG d   1       4.417  -7.561  -7.601  0.00  0.00     0.204 HD
ATOM     41  C   LIG d   1       4.593  -5.558  -5.887  0.00  0.00     0.039 C 
ATOM     42  H   LIG d   1       5.614  -7.167  -4.864  0.00  0.00     0.083 H 
ATOM     43  H   LIG d   1       3.889  -7.498  -5.239  0.00  0.00     0.083 H 
ATOM     44  H   LIG d   1       4.322  -5.051  -4.949  0.00  0.00     0.048 H 
ATOM     45  H   LIG d   1       3.779  -5.437  -6.616  0.00  0.00     0.048 H 
BRANCH  36  46
ATOM     46  C   LIG d   1       5.372  -9.161  -6.661  0.00  0.00    -0.006 C 
ATOM     47  H   LIG d   1       4.485  -9.681  -7.051  0.00  0.00     0.087 H 
ATOM     48  H   LIG d   1       6.268  -9.512  -7.195  0.00  0.00     0.087 H 
BRANCH  46  49
ATOM     49  C   LIG d   1       5.519  -9.451  -5.189  0.00  0.00     0.001 A 
ATOM     50  C   LIG d   1       6.729  -9.225  -4.560  0.00  0.00    -0.008 A 
ATOM     51  C   LIG d   1       6.866  -9.491  -3.207  0.00  0.00     0.167 A 
ATOM     52  H   LIG d   1       7.566  -8.841  -5.121  0.00  0.00     0.066 H 
ATOM     53  C   LIG d   1       5.781  -9.981  -2.484  0.00  0.00     0.166 A 
ATOM     54  O   LIG d   1       7.930  -9.360  -2.362  0.00  0.00    -0.453 OA
ATOM     55  C   LIG d   1       4.573 -10.210  -3.123  0.00  0.00    -0.016 A 
ATOM     56  O   LIG d   1       6.168 -10.165  -1.187  0.00  0.00    -0.453 OA
ATOM     57  C   LIG d   1       4.444  -9.942  -4.472  0.00  0.00    -0.050 A 
ATOM     58  H   LIG d   1       3.731 -10.594  -2.565  0.00  0.00     0.066 H 
ATOM     59  H   LIG d   1       3.500 -10.116  -4.968  0.00  0.00     0.062 H 
ATOM     60  C   LIG d   1       7.607 -10.162  -1.209  0.00  0.00     0.233 C 
ATOM     61  H   LIG d   1       8.025 -11.171  -1.338  0.00  0.00     0.117 H 
ATOM     62  H   LIG d   1       8.037  -9.699  -0.309  0.00  0.00     0.117 H 
ENDBRANCH  46  49
ENDBRANCH  36  46
ENDBRANCH  28  31
ENDBRANCH  16  28
BRANCH   1  63
ATOM     63  C   LIG d   1       2.780   0.260  -6.015  0.00  0.00    -0.043 C 
ATOM     64  H   LIG d   1       2.973  -0.742  -6.425  0.00  0.00     0.027 H 
ATOM     65  H   LIG d   1       3.268   1.016  -6.650  0.00  0.00     0.027 H 
ATOM     66  H   LIG d   1       1.696   0.445  -5.991  0.00  0.00     0.027 H 
ENDBRANCH   1  63
BRANCH   9  67
ATOM     67  C   LIG d   1       4.668  -1.911  -2.293  0.00  0.00    -0.056 C 
ATOM     68  H   LIG d   1       5.575  -2.229  -1.758  0.00  0.00     0.024 H 
ATOM     69  H   LIG d   1       4.446  -2.627  -3.098  0.00  0.00     0.024 H 
ATOM     70  H   LIG d   1       3.822  -1.874  -1.592  0.00  0.00     0.024 H 
ENDBRANCH   9  67
TORSDOF 6
ENDMDL
MODEL 7
REMARK VINA RESULT:      -6.7      2.707      9.605
REMARK  6 active torsions:
REMARK  status: ('A' for Active; 'I' for Inactive)
REMARK    1  A    between atoms: C_1  and  C_2 
REMARK    2  A    between atoms: C_10  and  C_14 
REMARK    3  A    between atoms: C_18  and  C_20 
REMARK    4  A    between atoms: C_20  and  N_21 
REMARK    5  A    between atoms: N_24  and  C_27 
REMARK    6  A    between atoms: C_27  and  C_28 
ROOT
ATOM      1  C   LIG d   1      10.180   8.161  -1.671  0.00  0.00    -0.073 C 
ATOM      2  C   LIG d   1      10.355   8.269  -2.954  0.00  0.00    -0.064 C 
ATOM      3  C   LIG d   1      10.611   7.020  -3.772  0.00  0.00    -0.024 C 
ATOM      4  C   LIG d   1       9.585   6.923  -4.905  0.00  0.00     0.014 C 
ATOM      5  H   LIG d   1       8.639   6.577  -4.460  0.00  0.00     0.035 H 
ATOM      6  C   LIG d   1       9.455   8.257  -5.659  0.00  0.00     0.108 C 
ATOM      7  H   LIG d   1       8.578   8.311  -6.320  0.00  0.00     0.074 H 
ATOM      8  C   LIG d   1       9.233   9.458  -4.776  0.00  0.00    -0.006 C 
ATOM      9  C   LIG d   1      10.320   9.570  -3.705  0.00  0.00    -0.007 C 
ATOM     10  C   LIG d   1      10.076  10.774  -2.817  0.00  0.00    -0.043 C 
ATOM     11  C   LIG d   1       9.186  10.416  -1.629  0.00  0.00    -0.049 C 
ATOM     12  C   LIG d   1       9.903   9.350  -0.792  0.00  0.00    -0.032 C 
ATOM     13  O   LIG d   1      10.674   8.325  -6.449  0.00  0.00    -0.461 OA
ATOM     14  C   LIG d   1      10.893   7.085  -6.942  0.00  0.00     0.312 C 
ATOM     15  O   LIG d   1      11.500   6.831  -7.956  0.00  0.00    -0.251 OA
ATOM     16  C   LIG d   1      10.255   6.062  -6.019  0.00  0.00     0.075 C 
ATOM     17  H   LIG d   1       9.555   5.408  -6.558  0.00  0.00     0.043 H 
ATOM     18  H   LIG d   1      11.623   7.064  -4.201  0.00  0.00     0.031 H 
ATOM     19  H   LIG d   1      10.526   6.134  -3.125  0.00  0.00     0.031 H 
ATOM     20  H   LIG d   1       9.248  10.372  -5.387  0.00  0.00     0.031 H 
ATOM     21  H   LIG d   1       8.256   9.369  -4.275  0.00  0.00     0.031 H 
ATOM     22  H   LIG d   1      11.038  11.148  -2.435  0.00  0.00     0.027 H 
ATOM     23  H   LIG d   1       9.582  11.565  -3.399  0.00  0.00     0.027 H 
ATOM     24  H   LIG d   1       9.007  11.315  -1.020  0.00  0.00     0.027 H 
ATOM     25  H   LIG d   1       8.225  10.024  -1.995  0.00  0.00     0.027 H 
ATOM     26  H   LIG d   1       9.267   9.043   0.051  0.00  0.00     0.031 H 
ATOM     27  H   LIG d   1      10.853   9.751  -0.407  0.00  0.00     0.031 H 
ENDROOT
BRANCH  16  28
ATOM     28  C   LIG d   1      11.321   5.144  -5.419  0.00  0.00     0.013 C 
ATOM     29  H   LIG d   1      12.252   5.237  -5.996  0.00  0.00     0.043 H 
ATOM     30  H   LIG d   1      11.507   5.431  -4.374  0.00  0.00     0.043 H 
BRANCH  28  31
ATOM     31  N   LIG d   1      10.852   3.752  -5.468  0.00  0.00    -0.292 N 
ATOM     32  C   LIG d   1       9.546   3.660  -6.136  0.00  0.00     0.039 C 
ATOM     33  C   LIG d   1       9.131   2.190  -6.238  0.00  0.00    -0.018 C 
ATOM     34  H   LIG d   1       8.796   4.214  -5.553  0.00  0.00     0.048 H 
ATOM     35  H   LIG d   1       9.620   4.092  -7.145  0.00  0.00     0.048 H 
ATOM     36  N   LIG d   1       9.074   1.606  -4.891  0.00  0.00     0.240 N 
ATOM     37  H   LIG d   1       9.867   1.641  -6.844  0.00  0.00     0.083 H 
ATOM     38  H   LIG d   1       8.141   2.120  -6.711  0.00  0.00     0.083 H 
ATOM     39  C   LIG d   1      10.379   1.698  -4.223  0.00  0.00    -0.018 C 
ATOM     40  H   LIG d   1       8.348   2.185  -4.300  0.00  0.00     0.204 HD
ATOM     41  C   LIG d   1      10.794   3.168  -4.121  0.00  0.00     0.039 C 
ATOM     42  H   LIG d   1      11.130   1.144  -4.806  0.00  0.00     0.083 H 
ATOM     43  H   LIG d   1      10.307   1.266  -3.214  0.00  0.00     0.083 H 
ATOM     44  H   LIG d   1      11.785   3.238  -3.648  0.00  0.00     0.048 H 
ATOM     45  H   LIG d   1      10.059   3.716  -3.515  0.00  0.00     0.048 H 
BRANCH  36  46
ATOM     46  C   LIG d   1       8.604   0.215  -4.940  0.00  0.00    -0.006 C 
ATOM     47  H   LIG d   1       8.395  -0.064  -5.984  0.00  0.00     0.087 H 
ATOM     48  H   LIG d   1       9.382  -0.449  -4.533  0.00  0.00     0.087 H 
BRANCH  46  49
ATOM     49  C   LIG d   1       7.347   0.079  -4.121  0.00  0.00     0.001 A 
ATOM     50  C   LIG d   1       6.739  -1.156  -3.991  0.00  0.00    -0.008 A 
ATOM     51  C   LIG d   1       5.583  -1.283  -3.238  0.00  0.00     0.167 A 
ATOM     52  H   LIG d   1       7.164  -2.020  -4.477  0.00  0.00     0.066 H 
ATOM     53  C   LIG d   1       5.040  -0.166  -2.607  0.00  0.00     0.166 A 
ATOM     54  O   LIG d   1       4.800  -2.365  -2.957  0.00  0.00    -0.453 OA
ATOM     55  C   LIG d   1       5.653   1.070  -2.746  0.00  0.00    -0.016 A 
ATOM     56  O   LIG d   1       3.913  -0.547  -1.938  0.00  0.00    -0.453 OA
ATOM     57  C   LIG d   1       6.806   1.189  -3.499  0.00  0.00    -0.050 A 
ATOM     58  H   LIG d   1       5.232   1.938  -2.261  0.00  0.00     0.066 H 
ATOM     59  H   LIG d   1       7.285   2.151  -3.602  0.00  0.00     0.062 H 
ATOM     60  C   LIG d   1       3.548  -1.825  -2.492  0.00  0.00     0.233 C 
ATOM     61  H   LIG d   1       2.854  -1.729  -3.339  0.00  0.00     0.117 H 
ATOM     62  H   LIG d   1       3.116  -2.498  -1.738  0.00  0.00     0.117 H 
ENDBRANCH  46  49
ENDBRANCH  36  46
ENDBRANCH  28  31
ENDBRANCH  16  28
BRANCH   1  63
ATOM     63  C   LIG d   1      10.256   6.795  -1.041  0.00  0.00    -0.043 C 
ATOM     64  H   LIG d   1      10.363   6.900   0.049  0.00  0.00     0.027 H 
ATOM     65  H   LIG d   1      11.125   6.253  -1.444  0.00  0.00     0.027 H 
ATOM     66  H   LIG d   1       9.337   6.235  -1.267  0.00  0.00     0.027 H 
ENDBRANCH   1  63
BRANCH   9  67
ATOM     67  C   LIG d   1      11.662   9.756  -4.416  0.00  0.00    -0.056 C 
ATOM     68  H   LIG d   1      12.425   9.136  -3.923  0.00  0.00     0.024 H 
ATOM     69  H   LIG d   1      11.959  10.813  -4.365  0.00  0.00     0.024 H 
ATOM     70  H   LIG d   1      11.565   9.452  -5.468  0.00  0.00     0.024 H 
ENDBRANCH   9  67
TORSDOF 6
ENDMDL
MODEL 8
REMARK VINA RESULT:      -6.6      2.776      9.832
REMARK  6 active torsions:
REMARK  status: ('A' for Active; 'I' for Inactive)
REMARK    1  A    between atoms: C_1  and  C_2 
REMARK    2  A    between atoms: C_10  and  C_14 
REMARK    3  A    between atoms: C_18  and  C_20 
REMARK    4  A    between atoms: C_20  and  N_21 
REMARK    5  A    between atoms: N_24  and  C_27 
REMARK    6  A    between atoms: C_27  and  C_28 
ROOT
ATOM      1  C   LIG d   1      11.263   6.844   0.568  0.00  0.00    -0.073 C 
ATOM      2  C   LIG d   1      11.183   6.877  -0.727  0.00  0.00    -0.064 C 
ATOM      3  C   LIG d   1      10.822   5.611  -1.477  0.00  0.00    -0.024 C 
ATOM      4  C   LIG d   1       9.603   5.867  -2.370  0.00  0.00     0.014 C 
ATOM      5  H   LIG d   1       8.717   5.872  -1.718  0.00  0.00     0.035 H 
ATOM      6  C   LIG d   1       9.770   7.159  -3.187  0.00  0.00     0.108 C 
ATOM      7  H   LIG d   1       8.841   7.508  -3.661  0.00  0.00     0.074 H 
ATOM      8  C   LIG d   1      10.160   8.368  -2.377  0.00  0.00    -0.006 C 
ATOM      9  C   LIG d   1      11.425   8.106  -1.559  0.00  0.00    -0.007 C 
ATOM     10  C   LIG d   1      11.798   9.325  -0.739  0.00  0.00    -0.043 C 
ATOM     11  C   LIG d   1      11.118   9.304   0.628  0.00  0.00    -0.049 C 
ATOM     12  C   LIG d   1      11.599   8.061   1.387  0.00  0.00    -0.032 C 
ATOM     13  O   LIG d   1      10.740   6.797  -4.209  0.00  0.00    -0.461 OA
ATOM     14  C   LIG d   1      10.417   5.554  -4.634  0.00  0.00     0.312 C 
ATOM     15  O   LIG d   1      10.669   5.100  -5.725  0.00  0.00    -0.251 OA
ATOM     16  C   LIG d   1       9.689   4.821  -3.523  0.00  0.00     0.075 C 
ATOM     17  H   LIG d   1       8.711   4.445  -3.856  0.00  0.00     0.043 H 
ATOM     18  H   LIG d   1      11.672   5.300  -2.103  0.00  0.00     0.031 H 
ATOM     19  H   LIG d   1      10.586   4.813  -0.757  0.00  0.00     0.031 H 
ATOM     20  H   LIG d   1      10.348   9.217  -3.051  0.00  0.00     0.031 H 
ATOM     21  H   LIG d   1       9.342   8.625  -1.685  0.00  0.00     0.031 H 
ATOM     22  H   LIG d   1      12.888   9.346  -0.590  0.00  0.00     0.027 H 
ATOM     23  H   LIG d   1      11.484  10.234  -1.272  0.00  0.00     0.027 H 
ATOM     24  H   LIG d   1      11.388  10.213   1.186  0.00  0.00     0.027 H 
ATOM     25  H   LIG d   1      10.027   9.265   0.495  0.00  0.00     0.027 H 
ATOM     26  H   LIG d   1      11.095   7.998   2.362  0.00  0.00     0.031 H 
ATOM     27  H   LIG d   1      12.688   8.112   1.540  0.00  0.00     0.031 H 
ENDROOT
BRANCH  16  28
ATOM     28  C   LIG d   1      10.488   3.594  -3.077  0.00  0.00     0.013 C 
ATOM     29  H   LIG d   1      11.496   3.636  -3.513  0.00  0.00     0.043 H 
ATOM     30  H   LIG d   1      10.562   3.584  -1.980  0.00  0.00     0.043 H 
BRANCH  28  31
ATOM     31  N   LIG d   1       9.807   2.374  -3.533  0.00  0.00    -0.292 N 
ATOM     32  C   LIG d   1      10.477   1.807  -4.712  0.00  0.00     0.039 C 
ATOM     33  C   LIG d   1       9.788   0.499  -5.106  0.00  0.00    -0.018 C 
ATOM     34  H   LIG d   1      10.417   2.521  -5.546  0.00  0.00     0.048 H 
ATOM     35  H   LIG d   1      11.533   1.610  -4.473  0.00  0.00     0.048 H 
ATOM     36  N   LIG d   1       8.369   0.760  -5.384  0.00  0.00     0.240 N 
ATOM     37  H   LIG d   1       9.872  -0.224  -4.281  0.00  0.00     0.083 H 
ATOM     38  H   LIG d   1      10.268   0.087  -6.006  0.00  0.00     0.083 H 
ATOM     39  C   LIG d   1       7.699   1.327  -4.206  0.00  0.00    -0.018 C 
ATOM     40  H   LIG d   1       8.313   1.500  -6.197  0.00  0.00     0.204 HD
ATOM     41  C   LIG d   1       8.388   2.635  -3.812  0.00  0.00     0.039 C 
ATOM     42  H   LIG d   1       7.760   0.614  -3.371  0.00  0.00     0.083 H 
ATOM     43  H   LIG d   1       6.643   1.525  -4.443  0.00  0.00     0.083 H 
ATOM     44  H   LIG d   1       7.907   3.048  -2.912  0.00  0.00     0.048 H 
ATOM     45  H   LIG d   1       8.303   3.359  -4.636  0.00  0.00     0.048 H 
BRANCH  36  46
ATOM     46  C   LIG d   1       7.690  -0.460  -5.841  0.00  0.00    -0.006 C 
ATOM     47  H   LIG d   1       8.385  -1.062  -6.444  0.00  0.00     0.087 H 
ATOM     48  H   LIG d   1       7.360  -1.044  -4.969  0.00  0.00     0.087 H 
BRANCH  46  49
ATOM     49  C   LIG d   1       6.492  -0.086  -6.675  0.00  0.00     0.001 A 
ATOM     50  C   LIG d   1       6.654   0.699  -7.802  0.00  0.00    -0.008 A 
ATOM     51  C   LIG d   1       5.554   1.044  -8.570  0.00  0.00     0.167 A 
ATOM     52  H   LIG d   1       7.638   1.043  -8.083  0.00  0.00     0.066 H 
ATOM     53  C   LIG d   1       4.287   0.594  -8.208  0.00  0.00     0.166 A 
ATOM     54  O   LIG d   1       5.443   1.793  -9.706  0.00  0.00    -0.453 OA
ATOM     55  C   LIG d   1       4.131  -0.188  -7.074  0.00  0.00    -0.016 A 
ATOM     56  O   LIG d   1       3.380   1.068  -9.112  0.00  0.00    -0.453 OA
ATOM     57  C   LIG d   1       5.233  -0.528  -6.313  0.00  0.00    -0.050 A 
ATOM     58  H   LIG d   1       3.149  -0.536  -6.788  0.00  0.00     0.066 H 
ATOM     59  H   LIG d   1       5.111  -1.142  -5.432  0.00  0.00     0.062 H 
ATOM     60  C   LIG d   1       4.048   2.140  -9.803  0.00  0.00     0.233 C 
ATOM     61  H   LIG d   1       3.879   3.114  -9.322  0.00  0.00     0.117 H 
ATOM     62  H   LIG d   1       3.757   2.199 -10.862  0.00  0.00     0.117 H 
ENDBRANCH  46  49
ENDBRANCH  36  46
ENDBRANCH  28  31
ENDBRANCH  16  28
BRANCH   1  63
ATOM     63  C   LIG d   1      11.011   5.539   1.279  0.00  0.00    -0.043 C 
ATOM     64  H   LIG d   1      11.916   5.240   1.827  0.00  0.00     0.027 H 
ATOM     65  H   LIG d   1      10.756   4.764   0.541  0.00  0.00     0.027 H 
ATOM     66  H   LIG d   1      10.177   5.662   1.986  0.00  0.00     0.027 H 
ENDBRANCH   1  63
BRANCH   9  67
ATOM     67  C   LIG d   1      12.565   7.812  -2.536  0.00  0.00    -0.056 C 
ATOM     68  H   LIG d   1      12.414   6.820  -2.988  0.00  0.00     0.024 H 
ATOM     69  H   LIG d   1      13.523   7.828  -1.996  0.00  0.00     0.024 H 
ATOM     70  H   LIG d   1      12.576   8.577  -3.326  0.00  0.00     0.024 H 
ENDBRANCH   9  67
TORSDOF 6
ENDMDL
MODEL 9
REMARK VINA RESULT:      -6.6      7.391     10.190
REMARK  6 active torsions:
REMARK  status: ('A' for Active; 'I' for Inactive)
REMARK    1  A    between atoms: C_1  and  C_2 
REMARK    2  A    between atoms: C_10  and  C_14 
REMARK    3  A    between atoms: C_18  and  C_20 
REMARK    4  A    between atoms: C_20  and  N_21 
REMARK    5  A    between atoms: N_24  and  C_27 
REMARK    6  A    between atoms: C_27  and  C_28 
ROOT
ATOM      1  C   LIG d   1       5.252  -9.304  -4.548  0.00  0.00    -0.073 C 
ATOM      2  C   LIG d   1       6.406  -9.518  -3.992  0.00  0.00    -0.064 C 
ATOM      3  C   LIG d   1       7.519  -8.510  -4.187  0.00  0.00    -0.024 C 
ATOM      4  C   LIG d   1       8.043  -8.045  -2.825  0.00  0.00     0.014 C 
ATOM      5  H   LIG d   1       7.311  -7.331  -2.419  0.00  0.00     0.035 H 
ATOM      6  C   LIG d   1       8.315  -9.239  -1.893  0.00  0.00     0.108 C 
ATOM      7  H   LIG d   1       8.467  -8.956  -0.841  0.00  0.00     0.074 H 
ATOM      8  C   LIG d   1       7.173 -10.215  -1.774  0.00  0.00    -0.006 C 
ATOM      9  C   LIG d   1       6.726 -10.720  -3.147  0.00  0.00    -0.007 C 
ATOM     10  C   LIG d   1       5.570 -11.690  -3.012  0.00  0.00    -0.043 C 
ATOM     11  C   LIG d   1       4.228 -10.960  -3.037  0.00  0.00    -0.049 C 
ATOM     12  C   LIG d   1       4.091 -10.247  -4.388  0.00  0.00    -0.032 C 
ATOM     13  O   LIG d   1       9.535  -9.822  -2.429  0.00  0.00    -0.461 OA
ATOM     14  C   LIG d   1      10.350  -8.795  -2.759  0.00  0.00     0.312 C 
ATOM     15  O   LIG d   1      11.557  -8.844  -2.803  0.00  0.00    -0.251 OA
ATOM     16  C   LIG d   1       9.508  -7.570  -3.067  0.00  0.00     0.075 C 
ATOM     17  H   LIG d   1       9.804  -6.708  -2.453  0.00  0.00     0.043 H 
ATOM     18  H   LIG d   1       8.340  -8.975  -4.753  0.00  0.00     0.031 H 
ATOM     19  H   LIG d   1       7.135  -7.643  -4.745  0.00  0.00     0.031 H 
ATOM     20  H   LIG d   1       7.488 -11.078  -1.169  0.00  0.00     0.031 H 
ATOM     21  H   LIG d   1       6.318  -9.720  -1.288  0.00  0.00     0.031 H 
ATOM     22  H   LIG d   1       5.595 -12.407  -3.847  0.00  0.00     0.027 H 
ATOM     23  H   LIG d   1       5.655 -12.233  -2.060  0.00  0.00     0.027 H 
ATOM     24  H   LIG d   1       3.412 -11.687  -2.912  0.00  0.00     0.027 H 
ATOM     25  H   LIG d   1       4.194 -10.226  -2.219  0.00  0.00     0.027 H 
ATOM     26  H   LIG d   1       3.150  -9.679  -4.419  0.00  0.00     0.031 H 
ATOM     27  H   LIG d   1       4.102 -10.984  -5.205  0.00  0.00     0.031 H 
ENDROOT
BRANCH  16  28
ATOM     28  C   LIG d   1       9.699  -7.141  -4.523  0.00  0.00     0.013 C 
ATOM     29  H   LIG d   1      10.719  -7.390  -4.848  0.00  0.00     0.043 H 
ATOM     30  H   LIG d   1       8.973  -7.668  -5.160  0.00  0.00     0.043 H 
BRANCH  28  31
ATOM     31  N   LIG d   1       9.488  -5.691  -4.638  0.00  0.00    -0.292 N 
ATOM     32  C   LIG d   1       9.465  -5.056  -3.313  0.00  0.00     0.039 C 
ATOM     33  C   LIG d   1       9.324  -3.541  -3.479  0.00  0.00    -0.018 C 
ATOM     34  H   LIG d   1       8.613  -5.444  -2.735  0.00  0.00     0.048 H 
ATOM     35  H   LIG d   1      10.402  -5.283  -2.782  0.00  0.00     0.048 H 
ATOM     36  N   LIG d   1       8.093  -3.245  -4.224  0.00  0.00     0.240 N 
ATOM     37  H   LIG d   1      10.190  -3.150  -4.033  0.00  0.00     0.083 H 
ATOM     38  H   LIG d   1       9.277  -3.066  -2.488  0.00  0.00     0.083 H 
ATOM     39  C   LIG d   1       8.115  -3.880  -5.548  0.00  0.00    -0.018 C 
ATOM     40  H   LIG d   1       7.246  -3.665  -3.660  0.00  0.00     0.204 HD
ATOM     41  C   LIG d   1       8.257  -5.395  -5.382  0.00  0.00     0.039 C 
ATOM     42  H   LIG d   1       8.968  -3.493  -6.126  0.00  0.00     0.083 H 
ATOM     43  H   LIG d   1       7.179  -3.655  -6.080  0.00  0.00     0.083 H 
ATOM     44  H   LIG d   1       8.303  -5.871  -6.373  0.00  0.00     0.048 H 
ATOM     45  H   LIG d   1       7.390  -5.787  -4.829  0.00  0.00     0.048 H 
BRANCH  36  46
ATOM     46  C   LIG d   1       7.882  -1.796  -4.337  0.00  0.00    -0.006 C 
ATOM     47  H   LIG d   1       8.478  -1.278  -3.571  0.00  0.00     0.087 H 
ATOM     48  H   LIG d   1       8.196  -1.457  -5.336  0.00  0.00     0.087 H 
BRANCH  46  49
ATOM     49  C   LIG d   1       6.422  -1.482  -4.137  0.00  0.00     0.001 A 
ATOM     50  C   LIG d   1       5.747  -0.718  -5.070  0.00  0.00    -0.008 A 
ATOM     51  C   LIG d   1       4.404  -0.429  -4.887  0.00  0.00     0.167 A 
ATOM     52  H   LIG d   1       6.265  -0.347  -5.940  0.00  0.00     0.066 H 
ATOM     53  C   LIG d   1       3.737  -0.914  -3.765  0.00  0.00     0.166 A 
ATOM     54  O   LIG d   1       3.522   0.290  -5.641  0.00  0.00    -0.453 OA
ATOM     55  C   LIG d   1       4.422  -1.676  -2.831  0.00  0.00    -0.016 A 
ATOM     56  O   LIG d   1       2.439  -0.493  -3.812  0.00  0.00    -0.453 OA
ATOM     57  C   LIG d   1       5.761  -1.960  -3.020  0.00  0.00    -0.050 A 
ATOM     58  H   LIG d   1       3.908  -2.050  -1.958  0.00  0.00     0.066 H 
ATOM     59  H   LIG d   1       6.293  -2.558  -2.294  0.00  0.00     0.062 H 
ATOM     60  C   LIG d   1       2.418   0.586  -4.765  0.00  0.00     0.233 C 
ATOM     61  H   LIG d   1       2.580   1.565  -4.290  0.00  0.00     0.117 H 
ATOM     62  H   LIG d   1       1.485   0.611  -5.346  0.00  0.00     0.117 H 
ENDBRANCH  46  49
ENDBRANCH  36  46
ENDBRANCH  28  31
ENDBRANCH  16  28
BRANCH   1  63
ATOM     63  C   LIG d   1       5.069  -8.064  -5.385  0.00  0.00    -0.043 C 
ATOM     64  H   LIG d   1       5.936  -7.938  -6.049  0.00  0.00     0.027 H 
ATOM     65  H   LIG d   1       4.981  -7.186  -4.726  0.00  0.00     0.027 H 
ATOM     66  H   LIG d   1       4.154  -8.161  -5.989  0.00  0.00     0.027 H 
ENDBRANCH   1  63
BRANCH   9  67
ATOM     67  C   LIG d   1       7.906 -11.457  -3.783  0.00  0.00    -0.056 C 
ATOM     68  H   LIG d   1       7.698 -11.630  -4.849  0.00  0.00     0.024 H 
ATOM     69  H   LIG d   1       8.050 -12.422  -3.276  0.00  0.00     0.024 H 
ATOM     70  H   LIG d   1       8.817 -10.850  -3.680  0.00  0.00     0.024 H 
ENDBRANCH   9  67
TORSDOF 6
ENDMDL
MODEL 10
REMARK VINA RESULT:      -6.6      7.433     14.753
REMARK  6 active torsions:
REMARK  status: ('A' for Active; 'I' for Inactive)
REMARK    1  A    between atoms: C_1  and  C_2 
REMARK    2  A    between atoms: C_10  and  C_14 
REMARK    3  A    between atoms: C_18  and  C_20 
REMARK    4  A    between atoms: C_20  and  N_21 
REMARK    5  A    between atoms: N_24  and  C_27 
REMARK    6  A    between atoms: C_27  and  C_28 
ROOT
ATOM      1  C   LIG d   1       4.536  -1.323  -2.536  0.00  0.00    -0.073 C 
ATOM      2  C   LIG d   1       5.247  -1.617  -3.582  0.00  0.00    -0.064 C 
ATOM      3  C   LIG d   1       5.042  -2.954  -4.264  0.00  0.00    -0.024 C 
ATOM      4  C   LIG d   1       4.725  -2.737  -5.747  0.00  0.00     0.014 C 
ATOM      5  H   LIG d   1       3.675  -2.412  -5.812  0.00  0.00     0.035 H 
ATOM      6  C   LIG d   1       5.713  -1.750  -6.392  0.00  0.00     0.108 C 
ATOM      7  H   LIG d   1       5.395  -1.384  -7.379  0.00  0.00     0.074 H 
ATOM      8  C   LIG d   1       5.887  -0.455  -5.640  0.00  0.00    -0.006 C 
ATOM      9  C   LIG d   1       6.282  -0.706  -4.184  0.00  0.00    -0.007 C 
ATOM     10  C   LIG d   1       6.441   0.603  -3.437  0.00  0.00    -0.043 C 
ATOM     11  C   LIG d   1       5.119   1.055  -2.820  0.00  0.00    -0.049 C 
ATOM     12  C   LIG d   1       4.668  -0.011  -1.813  0.00  0.00    -0.032 C 
ATOM     13  O   LIG d   1       6.937  -2.525  -6.523  0.00  0.00    -0.461 OA
ATOM     14  C   LIG d   1       6.577  -3.762  -6.933  0.00  0.00     0.312 C 
ATOM     15  O   LIG d   1       7.273  -4.521  -7.565  0.00  0.00    -0.251 OA
ATOM     16  C   LIG d   1       5.158  -4.046  -6.475  0.00  0.00     0.075 C 
ATOM     17  H   LIG d   1       4.506  -4.324  -7.315  0.00  0.00     0.043 H 
ATOM     18  H   LIG d   1       5.958  -3.556  -4.172  0.00  0.00     0.031 H 
ATOM     19  H   LIG d   1       4.205  -3.484  -3.786  0.00  0.00     0.031 H 
ATOM     20  H   LIG d   1       6.676   0.144  -6.118  0.00  0.00     0.031 H 
ATOM     21  H   LIG d   1       4.941   0.107  -5.655  0.00  0.00     0.031 H 
ATOM     22  H   LIG d   1       7.180   0.477  -2.631  0.00  0.00     0.027 H 
ATOM     23  H   LIG d   1       6.787   1.381  -4.132  0.00  0.00     0.027 H 
ATOM     24  H   LIG d   1       5.263   2.018  -2.309  0.00  0.00     0.027 H 
ATOM     25  H   LIG d   1       4.364   1.168  -3.612  0.00  0.00     0.027 H 
ATOM     26  H   LIG d   1       3.696   0.269  -1.381  0.00  0.00     0.031 H 
ATOM     27  H   LIG d   1       5.412  -0.107  -1.009  0.00  0.00     0.031 H 
ENDROOT
BRANCH  16  28
ATOM     28  C   LIG d   1       5.134  -5.231  -5.507  0.00  0.00     0.013 C 
ATOM     29  H   LIG d   1       5.886  -5.075  -4.720  0.00  0.00     0.043 H 
ATOM     30  H   LIG d   1       4.137  -5.312  -5.050  0.00  0.00     0.043 H 
BRANCH  28  31
ATOM     31  N   LIG d   1       5.440  -6.467  -6.239  0.00  0.00    -0.292 N 
ATOM     32  C   LIG d   1       4.332  -6.841  -7.128  0.00  0.00     0.039 C 
ATOM     33  C   LIG d   1       4.721  -8.086  -7.929  0.00  0.00    -0.018 C 
ATOM     34  H   LIG d   1       3.435  -7.055  -6.527  0.00  0.00     0.048 H 
ATOM     35  H   LIG d   1       4.121  -6.010  -7.819  0.00  0.00     0.048 H 
ATOM     36  N   LIG d   1       5.041  -9.180  -7.002  0.00  0.00     0.240 N 
ATOM     37  H   LIG d   1       5.601  -7.863  -8.550  0.00  0.00     0.083 H 
ATOM     38  H   LIG d   1       3.882  -8.385  -8.574  0.00  0.00     0.083 H 
ATOM     39  C   LIG d   1       6.149  -8.808  -6.113  0.00  0.00    -0.018 C 
ATOM     40  H   LIG d   1       4.153  -9.368  -6.380  0.00  0.00     0.204 HD
ATOM     41  C   LIG d   1       5.759  -7.562  -5.312  0.00  0.00     0.039 C 
ATOM     42  H   LIG d   1       7.045  -8.593  -6.712  0.00  0.00     0.083 H 
ATOM     43  H   LIG d   1       6.360  -9.637  -5.421  0.00  0.00     0.083 H 
ATOM     44  H   LIG d   1       6.598  -7.264  -4.666  0.00  0.00     0.048 H 
ATOM     45  H   LIG d   1       4.880  -7.785  -4.690  0.00  0.00     0.048 H 
BRANCH  36  46
ATOM     46  C   LIG d   1       5.346 -10.417  -7.734  0.00  0.00    -0.006 C 
ATOM     47  H   LIG d   1       5.437 -10.194  -8.807  0.00  0.00     0.087 H 
ATOM     48  H   LIG d   1       6.294 -10.837  -7.365  0.00  0.00     0.087 H 
BRANCH  46  49
ATOM     49  C   LIG d   1       4.237 -11.415  -7.519  0.00  0.00     0.001 A 
ATOM     50  C   LIG d   1       3.543 -11.917  -8.603  0.00  0.00    -0.008 A 
ATOM     51  C   LIG d   1       2.523 -12.835  -8.408  0.00  0.00     0.167 A 
ATOM     52  H   LIG d   1       3.794 -11.595  -9.602  0.00  0.00     0.066 H 
ATOM     53  C   LIG d   1       2.205 -13.253  -7.118  0.00  0.00     0.166 A 
ATOM     54  O   LIG d   1       1.698 -13.472  -9.289  0.00  0.00    -0.453 OA
ATOM     55  C   LIG d   1       2.902 -12.741  -6.035  0.00  0.00    -0.016 A 
ATOM     56  O   LIG d   1       1.174 -14.146  -7.190  0.00  0.00    -0.453 OA
ATOM     57  C   LIG d   1       3.918 -11.826  -6.238  0.00  0.00    -0.050 A 
ATOM     58  H   LIG d   1       2.655 -13.060  -5.034  0.00  0.00     0.066 H 
ATOM     59  H   LIG d   1       4.464 -11.431  -5.394  0.00  0.00     0.062 H 
ATOM     60  C   LIG d   1       0.600 -13.968  -8.498  0.00  0.00     0.233 C 
ATOM     61  H   LIG d   1      -0.215 -13.229  -8.499  0.00  0.00     0.117 H 
ATOM     62  H   LIG d   1       0.237 -14.914  -8.926  0.00  0.00     0.117 H 
ENDBRANCH  46  49
ENDBRANCH  36  46
ENDBRANCH  28  31
ENDBRANCH  16  28
BRANCH   1  63
ATOM     63  C   LIG d   1       3.543  -2.335  -2.026  0.00  0.00    -0.043 C 
ATOM     64  H   LIG d   1       2.785  -1.828  -1.411  0.00  0.00     0.027 H 
ATOM     65  H   LIG d   1       4.066  -3.088  -1.416  0.00  0.00     0.027 H 
ATOM     66  H   LIG d   1       3.053  -2.830  -2.878  0.00  0.00     0.027 H 
ENDBRANCH   1  63
BRANCH   9  67
ATOM     67  C   LIG d   1       7.628  -1.434  -4.180  0.00  0.00    -0.056 C 
ATOM     68  H   LIG d   1       7.792  -1.905  -5.159  0.00  0.00     0.024 H 
ATOM     69  H   LIG d   1       7.623  -2.206  -3.396  0.00  0.00     0.024 H 
ATOM     70  H   LIG d   1       8.433  -0.713  -3.979  0.00  0.00     0.024 H 
ENDBRANCH   9  67
TORSDOF 6
ENDMDL
