MODEL 1
REMARK VINA RESULT:      -6.7      0.000      0.000
REMARK  8 active torsions:
REMARK  status: ('A' for Active; 'I' for Inactive)
REMARK    1  A    between atoms: C_1  and  C_2 
REMARK    2  A    between atoms: C_2  and  O_3 
REMARK    3  A    between atoms: O_3  and  C_4 
REMARK    4  A    between atoms: C_4  and  C_6 
REMARK    5  A    between atoms: C_6  and  O_7 
REMARK    6  A    between atoms: O_7  and  C_8 
REMARK    7  A    between atoms: C_16  and  C_17 
REMARK    8  A    between atoms: C_21  and  N_23 
ROOT
ATOM      1  C   LIG d   1       7.340   0.039  -4.415  0.00  0.00     0.125 A 
ATOM      2  C   LIG d   1       8.303  -0.507  -5.259  0.00  0.00    -0.019 A 
ATOM      3  C   LIG d   1       9.527   0.087  -5.379  0.00  0.00    -0.044 A 
ATOM      4  C   LIG d   1       9.813   1.243  -4.653  0.00  0.00     0.068 A 
ATOM      5  C   LIG d   1       8.850   1.805  -3.798  0.00  0.00     0.143 A 
ATOM      6  C   LIG d   1       7.608   1.191  -3.692  0.00  0.00     0.023 A 
ATOM      7  O   LIG d   1       9.352   2.911  -3.208  0.00  0.00    -0.451 OA
ATOM      8  C   LIG d   1      10.623   3.160  -3.604  0.00  0.00     0.176 A 
ATOM      9  C   LIG d   1      11.401   4.192  -3.195  0.00  0.00    -0.008 C 
ATOM     10  C   LIG d   1      11.004   2.107  -4.558  0.00  0.00     0.232 A 
ATOM     11  O   LIG d   1      12.068   1.977  -5.139  0.00  0.00    -0.283 OA
ATOM     12  H   LIG d   1       8.082  -1.403  -5.821  0.00  0.00     0.065 H 
ATOM     13  H   LIG d   1      10.273  -0.338  -6.034  0.00  0.00     0.063 H 
ATOM     14  H   LIG d   1       6.852   1.609  -3.044  0.00  0.00     0.069 H 
ATOM     15  H   LIG d   1      12.432   4.249  -3.511  0.00  0.00     0.066 H 
ENDROOT
BRANCH   9  16
ATOM     16  C   LIG d   1      10.842   5.235  -2.323  0.00  0.00    -0.015 A 
ATOM     17  C   LIG d   1      11.185   5.278  -0.968  0.00  0.00     0.023 A 
ATOM     18  C   LIG d   1      10.656   6.258  -0.157  0.00  0.00     0.274 A 
ATOM     19  H   LIG d   1      11.863   4.544  -0.558  0.00  0.00     0.069 H 
ATOM     20  C   LIG d   1       9.787   7.200  -0.680  0.00  0.00     0.016 A 
ATOM     21  C   LIG d   1       9.442   7.165  -2.020  0.00  0.00    -0.055 A 
ATOM     22  H   LIG d   1       9.375   7.966  -0.039  0.00  0.00     0.069 H 
ATOM     23  C   LIG d   1       9.966   6.194  -2.845  0.00  0.00    -0.054 A 
ATOM     24  H   LIG d   1       8.763   7.904  -2.421  0.00  0.00     0.062 H 
ATOM     25  H   LIG d   1       9.699   6.170  -3.892  0.00  0.00     0.062 H 
BRANCH  18  26
ATOM     26  N   LIG d   1      11.018   6.306   1.277  0.00  0.00     0.080 N 
ATOM     27  O   LIG d   1      11.639   7.257   1.718  0.00  0.00     0.041 OA
ATOM     28  O   LIG d   1      10.697   5.393   2.018  0.00  0.00    -0.576 OA
ENDBRANCH  18  26
ENDBRANCH   9  16
BRANCH   1  29
ATOM     29  O   LIG d   1       6.126  -0.558  -4.303  0.00  0.00    -0.481 OA
BRANCH  29  30
ATOM     30  C   LIG d   1       5.980  -1.542  -3.278  0.00  0.00     0.186 C 
ATOM     31  H   LIG d   1       6.661  -1.318  -2.459  0.00  0.00     0.082 H 
ATOM     32  H   LIG d   1       6.211  -2.527  -3.685  0.00  0.00     0.082 H 
BRANCH  30  33
ATOM     33  C   LIG d   1       4.561  -1.530  -2.769  0.00  0.00     0.345 C 
ATOM     34  O   LIG d   1       3.697  -2.118  -3.374  0.00  0.00    -0.247 OA
BRANCH  33  35
ATOM     35  O   LIG d   1       4.257  -0.865  -1.642  0.00  0.00    -0.463 OA
BRANCH  35  36
ATOM     36  C   LIG d   1       4.597   0.546  -1.597  0.00  0.00     0.090 C 
ATOM     37  H   LIG d   1       4.518   0.907  -0.572  0.00  0.00     0.069 H 
ATOM     38  H   LIG d   1       5.619   0.684  -1.953  0.00  0.00     0.069 H 
BRANCH  36  39
ATOM     39  C   LIG d   1       3.636   1.331  -2.490  0.00  0.00    -0.031 C 
ATOM     40  H   LIG d   1       4.188   1.770  -3.321  0.00  0.00     0.026 H 
ATOM     41  H   LIG d   1       2.870   0.659  -2.878  0.00  0.00     0.026 H 
ATOM     42  H   LIG d   1       3.164   2.122  -1.909  0.00  0.00     0.026 H 
ENDBRANCH  36  39
ENDBRANCH  35  36
ENDBRANCH  33  35
ENDBRANCH  30  33
ENDBRANCH  29  30
ENDBRANCH   1  29
TORSDOF 8
ENDMDL
MODEL 2
REMARK VINA RESULT:      -6.5      5.186      8.416
REMARK  8 active torsions:
REMARK  status: ('A' for Active; 'I' for Inactive)
REMARK    1  A    between atoms: C_1  and  C_2 
REMARK    2  A    between atoms: C_2  and  O_3 
REMARK    3  A    between atoms: O_3  and  C_4 
REMARK    4  A    between atoms: C_4  and  C_6 
REMARK    5  A    between atoms: C_6  and  O_7 
REMARK    6  A    between atoms: O_7  and  C_8 
REMARK    7  A    between atoms: C_16  and  C_17 
REMARK    8  A    between atoms: C_21  and  N_23 
ROOT
ATOM      1  C   LIG d   1       3.944  -2.867  -9.693  0.00  0.00     0.125 A 
ATOM      2  C   LIG d   1       3.872  -4.253  -9.573  0.00  0.00    -0.019 A 
ATOM      3  C   LIG d   1       3.991  -4.843  -8.347  0.00  0.00    -0.044 A 
ATOM      4  C   LIG d   1       4.185  -4.055  -7.212  0.00  0.00     0.068 A 
ATOM      5  C   LIG d   1       4.260  -2.657  -7.319  0.00  0.00     0.143 A 
ATOM      6  C   LIG d   1       4.143  -2.073  -8.575  0.00  0.00     0.023 A 
ATOM      7  O   LIG d   1       4.450  -2.114  -6.097  0.00  0.00    -0.451 OA
ATOM      8  C   LIG d   1       4.513  -3.061  -5.131  0.00  0.00     0.176 A 
ATOM      9  C   LIG d   1       4.696  -2.841  -3.805  0.00  0.00    -0.008 C 
ATOM     10  C   LIG d   1       4.348  -4.370  -5.781  0.00  0.00     0.232 A 
ATOM     11  O   LIG d   1       4.346  -5.470  -5.254  0.00  0.00    -0.283 OA
ATOM     12  H   LIG d   1       3.721  -4.862 -10.452  0.00  0.00     0.065 H 
ATOM     13  H   LIG d   1       3.935  -5.917  -8.256  0.00  0.00     0.063 H 
ATOM     14  H   LIG d   1       4.202  -0.999  -8.679  0.00  0.00     0.069 H 
ATOM     15  H   LIG d   1       4.647  -3.665  -3.109  0.00  0.00     0.066 H 
ENDROOT
BRANCH   9  16
ATOM     16  C   LIG d   1       4.963  -1.481  -3.315  0.00  0.00    -0.015 A 
ATOM     17  C   LIG d   1       5.962  -0.702  -3.909  0.00  0.00     0.023 A 
ATOM     18  C   LIG d   1       6.206   0.571  -3.444  0.00  0.00     0.274 A 
ATOM     19  H   LIG d   1       6.541  -1.099  -4.731  0.00  0.00     0.069 H 
ATOM     20  C   LIG d   1       5.465   1.082  -2.392  0.00  0.00     0.016 A 
ATOM     21  C   LIG d   1       4.476   0.318  -1.798  0.00  0.00    -0.055 A 
ATOM     22  H   LIG d   1       5.662   2.081  -2.032  0.00  0.00     0.069 H 
ATOM     23  C   LIG d   1       4.216  -0.956  -2.255  0.00  0.00    -0.054 A 
ATOM     24  H   LIG d   1       3.902   0.724  -0.977  0.00  0.00     0.062 H 
ATOM     25  H   LIG d   1       3.440  -1.549  -1.793  0.00  0.00     0.062 H 
BRANCH  18  26
ATOM     26  N   LIG d   1       7.262   1.397  -4.072  0.00  0.00     0.080 N 
ATOM     27  O   LIG d   1       8.046   2.017  -3.374  0.00  0.00     0.041 OA
ATOM     28  O   LIG d   1       7.347   1.460  -5.285  0.00  0.00    -0.576 OA
ENDBRANCH  18  26
ENDBRANCH   9  16
BRANCH   1  29
ATOM     29  O   LIG d   1       3.825  -2.290 -10.916  0.00  0.00    -0.481 OA
BRANCH  29  30
ATOM     30  C   LIG d   1       3.115  -1.052 -10.981  0.00  0.00     0.186 C 
ATOM     31  H   LIG d   1       2.892  -0.707  -9.972  0.00  0.00     0.082 H 
ATOM     32  H   LIG d   1       2.184  -1.196 -11.531  0.00  0.00     0.082 H 
BRANCH  30  33
ATOM     33  C   LIG d   1       3.961  -0.025 -11.688  0.00  0.00     0.345 C 
ATOM     34  O   LIG d   1       4.598  -0.336 -12.666  0.00  0.00    -0.247 OA
BRANCH  33  35
ATOM     35  O   LIG d   1       4.008   1.237 -11.230  0.00  0.00    -0.463 OA
BRANCH  35  36
ATOM     36  C   LIG d   1       4.612   1.444  -9.926  0.00  0.00     0.090 C 
ATOM     37  H   LIG d   1       4.574   0.515  -9.356  0.00  0.00     0.069 H 
ATOM     38  H   LIG d   1       5.650   1.751 -10.052  0.00  0.00     0.069 H 
BRANCH  36  39
ATOM     39  C   LIG d   1       3.845   2.534  -9.176  0.00  0.00    -0.031 C 
ATOM     40  H   LIG d   1       4.302   3.503  -9.377  0.00  0.00     0.026 H 
ATOM     41  H   LIG d   1       2.808   2.545  -9.511  0.00  0.00     0.026 H 
ATOM     42  H   LIG d   1       3.879   2.332  -8.106  0.00  0.00     0.026 H 
ENDBRANCH  36  39
ENDBRANCH  35  36
ENDBRANCH  33  35
ENDBRANCH  30  33
ENDBRANCH  29  30
ENDBRANCH   1  29
TORSDOF 8
ENDMDL
MODEL 3
REMARK VINA RESULT:      -6.5      2.138      2.891
REMARK  8 active torsions:
REMARK  status: ('A' for Active; 'I' for Inactive)
REMARK    1  A    between atoms: C_1  and  C_2 
REMARK    2  A    between atoms: C_2  and  O_3 
REMARK    3  A    between atoms: O_3  and  C_4 
REMARK    4  A    between atoms: C_4  and  C_6 
REMARK    5  A    between atoms: C_6  and  O_7 
REMARK    6  A    between atoms: O_7  and  C_8 
REMARK    7  A    between atoms: C_16  and  C_17 
REMARK    8  A    between atoms: C_21  and  N_23 
ROOT
ATOM      1  C   LIG d   1       5.450  -0.300  -3.092  0.00  0.00     0.125 A 
ATOM      2  C   LIG d   1       6.138  -1.355  -3.686  0.00  0.00    -0.019 A 
ATOM      3  C   LIG d   1       7.371  -1.147  -4.236  0.00  0.00    -0.044 A 
ATOM      4  C   LIG d   1       7.942   0.126  -4.202  0.00  0.00     0.068 A 
ATOM      5  C   LIG d   1       7.258   1.198  -3.606  0.00  0.00     0.143 A 
ATOM      6  C   LIG d   1       6.002   0.971  -3.057  0.00  0.00     0.023 A 
ATOM      7  O   LIG d   1       8.004   2.321  -3.694  0.00  0.00    -0.451 OA
ATOM      8  C   LIG d   1       9.182   2.095  -4.323  0.00  0.00     0.176 A 
ATOM      9  C   LIG d   1      10.148   3.014  -4.569  0.00  0.00    -0.008 C 
ATOM     10  C   LIG d   1       9.221   0.671  -4.692  0.00  0.00     0.232 A 
ATOM     11  O   LIG d   1      10.113   0.075  -5.271  0.00  0.00    -0.283 OA
ATOM     12  H   LIG d   1       5.696  -2.340  -3.711  0.00  0.00     0.065 H 
ATOM     13  H   LIG d   1       7.903  -1.966  -4.695  0.00  0.00     0.063 H 
ATOM     14  H   LIG d   1       5.458   1.783  -2.598  0.00  0.00     0.069 H 
ATOM     15  H   LIG d   1      11.087   2.707  -5.004  0.00  0.00     0.066 H 
ENDROOT
BRANCH   9  16
ATOM     16  C   LIG d   1       9.917   4.429  -4.243  0.00  0.00    -0.015 A 
ATOM     17  C   LIG d   1       9.925   4.855  -2.911  0.00  0.00     0.023 A 
ATOM     18  C   LIG d   1       9.707   6.182  -2.614  0.00  0.00     0.274 A 
ATOM     19  H   LIG d   1      10.102   4.144  -2.116  0.00  0.00     0.069 H 
ATOM     20  C   LIG d   1       9.481   7.095  -3.630  0.00  0.00     0.016 A 
ATOM     21  C   LIG d   1       9.470   6.682  -4.951  0.00  0.00    -0.055 A 
ATOM     22  H   LIG d   1       9.310   8.134  -3.391  0.00  0.00     0.069 H 
ATOM     23  C   LIG d   1       9.691   5.358  -5.265  0.00  0.00    -0.054 A 
ATOM     24  H   LIG d   1       9.293   7.400  -5.739  0.00  0.00     0.062 H 
ATOM     25  H   LIG d   1       9.687   5.039  -6.297  0.00  0.00     0.062 H 
BRANCH  18  26
ATOM     26  N   LIG d   1       9.717   6.636  -1.205  0.00  0.00     0.080 N 
ATOM     27  O   LIG d   1       9.105   7.639  -0.884  0.00  0.00     0.041 OA
ATOM     28  O   LIG d   1      10.337   6.006  -0.366  0.00  0.00    -0.576 OA
ENDBRANCH  18  26
ENDBRANCH   9  16
BRANCH   1  29
ATOM     29  O   LIG d   1       4.225  -0.516  -2.549  0.00  0.00    -0.481 OA
BRANCH  29  30
ATOM     30  C   LIG d   1       3.229   0.483  -2.779  0.00  0.00     0.186 C 
ATOM     31  H   LIG d   1       3.691   1.469  -2.754  0.00  0.00     0.082 H 
ATOM     32  H   LIG d   1       2.465   0.420  -2.003  0.00  0.00     0.082 H 
BRANCH  30  33
ATOM     33  C   LIG d   1       2.595   0.259  -4.127  0.00  0.00     0.345 C 
ATOM     34  O   LIG d   1       1.668  -0.508  -4.238  0.00  0.00    -0.247 OA
BRANCH  33  35
ATOM     35  O   LIG d   1       3.059   0.912  -5.205  0.00  0.00    -0.463 OA
BRANCH  35  36
ATOM     36  C   LIG d   1       2.964   0.227  -6.481  0.00  0.00     0.090 C 
ATOM     37  H   LIG d   1       2.131  -0.474  -6.457  0.00  0.00     0.069 H 
ATOM     38  H   LIG d   1       2.801   0.958  -7.274  0.00  0.00     0.069 H 
BRANCH  36  39
ATOM     39  C   LIG d   1       4.264  -0.533  -6.750  0.00  0.00    -0.031 C 
ATOM     40  H   LIG d   1       5.018  -0.232  -6.024  0.00  0.00     0.026 H 
ATOM     41  H   LIG d   1       4.082  -1.605  -6.661  0.00  0.00     0.026 H 
ATOM     42  H   LIG d   1       4.616  -0.307  -7.755  0.00  0.00     0.026 H 
ENDBRANCH  36  39
ENDBRANCH  35  36
ENDBRANCH  33  35
ENDBRANCH  30  33
ENDBRANCH  29  30
ENDBRANCH   1  29
TORSDOF 8
ENDMDL
MODEL 4
REMARK VINA RESULT:      -6.4      1.799      2.082
REMARK  8 active torsions:
REMARK  status: ('A' for Active; 'I' for Inactive)
REMARK    1  A    between atoms: C_1  and  C_2 
REMARK    2  A    between atoms: C_2  and  O_3 
REMARK    3  A    between atoms: O_3  and  C_4 
REMARK    4  A    between atoms: C_4  and  C_6 
REMARK    5  A    between atoms: C_6  and  O_7 
REMARK    6  A    between atoms: O_7  and  C_8 
REMARK    7  A    between atoms: C_16  and  C_17 
REMARK    8  A    between atoms: C_21  and  N_23 
ROOT
ATOM      1  C   LIG d   1       6.971  -0.057  -4.492  0.00  0.00     0.125 A 
ATOM      2  C   LIG d   1       7.055   0.045  -5.878  0.00  0.00    -0.019 A 
ATOM      3  C   LIG d   1       7.757   1.068  -6.450  0.00  0.00    -0.044 A 
ATOM      4  C   LIG d   1       8.392   2.012  -5.643  0.00  0.00     0.068 A 
ATOM      5  C   LIG d   1       8.315   1.921  -4.244  0.00  0.00     0.143 A 
ATOM      6  C   LIG d   1       7.592   0.877  -3.678  0.00  0.00     0.023 A 
ATOM      7  O   LIG d   1       9.003   2.939  -3.681  0.00  0.00    -0.451 OA
ATOM      8  C   LIG d   1       9.561   3.745  -4.614  0.00  0.00     0.176 A 
ATOM      9  C   LIG d   1      10.311   4.849  -4.373  0.00  0.00    -0.008 C 
ATOM     10  C   LIG d   1       9.207   3.205  -5.936  0.00  0.00     0.232 A 
ATOM     11  O   LIG d   1       9.518   3.645  -7.030  0.00  0.00    -0.283 OA
ATOM     12  H   LIG d   1       6.564  -0.686  -6.503  0.00  0.00     0.065 H 
ATOM     13  H   LIG d   1       7.821   1.145  -7.526  0.00  0.00     0.063 H 
ATOM     14  H   LIG d   1       7.517   0.792  -2.604  0.00  0.00     0.069 H 
ATOM     15  H   LIG d   1      10.779   5.373  -5.193  0.00  0.00     0.066 H 
ENDROOT
BRANCH   9  16
ATOM     16  C   LIG d   1      10.485   5.334  -2.997  0.00  0.00    -0.015 A 
ATOM     17  C   LIG d   1       9.836   6.499  -2.573  0.00  0.00     0.023 A 
ATOM     18  C   LIG d   1      10.004   6.946  -1.281  0.00  0.00     0.274 A 
ATOM     19  H   LIG d   1       9.204   7.046  -3.258  0.00  0.00     0.069 H 
ATOM     20  C   LIG d   1      10.813   6.246  -0.402  0.00  0.00     0.016 A 
ATOM     21  C   LIG d   1      11.458   5.093  -0.812  0.00  0.00    -0.055 A 
ATOM     22  H   LIG d   1      10.940   6.603   0.610  0.00  0.00     0.069 H 
ATOM     23  C   LIG d   1      11.296   4.630  -2.100  0.00  0.00    -0.054 A 
ATOM     24  H   LIG d   1      12.087   4.552  -0.120  0.00  0.00     0.062 H 
ATOM     25  H   LIG d   1      11.798   3.727  -2.417  0.00  0.00     0.062 H 
BRANCH  18  26
ATOM     26  N   LIG d   1       9.318   8.178  -0.831  0.00  0.00     0.080 N 
ATOM     27  O   LIG d   1       9.970   9.149  -0.489  0.00  0.00     0.041 OA
ATOM     28  O   LIG d   1       8.101   8.221  -0.800  0.00  0.00    -0.576 OA
ENDBRANCH  18  26
ENDBRANCH   9  16
BRANCH   1  29
ATOM     29  O   LIG d   1       6.271  -1.076  -3.933  0.00  0.00    -0.481 OA
BRANCH  29  30
ATOM     30  C   LIG d   1       4.967  -1.330  -4.458  0.00  0.00     0.186 C 
ATOM     31  H   LIG d   1       5.042  -2.011  -5.305  0.00  0.00     0.082 H 
ATOM     32  H   LIG d   1       4.517  -0.392  -4.784  0.00  0.00     0.082 H 
BRANCH  30  33
ATOM     33  C   LIG d   1       4.107  -1.953  -3.388  0.00  0.00     0.345 C 
ATOM     34  O   LIG d   1       3.932  -3.148  -3.373  0.00  0.00    -0.247 OA
BRANCH  33  35
ATOM     35  O   LIG d   1       3.535  -1.179  -2.451  0.00  0.00    -0.463 OA
BRANCH  35  36
ATOM     36  C   LIG d   1       3.171   0.170  -2.842  0.00  0.00     0.090 C 
ATOM     37  H   LIG d   1       3.330   0.295  -3.913  0.00  0.00     0.069 H 
ATOM     38  H   LIG d   1       2.120   0.344  -2.608  0.00  0.00     0.069 H 
BRANCH  36  39
ATOM     39  C   LIG d   1       4.035   1.174  -2.077  0.00  0.00    -0.031 C 
ATOM     40  H   LIG d   1       4.908   0.665  -1.669  0.00  0.00     0.026 H 
ATOM     41  H   LIG d   1       4.359   1.964  -2.755  0.00  0.00     0.026 H 
ATOM     42  H   LIG d   1       3.454   1.609  -1.264  0.00  0.00     0.026 H 
ENDBRANCH  36  39
ENDBRANCH  35  36
ENDBRANCH  33  35
ENDBRANCH  30  33
ENDBRANCH  29  30
ENDBRANCH   1  29
TORSDOF 8
ENDMDL
MODEL 5
REMARK VINA RESULT:      -6.4      8.560     13.232
REMARK  8 active torsions:
REMARK  status: ('A' for Active; 'I' for Inactive)
REMARK    1  A    between atoms: C_1  and  C_2 
REMARK    2  A    between atoms: C_2  and  O_3 
REMARK    3  A    between atoms: O_3  and  C_4 
REMARK    4  A    between atoms: C_4  and  C_6 
REMARK    5  A    between atoms: C_6  and  O_7 
REMARK    6  A    between atoms: O_7  and  C_8 
REMARK    7  A    between atoms: C_16  and  C_17 
REMARK    8  A    between atoms: C_21  and  N_23 
ROOT
ATOM      1  C   LIG d   1       3.090   0.558  -8.177  0.00  0.00     0.125 A 
ATOM      2  C   LIG d   1       3.613   1.184  -9.306  0.00  0.00    -0.019 A 
ATOM      3  C   LIG d   1       3.423   0.638 -10.544  0.00  0.00    -0.044 A 
ATOM      4  C   LIG d   1       2.703  -0.550 -10.677  0.00  0.00     0.068 A 
ATOM      5  C   LIG d   1       2.171  -1.191  -9.546  0.00  0.00     0.143 A 
ATOM      6  C   LIG d   1       2.379  -0.625  -8.294  0.00  0.00     0.023 A 
ATOM      7  O   LIG d   1       1.521  -2.314  -9.921  0.00  0.00    -0.451 OA
ATOM      8  C   LIG d   1       1.567  -2.498 -11.262  0.00  0.00     0.176 A 
ATOM      9  C   LIG d   1       1.012  -3.527 -11.949  0.00  0.00    -0.008 C 
ATOM     10  C   LIG d   1       2.329  -1.379 -11.837  0.00  0.00     0.232 A 
ATOM     11  O   LIG d   1       2.592  -1.180 -13.011  0.00  0.00    -0.283 OA
ATOM     12  H   LIG d   1       4.169   2.104  -9.203  0.00  0.00     0.065 H 
ATOM     13  H   LIG d   1       3.829   1.125 -11.418  0.00  0.00     0.063 H 
ATOM     14  H   LIG d   1       1.982  -1.106  -7.412  0.00  0.00     0.069 H 
ATOM     15  H   LIG d   1       1.037  -3.532 -13.028  0.00  0.00     0.066 H 
ENDROOT
BRANCH   9  16
ATOM     16  C   LIG d   1       0.377  -4.637 -11.224  0.00  0.00    -0.015 A 
ATOM     17  C   LIG d   1      -0.932  -4.509 -10.747  0.00  0.00     0.023 A 
ATOM     18  C   LIG d   1      -1.520  -5.554 -10.068  0.00  0.00     0.274 A 
ATOM     19  H   LIG d   1      -1.480  -3.592 -10.910  0.00  0.00     0.069 H 
ATOM     20  C   LIG d   1      -0.819  -6.730  -9.859  0.00  0.00     0.016 A 
ATOM     21  C   LIG d   1       0.476  -6.865 -10.327  0.00  0.00    -0.055 A 
ATOM     22  H   LIG d   1      -1.286  -7.545  -9.326  0.00  0.00     0.069 H 
ATOM     23  C   LIG d   1       1.077  -5.831 -11.012  0.00  0.00    -0.054 A 
ATOM     24  H   LIG d   1       1.016  -7.786 -10.160  0.00  0.00     0.062 H 
ATOM     25  H   LIG d   1       2.086  -5.940 -11.380  0.00  0.00     0.062 H 
BRANCH  18  26
ATOM     26  N   LIG d   1      -2.904  -5.420  -9.563  0.00  0.00     0.080 N 
ATOM     27  O   LIG d   1      -3.673  -4.638 -10.092  0.00  0.00     0.041 OA
ATOM     28  O   LIG d   1      -3.275  -6.092  -8.617  0.00  0.00    -0.576 OA
ENDBRANCH  18  26
ENDBRANCH   9  16
BRANCH   1  29
ATOM     29  O   LIG d   1       3.285   1.108  -6.952  0.00  0.00    -0.481 OA
BRANCH  29  30
ATOM     30  C   LIG d   1       2.774   0.386  -5.830  0.00  0.00     0.186 C 
ATOM     31  H   LIG d   1       2.213  -0.480  -6.179  0.00  0.00     0.082 H 
ATOM     32  H   LIG d   1       2.117   1.035  -5.249  0.00  0.00     0.082 H 
BRANCH  30  33
ATOM     33  C   LIG d   1       3.919  -0.073  -4.964  0.00  0.00     0.345 C 
ATOM     34  O   LIG d   1       5.058   0.104  -5.325  0.00  0.00    -0.247 OA
BRANCH  33  35
ATOM     35  O   LIG d   1       3.673  -0.679  -3.791  0.00  0.00    -0.463 OA
BRANCH  35  36
ATOM     36  C   LIG d   1       3.167   0.152  -2.713  0.00  0.00     0.090 C 
ATOM     37  H   LIG d   1       2.544   0.945  -3.126  0.00  0.00     0.069 H 
ATOM     38  H   LIG d   1       2.572  -0.460  -2.033  0.00  0.00     0.069 H 
BRANCH  36  39
ATOM     39  C   LIG d   1       4.340   0.769  -1.950  0.00  0.00    -0.031 C 
ATOM     40  H   LIG d   1       5.070   1.159  -2.659  0.00  0.00     0.026 H 
ATOM     41  H   LIG d   1       3.976   1.580  -1.319  0.00  0.00     0.026 H 
ATOM     42  H   LIG d   1       4.809   0.008  -1.327  0.00  0.00     0.026 H 
ENDBRANCH  36  39
ENDBRANCH  35  36
ENDBRANCH  33  35
ENDBRANCH  30  33
ENDBRANCH  29  30
ENDBRANCH   1  29
TORSDOF 8
ENDMDL
MODEL 6
REMARK VINA RESULT:      -6.2      2.955      8.101
REMARK  8 active torsions:
REMARK  status: ('A' for Active; 'I' for Inactive)
REMARK    1  A    between atoms: C_1  and  C_2 
REMARK    2  A    between atoms: C_2  and  O_3 
REMARK    3  A    between atoms: O_3  and  C_4 
REMARK    4  A    between atoms: C_4  and  C_6 
REMARK    5  A    between atoms: C_6  and  O_7 
REMARK    6  A    between atoms: O_7  and  C_8 
REMARK    7  A    between atoms: C_16  and  C_17 
REMARK    8  A    between atoms: C_21  and  N_23 
ROOT
ATOM      1  C   LIG d   1      10.402   4.009  -3.547  0.00  0.00     0.125 A 
ATOM      2  C   LIG d   1      11.427   3.413  -4.276  0.00  0.00    -0.019 A 
ATOM      3  C   LIG d   1      11.246   2.179  -4.833  0.00  0.00    -0.044 A 
ATOM      4  C   LIG d   1      10.031   1.514  -4.669  0.00  0.00     0.068 A 
ATOM      5  C   LIG d   1       8.989   2.103  -3.934  0.00  0.00     0.143 A 
ATOM      6  C   LIG d   1       9.192   3.357  -3.371  0.00  0.00     0.023 A 
ATOM      7  O   LIG d   1       7.920   1.277  -3.914  0.00  0.00    -0.451 OA
ATOM      8  C   LIG d   1       8.156   0.132  -4.597  0.00  0.00     0.176 A 
ATOM      9  C   LIG d   1       7.287  -0.896  -4.762  0.00  0.00    -0.008 C 
ATOM     10  C   LIG d   1       9.526   0.206  -5.128  0.00  0.00     0.232 A 
ATOM     11  O   LIG d   1      10.113  -0.626  -5.797  0.00  0.00    -0.283 OA
ATOM     12  H   LIG d   1      12.368   3.929  -4.404  0.00  0.00     0.065 H 
ATOM     13  H   LIG d   1      12.043   1.719  -5.399  0.00  0.00     0.063 H 
ATOM     14  H   LIG d   1       8.404   3.826  -2.799  0.00  0.00     0.069 H 
ATOM     15  H   LIG d   1       7.549  -1.728  -5.397  0.00  0.00     0.066 H 
ENDROOT
BRANCH   9  16
ATOM     16  C   LIG d   1       5.988  -0.878  -4.073  0.00  0.00    -0.015 A 
ATOM     17  C   LIG d   1       4.900  -0.208  -4.641  0.00  0.00     0.023 A 
ATOM     18  C   LIG d   1       3.686  -0.195  -3.989  0.00  0.00     0.274 A 
ATOM     19  H   LIG d   1       5.010   0.299  -5.589  0.00  0.00     0.069 H 
ATOM     20  C   LIG d   1       3.541  -0.844  -2.775  0.00  0.00     0.016 A 
ATOM     21  C   LIG d   1       4.613  -1.509  -2.206  0.00  0.00    -0.055 A 
ATOM     22  H   LIG d   1       2.587  -0.831  -2.269  0.00  0.00     0.069 H 
ATOM     23  C   LIG d   1       5.833  -1.535  -2.847  0.00  0.00    -0.054 A 
ATOM     24  H   LIG d   1       4.492  -2.014  -1.258  0.00  0.00     0.062 H 
ATOM     25  H   LIG d   1       6.667  -2.058  -2.403  0.00  0.00     0.062 H 
BRANCH  18  26
ATOM     26  N   LIG d   1       2.532   0.512  -4.589  0.00  0.00     0.080 N 
ATOM     27  O   LIG d   1       1.461  -0.057  -4.703  0.00  0.00     0.041 OA
ATOM     28  O   LIG d   1       2.654   1.663  -4.969  0.00  0.00    -0.576 OA
ENDBRANCH  18  26
ENDBRANCH   9  16
BRANCH   1  29
ATOM     29  O   LIG d   1      10.591   5.236  -2.997  0.00  0.00    -0.481 OA
BRANCH  29  30
ATOM     30  C   LIG d   1      11.156   5.278  -1.686  0.00  0.00     0.186 C 
ATOM     31  H   LIG d   1      12.163   5.689  -1.737  0.00  0.00     0.082 H 
ATOM     32  H   LIG d   1      11.196   4.268  -1.275  0.00  0.00     0.082 H 
BRANCH  30  33
ATOM     33  C   LIG d   1      10.303   6.147  -0.799  0.00  0.00     0.345 C 
ATOM     34  O   LIG d   1      10.454   6.121   0.400  0.00  0.00    -0.247 OA
BRANCH  33  35
ATOM     35  O   LIG d   1       9.373   6.951  -1.340  0.00  0.00    -0.463 OA
BRANCH  35  36
ATOM     36  C   LIG d   1       9.718   8.354  -1.483  0.00  0.00     0.090 C 
ATOM     37  H   LIG d   1      10.706   8.532  -1.060  0.00  0.00     0.069 H 
ATOM     38  H   LIG d   1       9.722   8.621  -2.540  0.00  0.00     0.069 H 
BRANCH  36  39
ATOM     39  C   LIG d   1       8.687   9.211  -0.746  0.00  0.00    -0.031 C 
ATOM     40  H   LIG d   1       9.190   9.823   0.002  0.00  0.00     0.026 H 
ATOM     41  H   LIG d   1       8.175   9.857  -1.460  0.00  0.00     0.026 H 
ATOM     42  H   LIG d   1       7.960   8.563  -0.256  0.00  0.00     0.026 H 
ENDBRANCH  36  39
ENDBRANCH  35  36
ENDBRANCH  33  35
ENDBRANCH  30  33
ENDBRANCH  29  30
ENDBRANCH   1  29
TORSDOF 8
ENDMDL
MODEL 7
REMARK VINA RESULT:      -6.2      2.115      2.447
REMARK  8 active torsions:
REMARK  status: ('A' for Active; 'I' for Inactive)
REMARK    1  A    between atoms: C_1  and  C_2 
REMARK    2  A    between atoms: C_2  and  O_3 
REMARK    3  A    between atoms: O_3  and  C_4 
REMARK    4  A    between atoms: C_4  and  C_6 
REMARK    5  A    between atoms: C_6  and  O_7 
REMARK    6  A    between atoms: O_7  and  C_8 
REMARK    7  A    between atoms: C_16  and  C_17 
REMARK    8  A    between atoms: C_21  and  N_23 
ROOT
ATOM      1  C   LIG d   1       6.616   0.211  -4.335  0.00  0.00     0.125 A 
ATOM      2  C   LIG d   1       7.524  -0.541  -5.075  0.00  0.00    -0.019 A 
ATOM      3  C   LIG d   1       8.832  -0.156  -5.154  0.00  0.00    -0.044 A 
ATOM      4  C   LIG d   1       9.259   0.995  -4.491  0.00  0.00     0.068 A 
ATOM      5  C   LIG d   1       8.352   1.763  -3.742  0.00  0.00     0.143 A 
ATOM      6  C   LIG d   1       7.024   1.360  -3.677  0.00  0.00     0.023 A 
ATOM      7  O   LIG d   1       8.992   2.821  -3.196  0.00  0.00    -0.451 OA
ATOM      8  C   LIG d   1      10.306   2.838  -3.524  0.00  0.00     0.176 A 
ATOM      9  C   LIG d   1      11.216   3.766  -3.137  0.00  0.00    -0.008 C 
ATOM     10  C   LIG d   1      10.566   1.668  -4.377  0.00  0.00     0.232 A 
ATOM     11  O   LIG d   1      11.624   1.330  -4.878  0.00  0.00    -0.283 OA
ATOM     12  H   LIG d   1       7.193  -1.433  -5.588  0.00  0.00     0.065 H 
ATOM     13  H   LIG d   1       9.535  -0.741  -5.728  0.00  0.00     0.063 H 
ATOM     14  H   LIG d   1       6.311   1.939  -3.109  0.00  0.00     0.069 H 
ATOM     15  H   LIG d   1      12.258   3.638  -3.387  0.00  0.00     0.066 H 
ENDROOT
BRANCH   9  16
ATOM     16  C   LIG d   1      10.783   4.947  -2.376  0.00  0.00    -0.015 A 
ATOM     17  C   LIG d   1      11.136   5.085  -1.029  0.00  0.00     0.023 A 
ATOM     18  C   LIG d   1      10.726   6.195  -0.324  0.00  0.00     0.274 A 
ATOM     19  H   LIG d   1      11.728   4.323  -0.544  0.00  0.00     0.069 H 
ATOM     20  C   LIG d   1       9.968   7.174  -0.944  0.00  0.00     0.016 A 
ATOM     21  C   LIG d   1       9.614   7.045  -2.276  0.00  0.00    -0.055 A 
ATOM     22  H   LIG d   1       9.650   8.042  -0.384  0.00  0.00     0.069 H 
ATOM     23  C   LIG d   1      10.020   5.943  -2.997  0.00  0.00    -0.054 A 
ATOM     24  H   LIG d   1       9.022   7.813  -2.753  0.00  0.00     0.062 H 
ATOM     25  H   LIG d   1       9.747   5.846  -4.037  0.00  0.00     0.062 H 
BRANCH  18  26
ATOM     26  N   LIG d   1      11.098   6.344   1.101  0.00  0.00     0.080 N 
ATOM     27  O   LIG d   1      10.767   5.495   1.909  0.00  0.00     0.041 OA
ATOM     28  O   LIG d   1      11.735   7.316   1.467  0.00  0.00    -0.576 OA
ENDBRANCH  18  26
ENDBRANCH   9  16
BRANCH   1  29
ATOM     29  O   LIG d   1       5.318  -0.180  -4.263  0.00  0.00    -0.481 OA
BRANCH  29  30
ATOM     30  C   LIG d   1       4.758  -0.786  -5.430  0.00  0.00     0.186 C 
ATOM     31  H   LIG d   1       4.437  -1.800  -5.194  0.00  0.00     0.082 H 
ATOM     32  H   LIG d   1       5.510  -0.816  -6.219  0.00  0.00     0.082 H 
BRANCH  30  33
ATOM     33  C   LIG d   1       3.574   0.020  -5.895  0.00  0.00     0.345 C 
ATOM     34  O   LIG d   1       3.051   0.814  -5.148  0.00  0.00    -0.247 OA
BRANCH  33  35
ATOM     35  O   LIG d   1       3.097  -0.143  -7.140  0.00  0.00    -0.463 OA
BRANCH  35  36
ATOM     36  C   LIG d   1       3.785   0.562  -8.207  0.00  0.00     0.090 C 
ATOM     37  H   LIG d   1       4.759   0.899  -7.852  0.00  0.00     0.069 H 
ATOM     38  H   LIG d   1       3.921  -0.109  -9.056  0.00  0.00     0.069 H 
BRANCH  36  39
ATOM     39  C   LIG d   1       2.954   1.770  -8.640  0.00  0.00    -0.031 C 
ATOM     40  H   LIG d   1       3.147   1.988  -9.690  0.00  0.00     0.026 H 
ATOM     41  H   LIG d   1       1.895   1.550  -8.503  0.00  0.00     0.026 H 
ATOM     42  H   LIG d   1       3.225   2.634  -8.034  0.00  0.00     0.026 H 
ENDBRANCH  36  39
ENDBRANCH  35  36
ENDBRANCH  33  35
ENDBRANCH  30  33
ENDBRANCH  29  30
ENDBRANCH   1  29
TORSDOF 8
ENDMDL
MODEL 8
REMARK VINA RESULT:      -6.1      6.948      9.254
REMARK  8 active torsions:
REMARK  status: ('A' for Active; 'I' for Inactive)
REMARK    1  A    between atoms: C_1  and  C_2 
REMARK    2  A    between atoms: C_2  and  O_3 
REMARK    3  A    between atoms: O_3  and  C_4 
REMARK    4  A    between atoms: C_4  and  C_6 
REMARK    5  A    between atoms: C_6  and  O_7 
REMARK    6  A    between atoms: O_7  and  C_8 
REMARK    7  A    between atoms: C_16  and  C_17 
REMARK    8  A    between atoms: C_21  and  N_23 
ROOT
ATOM      1  C   LIG d   1       6.550  -7.227  -6.650  0.00  0.00     0.125 A 
ATOM      2  C   LIG d   1       7.938  -7.166  -6.563  0.00  0.00    -0.019 A 
ATOM      3  C   LIG d   1       8.541  -6.108  -5.944  0.00  0.00    -0.044 A 
ATOM      4  C   LIG d   1       7.763  -5.086  -5.399  0.00  0.00     0.068 A 
ATOM      5  C   LIG d   1       6.362  -5.135  -5.482  0.00  0.00     0.143 A 
ATOM      6  C   LIG d   1       5.765  -6.216  -6.119  0.00  0.00     0.023 A 
ATOM      7  O   LIG d   1       5.831  -4.044  -4.888  0.00  0.00    -0.451 OA
ATOM      8  C   LIG d   1       6.788  -3.226  -4.390  0.00  0.00     0.176 A 
ATOM      9  C   LIG d   1       6.581  -2.054  -3.740  0.00  0.00    -0.008 C 
ATOM     10  C   LIG d   1       8.093  -3.838  -4.685  0.00  0.00     0.232 A 
ATOM     11  O   LIG d   1       9.198  -3.411  -4.401  0.00  0.00    -0.283 OA
ATOM     12  H   LIG d   1       8.540  -7.958  -6.984  0.00  0.00     0.065 H 
ATOM     13  H   LIG d   1       9.618  -6.063  -5.876  0.00  0.00     0.063 H 
ATOM     14  H   LIG d   1       4.689  -6.270  -6.197  0.00  0.00     0.069 H 
ATOM     15  H   LIG d   1       7.415  -1.520  -3.310  0.00  0.00     0.066 H 
ENDROOT
BRANCH   9  16
ATOM     16  C   LIG d   1       5.221  -1.509  -3.621  0.00  0.00    -0.015 A 
ATOM     17  C   LIG d   1       4.742  -0.598  -4.569  0.00  0.00     0.023 A 
ATOM     18  C   LIG d   1       3.466  -0.092  -4.450  0.00  0.00     0.274 A 
ATOM     19  H   LIG d   1       5.372  -0.292  -5.392  0.00  0.00     0.069 H 
ATOM     20  C   LIG d   1       2.657  -0.483  -3.397  0.00  0.00     0.016 A 
ATOM     21  C   LIG d   1       3.123  -1.383  -2.455  0.00  0.00    -0.055 A 
ATOM     22  H   LIG d   1       1.658  -0.082  -3.310  0.00  0.00     0.069 H 
ATOM     23  C   LIG d   1       4.395  -1.903  -2.562  0.00  0.00    -0.054 A 
ATOM     24  H   LIG d   1       2.485  -1.684  -1.636  0.00  0.00     0.062 H 
ATOM     25  H   LIG d   1       4.755  -2.608  -1.828  0.00  0.00     0.062 H 
BRANCH  18  26
ATOM     26  N   LIG d   1       2.958   0.872  -5.452  0.00  0.00     0.080 N 
ATOM     27  O   LIG d   1       2.399   1.891  -5.088  0.00  0.00     0.041 OA
ATOM     28  O   LIG d   1       3.096   0.645  -6.641  0.00  0.00    -0.576 OA
ENDBRANCH  18  26
ENDBRANCH   9  16
BRANCH   1  29
ATOM     29  O   LIG d   1       5.960  -8.282  -7.268  0.00  0.00    -0.481 OA
BRANCH  29  30
ATOM     30  C   LIG d   1       4.696  -8.708  -6.755  0.00  0.00     0.186 C 
ATOM     31  H   LIG d   1       4.020  -8.918  -7.583  0.00  0.00     0.082 H 
ATOM     32  H   LIG d   1       4.273  -7.921  -6.131  0.00  0.00     0.082 H 
BRANCH  30  33
ATOM     33  C   LIG d   1       4.883  -9.956  -5.931  0.00  0.00     0.345 C 
ATOM     34  O   LIG d   1       5.996 -10.331  -5.647  0.00  0.00    -0.247 OA
BRANCH  33  35
ATOM     35  O   LIG d   1       3.813 -10.651  -5.512  0.00  0.00    -0.463 OA
BRANCH  35  36
ATOM     36  C   LIG d   1       3.846 -11.155  -4.151  0.00  0.00     0.090 C 
ATOM     37  H   LIG d   1       3.123 -11.964  -4.045  0.00  0.00     0.069 H 
ATOM     38  H   LIG d   1       4.845 -11.529  -3.927  0.00  0.00     0.069 H 
BRANCH  36  39
ATOM     39  C   LIG d   1       3.494 -10.026  -3.181  0.00  0.00    -0.031 C 
ATOM     40  H   LIG d   1       4.267  -9.259  -3.221  0.00  0.00     0.026 H 
ATOM     41  H   LIG d   1       2.535  -9.591  -3.462  0.00  0.00     0.026 H 
ATOM     42  H   LIG d   1       3.430 -10.424  -2.169  0.00  0.00     0.026 H 
ENDBRANCH  36  39
ENDBRANCH  35  36
ENDBRANCH  33  35
ENDBRANCH  30  33
ENDBRANCH  29  30
ENDBRANCH   1  29
TORSDOF 8
ENDMDL
MODEL 9
REMARK VINA RESULT:      -5.9      7.852     10.754
REMARK  8 active torsions:
REMARK  status: ('A' for Active; 'I' for Inactive)
REMARK    1  A    between atoms: C_1  and  C_2 
REMARK    2  A    between atoms: C_2  and  O_3 
REMARK    3  A    between atoms: O_3  and  C_4 
REMARK    4  A    between atoms: C_4  and  C_6 
REMARK    5  A    between atoms: C_6  and  O_7 
REMARK    6  A    between atoms: O_7  and  C_8 
REMARK    7  A    between atoms: C_16  and  C_17 
REMARK    8  A    between atoms: C_21  and  N_23 
ROOT
ATOM      1  C   LIG d   1       0.889  -3.119 -11.697  0.00  0.00     0.125 A 
ATOM      2  C   LIG d   1       1.312  -2.234 -12.684  0.00  0.00    -0.019 A 
ATOM      3  C   LIG d   1       2.061  -1.141 -12.351  0.00  0.00    -0.044 A 
ATOM      4  C   LIG d   1       2.402  -0.912 -11.017  0.00  0.00     0.068 A 
ATOM      5  C   LIG d   1       1.980  -1.798 -10.012  0.00  0.00     0.143 A 
ATOM      6  C   LIG d   1       1.215  -2.902 -10.368  0.00  0.00     0.023 A 
ATOM      7  O   LIG d   1       2.429  -1.372  -8.811  0.00  0.00    -0.451 OA
ATOM      8  C   LIG d   1       3.146  -0.228  -8.918  0.00  0.00     0.176 A 
ATOM      9  C   LIG d   1       3.728   0.450  -7.898  0.00  0.00    -0.008 C 
ATOM     10  C   LIG d   1       3.177   0.144 -10.341  0.00  0.00     0.232 A 
ATOM     11  O   LIG d   1       3.722   1.110 -10.847  0.00  0.00    -0.283 OA
ATOM     12  H   LIG d   1       1.049  -2.411 -13.717  0.00  0.00     0.065 H 
ATOM     13  H   LIG d   1       2.389  -0.455 -13.118  0.00  0.00     0.063 H 
ATOM     14  H   LIG d   1       0.877  -3.592  -9.609  0.00  0.00     0.069 H 
ATOM     15  H   LIG d   1       4.349   1.308  -8.106  0.00  0.00     0.066 H 
ENDROOT
BRANCH   9  16
ATOM     16  C   LIG d   1       3.513   0.018  -6.510  0.00  0.00    -0.015 A 
ATOM     17  C   LIG d   1       4.283  -1.016  -5.967  0.00  0.00     0.023 A 
ATOM     18  C   LIG d   1       4.075  -1.416  -4.665  0.00  0.00     0.274 A 
ATOM     19  H   LIG d   1       5.039  -1.501  -6.568  0.00  0.00     0.069 H 
ATOM     20  C   LIG d   1       3.107  -0.796  -3.893  0.00  0.00     0.016 A 
ATOM     21  C   LIG d   1       2.341   0.228  -4.422  0.00  0.00    -0.055 A 
ATOM     22  H   LIG d   1       2.949  -1.114  -2.873  0.00  0.00     0.069 H 
ATOM     23  C   LIG d   1       2.540   0.642  -5.721  0.00  0.00    -0.054 A 
ATOM     24  H   LIG d   1       1.587   0.707  -3.813  0.00  0.00     0.062 H 
ATOM     25  H   LIG d   1       1.943   1.444  -6.131  0.00  0.00     0.062 H 
BRANCH  18  26
ATOM     26  N   LIG d   1       4.889  -2.510  -4.089  0.00  0.00     0.080 N 
ATOM     27  O   LIG d   1       6.077  -2.339  -3.878  0.00  0.00     0.041 OA
ATOM     28  O   LIG d   1       4.372  -3.581  -3.827  0.00  0.00    -0.576 OA
ENDBRANCH  18  26
ENDBRANCH   9  16
BRANCH   1  29
ATOM     29  O   LIG d   1       0.145  -4.202 -12.038  0.00  0.00    -0.481 OA
BRANCH  29  30
ATOM     30  C   LIG d   1      -0.242  -5.081 -10.981  0.00  0.00     0.186 C 
ATOM     31  H   LIG d   1       0.102  -4.679 -10.029  0.00  0.00     0.082 H 
ATOM     32  H   LIG d   1       0.204  -6.063 -11.143  0.00  0.00     0.082 H 
BRANCH  30  33
ATOM     33  C   LIG d   1      -1.743  -5.209 -10.958  0.00  0.00     0.345 C 
ATOM     34  O   LIG d   1      -2.345  -5.445 -11.979  0.00  0.00    -0.247 OA
BRANCH  33  35
ATOM     35  O   LIG d   1      -2.414  -5.061  -9.804  0.00  0.00    -0.463 OA
BRANCH  35  36
ATOM     36  C   LIG d   1      -3.213  -6.187  -9.356  0.00  0.00     0.090 C 
ATOM     37  H   LIG d   1      -3.764  -5.909  -8.458  0.00  0.00     0.069 H 
ATOM     38  H   LIG d   1      -3.916  -6.468 -10.141  0.00  0.00     0.069 H 
BRANCH  36  39
ATOM     39  C   LIG d   1      -2.296  -7.372  -9.046  0.00  0.00    -0.031 C 
ATOM     40  H   LIG d   1      -1.555  -7.475  -9.838  0.00  0.00     0.026 H 
ATOM     41  H   LIG d   1      -1.791  -7.200  -8.095  0.00  0.00     0.026 H 
ATOM     42  H   LIG d   1      -2.890  -8.283  -8.982  0.00  0.00     0.026 H 
ENDBRANCH  36  39
ENDBRANCH  35  36
ENDBRANCH  33  35
ENDBRANCH  30  33
ENDBRANCH  29  30
ENDBRANCH   1  29
TORSDOF 8
ENDMDL
MODEL 10
REMARK VINA RESULT:      -5.8      7.091      9.963
REMARK  8 active torsions:
REMARK  status: ('A' for Active; 'I' for Inactive)
REMARK    1  A    between atoms: C_1  and  C_2 
REMARK    2  A    between atoms: C_2  and  O_3 
REMARK    3  A    between atoms: O_3  and  C_4 
REMARK    4  A    between atoms: C_4  and  C_6 
REMARK    5  A    between atoms: C_6  and  O_7 
REMARK    6  A    between atoms: O_7  and  C_8 
REMARK    7  A    between atoms: C_16  and  C_17 
REMARK    8  A    between atoms: C_21  and  N_23 
ROOT
ATOM      1  C   LIG d   1       7.402  -2.215  -4.206  0.00  0.00     0.125 A 
ATOM      2  C   LIG d   1       6.635  -2.136  -3.046  0.00  0.00    -0.019 A 
ATOM      3  C   LIG d   1       5.385  -1.587  -3.086  0.00  0.00    -0.044 A 
ATOM      4  C   LIG d   1       4.875  -1.104  -4.291  0.00  0.00     0.068 A 
ATOM      5  C   LIG d   1       5.639  -1.177  -5.468  0.00  0.00     0.143 A 
ATOM      6  C   LIG d   1       6.911  -1.734  -5.409  0.00  0.00     0.023 A 
ATOM      7  O   LIG d   1       4.941  -0.650  -6.498  0.00  0.00    -0.451 OA
ATOM      8  C   LIG d   1       3.723  -0.209  -6.107  0.00  0.00     0.176 A 
ATOM      9  C   LIG d   1       2.788   0.369  -6.901  0.00  0.00    -0.008 C 
ATOM     10  C   LIG d   1       3.598  -0.469  -4.665  0.00  0.00     0.232 A 
ATOM     11  O   LIG d   1       2.651  -0.218  -3.940  0.00  0.00    -0.283 OA
ATOM     12  H   LIG d   1       7.030  -2.511  -2.113  0.00  0.00     0.065 H 
ATOM     13  H   LIG d   1       4.792  -1.527  -2.185  0.00  0.00     0.063 H 
ATOM     14  H   LIG d   1       7.515  -1.795  -6.302  0.00  0.00     0.069 H 
ATOM     15  H   LIG d   1       1.814   0.609  -6.502  0.00  0.00     0.066 H 
ENDROOT
BRANCH   9  16
ATOM     16  C   LIG d   1       3.101   0.671  -8.306  0.00  0.00    -0.015 A 
ATOM     17  C   LIG d   1       2.740  -0.228  -9.316  0.00  0.00     0.023 A 
ATOM     18  C   LIG d   1       3.038   0.062 -10.629  0.00  0.00     0.274 A 
ATOM     19  H   LIG d   1       2.231  -1.147  -9.066  0.00  0.00     0.069 H 
ATOM     20  C   LIG d   1       3.690   1.240 -10.952  0.00  0.00     0.016 A 
ATOM     21  C   LIG d   1       4.050   2.134  -9.959  0.00  0.00    -0.055 A 
ATOM     22  H   LIG d   1       3.920   1.461 -11.984  0.00  0.00     0.069 H 
ATOM     23  C   LIG d   1       3.756   1.861  -8.641  0.00  0.00    -0.054 A 
ATOM     24  H   LIG d   1       4.559   3.052 -10.219  0.00  0.00     0.062 H 
ATOM     25  H   LIG d   1       4.034   2.563  -7.868  0.00  0.00     0.062 H 
BRANCH  18  26
ATOM     26  N   LIG d   1       2.657  -0.887 -11.699  0.00  0.00     0.080 N 
ATOM     27  O   LIG d   1       3.294  -0.921 -12.738  0.00  0.00     0.041 OA
ATOM     28  O   LIG d   1       1.706  -1.632 -11.543  0.00  0.00    -0.576 OA
ENDBRANCH  18  26
ENDBRANCH   9  16
BRANCH   1  29
ATOM     29  O   LIG d   1       8.643  -2.762  -4.157  0.00  0.00    -0.481 OA
BRANCH  29  30
ATOM     30  C   LIG d   1       8.721  -4.188  -4.115  0.00  0.00     0.186 C 
ATOM     31  H   LIG d   1       9.242  -4.550  -5.000  0.00  0.00     0.082 H 
ATOM     32  H   LIG d   1       7.715  -4.607  -4.088  0.00  0.00     0.082 H 
BRANCH  30  33
ATOM     33  C   LIG d   1       9.474  -4.613  -2.881  0.00  0.00     0.345 C 
ATOM     34  O   LIG d   1       9.468  -3.911  -1.897  0.00  0.00    -0.247 OA
BRANCH  33  35
ATOM     35  O   LIG d   1      10.153  -5.772  -2.873  0.00  0.00    -0.463 OA
BRANCH  35  36
ATOM     36  C   LIG d   1      10.124  -6.545  -1.645  0.00  0.00     0.090 C 
ATOM     37  H   LIG d   1      10.275  -5.882  -0.794  0.00  0.00     0.069 H 
ATOM     38  H   LIG d   1       9.158  -7.042  -1.552  0.00  0.00     0.069 H 
BRANCH  36  39
ATOM     39  C   LIG d   1      11.235  -7.596  -1.677  0.00  0.00    -0.031 C 
ATOM     40  H   LIG d   1      12.204  -7.103  -1.591  0.00  0.00     0.026 H 
ATOM     41  H   LIG d   1      11.105  -8.288  -0.845  0.00  0.00     0.026 H 
ATOM     42  H   LIG d   1      11.189  -8.145  -2.617  0.00  0.00     0.026 H 
ENDBRANCH  36  39
ENDBRANCH  35  36
ENDBRANCH  33  35
ENDBRANCH  30  33
ENDBRANCH  29  30
ENDBRANCH   1  29
TORSDOF 8
ENDMDL
