MODEL 1
REMARK VINA RESULT:      -6.9      0.000      0.000
REMARK  11 active torsions:
REMARK  status: ('A' for Active; 'I' for Inactive)
REMARK    1  A    between atoms: C_1  and  C_2 
REMARK    2  A    between atoms: C_5  and  C_32 
REMARK    3  A    between atoms: C_6  and  C_8 
REMARK    4  A    between atoms: C_8  and  O_9 
REMARK    5  A    between atoms: O_9  and  C_10 
REMARK    6  A    between atoms: C_13  and  C_17 
REMARK    7  A    between atoms: C_14  and  O_16 
REMARK    8  A    between atoms: C_18  and  O_23 
REMARK    9  A    between atoms: O_23  and  C_24 
REMARK   10  A    between atoms: C_27  and  O_30 
REMARK   11  A    between atoms: O_30  and  C_31 
ROOT
ATOM      1  C   LIG d   1       5.761  -3.040  -6.472  0.00  0.00     0.124 A 
ATOM      2  C   LIG d   1       5.967  -2.330  -7.648  0.00  0.00    -0.019 A 
ATOM      3  C   LIG d   1       5.152  -2.545  -8.740  0.00  0.00    -0.045 A 
ATOM      4  C   LIG d   1       4.119  -3.477  -8.664  0.00  0.00     0.047 A 
ATOM      5  C   LIG d   1       3.911  -4.190  -7.479  0.00  0.00     0.130 A 
ATOM      6  C   LIG d   1       4.738  -3.972  -6.390  0.00  0.00     0.022 A 
ATOM      7  H   LIG d   1       6.768  -1.609  -7.708  0.00  0.00     0.065 H 
ATOM      8  H   LIG d   1       5.315  -1.992  -9.653  0.00  0.00     0.063 H 
ATOM      9  H   LIG d   1       4.583  -4.525  -5.475  0.00  0.00     0.069 H 
ENDROOT
BRANCH   4  10
ATOM     10  C   LIG d   1       3.239  -3.710  -9.836  0.00  0.00     0.138 A 
ATOM     11  N   LIG d   1       3.363  -4.682 -10.714  0.00  0.00    -0.170 NA
ATOM     12  N   LIG d   1       2.337  -4.553 -11.659  0.00  0.00    -0.281 N 
ATOM     13  C   LIG d   1       1.594  -3.464 -11.328  0.00  0.00     0.065 A 
ATOM     14  H   LIG d   1       2.186  -5.136 -12.419  0.00  0.00     0.188 HD
ATOM     15  C   LIG d   1       2.128  -2.923 -10.206  0.00  0.00     0.173 A 
ATOM     16  H   LIG d   1       0.732  -3.095 -11.863  0.00  0.00     0.086 H 
BRANCH  15  17
ATOM     17  O   LIG d   1       1.672  -1.819  -9.553  0.00  0.00    -0.452 OA
BRANCH  17  18
ATOM     18  C   LIG d   1       2.467  -0.717  -9.531  0.00  0.00     0.129 A 
ATOM     19  C   LIG d   1       2.679  -0.037  -8.340  0.00  0.00    -0.016 A 
ATOM     20  C   LIG d   1       3.492   1.079  -8.317  0.00  0.00    -0.017 A 
ATOM     21  H   LIG d   1       2.210  -0.383  -7.430  0.00  0.00     0.066 H 
ATOM     22  C   LIG d   1       4.088   1.528  -9.486  0.00  0.00     0.120 A 
ATOM     23  H   LIG d   1       3.660   1.605  -7.389  0.00  0.00     0.066 H 
ATOM     24  C   LIG d   1       3.873   0.852 -10.678  0.00  0.00    -0.017 A 
ATOM     25  C   LIG d   1       3.065  -0.268 -10.700  0.00  0.00    -0.016 A 
ATOM     26  H   LIG d   1       4.337   1.200 -11.588  0.00  0.00     0.066 H 
ATOM     27  H   LIG d   1       2.897  -0.795 -11.628  0.00  0.00     0.066 H 
BRANCH  22  28
ATOM     28  O   LIG d   1       4.883   2.630  -9.464  0.00  0.00    -0.495 OA
BRANCH  28  29
ATOM     29  C   LIG d   1       6.241   2.443  -9.061  0.00  0.00     0.079 C 
ATOM     30  H   LIG d   1       6.886   2.461  -9.939  0.00  0.00     0.066 H 
ATOM     31  H   LIG d   1       6.532   3.243  -8.380  0.00  0.00     0.066 H 
ATOM     32  H   LIG d   1       6.341   1.483  -8.555  0.00  0.00     0.066 H 
ENDBRANCH  28  29
ENDBRANCH  22  28
ENDBRANCH  17  18
ENDBRANCH  15  17
ENDBRANCH   4  10
BRANCH   5  33
ATOM     33  O   LIG d   1       2.906  -5.100  -7.399  0.00  0.00    -0.506 OA
ATOM     34  H   LIG d   1       2.938  -5.655  -6.607  0.00  0.00     0.292 HD
ENDBRANCH   5  33
BRANCH   1  35
ATOM     35  O   LIG d   1       6.567  -2.822  -5.400  0.00  0.00    -0.487 OA
BRANCH  35  36
ATOM     36  C   LIG d   1       5.956  -2.859  -4.109  0.00  0.00     0.115 C 
ATOM     37  H   LIG d   1       6.579  -3.441  -3.429  0.00  0.00     0.075 H 
ATOM     38  H   LIG d   1       4.973  -3.323  -4.186  0.00  0.00     0.075 H 
BRANCH  36  39
ATOM     39  C   LIG d   1       5.811  -1.456  -3.581  0.00  0.00    -0.007 A 
ATOM     40  C   LIG d   1       4.756  -1.137  -2.747  0.00  0.00    -0.044 A 
ATOM     41  C   LIG d   1       4.623   0.151  -2.262  0.00  0.00    -0.058 A 
ATOM     42  C   LIG d   1       5.544   1.120  -2.611  0.00  0.00    -0.059 A 
ATOM     43  H   LIG d   1       3.799   0.400  -1.610  0.00  0.00     0.062 H 
ATOM     44  C   LIG d   1       6.600   0.800  -3.446  0.00  0.00    -0.050 A 
ATOM     45  H   LIG d   1       5.440   2.126  -2.233  0.00  0.00     0.062 H 
ATOM     46  C   LIG d   1       6.730  -0.486  -3.935  0.00  0.00    -0.052 A 
ATOM     47  H   LIG d   1       7.553  -0.734  -4.589  0.00  0.00     0.062 H 
BRANCH  40  48
ATOM     48  C   LIG d   1       3.752  -2.193  -2.365  0.00  0.00    -0.039 C 
ATOM     49  H   LIG d   1       3.799  -2.368  -1.290  0.00  0.00     0.028 H 
ATOM     50  H   LIG d   1       2.750  -1.857  -2.634  0.00  0.00     0.028 H 
ATOM     51  H   LIG d   1       3.979  -3.119  -2.894  0.00  0.00     0.028 H 
ENDBRANCH  40  48
BRANCH  44  52
ATOM     52  C   LIG d   1       7.605   1.856  -3.826  0.00  0.00    -0.040 C 
ATOM     53  H   LIG d   1       8.392   1.407  -4.433  0.00  0.00     0.028 H 
ATOM     54  H   LIG d   1       7.110   2.641  -4.397  0.00  0.00     0.028 H 
ATOM     55  H   LIG d   1       8.043   2.285  -2.925  0.00  0.00     0.028 H 
ENDBRANCH  44  52
ENDBRANCH  36  39
ENDBRANCH  35  36
ENDBRANCH   1  35
TORSDOF 11
ENDMDL
MODEL 2
REMARK VINA RESULT:      -6.8      7.042     11.222
REMARK  11 active torsions:
REMARK  status: ('A' for Active; 'I' for Inactive)
REMARK    1  A    between atoms: C_1  and  C_2 
REMARK    2  A    between atoms: C_5  and  C_32 
REMARK    3  A    between atoms: C_6  and  C_8 
REMARK    4  A    between atoms: C_8  and  O_9 
REMARK    5  A    between atoms: O_9  and  C_10 
REMARK    6  A    between atoms: C_13  and  C_17 
REMARK    7  A    between atoms: C_14  and  O_16 
REMARK    8  A    between atoms: C_18  and  O_23 
REMARK    9  A    between atoms: O_23  and  C_24 
REMARK   10  A    between atoms: C_27  and  O_30 
REMARK   11  A    between atoms: O_30  and  C_31 
ROOT
ATOM      1  C   LIG d   1       8.648   2.422  -4.616  0.00  0.00     0.124 A 
ATOM      2  C   LIG d   1       9.067   3.389  -5.521  0.00  0.00    -0.019 A 
ATOM      3  C   LIG d   1      10.140   4.202  -5.222  0.00  0.00    -0.045 A 
ATOM      4  C   LIG d   1      10.809   4.052  -4.009  0.00  0.00     0.047 A 
ATOM      5  C   LIG d   1      10.388   3.078  -3.098  0.00  0.00     0.130 A 
ATOM      6  C   LIG d   1       9.306   2.271  -3.404  0.00  0.00     0.022 A 
ATOM      7  H   LIG d   1       8.549   3.506  -6.461  0.00  0.00     0.065 H 
ATOM      8  H   LIG d   1      10.463   4.952  -5.928  0.00  0.00     0.063 H 
ATOM      9  H   LIG d   1       8.976   1.521  -2.701  0.00  0.00     0.069 H 
ENDROOT
BRANCH   4  10
ATOM     10  C   LIG d   1      11.965   4.924  -3.684  0.00  0.00     0.138 A 
ATOM     11  N   LIG d   1      13.192   4.783  -4.139  0.00  0.00    -0.170 NA
ATOM     12  N   LIG d   1      13.980   5.807  -3.599  0.00  0.00    -0.281 N 
ATOM     13  C   LIG d   1      13.191   6.567  -2.795  0.00  0.00     0.065 A 
ATOM     14  H   LIG d   1      14.925   5.946  -3.766  0.00  0.00     0.188 HD
ATOM     15  C   LIG d   1      11.941   6.046  -2.828  0.00  0.00     0.173 A 
ATOM     16  H   LIG d   1      13.504   7.433  -2.230  0.00  0.00     0.086 H 
BRANCH  15  17
ATOM     17  O   LIG d   1      10.856   6.520  -2.156  0.00  0.00    -0.452 OA
BRANCH  17  18
ATOM     18  C   LIG d   1      10.991   6.778  -0.828  0.00  0.00     0.129 A 
ATOM     19  C   LIG d   1      11.144   8.084  -0.386  0.00  0.00    -0.016 A 
ATOM     20  C   LIG d   1      11.276   8.346   0.964  0.00  0.00    -0.017 A 
ATOM     21  H   LIG d   1      11.157   8.897  -1.098  0.00  0.00     0.066 H 
ATOM     22  C   LIG d   1      11.266   7.302   1.877  0.00  0.00     0.120 A 
ATOM     23  H   LIG d   1      11.390   9.363   1.307  0.00  0.00     0.066 H 
ATOM     24  C   LIG d   1      11.117   5.996   1.435  0.00  0.00    -0.017 A 
ATOM     25  C   LIG d   1      10.980   5.734   0.086  0.00  0.00    -0.016 A 
ATOM     26  H   LIG d   1      11.109   5.183   2.146  0.00  0.00     0.066 H 
ATOM     27  H   LIG d   1      10.865   4.717  -0.259  0.00  0.00     0.066 H 
BRANCH  22  28
ATOM     28  O   LIG d   1      11.400   7.560   3.205  0.00  0.00    -0.495 OA
BRANCH  28  29
ATOM     29  C   LIG d   1      11.043   6.513   4.109  0.00  0.00     0.079 C 
ATOM     30  H   LIG d   1      11.944   6.107   4.569  0.00  0.00     0.066 H 
ATOM     31  H   LIG d   1      10.387   6.910   4.884  0.00  0.00     0.066 H 
ATOM     32  H   LIG d   1      10.524   5.724   3.565  0.00  0.00     0.066 H 
ENDBRANCH  28  29
ENDBRANCH  22  28
ENDBRANCH  17  18
ENDBRANCH  15  17
ENDBRANCH   4  10
BRANCH   5  33
ATOM     33  O   LIG d   1      11.036   2.928  -1.913  0.00  0.00    -0.506 OA
ATOM     34  H   LIG d   1      11.955   3.229  -1.926  0.00  0.00     0.292 HD
ENDBRANCH   5  33
BRANCH   1  35
ATOM     35  O   LIG d   1       7.590   1.625  -4.917  0.00  0.00    -0.487 OA
BRANCH  35  36
ATOM     36  C   LIG d   1       7.692   0.246  -4.557  0.00  0.00     0.115 C 
ATOM     37  H   LIG d   1       8.606   0.087  -3.983  0.00  0.00     0.075 H 
ATOM     38  H   LIG d   1       7.721  -0.365  -5.460  0.00  0.00     0.075 H 
BRANCH  36  39
ATOM     39  C   LIG d   1       6.500  -0.145  -3.722  0.00  0.00    -0.007 A 
ATOM     40  C   LIG d   1       6.324  -1.463  -3.344  0.00  0.00    -0.044 A 
ATOM     41  C   LIG d   1       5.231  -1.821  -2.578  0.00  0.00    -0.058 A 
ATOM     42  C   LIG d   1       4.313  -0.863  -2.191  0.00  0.00    -0.059 A 
ATOM     43  H   LIG d   1       5.093  -2.851  -2.281  0.00  0.00     0.062 H 
ATOM     44  C   LIG d   1       4.490   0.455  -2.570  0.00  0.00    -0.050 A 
ATOM     45  H   LIG d   1       3.458  -1.143  -1.593  0.00  0.00     0.062 H 
ATOM     46  C   LIG d   1       5.580   0.813  -3.340  0.00  0.00    -0.052 A 
ATOM     47  H   LIG d   1       5.716   1.842  -3.639  0.00  0.00     0.062 H 
BRANCH  40  48
ATOM     48  C   LIG d   1       7.325  -2.508  -3.764  0.00  0.00    -0.039 C 
ATOM     49  H   LIG d   1       8.073  -2.631  -2.980  0.00  0.00     0.028 H 
ATOM     50  H   LIG d   1       6.813  -3.456  -3.930  0.00  0.00     0.028 H 
ATOM     51  H   LIG d   1       7.814  -2.193  -4.686  0.00  0.00     0.028 H 
ENDBRANCH  40  48
BRANCH  44  52
ATOM     52  C   LIG d   1       3.490   1.500  -2.148  0.00  0.00    -0.040 C 
ATOM     53  H   LIG d   1       3.500   1.595  -1.062  0.00  0.00     0.028 H 
ATOM     54  H   LIG d   1       3.752   2.458  -2.599  0.00  0.00     0.028 H 
ATOM     55  H   LIG d   1       2.494   1.205  -2.478  0.00  0.00     0.028 H 
ENDBRANCH  44  52
ENDBRANCH  36  39
ENDBRANCH  35  36
ENDBRANCH   1  35
TORSDOF 11
ENDMDL
MODEL 3
REMARK VINA RESULT:      -6.7      5.903      9.501
REMARK  11 active torsions:
REMARK  status: ('A' for Active; 'I' for Inactive)
REMARK    1  A    between atoms: C_1  and  C_2 
REMARK    2  A    between atoms: C_5  and  C_32 
REMARK    3  A    between atoms: C_6  and  C_8 
REMARK    4  A    between atoms: C_8  and  O_9 
REMARK    5  A    between atoms: O_9  and  C_10 
REMARK    6  A    between atoms: C_13  and  C_17 
REMARK    7  A    between atoms: C_14  and  O_16 
REMARK    8  A    between atoms: C_18  and  O_23 
REMARK    9  A    between atoms: O_23  and  C_24 
REMARK   10  A    between atoms: C_27  and  O_30 
REMARK   11  A    between atoms: O_30  and  C_31 
ROOT
ATOM      1  C   LIG d   1       8.823  -3.756  -3.457  0.00  0.00     0.124 A 
ATOM      2  C   LIG d   1       9.587  -4.170  -2.373  0.00  0.00    -0.019 A 
ATOM      3  C   LIG d   1      10.132  -5.436  -2.350  0.00  0.00    -0.045 A 
ATOM      4  C   LIG d   1       9.915  -6.306  -3.417  0.00  0.00     0.047 A 
ATOM      5  C   LIG d   1       9.146  -5.889  -4.509  0.00  0.00     0.130 A 
ATOM      6  C   LIG d   1       8.599  -4.618  -4.521  0.00  0.00     0.022 A 
ATOM      7  H   LIG d   1       9.755  -3.497  -1.546  0.00  0.00     0.065 H 
ATOM      8  H   LIG d   1      10.725  -5.754  -1.507  0.00  0.00     0.063 H 
ATOM      9  H   LIG d   1       8.001  -4.295  -5.360  0.00  0.00     0.069 H 
ENDROOT
BRANCH   4  10
ATOM     10  C   LIG d   1      10.499  -7.669  -3.397  0.00  0.00     0.138 A 
ATOM     11  N   LIG d   1      11.506  -8.090  -4.132  0.00  0.00    -0.170 NA
ATOM     12  N   LIG d   1      11.753  -9.431  -3.812  0.00  0.00    -0.281 N 
ATOM     13  C   LIG d   1      10.854  -9.811  -2.866  0.00  0.00     0.065 A 
ATOM     14  H   LIG d   1      12.441  -9.993  -4.202  0.00  0.00     0.188 HD
ATOM     15  C   LIG d   1      10.068  -8.743  -2.589  0.00  0.00     0.173 A 
ATOM     16  H   LIG d   1      10.781 -10.789  -2.414  0.00  0.00     0.086 H 
BRANCH  15  17
ATOM     17  O   LIG d   1       9.044  -8.712  -1.692  0.00  0.00    -0.452 OA
BRANCH  17  18
ATOM     18  C   LIG d   1       7.886  -9.341  -2.023  0.00  0.00     0.129 A 
ATOM     19  C   LIG d   1       7.303  -9.117  -3.263  0.00  0.00    -0.016 A 
ATOM     20  C   LIG d   1       6.129  -9.761  -3.601  0.00  0.00    -0.017 A 
ATOM     21  H   LIG d   1       7.770  -8.441  -3.964  0.00  0.00     0.066 H 
ATOM     22  C   LIG d   1       5.526 -10.624  -2.698  0.00  0.00     0.120 A 
ATOM     23  H   LIG d   1       5.679  -9.590  -4.567  0.00  0.00     0.066 H 
ATOM     24  C   LIG d   1       6.105 -10.845  -1.457  0.00  0.00    -0.017 A 
ATOM     25  C   LIG d   1       7.282 -10.205  -1.120  0.00  0.00    -0.016 A 
ATOM     26  H   LIG d   1       5.636 -11.516  -0.754  0.00  0.00     0.066 H 
ATOM     27  H   LIG d   1       7.733 -10.376  -0.154  0.00  0.00     0.066 H 
BRANCH  22  28
ATOM     28  O   LIG d   1       4.367 -11.253  -3.029  0.00  0.00    -0.495 OA
BRANCH  28  29
ATOM     29  C   LIG d   1       3.236 -10.426  -3.308  0.00  0.00     0.079 C 
ATOM     30  H   LIG d   1       3.301 -10.055  -4.330  0.00  0.00     0.066 H 
ATOM     31  H   LIG d   1       2.322 -11.009  -3.190  0.00  0.00     0.066 H 
ATOM     32  H   LIG d   1       3.221  -9.585  -2.615  0.00  0.00     0.066 H 
ENDBRANCH  28  29
ENDBRANCH  22  28
ENDBRANCH  17  18
ENDBRANCH  15  17
ENDBRANCH   4  10
BRANCH   5  33
ATOM     33  O   LIG d   1       8.931  -6.733  -5.552  0.00  0.00    -0.506 OA
ATOM     34  H   LIG d   1       8.090  -6.590  -6.007  0.00  0.00     0.292 HD
ENDBRANCH   5  33
BRANCH   1  35
ATOM     35  O   LIG d   1       8.290  -2.507  -3.473  0.00  0.00    -0.487 OA
BRANCH  35  36
ATOM     36  C   LIG d   1       7.276  -2.245  -4.445  0.00  0.00     0.115 C 
ATOM     37  H   LIG d   1       7.108  -3.140  -5.045  0.00  0.00     0.075 H 
ATOM     38  H   LIG d   1       7.597  -1.429  -5.094  0.00  0.00     0.075 H 
BRANCH  36  39
ATOM     39  C   LIG d   1       5.998  -1.860  -3.747  0.00  0.00    -0.007 A 
ATOM     40  C   LIG d   1       4.885  -2.674  -3.845  0.00  0.00    -0.044 A 
ATOM     41  C   LIG d   1       3.712  -2.321  -3.204  0.00  0.00    -0.058 A 
ATOM     42  C   LIG d   1       3.651  -1.154  -2.466  0.00  0.00    -0.059 A 
ATOM     43  H   LIG d   1       2.842  -2.957  -3.280  0.00  0.00     0.062 H 
ATOM     44  C   LIG d   1       4.765  -0.340  -2.369  0.00  0.00    -0.050 A 
ATOM     45  H   LIG d   1       2.735  -0.878  -1.966  0.00  0.00     0.062 H 
ATOM     46  C   LIG d   1       5.936  -0.690  -3.014  0.00  0.00    -0.052 A 
ATOM     47  H   LIG d   1       6.805  -0.052  -2.940  0.00  0.00     0.062 H 
BRANCH  40  48
ATOM     48  C   LIG d   1       4.951  -3.947  -4.648  0.00  0.00    -0.039 C 
ATOM     49  H   LIG d   1       3.971  -4.157  -5.078  0.00  0.00     0.028 H 
ATOM     50  H   LIG d   1       5.682  -3.835  -5.449  0.00  0.00     0.028 H 
ATOM     51  H   LIG d   1       5.247  -4.772  -3.999  0.00  0.00     0.028 H 
ENDBRANCH  40  48
BRANCH  44  52
ATOM     52  C   LIG d   1       4.699   0.932  -1.564  0.00  0.00    -0.040 C 
ATOM     53  H   LIG d   1       5.475   1.619  -1.906  0.00  0.00     0.028 H 
ATOM     54  H   LIG d   1       3.721   1.395  -1.694  0.00  0.00     0.028 H 
ATOM     55  H   LIG d   1       4.855   0.705  -0.510  0.00  0.00     0.028 H 
ENDBRANCH  44  52
ENDBRANCH  36  39
ENDBRANCH  35  36
ENDBRANCH   1  35
TORSDOF 11
ENDMDL
MODEL 4
REMARK VINA RESULT:      -6.6      6.510     10.280
REMARK  11 active torsions:
REMARK  status: ('A' for Active; 'I' for Inactive)
REMARK    1  A    between atoms: C_1  and  C_2 
REMARK    2  A    between atoms: C_5  and  C_32 
REMARK    3  A    between atoms: C_6  and  C_8 
REMARK    4  A    between atoms: C_8  and  O_9 
REMARK    5  A    between atoms: O_9  and  C_10 
REMARK    6  A    between atoms: C_13  and  C_17 
REMARK    7  A    between atoms: C_14  and  O_16 
REMARK    8  A    between atoms: C_18  and  O_23 
REMARK    9  A    between atoms: O_23  and  C_24 
REMARK   10  A    between atoms: C_27  and  O_30 
REMARK   11  A    between atoms: O_30  and  C_31 
ROOT
ATOM      1  C   LIG d   1       8.396   2.009  -4.576  0.00  0.00     0.124 A 
ATOM      2  C   LIG d   1       8.837   2.648  -5.729  0.00  0.00    -0.019 A 
ATOM      3  C   LIG d   1       9.962   3.443  -5.694  0.00  0.00    -0.045 A 
ATOM      4  C   LIG d   1      10.660   3.609  -4.500  0.00  0.00     0.047 A 
ATOM      5  C   LIG d   1      10.217   2.965  -3.340  0.00  0.00     0.130 A 
ATOM      6  C   LIG d   1       9.083   2.172  -3.383  0.00  0.00     0.022 A 
ATOM      7  H   LIG d   1       8.296   2.521  -6.654  0.00  0.00     0.065 H 
ATOM      8  H   LIG d   1      10.302   3.938  -6.591  0.00  0.00     0.063 H 
ATOM      9  H   LIG d   1       8.736   1.678  -2.488  0.00  0.00     0.069 H 
ENDROOT
BRANCH   4  10
ATOM     10  C   LIG d   1      11.873   4.463  -4.459  0.00  0.00     0.138 A 
ATOM     11  N   LIG d   1      13.111   4.043  -4.314  0.00  0.00    -0.170 NA
ATOM     12  N   LIG d   1      13.958   5.159  -4.330  0.00  0.00    -0.281 N 
ATOM     13  C   LIG d   1      13.189   6.269  -4.479  0.00  0.00     0.065 A 
ATOM     14  H   LIG d   1      14.924   5.142  -4.243  0.00  0.00     0.188 HD
ATOM     15  C   LIG d   1      11.897   5.871  -4.561  0.00  0.00     0.173 A 
ATOM     16  H   LIG d   1      13.544   7.288  -4.524  0.00  0.00     0.086 H 
BRANCH  15  17
ATOM     17  O   LIG d   1      10.815   6.684  -4.716  0.00  0.00    -0.452 OA
BRANCH  17  18
ATOM     18  C   LIG d   1      10.393   7.396  -3.639  0.00  0.00     0.129 A 
ATOM     19  C   LIG d   1      10.568   8.772  -3.604  0.00  0.00    -0.016 A 
ATOM     20  C   LIG d   1      10.133   9.496  -2.511  0.00  0.00    -0.017 A 
ATOM     21  H   LIG d   1      11.041   9.277  -4.434  0.00  0.00     0.066 H 
ATOM     22  C   LIG d   1       9.532   8.847  -1.443  0.00  0.00     0.120 A 
ATOM     23  H   LIG d   1      10.266  10.568  -2.487  0.00  0.00     0.066 H 
ATOM     24  C   LIG d   1       9.361   7.471  -1.475  0.00  0.00    -0.017 A 
ATOM     25  C   LIG d   1       9.791   6.747  -2.570  0.00  0.00    -0.016 A 
ATOM     26  H   LIG d   1       8.893   6.965  -0.645  0.00  0.00     0.066 H 
ATOM     27  H   LIG d   1       9.658   5.675  -2.596  0.00  0.00     0.066 H 
BRANCH  22  28
ATOM     28  O   LIG d   1       9.110   9.560  -0.365  0.00  0.00    -0.495 OA
BRANCH  28  29
ATOM     29  C   LIG d   1      10.061  10.428   0.252  0.00  0.00     0.079 C 
ATOM     30  H   LIG d   1      10.982  10.431  -0.331  0.00  0.00     0.066 H 
ATOM     31  H   LIG d   1       9.656  11.440   0.294  0.00  0.00     0.066 H 
ATOM     32  H   LIG d   1      10.270  10.079   1.263  0.00  0.00     0.066 H 
ENDBRANCH  28  29
ENDBRANCH  22  28
ENDBRANCH  17  18
ENDBRANCH  15  17
ENDBRANCH   4  10
BRANCH   5  33
ATOM     33  O   LIG d   1      10.894   3.123  -2.172  0.00  0.00    -0.506 OA
ATOM     34  H   LIG d   1      10.388   2.872  -1.387  0.00  0.00     0.292 HD
ENDBRANCH   5  33
BRANCH   1  35
ATOM     35  O   LIG d   1       7.287   1.226  -4.618  0.00  0.00    -0.487 OA
BRANCH  35  36
ATOM     36  C   LIG d   1       6.438   1.240  -3.469  0.00  0.00     0.115 C 
ATOM     37  H   LIG d   1       5.702   2.039  -3.570  0.00  0.00     0.075 H 
ATOM     38  H   LIG d   1       7.038   1.411  -2.575  0.00  0.00     0.075 H 
BRANCH  36  39
ATOM     39  C   LIG d   1       5.728  -0.084  -3.352  0.00  0.00    -0.007 A 
ATOM     40  C   LIG d   1       4.656  -0.220  -2.490  0.00  0.00    -0.044 A 
ATOM     41  C   LIG d   1       4.005  -1.434  -2.383  0.00  0.00    -0.058 A 
ATOM     42  C   LIG d   1       4.425  -2.513  -3.137  0.00  0.00    -0.059 A 
ATOM     43  H   LIG d   1       3.166  -1.541  -1.709  0.00  0.00     0.062 H 
ATOM     44  C   LIG d   1       5.497  -2.377  -4.000  0.00  0.00    -0.050 A 
ATOM     45  H   LIG d   1       3.916  -3.462  -3.054  0.00  0.00     0.062 H 
ATOM     46  C   LIG d   1       6.152  -1.164  -4.103  0.00  0.00    -0.052 A 
ATOM     47  H   LIG d   1       6.991  -1.059  -4.774  0.00  0.00     0.062 H 
BRANCH  40  48
ATOM     48  C   LIG d   1       4.196   0.956  -1.668  0.00  0.00    -0.039 C 
ATOM     49  H   LIG d   1       3.107   0.963  -1.620  0.00  0.00     0.028 H 
ATOM     50  H   LIG d   1       4.603   0.877  -0.660  0.00  0.00     0.028 H 
ATOM     51  H   LIG d   1       4.546   1.881  -2.129  0.00  0.00     0.028 H 
ENDBRANCH  40  48
BRANCH  44  52
ATOM     52  C   LIG d   1       5.955  -3.553  -4.823  0.00  0.00    -0.040 C 
ATOM     53  H   LIG d   1       5.348  -4.425  -4.580  0.00  0.00     0.028 H 
ATOM     54  H   LIG d   1       5.848  -3.320  -5.883  0.00  0.00     0.028 H 
ATOM     55  H   LIG d   1       7.001  -3.766  -4.603  0.00  0.00     0.028 H 
ENDBRANCH  44  52
ENDBRANCH  36  39
ENDBRANCH  35  36
ENDBRANCH   1  35
TORSDOF 11
ENDMDL
MODEL 5
REMARK VINA RESULT:      -6.6      6.928     10.448
REMARK  11 active torsions:
REMARK  status: ('A' for Active; 'I' for Inactive)
REMARK    1  A    between atoms: C_1  and  C_2 
REMARK    2  A    between atoms: C_5  and  C_32 
REMARK    3  A    between atoms: C_6  and  C_8 
REMARK    4  A    between atoms: C_8  and  O_9 
REMARK    5  A    between atoms: O_9  and  C_10 
REMARK    6  A    between atoms: C_13  and  C_17 
REMARK    7  A    between atoms: C_14  and  O_16 
REMARK    8  A    between atoms: C_18  and  O_23 
REMARK    9  A    between atoms: O_23  and  C_24 
REMARK   10  A    between atoms: C_27  and  O_30 
REMARK   11  A    between atoms: O_30  and  C_31 
ROOT
ATOM      1  C   LIG d   1       8.615   2.494  -4.572  0.00  0.00     0.124 A 
ATOM      2  C   LIG d   1       8.898   3.597  -5.368  0.00  0.00    -0.019 A 
ATOM      3  C   LIG d   1       9.895   4.478  -5.003  0.00  0.00    -0.045 A 
ATOM      4  C   LIG d   1      10.620   4.262  -3.834  0.00  0.00     0.047 A 
ATOM      5  C   LIG d   1      10.336   3.151  -3.034  0.00  0.00     0.130 A 
ATOM      6  C   LIG d   1       9.331   2.275  -3.405  0.00  0.00     0.022 A 
ATOM      7  H   LIG d   1       8.336   3.766  -6.273  0.00  0.00     0.065 H 
ATOM      8  H   LIG d   1      10.112   5.335  -5.623  0.00  0.00     0.063 H 
ATOM      9  H   LIG d   1       9.105   1.418  -2.787  0.00  0.00     0.069 H 
ENDROOT
BRANCH   4  10
ATOM     10  C   LIG d   1      11.694   5.207  -3.439  0.00  0.00     0.138 A 
ATOM     11  N   LIG d   1      12.987   4.962  -3.457  0.00  0.00    -0.170 NA
ATOM     12  N   LIG d   1      13.658   6.109  -3.015  0.00  0.00    -0.281 N 
ATOM     13  C   LIG d   1      12.727   7.053  -2.719  0.00  0.00     0.065 A 
ATOM     14  H   LIG d   1      14.619   6.209  -2.930  0.00  0.00     0.188 HD
ATOM     15  C   LIG d   1      11.505   6.525  -2.971  0.00  0.00     0.173 A 
ATOM     16  H   LIG d   1      12.926   8.048  -2.349  0.00  0.00     0.086 H 
BRANCH  15  17
ATOM     17  O   LIG d   1      10.309   7.155  -2.803  0.00  0.00    -0.452 OA
BRANCH  17  18
ATOM     18  C   LIG d   1      10.071   8.277  -3.530  0.00  0.00     0.129 A 
ATOM     19  C   LIG d   1       9.814   8.182  -4.890  0.00  0.00    -0.016 A 
ATOM     20  C   LIG d   1       9.567   9.323  -5.628  0.00  0.00    -0.017 A 
ATOM     21  H   LIG d   1       9.804   7.215  -5.371  0.00  0.00     0.066 H 
ATOM     22  C   LIG d   1       9.587  10.565  -5.012  0.00  0.00     0.120 A 
ATOM     23  H   LIG d   1       9.362   9.248  -6.686  0.00  0.00     0.066 H 
ATOM     24  C   LIG d   1       9.849  10.662  -3.654  0.00  0.00    -0.017 A 
ATOM     25  C   LIG d   1      10.091   9.521  -2.914  0.00  0.00    -0.016 A 
ATOM     26  H   LIG d   1       9.864  11.629  -3.174  0.00  0.00     0.066 H 
ATOM     27  H   LIG d   1      10.295   9.595  -1.856  0.00  0.00     0.066 H 
BRANCH  22  28
ATOM     28  O   LIG d   1       9.349  11.689  -5.740  0.00  0.00    -0.495 OA
BRANCH  28  29
ATOM     29  C   LIG d   1       9.945  11.761  -7.037  0.00  0.00     0.079 C 
ATOM     30  H   LIG d   1      10.969  11.390  -6.986  0.00  0.00     0.066 H 
ATOM     31  H   LIG d   1       9.372  11.150  -7.735  0.00  0.00     0.066 H 
ATOM     32  H   LIG d   1       9.948  12.796  -7.379  0.00  0.00     0.066 H 
ENDBRANCH  28  29
ENDBRANCH  22  28
ENDBRANCH  17  18
ENDBRANCH  15  17
ENDBRANCH   4  10
BRANCH   5  33
ATOM     33  O   LIG d   1      11.041   2.935  -1.892  0.00  0.00    -0.506 OA
ATOM     34  H   LIG d   1      11.998   2.905  -2.020  0.00  0.00     0.292 HD
ENDBRANCH   5  33
BRANCH   1  35
ATOM     35  O   LIG d   1       7.633   1.630  -4.938  0.00  0.00    -0.487 OA
BRANCH  35  36
ATOM     36  C   LIG d   1       7.783   0.267  -4.535  0.00  0.00     0.115 C 
ATOM     37  H   LIG d   1       8.687   0.163  -3.934  0.00  0.00     0.075 H 
ATOM     38  H   LIG d   1       7.860  -0.367  -5.418  0.00  0.00     0.075 H 
BRANCH  36  39
ATOM     39  C   LIG d   1       6.587  -0.150  -3.718  0.00  0.00    -0.007 A 
ATOM     40  C   LIG d   1       6.419  -1.476  -3.367  0.00  0.00    -0.044 A 
ATOM     41  C   LIG d   1       5.323  -1.859  -2.618  0.00  0.00    -0.058 A 
ATOM     42  C   LIG d   1       4.394  -0.917  -2.220  0.00  0.00    -0.059 A 
ATOM     43  H   LIG d   1       5.191  -2.896  -2.342  0.00  0.00     0.062 H 
ATOM     44  C   LIG d   1       4.562   0.410  -2.572  0.00  0.00    -0.050 A 
ATOM     45  H   LIG d   1       3.536  -1.215  -1.635  0.00  0.00     0.062 H 
ATOM     46  C   LIG d   1       5.656   0.792  -3.326  0.00  0.00    -0.052 A 
ATOM     47  H   LIG d   1       5.785   1.828  -3.603  0.00  0.00     0.062 H 
BRANCH  40  48
ATOM     48  C   LIG d   1       7.433  -2.505  -3.799  0.00  0.00    -0.039 C 
ATOM     49  H   LIG d   1       8.012  -2.115  -4.636  0.00  0.00     0.028 H 
ATOM     50  H   LIG d   1       8.101  -2.728  -2.967  0.00  0.00     0.028 H 
ATOM     51  H   LIG d   1       6.919  -3.416  -4.106  0.00  0.00     0.028 H 
ENDBRANCH  40  48
BRANCH  44  52
ATOM     52  C   LIG d   1       3.549   1.439  -2.138  0.00  0.00    -0.040 C 
ATOM     53  H   LIG d   1       3.797   1.793  -1.137  0.00  0.00     0.028 H 
ATOM     54  H   LIG d   1       3.562   2.278  -2.834  0.00  0.00     0.028 H 
ATOM     55  H   LIG d   1       2.556   0.990  -2.129  0.00  0.00     0.028 H 
ENDBRANCH  44  52
ENDBRANCH  36  39
ENDBRANCH  35  36
ENDBRANCH   1  35
TORSDOF 11
ENDMDL
MODEL 6
REMARK VINA RESULT:      -6.5      4.096      6.020
REMARK  11 active torsions:
REMARK  status: ('A' for Active; 'I' for Inactive)
REMARK    1  A    between atoms: C_1  and  C_2 
REMARK    2  A    between atoms: C_5  and  C_32 
REMARK    3  A    between atoms: C_6  and  C_8 
REMARK    4  A    between atoms: C_8  and  O_9 
REMARK    5  A    between atoms: O_9  and  C_10 
REMARK    6  A    between atoms: C_13  and  C_17 
REMARK    7  A    between atoms: C_14  and  O_16 
REMARK    8  A    between atoms: C_18  and  O_23 
REMARK    9  A    between atoms: O_23  and  C_24 
REMARK   10  A    between atoms: C_27  and  O_30 
REMARK   11  A    between atoms: O_30  and  C_31 
ROOT
ATOM      1  C   LIG d   1       7.443  -4.191  -4.968  0.00  0.00     0.124 A 
ATOM      2  C   LIG d   1       7.644  -3.019  -4.250  0.00  0.00    -0.019 A 
ATOM      3  C   LIG d   1       6.582  -2.185  -3.969  0.00  0.00    -0.045 A 
ATOM      4  C   LIG d   1       5.302  -2.520  -4.406  0.00  0.00     0.047 A 
ATOM      5  C   LIG d   1       5.099  -3.700  -5.128  0.00  0.00     0.130 A 
ATOM      6  C   LIG d   1       6.172  -4.528  -5.410  0.00  0.00     0.022 A 
ATOM      7  H   LIG d   1       8.636  -2.759  -3.912  0.00  0.00     0.065 H 
ATOM      8  H   LIG d   1       6.742  -1.275  -3.411  0.00  0.00     0.063 H 
ATOM      9  H   LIG d   1       6.020  -5.438  -5.971  0.00  0.00     0.069 H 
ENDROOT
BRANCH   4  10
ATOM     10  C   LIG d   1       4.156  -1.626  -4.105  0.00  0.00     0.138 A 
ATOM     11  N   LIG d   1       3.299  -1.773  -3.117  0.00  0.00    -0.170 NA
ATOM     12  N   LIG d   1       2.375  -0.723  -3.178  0.00  0.00    -0.281 N 
ATOM     13  C   LIG d   1       2.696   0.060  -4.241  0.00  0.00     0.065 A 
ATOM     14  H   LIG d   1       1.632  -0.582  -2.570  0.00  0.00     0.188 HD
ATOM     15  C   LIG d   1       3.792  -0.473  -4.833  0.00  0.00     0.173 A 
ATOM     16  H   LIG d   1       2.172   0.949  -4.558  0.00  0.00     0.086 H 
BRANCH  15  17
ATOM     17  O   LIG d   1       4.428   0.017  -5.932  0.00  0.00    -0.452 OA
BRANCH  17  18
ATOM     18  C   LIG d   1       3.820  -0.129  -7.139  0.00  0.00     0.129 A 
ATOM     19  C   LIG d   1       3.855  -1.353  -7.791  0.00  0.00    -0.016 A 
ATOM     20  C   LIG d   1       3.233  -1.502  -9.015  0.00  0.00    -0.017 A 
ATOM     21  H   LIG d   1       4.367  -2.191  -7.340  0.00  0.00     0.066 H 
ATOM     22  C   LIG d   1       2.582  -0.424  -9.598  0.00  0.00     0.120 A 
ATOM     23  H   LIG d   1       3.256  -2.456  -9.520  0.00  0.00     0.066 H 
ATOM     24  C   LIG d   1       2.551   0.801  -8.949  0.00  0.00    -0.017 A 
ATOM     25  C   LIG d   1       3.169   0.949  -7.723  0.00  0.00    -0.016 A 
ATOM     26  H   LIG d   1       2.045   1.640  -9.402  0.00  0.00     0.066 H 
ATOM     27  H   LIG d   1       3.145   1.903  -7.217  0.00  0.00     0.066 H 
BRANCH  22  28
ATOM     28  O   LIG d   1       1.974  -0.570 -10.806  0.00  0.00    -0.495 OA
BRANCH  28  29
ATOM     29  C   LIG d   1       1.316  -1.813 -11.056  0.00  0.00     0.079 C 
ATOM     30  H   LIG d   1       0.488  -1.653 -11.745  0.00  0.00     0.066 H 
ATOM     31  H   LIG d   1       2.024  -2.517 -11.495  0.00  0.00     0.066 H 
ATOM     32  H   LIG d   1       0.937  -2.219 -10.118  0.00  0.00     0.066 H 
ENDBRANCH  28  29
ENDBRANCH  22  28
ENDBRANCH  17  18
ENDBRANCH  15  17
ENDBRANCH   4  10
BRANCH   5  33
ATOM     33  O   LIG d   1       3.853  -4.031  -5.557  0.00  0.00    -0.506 OA
ATOM     34  H   LIG d   1       3.274  -3.271  -5.709  0.00  0.00     0.292 HD
ENDBRANCH   5  33
BRANCH   1  35
ATOM     35  O   LIG d   1       8.494  -5.007  -5.240  0.00  0.00    -0.487 OA
BRANCH  35  36
ATOM     36  C   LIG d   1       8.196  -6.373  -5.536  0.00  0.00     0.115 C 
ATOM     37  H   LIG d   1       8.866  -6.729  -6.319  0.00  0.00     0.075 H 
ATOM     38  H   LIG d   1       7.164  -6.455  -5.878  0.00  0.00     0.075 H 
BRANCH  36  39
ATOM     39  C   LIG d   1       8.384  -7.209  -4.296  0.00  0.00    -0.007 A 
ATOM     40  C   LIG d   1       7.581  -8.313  -4.079  0.00  0.00    -0.044 A 
ATOM     41  C   LIG d   1       7.754  -9.080  -2.943  0.00  0.00    -0.058 A 
ATOM     42  C   LIG d   1       8.727  -8.742  -2.022  0.00  0.00    -0.059 A 
ATOM     43  H   LIG d   1       7.127  -9.943  -2.773  0.00  0.00     0.062 H 
ATOM     44  C   LIG d   1       9.530  -7.637  -2.239  0.00  0.00    -0.050 A 
ATOM     45  H   LIG d   1       8.862  -9.341  -1.133  0.00  0.00     0.062 H 
ATOM     46  C   LIG d   1       9.355  -6.867  -3.374  0.00  0.00    -0.052 A 
ATOM     47  H   LIG d   1       9.979  -6.002  -3.541  0.00  0.00     0.062 H 
BRANCH  40  48
ATOM     48  C   LIG d   1       6.521  -8.683  -5.084  0.00  0.00    -0.039 C 
ATOM     49  H   LIG d   1       6.923  -9.414  -5.785  0.00  0.00     0.028 H 
ATOM     50  H   LIG d   1       5.663  -9.111  -4.566  0.00  0.00     0.028 H 
ATOM     51  H   LIG d   1       6.208  -7.791  -5.628  0.00  0.00     0.028 H 
ENDBRANCH  40  48
BRANCH  44  52
ATOM     52  C   LIG d   1      10.592  -7.269  -1.236  0.00  0.00    -0.040 C 
ATOM     53  H   LIG d   1      10.346  -6.308  -0.782  0.00  0.00     0.028 H 
ATOM     54  H   LIG d   1      10.642  -8.034  -0.461  0.00  0.00     0.028 H 
ATOM     55  H   LIG d   1      11.557  -7.197  -1.737  0.00  0.00     0.028 H 
ENDBRANCH  44  52
ENDBRANCH  36  39
ENDBRANCH  35  36
ENDBRANCH   1  35
TORSDOF 11
ENDMDL
MODEL 7
REMARK VINA RESULT:      -6.4      6.907     10.265
REMARK  11 active torsions:
REMARK  status: ('A' for Active; 'I' for Inactive)
REMARK    1  A    between atoms: C_1  and  C_2 
REMARK    2  A    between atoms: C_5  and  C_32 
REMARK    3  A    between atoms: C_6  and  C_8 
REMARK    4  A    between atoms: C_8  and  O_9 
REMARK    5  A    between atoms: O_9  and  C_10 
REMARK    6  A    between atoms: C_13  and  C_17 
REMARK    7  A    between atoms: C_14  and  O_16 
REMARK    8  A    between atoms: C_18  and  O_23 
REMARK    9  A    between atoms: O_23  and  C_24 
REMARK   10  A    between atoms: C_27  and  O_30 
REMARK   11  A    between atoms: O_30  and  C_31 
ROOT
ATOM      1  C   LIG d   1       9.714   2.665  -3.818  0.00  0.00     0.124 A 
ATOM      2  C   LIG d   1       9.051   3.716  -4.439  0.00  0.00    -0.019 A 
ATOM      3  C   LIG d   1       9.167   4.998  -3.946  0.00  0.00    -0.045 A 
ATOM      4  C   LIG d   1       9.952   5.242  -2.821  0.00  0.00     0.047 A 
ATOM      5  C   LIG d   1      10.621   4.184  -2.197  0.00  0.00     0.130 A 
ATOM      6  C   LIG d   1      10.494   2.899  -2.696  0.00  0.00     0.022 A 
ATOM      7  H   LIG d   1       8.441   3.528  -5.310  0.00  0.00     0.065 H 
ATOM      8  H   LIG d   1       8.650   5.813  -4.430  0.00  0.00     0.063 H 
ATOM      9  H   LIG d   1      11.006   2.080  -2.213  0.00  0.00     0.069 H 
ENDROOT
BRANCH   4  10
ATOM     10  C   LIG d   1      10.081   6.621  -2.288  0.00  0.00     0.138 A 
ATOM     11  N   LIG d   1       9.498   7.089  -1.204  0.00  0.00    -0.170 NA
ATOM     12  N   LIG d   1       9.877   8.428  -1.046  0.00  0.00    -0.281 N 
ATOM     13  C   LIG d   1      10.700   8.757  -2.075  0.00  0.00     0.065 A 
ATOM     14  H   LIG d   1       9.596   9.018  -0.329  0.00  0.00     0.188 HD
ATOM     15  C   LIG d   1      10.845   7.661  -2.858  0.00  0.00     0.173 A 
ATOM     16  H   LIG d   1      11.158   9.721  -2.240  0.00  0.00     0.086 H 
BRANCH  15  17
ATOM     17  O   LIG d   1      11.593   7.579  -3.993  0.00  0.00    -0.452 OA
BRANCH  17  18
ATOM     18  C   LIG d   1      10.944   7.561  -5.186  0.00  0.00     0.129 A 
ATOM     19  C   LIG d   1       9.875   8.417  -5.409  0.00  0.00    -0.016 A 
ATOM     20  C   LIG d   1       9.219   8.402  -6.624  0.00  0.00    -0.017 A 
ATOM     21  H   LIG d   1       9.559   9.099  -4.632  0.00  0.00     0.066 H 
ATOM     22  C   LIG d   1       9.621   7.522  -7.618  0.00  0.00     0.120 A 
ATOM     23  H   LIG d   1       8.390   9.072  -6.798  0.00  0.00     0.066 H 
ATOM     24  C   LIG d   1      10.685   6.662  -7.395  0.00  0.00    -0.017 A 
ATOM     25  C   LIG d   1      11.346   6.681  -6.182  0.00  0.00    -0.016 A 
ATOM     26  H   LIG d   1      10.999   5.978  -8.168  0.00  0.00     0.066 H 
ATOM     27  H   LIG d   1      12.175   6.011  -6.007  0.00  0.00     0.066 H 
BRANCH  22  28
ATOM     28  O   LIG d   1       8.971   7.503  -8.812  0.00  0.00    -0.495 OA
BRANCH  28  29
ATOM     29  C   LIG d   1       9.696   7.007  -9.938  0.00  0.00     0.079 C 
ATOM     30  H   LIG d   1      10.566   6.449  -9.593  0.00  0.00     0.066 H 
ATOM     31  H   LIG d   1       9.052   6.350 -10.525  0.00  0.00     0.066 H 
ATOM     32  H   LIG d   1      10.021   7.842 -10.558  0.00  0.00     0.066 H 
ENDBRANCH  28  29
ENDBRANCH  22  28
ENDBRANCH  17  18
ENDBRANCH  15  17
ENDBRANCH   4  10
BRANCH   5  33
ATOM     33  O   LIG d   1      11.388   4.416  -1.099  0.00  0.00    -0.506 OA
ATOM     34  H   LIG d   1      12.321   4.191  -1.217  0.00  0.00     0.292 HD
ENDBRANCH   5  33
BRANCH   1  35
ATOM     35  O   LIG d   1       9.596   1.404  -4.311  0.00  0.00    -0.487 OA
BRANCH  35  36
ATOM     36  C   LIG d   1       8.431   1.117  -5.087  0.00  0.00     0.115 C 
ATOM     37  H   LIG d   1       8.714   0.535  -5.965  0.00  0.00     0.075 H 
ATOM     38  H   LIG d   1       7.966   2.050  -5.404  0.00  0.00     0.075 H 
BRANCH  36  39
ATOM     39  C   LIG d   1       7.455   0.326  -4.254  0.00  0.00    -0.007 A 
ATOM     40  C   LIG d   1       7.491  -1.056  -4.275  0.00  0.00    -0.044 A 
ATOM     41  C   LIG d   1       6.596  -1.781  -3.511  0.00  0.00    -0.058 A 
ATOM     42  C   LIG d   1       5.665  -1.126  -2.728  0.00  0.00    -0.059 A 
ATOM     43  H   LIG d   1       6.624  -2.861  -3.526  0.00  0.00     0.062 H 
ATOM     44  C   LIG d   1       5.630   0.256  -2.708  0.00  0.00    -0.050 A 
ATOM     45  H   LIG d   1       4.965  -1.693  -2.131  0.00  0.00     0.062 H 
ATOM     46  C   LIG d   1       6.521   0.982  -3.475  0.00  0.00    -0.052 A 
ATOM     47  H   LIG d   1       6.491   2.061  -3.462  0.00  0.00     0.062 H 
BRANCH  40  48
ATOM     48  C   LIG d   1       8.507  -1.771  -5.127  0.00  0.00    -0.039 C 
ATOM     49  H   LIG d   1       9.388  -2.000  -4.528  0.00  0.00     0.028 H 
ATOM     50  H   LIG d   1       8.075  -2.697  -5.507  0.00  0.00     0.028 H 
ATOM     51  H   LIG d   1       8.792  -1.134  -5.964  0.00  0.00     0.028 H 
ENDBRANCH  40  48
BRANCH  44  52
ATOM     52  C   LIG d   1       4.615   0.972  -1.853  0.00  0.00    -0.040 C 
ATOM     53  H   LIG d   1       4.672   0.597  -0.831  0.00  0.00     0.028 H 
ATOM     54  H   LIG d   1       4.823   2.041  -1.860  0.00  0.00     0.028 H 
ATOM     55  H   LIG d   1       3.615   0.794  -2.250  0.00  0.00     0.028 H 
ENDBRANCH  44  52
ENDBRANCH  36  39
ENDBRANCH  35  36
ENDBRANCH   1  35
TORSDOF 11
ENDMDL
MODEL 8
REMARK VINA RESULT:      -6.4      6.521     10.590
REMARK  11 active torsions:
REMARK  status: ('A' for Active; 'I' for Inactive)
REMARK    1  A    between atoms: C_1  and  C_2 
REMARK    2  A    between atoms: C_5  and  C_32 
REMARK    3  A    between atoms: C_6  and  C_8 
REMARK    4  A    between atoms: C_8  and  O_9 
REMARK    5  A    between atoms: O_9  and  C_10 
REMARK    6  A    between atoms: C_13  and  C_17 
REMARK    7  A    between atoms: C_14  and  O_16 
REMARK    8  A    between atoms: C_18  and  O_23 
REMARK    9  A    between atoms: O_23  and  C_24 
REMARK   10  A    between atoms: C_27  and  O_30 
REMARK   11  A    between atoms: O_30  and  C_31 
ROOT
ATOM      1  C   LIG d   1       8.357   1.922  -4.568  0.00  0.00     0.124 A 
ATOM      2  C   LIG d   1       9.088   2.270  -3.438  0.00  0.00    -0.019 A 
ATOM      3  C   LIG d   1      10.039   3.266  -3.506  0.00  0.00    -0.045 A 
ATOM      4  C   LIG d   1      10.269   3.927  -4.711  0.00  0.00     0.047 A 
ATOM      5  C   LIG d   1       9.533   3.577  -5.848  0.00  0.00     0.130 A 
ATOM      6  C   LIG d   1       8.584   2.572  -5.771  0.00  0.00     0.022 A 
ATOM      7  H   LIG d   1       8.910   1.758  -2.504  0.00  0.00     0.065 H 
ATOM      8  H   LIG d   1      10.604   3.534  -2.627  0.00  0.00     0.063 H 
ATOM      9  H   LIG d   1       8.017   2.297  -6.649  0.00  0.00     0.069 H 
ENDROOT
BRANCH   4  10
ATOM     10  C   LIG d   1      11.290   5.000  -4.788  0.00  0.00     0.138 A 
ATOM     11  N   LIG d   1      12.411   4.953  -5.476  0.00  0.00    -0.170 NA
ATOM     12  N   LIG d   1      13.092   6.163  -5.288  0.00  0.00    -0.281 N 
ATOM     13  C   LIG d   1      12.351   6.939  -4.455  0.00  0.00     0.065 A 
ATOM     14  H   LIG d   1      13.947   6.401  -5.680  0.00  0.00     0.188 HD
ATOM     15  C   LIG d   1      11.232   6.247  -4.130  0.00  0.00     0.173 A 
ATOM     16  H   LIG d   1      12.607   7.931  -4.113  0.00  0.00     0.086 H 
BRANCH  15  17
ATOM     17  O   LIG d   1      10.231   6.679  -3.315  0.00  0.00    -0.452 OA
BRANCH  17  18
ATOM     18  C   LIG d   1      10.524   6.903  -2.007  0.00  0.00     0.129 A 
ATOM     19  C   LIG d   1      10.577   8.202  -1.520  0.00  0.00    -0.016 A 
ATOM     20  C   LIG d   1      10.870   8.429  -0.189  0.00  0.00    -0.017 A 
ATOM     21  H   LIG d   1      10.385   9.034  -2.180  0.00  0.00     0.066 H 
ATOM     22  C   LIG d   1      11.124   7.360   0.658  0.00  0.00     0.120 A 
ATOM     23  H   LIG d   1      10.907   9.439   0.191  0.00  0.00     0.066 H 
ATOM     24  C   LIG d   1      11.076   6.062   0.170  0.00  0.00    -0.017 A 
ATOM     25  C   LIG d   1      10.778   5.834  -1.159  0.00  0.00    -0.016 A 
ATOM     26  H   LIG d   1      11.273   5.230   0.829  0.00  0.00     0.066 H 
ATOM     27  H   LIG d   1      10.741   4.824  -1.539  0.00  0.00     0.066 H 
BRANCH  22  28
ATOM     28  O   LIG d   1      11.418   7.584   1.966  0.00  0.00    -0.495 OA
BRANCH  28  29
ATOM     29  C   LIG d   1      11.792   8.915   2.328  0.00  0.00     0.079 C 
ATOM     30  H   LIG d   1      12.849   8.935   2.594  0.00  0.00     0.066 H 
ATOM     31  H   LIG d   1      11.618   9.584   1.485  0.00  0.00     0.066 H 
ATOM     32  H   LIG d   1      11.196   9.241   3.179  0.00  0.00     0.066 H 
ENDBRANCH  28  29
ENDBRANCH  22  28
ENDBRANCH  17  18
ENDBRANCH  15  17
ENDBRANCH   4  10
BRANCH   5  33
ATOM     33  O   LIG d   1       9.753   4.218  -7.026  0.00  0.00    -0.506 OA
ATOM     34  H   LIG d   1       9.353   3.783  -7.791  0.00  0.00     0.292 HD
ENDBRANCH   5  33
BRANCH   1  35
ATOM     35  O   LIG d   1       7.421   0.940  -4.493  0.00  0.00    -0.487 OA
BRANCH  35  36
ATOM     36  C   LIG d   1       6.532   0.974  -3.375  0.00  0.00     0.115 C 
ATOM     37  H   LIG d   1       5.848   1.817  -3.481  0.00  0.00     0.075 H 
ATOM     38  H   LIG d   1       7.107   1.087  -2.456  0.00  0.00     0.075 H 
BRANCH  36  39
ATOM     39  C   LIG d   1       5.744  -0.309  -3.321  0.00  0.00    -0.007 A 
ATOM     40  C   LIG d   1       4.675  -0.427  -2.453  0.00  0.00    -0.044 A 
ATOM     41  C   LIG d   1       3.951  -1.604  -2.404  0.00  0.00    -0.058 A 
ATOM     42  C   LIG d   1       4.296  -2.663  -3.222  0.00  0.00    -0.059 A 
ATOM     43  H   LIG d   1       3.115  -1.696  -1.726  0.00  0.00     0.062 H 
ATOM     44  C   LIG d   1       5.366  -2.544  -4.090  0.00  0.00    -0.050 A 
ATOM     45  H   LIG d   1       3.732  -3.583  -3.183  0.00  0.00     0.062 H 
ATOM     46  C   LIG d   1       6.093  -1.370  -4.136  0.00  0.00    -0.052 A 
ATOM     47  H   LIG d   1       6.930  -1.279  -4.811  0.00  0.00     0.062 H 
BRANCH  40  48
ATOM     48  C   LIG d   1       4.296   0.728  -1.562  0.00  0.00    -0.039 C 
ATOM     49  H   LIG d   1       3.436   0.450  -0.952  0.00  0.00     0.028 H 
ATOM     50  H   LIG d   1       5.136   0.977  -0.913  0.00  0.00     0.028 H 
ATOM     51  H   LIG d   1       4.043   1.593  -2.176  0.00  0.00     0.028 H 
ENDBRANCH  40  48
BRANCH  44  52
ATOM     52  C   LIG d   1       5.743  -3.699  -4.983  0.00  0.00    -0.040 C 
ATOM     53  H   LIG d   1       5.952  -3.328  -5.987  0.00  0.00     0.028 H 
ATOM     54  H   LIG d   1       6.631  -4.191  -4.585  0.00  0.00     0.028 H 
ATOM     55  H   LIG d   1       4.920  -4.412  -5.023  0.00  0.00     0.028 H 
ENDBRANCH  44  52
ENDBRANCH  36  39
ENDBRANCH  35  36
ENDBRANCH   1  35
TORSDOF 11
ENDMDL
MODEL 9
REMARK VINA RESULT:      -6.3      4.093      6.237
REMARK  11 active torsions:
REMARK  status: ('A' for Active; 'I' for Inactive)
REMARK    1  A    between atoms: C_1  and  C_2 
REMARK    2  A    between atoms: C_5  and  C_32 
REMARK    3  A    between atoms: C_6  and  C_8 
REMARK    4  A    between atoms: C_8  and  O_9 
REMARK    5  A    between atoms: O_9  and  C_10 
REMARK    6  A    between atoms: C_13  and  C_17 
REMARK    7  A    between atoms: C_14  and  O_16 
REMARK    8  A    between atoms: C_18  and  O_23 
REMARK    9  A    between atoms: O_23  and  C_24 
REMARK   10  A    between atoms: C_27  and  O_30 
REMARK   11  A    between atoms: O_30  and  C_31 
ROOT
ATOM      1  C   LIG d   1       7.354  -4.202  -5.081  0.00  0.00     0.124 A 
ATOM      2  C   LIG d   1       6.107  -4.406  -5.659  0.00  0.00    -0.019 A 
ATOM      3  C   LIG d   1       5.061  -3.554  -5.372  0.00  0.00    -0.045 A 
ATOM      4  C   LIG d   1       5.254  -2.485  -4.500  0.00  0.00     0.047 A 
ATOM      5  C   LIG d   1       6.509  -2.279  -3.919  0.00  0.00     0.130 A 
ATOM      6  C   LIG d   1       7.552  -3.143  -4.208  0.00  0.00     0.022 A 
ATOM      7  H   LIG d   1       5.956  -5.235  -6.334  0.00  0.00     0.065 H 
ATOM      8  H   LIG d   1       4.093  -3.716  -5.823  0.00  0.00     0.063 H 
ATOM      9  H   LIG d   1       8.521  -2.989  -3.757  0.00  0.00     0.069 H 
ENDROOT
BRANCH   4  10
ATOM     10  C   LIG d   1       4.132  -1.566  -4.190  0.00  0.00     0.138 A 
ATOM     11  N   LIG d   1       3.306  -1.668  -3.170  0.00  0.00    -0.170 NA
ATOM     12  N   LIG d   1       2.396  -0.606  -3.234  0.00  0.00    -0.281 N 
ATOM     13  C   LIG d   1       2.691   0.137  -4.332  0.00  0.00     0.065 A 
ATOM     14  H   LIG d   1       1.676  -0.435  -2.607  0.00  0.00     0.188 HD
ATOM     15  C   LIG d   1       3.759  -0.431  -4.943  0.00  0.00     0.173 A 
ATOM     16  H   LIG d   1       2.169   1.023  -4.661  0.00  0.00     0.086 H 
BRANCH  15  17
ATOM     17  O   LIG d   1       4.364   0.014  -6.078  0.00  0.00    -0.452 OA
BRANCH  17  18
ATOM     18  C   LIG d   1       3.696  -0.123  -7.253  0.00  0.00     0.129 A 
ATOM     19  C   LIG d   1       3.125   0.986  -7.861  0.00  0.00    -0.016 A 
ATOM     20  C   LIG d   1       2.450   0.847  -9.058  0.00  0.00    -0.017 A 
ATOM     21  H   LIG d   1       3.210   1.959  -7.399  0.00  0.00     0.066 H 
ATOM     22  C   LIG d   1       2.333  -0.403  -9.648  0.00  0.00     0.120 A 
ATOM     23  H   LIG d   1       2.009   1.711  -9.532  0.00  0.00     0.066 H 
ATOM     24  C   LIG d   1       2.900  -1.513  -9.039  0.00  0.00    -0.017 A 
ATOM     25  C   LIG d   1       3.580  -1.373  -7.844  0.00  0.00    -0.016 A 
ATOM     26  H   LIG d   1       2.810  -2.485  -9.498  0.00  0.00     0.066 H 
ATOM     27  H   LIG d   1       4.021  -2.237  -7.369  0.00  0.00     0.066 H 
BRANCH  22  28
ATOM     28  O   LIG d   1       1.664  -0.540 -10.823  0.00  0.00    -0.495 OA
BRANCH  28  29
ATOM     29  C   LIG d   1       2.322  -1.264 -11.864  0.00  0.00     0.079 C 
ATOM     30  H   LIG d   1       1.596  -1.542 -12.628  0.00  0.00     0.066 H 
ATOM     31  H   LIG d   1       3.096  -0.638 -12.310  0.00  0.00     0.066 H 
ATOM     32  H   LIG d   1       2.777  -2.164 -11.450  0.00  0.00     0.066 H 
ENDBRANCH  28  29
ENDBRANCH  22  28
ENDBRANCH  17  18
ENDBRANCH  15  17
ENDBRANCH   4  10
BRANCH   5  33
ATOM     33  O   LIG d   1       6.703  -1.238  -3.068  0.00  0.00    -0.506 OA
ATOM     34  H   LIG d   1       7.631  -1.078  -2.847  0.00  0.00     0.292 HD
ENDBRANCH   5  33
BRANCH   1  35
ATOM     35  O   LIG d   1       8.379  -5.045  -5.368  0.00  0.00    -0.487 OA
BRANCH  35  36
ATOM     36  C   LIG d   1       9.253  -5.396  -4.293  0.00  0.00     0.115 C 
ATOM     37  H   LIG d   1       9.161  -4.658  -3.495  0.00  0.00     0.075 H 
ATOM     38  H   LIG d   1      10.282  -5.415  -4.653  0.00  0.00     0.075 H 
BRANCH  36  39
ATOM     39  C   LIG d   1       8.879  -6.756  -3.764  0.00  0.00    -0.007 A 
ATOM     40  C   LIG d   1       9.230  -7.117  -2.477  0.00  0.00    -0.044 A 
ATOM     41  C   LIG d   1       8.887  -8.365  -1.991  0.00  0.00    -0.058 A 
ATOM     42  C   LIG d   1       8.194  -9.252  -2.793  0.00  0.00    -0.059 A 
ATOM     43  H   LIG d   1       9.160  -8.648  -0.985  0.00  0.00     0.062 H 
ATOM     44  C   LIG d   1       7.842  -8.890  -4.081  0.00  0.00    -0.050 A 
ATOM     45  H   LIG d   1       7.926 -10.227  -2.414  0.00  0.00     0.062 H 
ATOM     46  C   LIG d   1       8.190  -7.644  -4.568  0.00  0.00    -0.052 A 
ATOM     47  H   LIG d   1       7.919  -7.363  -5.575  0.00  0.00     0.062 H 
BRANCH  40  48
ATOM     48  C   LIG d   1       9.985  -6.150  -1.602  0.00  0.00    -0.039 C 
ATOM     49  H   LIG d   1       9.862  -6.434  -0.556  0.00  0.00     0.028 H 
ATOM     50  H   LIG d   1      11.043  -6.174  -1.863  0.00  0.00     0.028 H 
ATOM     51  H   LIG d   1       9.596  -5.143  -1.753  0.00  0.00     0.028 H 
ENDBRANCH  40  48
BRANCH  44  52
ATOM     52  C   LIG d   1       7.086  -9.857  -4.955  0.00  0.00    -0.040 C 
ATOM     53  H   LIG d   1       6.344  -9.313  -5.540  0.00  0.00     0.028 H 
ATOM     54  H   LIG d   1       7.781 -10.360  -5.627  0.00  0.00     0.028 H 
ATOM     55  H   LIG d   1       6.585 -10.597  -4.331  0.00  0.00     0.028 H 
ENDBRANCH  44  52
ENDBRANCH  36  39
ENDBRANCH  35  36
ENDBRANCH   1  35
TORSDOF 11
ENDMDL
