MODEL 1
REMARK VINA RESULT:      -6.6      0.000      0.000
REMARK  8 active torsions:
REMARK  status: ('A' for Active; 'I' for Inactive)
REMARK    1  A    between atoms: C_1  and  O_2 
REMARK    2  A    between atoms: O_2  and  C_3 
REMARK    3  A    between atoms: C_6  and  C_11 
REMARK    4  A    between atoms: C_8  and  O_9 
REMARK    5  A    between atoms: O_9  and  C_10 
REMARK    6  A    between atoms: C_18  and  N_20 
REMARK    7  A    between atoms: N_20  and  C_21 
REMARK    8  A    between atoms: C_21  and  C_22 
ROOT
ATOM      1  C   LIG d   1      10.026   3.788  -2.931  0.00  0.00    -0.003 C 
ATOM      2  H   LIG d   1       9.893   3.143  -2.062  0.00  0.00     0.036 H 
ATOM      3  C   LIG d   1       8.818   3.651  -3.855  0.00  0.00    -0.002 C 
ATOM      4  C   LIG d   1       8.735   2.268  -4.436  0.00  0.00     0.057 A 
ATOM      5  C   LIG d   1       9.859   1.440  -4.523  0.00  0.00     0.057 A 
ATOM      6  C   LIG d   1       9.722   0.163  -5.081  0.00  0.00     0.043 A 
ATOM      7  N   LIG d   1       8.530  -0.218  -5.504  0.00  0.00    -0.222 NA
ATOM      8  C   LIG d   1       7.484   0.593  -5.403  0.00  0.00     0.216 A 
ATOM      9  N   LIG d   1       7.578   1.810  -4.882  0.00  0.00    -0.219 NA
ATOM     10  C   LIG d   1      11.163   1.906  -4.030  0.00  0.00     0.167 C 
ATOM     11  O   LIG d   1      12.098   1.142  -3.905  0.00  0.00    -0.292 OA
ATOM     12  C   LIG d   1      11.297   3.375  -3.684  0.00  0.00     0.018 C 
ATOM     13  H   LIG d   1       7.910   3.857  -3.290  0.00  0.00     0.033 H 
ATOM     14  H   LIG d   1       8.905   4.374  -4.666  0.00  0.00     0.033 H 
ATOM     15  H   LIG d   1      10.573  -0.498  -5.164  0.00  0.00     0.084 H 
ATOM     16  H   LIG d   1      11.386   3.926  -4.513  0.00  0.00     0.035 H 
ATOM     17  H   LIG d   1      12.170   3.528  -3.049  0.00  0.00     0.035 H 
ENDROOT
BRANCH   1  18
ATOM     18  C   LIG d   1      10.153   5.220  -2.479  0.00  0.00    -0.040 A 
ATOM     19  C   LIG d   1       9.918   6.248  -3.372  0.00  0.00    -0.055 A 
ATOM     20  C   LIG d   1      10.027   7.564  -2.961  0.00  0.00    -0.016 A 
ATOM     21  H   LIG d   1       9.644   6.023  -4.393  0.00  0.00     0.062 H 
ATOM     22  C   LIG d   1      10.385   7.854  -1.654  0.00  0.00     0.162 A 
ATOM     23  H   LIG d   1       9.838   8.365  -3.660  0.00  0.00     0.066 H 
ATOM     24  C   LIG d   1      10.622   6.818  -0.755  0.00  0.00     0.162 A 
ATOM     25  C   LIG d   1      10.504   5.502  -1.172  0.00  0.00    -0.013 A 
ATOM     26  H   LIG d   1      10.687   4.697  -0.476  0.00  0.00     0.066 H 
BRANCH  22  27
ATOM     27  O   LIG d   1      10.499   9.147  -1.250  0.00  0.00    -0.491 OA
BRANCH  27  28
ATOM     28  C   LIG d   1       9.287   9.839  -0.939  0.00  0.00     0.079 C 
ATOM     29  H   LIG d   1       9.502  10.895  -0.779  0.00  0.00     0.066 H 
ATOM     30  H   LIG d   1       8.586   9.733  -1.766  0.00  0.00     0.066 H 
ATOM     31  H   LIG d   1       8.850   9.416  -0.035  0.00  0.00     0.066 H 
ENDBRANCH  27  28
ENDBRANCH  22  27
BRANCH  24  32
ATOM     32  O   LIG d   1      10.967   7.098   0.530  0.00  0.00    -0.491 OA
BRANCH  32  33
ATOM     33  C   LIG d   1      11.082   5.991   1.426  0.00  0.00     0.079 C 
ATOM     34  H   LIG d   1      11.772   5.256   1.009  0.00  0.00     0.066 H 
ATOM     35  H   LIG d   1      11.459   6.339   2.387  0.00  0.00     0.066 H 
ATOM     36  H   LIG d   1      10.103   5.532   1.565  0.00  0.00     0.066 H 
ENDBRANCH  32  33
ENDBRANCH  24  32
ENDBRANCH   1  18
BRANCH   8  37
ATOM     37  N   LIG d   1       6.257   0.155  -5.854  0.00  0.00    -0.306 N 
ATOM     38  H   LIG d   1       5.926   0.448  -6.717  0.00  0.00     0.149 HD
BRANCH  37  39
ATOM     39  C   LIG d   1       5.455  -0.752  -5.030  0.00  0.00     0.070 C 
ATOM     40  H   LIG d   1       4.629  -1.148  -5.623  0.00  0.00     0.054 H 
ATOM     41  H   LIG d   1       6.079  -1.575  -4.683  0.00  0.00     0.054 H 
BRANCH  39  42
ATOM     42  C   LIG d   1       4.906  -0.003  -3.844  0.00  0.00     0.122 A 
ATOM     43  O   LIG d   1       4.042   1.024  -3.895  0.00  0.00    -0.466 OA
ATOM     44  C   LIG d   1       3.772   1.445  -2.648  0.00  0.00     0.092 A 
ATOM     45  C   LIG d   1       4.467   0.684  -1.784  0.00  0.00    -0.024 A 
ATOM     46  H   LIG d   1       3.109   2.256  -2.385  0.00  0.00     0.103 H 
ATOM     47  C   LIG d   1       5.194  -0.252  -2.554  0.00  0.00    -0.019 A 
ATOM     48  H   LIG d   1       4.466   0.770  -0.707  0.00  0.00     0.065 H 
ATOM     49  H   LIG d   1       5.854  -1.020  -2.178  0.00  0.00     0.065 H 
ENDBRANCH  39  42
ENDBRANCH  37  39
ENDBRANCH   8  37
TORSDOF 8
ENDMDL
MODEL 2
REMARK VINA RESULT:      -6.6      1.896      2.614
REMARK  8 active torsions:
REMARK  status: ('A' for Active; 'I' for Inactive)
REMARK    1  A    between atoms: C_1  and  O_2 
REMARK    2  A    between atoms: O_2  and  C_3 
REMARK    3  A    between atoms: C_6  and  C_11 
REMARK    4  A    between atoms: C_8  and  O_9 
REMARK    5  A    between atoms: O_9  and  C_10 
REMARK    6  A    between atoms: C_18  and  N_20 
REMARK    7  A    between atoms: N_20  and  C_21 
REMARK    8  A    between atoms: C_21  and  C_22 
ROOT
ATOM      1  C   LIG d   1      10.813   5.987  -2.791  0.00  0.00    -0.003 C 
ATOM      2  H   LIG d   1      11.763   5.556  -3.106  0.00  0.00     0.036 H 
ATOM      3  C   LIG d   1       9.884   4.874  -2.311  0.00  0.00    -0.002 C 
ATOM      4  C   LIG d   1       9.511   3.954  -3.439  0.00  0.00     0.057 A 
ATOM      5  C   LIG d   1       9.580   4.366  -4.774  0.00  0.00     0.057 A 
ATOM      6  C   LIG d   1       9.215   3.467  -5.783  0.00  0.00     0.043 A 
ATOM      7  N   LIG d   1       8.818   2.255  -5.437  0.00  0.00    -0.222 NA
ATOM      8  C   LIG d   1       8.768   1.897  -4.160  0.00  0.00     0.216 A 
ATOM      9  N   LIG d   1       9.105   2.724  -3.178  0.00  0.00    -0.219 NA
ATOM     10  C   LIG d   1      10.037   5.723  -5.109  0.00  0.00     0.167 C 
ATOM     11  O   LIG d   1      10.301   6.033  -6.251  0.00  0.00    -0.292 OA
ATOM     12  C   LIG d   1      10.165   6.719  -3.974  0.00  0.00     0.018 C 
ATOM     13  H   LIG d   1      10.386   4.300  -1.532  0.00  0.00     0.033 H 
ATOM     14  H   LIG d   1       8.978   5.318  -1.898  0.00  0.00     0.033 H 
ATOM     15  H   LIG d   1       9.255   3.757  -6.823  0.00  0.00     0.084 H 
ATOM     16  H   LIG d   1       9.267   7.062  -3.702  0.00  0.00     0.035 H 
ATOM     17  H   LIG d   1      10.795   7.553  -4.283  0.00  0.00     0.035 H 
ENDROOT
BRANCH   1  18
ATOM     18  C   LIG d   1      11.051   6.963  -1.667  0.00  0.00    -0.040 A 
ATOM     19  C   LIG d   1      11.261   8.300  -1.948  0.00  0.00    -0.055 A 
ATOM     20  C   LIG d   1      11.474   9.200  -0.921  0.00  0.00    -0.016 A 
ATOM     21  H   LIG d   1      11.256   8.642  -2.973  0.00  0.00     0.062 H 
ATOM     22  C   LIG d   1      11.487   8.761   0.394  0.00  0.00     0.162 A 
ATOM     23  H   LIG d   1      11.633  10.245  -1.142  0.00  0.00     0.066 H 
ATOM     24  C   LIG d   1      11.275   7.415   0.676  0.00  0.00     0.162 A 
ATOM     25  C   LIG d   1      11.057   6.519  -0.358  0.00  0.00    -0.013 A 
ATOM     26  H   LIG d   1      10.891   5.474  -0.142  0.00  0.00     0.066 H 
BRANCH  22  27
ATOM     27  O   LIG d   1      11.702   9.644   1.405  0.00  0.00    -0.491 OA
BRANCH  27  28
ATOM     28  C   LIG d   1      11.501  11.028   1.111  0.00  0.00     0.079 C 
ATOM     29  H   LIG d   1      11.462  11.168   0.032  0.00  0.00     0.066 H 
ATOM     30  H   LIG d   1      10.563  11.361   1.555  0.00  0.00     0.066 H 
ATOM     31  H   LIG d   1      12.325  11.610   1.524  0.00  0.00     0.066 H 
ENDBRANCH  27  28
ENDBRANCH  22  27
BRANCH  24  32
ATOM     32  O   LIG d   1      11.281   6.980   1.964  0.00  0.00    -0.491 OA
BRANCH  32  33
ATOM     33  C   LIG d   1      10.901   5.622   2.192  0.00  0.00     0.079 C 
ATOM     34  H   LIG d   1      10.800   5.107   1.236  0.00  0.00     0.066 H 
ATOM     35  H   LIG d   1      11.664   5.126   2.793  0.00  0.00     0.066 H 
ATOM     36  H   LIG d   1       9.948   5.595   2.721  0.00  0.00     0.066 H 
ENDBRANCH  32  33
ENDBRANCH  24  32
ENDBRANCH   1  18
BRANCH   8  37
ATOM     37  N   LIG d   1       8.351   0.622  -3.842  0.00  0.00    -0.306 N 
ATOM     38  H   LIG d   1       8.898   0.062  -3.270  0.00  0.00     0.149 HD
BRANCH  37  39
ATOM     39  C   LIG d   1       7.081   0.115  -4.367  0.00  0.00     0.070 C 
ATOM     40  H   LIG d   1       6.765   0.728  -5.212  0.00  0.00     0.054 H 
ATOM     41  H   LIG d   1       7.209  -0.916  -4.696  0.00  0.00     0.054 H 
BRANCH  39  42
ATOM     42  C   LIG d   1       6.032   0.171  -3.287  0.00  0.00     0.122 A 
ATOM     43  O   LIG d   1       5.646   1.273  -2.624  0.00  0.00    -0.466 OA
ATOM     44  C   LIG d   1       4.692   0.950  -1.735  0.00  0.00     0.092 A 
ATOM     45  C   LIG d   1       4.458  -0.372  -1.825  0.00  0.00    -0.024 A 
ATOM     46  H   LIG d   1       4.197   1.635  -1.063  0.00  0.00     0.103 H 
ATOM     47  C   LIG d   1       5.318  -0.873  -2.829  0.00  0.00    -0.019 A 
ATOM     48  H   LIG d   1       3.748  -0.940  -1.243  0.00  0.00     0.065 H 
ATOM     49  H   LIG d   1       5.389  -1.898  -3.163  0.00  0.00     0.065 H 
ENDBRANCH  39  42
ENDBRANCH  37  39
ENDBRANCH   8  37
TORSDOF 8
ENDMDL
MODEL 3
REMARK VINA RESULT:      -6.4      1.776      2.315
REMARK  8 active torsions:
REMARK  status: ('A' for Active; 'I' for Inactive)
REMARK    1  A    between atoms: C_1  and  O_2 
REMARK    2  A    between atoms: O_2  and  C_3 
REMARK    3  A    between atoms: C_6  and  C_11 
REMARK    4  A    between atoms: C_8  and  O_9 
REMARK    5  A    between atoms: O_9  and  C_10 
REMARK    6  A    between atoms: C_18  and  N_20 
REMARK    7  A    between atoms: N_20  and  C_21 
REMARK    8  A    between atoms: C_21  and  C_22 
ROOT
ATOM      1  C   LIG d   1      10.658   4.096  -3.696  0.00  0.00    -0.003 C 
ATOM      2  H   LIG d   1      11.477   3.487  -4.081  0.00  0.00     0.036 H 
ATOM      3  C   LIG d   1       9.560   3.185  -3.152  0.00  0.00    -0.002 C 
ATOM      4  C   LIG d   1       8.930   2.379  -4.253  0.00  0.00     0.057 A 
ATOM      5  C   LIG d   1       8.987   2.791  -5.588  0.00  0.00     0.057 A 
ATOM      6  C   LIG d   1       8.376   2.001  -6.571  0.00  0.00     0.043 A 
ATOM      7  N   LIG d   1       7.768   0.889  -6.200  0.00  0.00    -0.222 NA
ATOM      8  C   LIG d   1       7.737   0.526  -4.924  0.00  0.00     0.216 A 
ATOM      9  N   LIG d   1       8.303   1.251  -3.966  0.00  0.00    -0.219 NA
ATOM     10  C   LIG d   1       9.683   4.033  -5.952  0.00  0.00     0.167 C 
ATOM     11  O   LIG d   1       9.923   4.304  -7.110  0.00  0.00    -0.292 OA
ATOM     12  C   LIG d   1      10.090   4.963  -4.827  0.00  0.00     0.018 C 
ATOM     13  H   LIG d   1       9.990   2.508  -2.414  0.00  0.00     0.033 H 
ATOM     14  H   LIG d   1       8.794   3.795  -2.674  0.00  0.00     0.033 H 
ATOM     15  H   LIG d   1       8.400   2.296  -7.610  0.00  0.00     0.084 H 
ATOM     16  H   LIG d   1       9.302   5.476  -4.490  0.00  0.00     0.035 H 
ATOM     17  H   LIG d   1      10.853   5.659  -5.179  0.00  0.00     0.035 H 
ENDROOT
BRANCH   1  18
ATOM     18  C   LIG d   1      11.168   4.984  -2.590  0.00  0.00    -0.040 A 
ATOM     19  C   LIG d   1      12.513   4.983  -2.269  0.00  0.00    -0.055 A 
ATOM     20  C   LIG d   1      12.986   5.801  -1.260  0.00  0.00    -0.016 A 
ATOM     21  H   LIG d   1      13.195   4.344  -2.811  0.00  0.00     0.062 H 
ATOM     22  C   LIG d   1      12.110   6.615  -0.560  0.00  0.00     0.162 A 
ATOM     23  H   LIG d   1      14.038   5.802  -1.015  0.00  0.00     0.066 H 
ATOM     24  C   LIG d   1      10.757   6.616  -0.884  0.00  0.00     0.162 A 
ATOM     25  C   LIG d   1      10.290   5.798  -1.900  0.00  0.00    -0.013 A 
ATOM     26  H   LIG d   1       9.240   5.798  -2.154  0.00  0.00     0.066 H 
BRANCH  22  27
ATOM     27  O   LIG d   1      12.573   7.416   0.437  0.00  0.00    -0.491 OA
BRANCH  27  28
ATOM     28  C   LIG d   1      13.365   8.541   0.050  0.00  0.00     0.079 C 
ATOM     29  H   LIG d   1      14.335   8.197  -0.308  0.00  0.00     0.066 H 
ATOM     30  H   LIG d   1      12.858   9.087  -0.745  0.00  0.00     0.066 H 
ATOM     31  H   LIG d   1      13.507   9.197   0.909  0.00  0.00     0.066 H 
ENDBRANCH  27  28
ENDBRANCH  22  27
BRANCH  24  32
ATOM     32  O   LIG d   1       9.894   7.418  -0.204  0.00  0.00    -0.491 OA
BRANCH  32  33
ATOM     33  C   LIG d   1       9.298   8.493  -0.932  0.00  0.00     0.079 C 
ATOM     34  H   LIG d   1       8.260   8.247  -1.161  0.00  0.00     0.066 H 
ATOM     35  H   LIG d   1       9.332   9.402  -0.331  0.00  0.00     0.066 H 
ATOM     36  H   LIG d   1       9.847   8.652  -1.861  0.00  0.00     0.066 H 
ENDBRANCH  32  33
ENDBRANCH  24  32
ENDBRANCH   1  18
BRANCH   8  37
ATOM     37  N   LIG d   1       7.094  -0.644  -4.579  0.00  0.00    -0.306 N 
ATOM     38  H   LIG d   1       6.990  -1.350  -5.235  0.00  0.00     0.149 HD
BRANCH  37  39
ATOM     39  C   LIG d   1       6.572  -0.820  -3.222  0.00  0.00     0.070 C 
ATOM     40  H   LIG d   1       6.405  -1.881  -3.031  0.00  0.00     0.054 H 
ATOM     41  H   LIG d   1       7.291  -0.431  -2.502  0.00  0.00     0.054 H 
BRANCH  39  42
ATOM     42  C   LIG d   1       5.269  -0.076  -3.084  0.00  0.00     0.122 A 
ATOM     43  O   LIG d   1       4.278  -0.053  -3.990  0.00  0.00    -0.466 OA
ATOM     44  C   LIG d   1       3.271   0.710  -3.533  0.00  0.00     0.092 A 
ATOM     45  C   LIG d   1       3.613   1.183  -2.322  0.00  0.00    -0.024 A 
ATOM     46  H   LIG d   1       2.344   0.908  -4.051  0.00  0.00     0.103 H 
ATOM     47  C   LIG d   1       4.899   0.673  -2.030  0.00  0.00    -0.019 A 
ATOM     48  H   LIG d   1       3.018   1.828  -1.691  0.00  0.00     0.065 H 
ATOM     49  H   LIG d   1       5.474   0.852  -1.134  0.00  0.00     0.065 H 
ENDBRANCH  39  42
ENDBRANCH  37  39
ENDBRANCH   8  37
TORSDOF 8
ENDMDL
MODEL 4
REMARK VINA RESULT:      -6.3      1.891      2.229
REMARK  8 active torsions:
REMARK  status: ('A' for Active; 'I' for Inactive)
REMARK    1  A    between atoms: C_1  and  O_2 
REMARK    2  A    between atoms: O_2  and  C_3 
REMARK    3  A    between atoms: C_6  and  C_11 
REMARK    4  A    between atoms: C_8  and  O_9 
REMARK    5  A    between atoms: O_9  and  C_10 
REMARK    6  A    between atoms: C_18  and  N_20 
REMARK    7  A    between atoms: N_20  and  C_21 
REMARK    8  A    between atoms: C_21  and  C_22 
ROOT
ATOM      1  C   LIG d   1       9.545   2.944  -4.514  0.00  0.00    -0.003 C 
ATOM      2  H   LIG d   1      10.472   2.405  -4.321  0.00  0.00     0.036 H 
ATOM      3  C   LIG d   1       8.378   2.194  -3.876  0.00  0.00    -0.002 C 
ATOM      4  C   LIG d   1       8.168   0.859  -4.533  0.00  0.00     0.057 A 
ATOM      5  C   LIG d   1       8.622   0.600  -5.831  0.00  0.00     0.057 A 
ATOM      6  C   LIG d   1       8.392  -0.661  -6.393  0.00  0.00     0.043 A 
ATOM      7  N   LIG d   1       7.754  -1.568  -5.674  0.00  0.00    -0.222 NA
ATOM      8  C   LIG d   1       7.340  -1.289  -4.445  0.00  0.00     0.216 A 
ATOM      9  N   LIG d   1       7.539  -0.104  -3.881  0.00  0.00    -0.219 NA
ATOM     10  C   LIG d   1       9.335   1.639  -6.588  0.00  0.00     0.167 C 
ATOM     11  O   LIG d   1       9.914   1.379  -7.621  0.00  0.00    -0.292 OA
ATOM     12  C   LIG d   1       9.320   3.048  -6.028  0.00  0.00     0.018 C 
ATOM     13  H   LIG d   1       8.586   2.043  -2.817  0.00  0.00     0.033 H 
ATOM     14  H   LIG d   1       7.470   2.789  -3.980  0.00  0.00     0.033 H 
ATOM     15  H   LIG d   1       8.728  -0.889  -7.394  0.00  0.00     0.084 H 
ATOM     16  H   LIG d   1       8.440   3.488  -6.205  0.00  0.00     0.035 H 
ATOM     17  H   LIG d   1      10.119   3.635  -6.482  0.00  0.00     0.035 H 
ENDROOT
BRANCH   1  18
ATOM     18  C   LIG d   1       9.635   4.328  -3.924  0.00  0.00    -0.040 A 
ATOM     19  C   LIG d   1       9.439   5.434  -4.729  0.00  0.00    -0.055 A 
ATOM     20  C   LIG d   1       9.514   6.706  -4.192  0.00  0.00    -0.016 A 
ATOM     21  H   LIG d   1       9.222   5.305  -5.780  0.00  0.00     0.062 H 
ATOM     22  C   LIG d   1       9.798   6.874  -2.846  0.00  0.00     0.162 A 
ATOM     23  H   LIG d   1       9.356   7.569  -4.822  0.00  0.00     0.066 H 
ATOM     24  C   LIG d   1       9.996   5.760  -2.036  0.00  0.00     0.162 A 
ATOM     25  C   LIG d   1       9.913   4.487  -2.580  0.00  0.00    -0.013 A 
ATOM     26  H   LIG d   1      10.065   3.621  -1.953  0.00  0.00     0.066 H 
BRANCH  22  27
ATOM     27  O   LIG d   1       9.879   8.124  -2.317  0.00  0.00    -0.491 OA
BRANCH  27  28
ATOM     28  C   LIG d   1      10.223   9.185  -3.210  0.00  0.00     0.079 C 
ATOM     29  H   LIG d   1       9.858   8.952  -4.209  0.00  0.00     0.066 H 
ATOM     30  H   LIG d   1       9.768  10.113  -2.864  0.00  0.00     0.066 H 
ATOM     31  H   LIG d   1      11.307   9.299  -3.237  0.00  0.00     0.066 H 
ENDBRANCH  27  28
ENDBRANCH  22  27
BRANCH  24  32
ATOM     32  O   LIG d   1      10.268   5.918  -0.713  0.00  0.00    -0.491 OA
BRANCH  32  33
ATOM     33  C   LIG d   1      11.555   5.493  -0.261  0.00  0.00     0.079 C 
ATOM     34  H   LIG d   1      12.226   5.391  -1.115  0.00  0.00     0.066 H 
ATOM     35  H   LIG d   1      11.959   6.231   0.432  0.00  0.00     0.066 H 
ATOM     36  H   LIG d   1      11.463   4.532   0.245  0.00  0.00     0.066 H 
ENDBRANCH  32  33
ENDBRANCH  24  32
ENDBRANCH   1  18
BRANCH   8  37
ATOM     37  N   LIG d   1       6.681  -2.264  -3.727  0.00  0.00    -0.306 N 
ATOM     38  H   LIG d   1       7.063  -2.601  -2.903  0.00  0.00     0.149 HD
BRANCH  37  39
ATOM     39  C   LIG d   1       5.401  -2.790  -4.210  0.00  0.00     0.070 C 
ATOM     40  H   LIG d   1       5.448  -2.925  -5.291  0.00  0.00     0.054 H 
ATOM     41  H   LIG d   1       5.198  -3.748  -3.733  0.00  0.00     0.054 H 
BRANCH  39  42
ATOM     42  C   LIG d   1       4.300  -1.817  -3.874  0.00  0.00     0.122 A 
ATOM     43  O   LIG d   1       3.839  -0.845  -4.678  0.00  0.00    -0.466 OA
ATOM     44  C   LIG d   1       2.857  -0.175  -4.052  0.00  0.00     0.092 A 
ATOM     45  C   LIG d   1       2.680  -0.719  -2.835  0.00  0.00    -0.024 A 
ATOM     46  H   LIG d   1       2.303   0.659  -4.458  0.00  0.00     0.103 H 
ATOM     47  C   LIG d   1       3.607  -1.781  -2.722  0.00  0.00    -0.019 A 
ATOM     48  H   LIG d   1       1.965  -0.407  -2.088  0.00  0.00     0.065 H 
ATOM     49  H   LIG d   1       3.734  -2.437  -1.873  0.00  0.00     0.065 H 
ENDBRANCH  39  42
ENDBRANCH  37  39
ENDBRANCH   8  37
TORSDOF 8
ENDMDL
MODEL 5
REMARK VINA RESULT:      -6.2      1.664      2.069
REMARK  8 active torsions:
REMARK  status: ('A' for Active; 'I' for Inactive)
REMARK    1  A    between atoms: C_1  and  O_2 
REMARK    2  A    between atoms: O_2  and  C_3 
REMARK    3  A    between atoms: C_6  and  C_11 
REMARK    4  A    between atoms: C_8  and  O_9 
REMARK    5  A    between atoms: O_9  and  C_10 
REMARK    6  A    between atoms: C_18  and  N_20 
REMARK    7  A    between atoms: N_20  and  C_21 
REMARK    8  A    between atoms: C_21  and  C_22 
ROOT
ATOM      1  C   LIG d   1      11.220   4.721  -1.847  0.00  0.00    -0.003 C 
ATOM      2  H   LIG d   1      11.426   3.947  -1.109  0.00  0.00     0.036 H 
ATOM      3  C   LIG d   1       9.860   4.462  -2.490  0.00  0.00    -0.002 C 
ATOM      4  C   LIG d   1       9.873   3.190  -3.289  0.00  0.00     0.057 A 
ATOM      5  C   LIG d   1      11.063   2.642  -3.778  0.00  0.00     0.057 A 
ATOM      6  C   LIG d   1      11.012   1.457  -4.522  0.00  0.00     0.043 A 
ATOM      7  N   LIG d   1       9.836   0.894  -4.735  0.00  0.00    -0.222 NA
ATOM      8  C   LIG d   1       8.726   1.440  -4.254  0.00  0.00     0.216 A 
ATOM      9  N   LIG d   1       8.737   2.564  -3.546  0.00  0.00    -0.219 NA
ATOM     10  C   LIG d   1      12.349   3.301  -3.507  0.00  0.00     0.167 C 
ATOM     11  O   LIG d   1      13.402   2.745  -3.738  0.00  0.00    -0.292 OA
ATOM     12  C   LIG d   1      12.310   4.701  -2.927  0.00  0.00     0.018 C 
ATOM     13  H   LIG d   1       9.104   4.387  -1.709  0.00  0.00     0.033 H 
ATOM     14  H   LIG d   1       9.611   5.295  -3.148  0.00  0.00     0.033 H 
ATOM     15  H   LIG d   1      11.914   1.012  -4.915  0.00  0.00     0.084 H 
ATOM     16  H   LIG d   1      12.089   5.370  -3.636  0.00  0.00     0.035 H 
ATOM     17  H   LIG d   1      13.275   4.946  -2.484  0.00  0.00     0.035 H 
ENDROOT
BRANCH   1  18
ATOM     18  C   LIG d   1      11.209   6.069  -1.172  0.00  0.00    -0.040 A 
ATOM     19  C   LIG d   1      10.052   6.826  -1.163  0.00  0.00    -0.055 A 
ATOM     20  C   LIG d   1      10.034   8.060  -0.540  0.00  0.00    -0.016 A 
ATOM     21  H   LIG d   1       9.159   6.450  -1.641  0.00  0.00     0.062 H 
ATOM     22  C   LIG d   1      11.181   8.546   0.068  0.00  0.00     0.162 A 
ATOM     23  H   LIG d   1       9.128   8.647  -0.530  0.00  0.00     0.066 H 
ATOM     24  C   LIG d   1      12.345   7.783   0.059  0.00  0.00     0.162 A 
ATOM     25  C   LIG d   1      12.355   6.545  -0.563  0.00  0.00    -0.013 A 
ATOM     26  H   LIG d   1      13.257   5.951  -0.571  0.00  0.00     0.066 H 
BRANCH  22  27
ATOM     27  O   LIG d   1      11.167   9.762   0.676  0.00  0.00    -0.491 OA
BRANCH  27  28
ATOM     28  C   LIG d   1      10.204  10.709   0.209  0.00  0.00     0.079 C 
ATOM     29  H   LIG d   1      10.717  11.600  -0.152  0.00  0.00     0.066 H 
ATOM     30  H   LIG d   1       9.625  10.269  -0.602  0.00  0.00     0.066 H 
ATOM     31  H   LIG d   1       9.537  10.981   1.027  0.00  0.00     0.066 H 
ENDBRANCH  27  28
ENDBRANCH  22  27
BRANCH  24  32
ATOM     32  O   LIG d   1      13.472   8.253   0.659  0.00  0.00    -0.491 OA
BRANCH  32  33
ATOM     33  C   LIG d   1      14.497   8.764  -0.195  0.00  0.00     0.079 C 
ATOM     34  H   LIG d   1      15.364   9.043   0.405  0.00  0.00     0.066 H 
ATOM     35  H   LIG d   1      14.784   7.999  -0.916  0.00  0.00     0.066 H 
ATOM     36  H   LIG d   1      14.124   9.641  -0.725  0.00  0.00     0.066 H 
ENDBRANCH  32  33
ENDBRANCH  24  32
ENDBRANCH   1  18
BRANCH   8  37
ATOM     37  N   LIG d   1       7.519   0.819  -4.497  0.00  0.00    -0.306 N 
ATOM     38  H   LIG d   1       7.080   0.933  -5.353  0.00  0.00     0.149 HD
BRANCH  37  39
ATOM     39  C   LIG d   1       6.903  -0.014  -3.461  0.00  0.00     0.070 C 
ATOM     40  H   LIG d   1       6.912  -1.057  -3.780  0.00  0.00     0.054 H 
ATOM     41  H   LIG d   1       7.465   0.086  -2.533  0.00  0.00     0.054 H 
BRANCH  39  42
ATOM     42  C   LIG d   1       5.481   0.431  -3.238  0.00  0.00     0.122 A 
ATOM     43  O   LIG d   1       4.510   0.449  -4.166  0.00  0.00    -0.466 OA
ATOM     44  C   LIG d   1       3.372   0.903  -3.613  0.00  0.00     0.092 A 
ATOM     45  C   LIG d   1       3.609   1.179  -2.318  0.00  0.00    -0.024 A 
ATOM     46  H   LIG d   1       2.428   1.024  -4.123  0.00  0.00     0.103 H 
ATOM     47  C   LIG d   1       4.967   0.870  -2.075  0.00  0.00    -0.019 A 
ATOM     48  H   LIG d   1       2.898   1.561  -1.601  0.00  0.00     0.065 H 
ATOM     49  H   LIG d   1       5.492   0.969  -1.136  0.00  0.00     0.065 H 
ENDBRANCH  39  42
ENDBRANCH  37  39
ENDBRANCH   8  37
TORSDOF 8
ENDMDL
MODEL 6
REMARK VINA RESULT:      -6.1      2.303      2.932
REMARK  8 active torsions:
REMARK  status: ('A' for Active; 'I' for Inactive)
REMARK    1  A    between atoms: C_1  and  O_2 
REMARK    2  A    between atoms: O_2  and  C_3 
REMARK    3  A    between atoms: C_6  and  C_11 
REMARK    4  A    between atoms: C_8  and  O_9 
REMARK    5  A    between atoms: O_9  and  C_10 
REMARK    6  A    between atoms: C_18  and  N_20 
REMARK    7  A    between atoms: N_20  and  C_21 
REMARK    8  A    between atoms: C_21  and  C_22 
ROOT
ATOM      1  C   LIG d   1      10.177   6.243  -5.102  0.00  0.00    -0.003 C 
ATOM      2  H   LIG d   1      11.196   5.885  -4.954  0.00  0.00     0.036 H 
ATOM      3  C   LIG d   1       9.208   5.356  -4.324  0.00  0.00    -0.002 C 
ATOM      4  C   LIG d   1       9.189   3.959  -4.878  0.00  0.00     0.057 A 
ATOM      5  C   LIG d   1       9.588   3.685  -6.190  0.00  0.00     0.057 A 
ATOM      6  C   LIG d   1       9.543   2.363  -6.652  0.00  0.00     0.043 A 
ATOM      7  N   LIG d   1       9.127   1.418  -5.828  0.00  0.00    -0.222 NA
ATOM      8  C   LIG d   1       8.759   1.715  -4.588  0.00  0.00     0.216 A 
ATOM      9  N   LIG d   1       8.787   2.956  -4.117  0.00  0.00    -0.219 NA
ATOM     10  C   LIG d   1      10.052   4.769  -7.066  0.00  0.00     0.167 C 
ATOM     11  O   LIG d   1      10.593   4.534  -8.126  0.00  0.00    -0.292 OA
ATOM     12  C   LIG d   1       9.831   6.193  -6.596  0.00  0.00     0.018 C 
ATOM     13  H   LIG d   1       9.514   5.323  -3.279  0.00  0.00     0.033 H 
ATOM     14  H   LIG d   1       8.205   5.779  -4.389  0.00  0.00     0.033 H 
ATOM     15  H   LIG d   1       9.842   2.121  -7.662  0.00  0.00     0.084 H 
ATOM     16  H   LIG d   1       8.877   6.463  -6.726  0.00  0.00     0.035 H 
ATOM     17  H   LIG d   1      10.480   6.871  -7.150  0.00  0.00     0.035 H 
ENDROOT
BRANCH   1  18
ATOM     18  C   LIG d   1      10.065   7.663  -4.609  0.00  0.00    -0.040 A 
ATOM     19  C   LIG d   1       9.686   8.667  -5.480  0.00  0.00    -0.055 A 
ATOM     20  C   LIG d   1       9.576   9.971  -5.031  0.00  0.00    -0.016 A 
ATOM     21  H   LIG d   1       9.472   8.433  -6.512  0.00  0.00     0.062 H 
ATOM     22  C   LIG d   1       9.857  10.274  -3.708  0.00  0.00     0.162 A 
ATOM     23  H   LIG d   1       9.275  10.752  -5.712  0.00  0.00     0.066 H 
ATOM     24  C   LIG d   1      10.238   9.262  -2.832  0.00  0.00     0.162 A 
ATOM     25  C   LIG d   1      10.341   7.957  -3.287  0.00  0.00    -0.013 A 
ATOM     26  H   LIG d   1      10.637   7.170  -2.609  0.00  0.00     0.066 H 
BRANCH  22  27
ATOM     27  O   LIG d   1       9.754  11.556  -3.266  0.00  0.00    -0.491 OA
BRANCH  27  28
ATOM     28  C   LIG d   1       8.459  12.157  -3.315  0.00  0.00     0.079 C 
ATOM     29  H   LIG d   1       8.562  13.231  -3.465  0.00  0.00     0.066 H 
ATOM     30  H   LIG d   1       7.890  11.728  -4.140  0.00  0.00     0.066 H 
ATOM     31  H   LIG d   1       7.937  11.970  -2.377  0.00  0.00     0.066 H 
ENDBRANCH  27  28
ENDBRANCH  22  27
BRANCH  24  32
ATOM     32  O   LIG d   1      10.509   9.553  -1.532  0.00  0.00    -0.491 OA
BRANCH  32  33
ATOM     33  C   LIG d   1      10.183   8.556  -0.562  0.00  0.00     0.079 C 
ATOM     34  H   LIG d   1       9.571   7.782  -1.028  0.00  0.00     0.066 H 
ATOM     35  H   LIG d   1      11.100   8.110  -0.176  0.00  0.00     0.066 H 
ATOM     36  H   LIG d   1       9.628   9.014   0.258  0.00  0.00     0.066 H 
ENDBRANCH  32  33
ENDBRANCH  24  32
ENDBRANCH   1  18
BRANCH   8  37
ATOM     37  N   LIG d   1       8.333   0.699  -3.759  0.00  0.00    -0.306 N 
ATOM     38  H   LIG d   1       8.781   0.544  -2.913  0.00  0.00     0.149 HD
BRANCH  37  39
ATOM     39  C   LIG d   1       7.203  -0.145  -4.156  0.00  0.00     0.070 C 
ATOM     40  H   LIG d   1       6.864   0.145  -5.151  0.00  0.00     0.054 H 
ATOM     41  H   LIG d   1       7.517  -1.189  -4.170  0.00  0.00     0.054 H 
BRANCH  39  42
ATOM     42  C   LIG d   1       6.076   0.028  -3.171  0.00  0.00     0.122 A 
ATOM     43  O   LIG d   1       5.719   1.180  -2.581  0.00  0.00    -0.466 OA
ATOM     44  C   LIG d   1       4.674   0.961  -1.766  0.00  0.00     0.092 A 
ATOM     45  C   LIG d   1       4.353  -0.344  -1.830  0.00  0.00    -0.024 A 
ATOM     46  H   LIG d   1       4.177   1.706  -1.163  0.00  0.00     0.103 H 
ATOM     47  C   LIG d   1       5.253  -0.944  -2.740  0.00  0.00    -0.019 A 
ATOM     48  H   LIG d   1       3.557  -0.837  -1.291  0.00  0.00     0.065 H 
ATOM     49  H   LIG d   1       5.276  -1.984  -3.030  0.00  0.00     0.065 H 
ENDBRANCH  39  42
ENDBRANCH  37  39
ENDBRANCH   8  37
TORSDOF 8
ENDMDL
MODEL 7
REMARK VINA RESULT:      -6.0      4.762      6.096
REMARK  8 active torsions:
REMARK  status: ('A' for Active; 'I' for Inactive)
REMARK    1  A    between atoms: C_1  and  O_2 
REMARK    2  A    between atoms: O_2  and  C_3 
REMARK    3  A    between atoms: C_6  and  C_11 
REMARK    4  A    between atoms: C_8  and  O_9 
REMARK    5  A    between atoms: O_9  and  C_10 
REMARK    6  A    between atoms: C_18  and  N_20 
REMARK    7  A    between atoms: N_20  and  C_21 
REMARK    8  A    between atoms: C_21  and  C_22 
ROOT
ATOM      1  C   LIG d   1       9.638   6.097  -6.714  0.00  0.00    -0.003 C 
ATOM      2  H   LIG d   1       8.753   6.530  -6.248  0.00  0.00     0.036 H 
ATOM      3  C   LIG d   1       9.513   4.576  -6.727  0.00  0.00    -0.002 C 
ATOM      4  C   LIG d   1       9.524   4.018  -5.332  0.00  0.00     0.057 A 
ATOM      5  C   LIG d   1      10.084   4.727  -4.264  0.00  0.00     0.057 A 
ATOM      6  C   LIG d   1      10.071   4.154  -2.986  0.00  0.00     0.043 A 
ATOM      7  N   LIG d   1       9.526   2.960  -2.833  0.00  0.00    -0.222 NA
ATOM      8  C   LIG d   1       9.001   2.317  -3.869  0.00  0.00     0.216 A 
ATOM      9  N   LIG d   1       8.998   2.829  -5.094  0.00  0.00    -0.219 NA
ATOM     10  C   LIG d   1      10.670   6.057  -4.482  0.00  0.00     0.167 C 
ATOM     11  O   LIG d   1      10.971   6.773  -3.550  0.00  0.00    -0.292 OA
ATOM     12  C   LIG d   1      10.885   6.501  -5.915  0.00  0.00     0.018 C 
ATOM     13  H   LIG d   1       8.579   4.298  -7.216  0.00  0.00     0.033 H 
ATOM     14  H   LIG d   1      10.348   4.153  -7.287  0.00  0.00     0.033 H 
ATOM     15  H   LIG d   1      10.498   4.676  -2.142  0.00  0.00     0.084 H 
ATOM     16  H   LIG d   1      11.690   6.055  -6.306  0.00  0.00     0.035 H 
ATOM     17  H   LIG d   1      11.015   7.583  -5.953  0.00  0.00     0.035 H 
ENDROOT
BRANCH   1  18
ATOM     18  C   LIG d   1       9.763   6.604  -8.127  0.00  0.00    -0.040 A 
ATOM     19  C   LIG d   1       9.318   5.827  -9.180  0.00  0.00    -0.055 A 
ATOM     20  C   LIG d   1       9.424   6.290 -10.479  0.00  0.00    -0.016 A 
ATOM     21  H   LIG d   1       8.884   4.856  -8.988  0.00  0.00     0.062 H 
ATOM     22  C   LIG d   1       9.987   7.532 -10.727  0.00  0.00     0.162 A 
ATOM     23  H   LIG d   1       9.072   5.683 -11.299  0.00  0.00     0.066 H 
ATOM     24  C   LIG d   1      10.434   8.314  -9.667  0.00  0.00     0.162 A 
ATOM     25  C   LIG d   1      10.320   7.846  -8.368  0.00  0.00    -0.013 A 
ATOM     26  H   LIG d   1      10.665   8.452  -7.543  0.00  0.00     0.066 H 
BRANCH  22  27
ATOM     27  O   LIG d   1      10.097   7.986 -12.004  0.00  0.00    -0.491 OA
BRANCH  27  28
ATOM     28  C   LIG d   1       9.301   7.334 -12.996  0.00  0.00     0.079 C 
ATOM     29  H   LIG d   1       9.473   7.801 -13.965  0.00  0.00     0.066 H 
ATOM     30  H   LIG d   1       9.575   6.281 -13.047  0.00  0.00     0.066 H 
ATOM     31  H   LIG d   1       8.247   7.424 -12.732  0.00  0.00     0.066 H 
ENDBRANCH  27  28
ENDBRANCH  22  27
BRANCH  24  32
ATOM     32  O   LIG d   1      10.982   9.536  -9.905  0.00  0.00    -0.491 OA
BRANCH  32  33
ATOM     33  C   LIG d   1      11.480  10.255  -8.776  0.00  0.00     0.079 C 
ATOM     34  H   LIG d   1      12.567  10.323  -8.838  0.00  0.00     0.066 H 
ATOM     35  H   LIG d   1      11.053  11.258  -8.767  0.00  0.00     0.066 H 
ATOM     36  H   LIG d   1      11.200   9.733  -7.861  0.00  0.00     0.066 H 
ENDBRANCH  32  33
ENDBRANCH  24  32
ENDBRANCH   1  18
BRANCH   8  37
ATOM     37  N   LIG d   1       8.440   1.075  -3.666  0.00  0.00    -0.306 N 
ATOM     38  H   LIG d   1       8.877   0.435  -3.084  0.00  0.00     0.149 HD
BRANCH  37  39
ATOM     39  C   LIG d   1       7.182   0.723  -4.330  0.00  0.00     0.070 C 
ATOM     40  H   LIG d   1       6.888   1.528  -5.004  0.00  0.00     0.054 H 
ATOM     41  H   LIG d   1       7.317  -0.196  -4.900  0.00  0.00     0.054 H 
BRANCH  39  42
ATOM     42  C   LIG d   1       6.107   0.519  -3.294  0.00  0.00     0.122 A 
ATOM     43  O   LIG d   1       5.578   1.475  -2.512  0.00  0.00    -0.466 OA
ATOM     44  C   LIG d   1       4.647   0.932  -1.710  0.00  0.00     0.092 A 
ATOM     45  C   LIG d   1       4.572  -0.384  -1.976  0.00  0.00    -0.024 A 
ATOM     46  H   LIG d   1       4.058   1.464  -0.977  0.00  0.00     0.103 H 
ATOM     47  C   LIG d   1       5.509  -0.650  -3.001  0.00  0.00    -0.019 A 
ATOM     48  H   LIG d   1       3.918  -1.100  -1.500  0.00  0.00     0.065 H 
ATOM     49  H   LIG d   1       5.708  -1.608  -3.458  0.00  0.00     0.065 H 
ENDBRANCH  39  42
ENDBRANCH  37  39
ENDBRANCH   8  37
TORSDOF 8
ENDMDL
MODEL 8
REMARK VINA RESULT:      -6.0      6.998     10.745
REMARK  8 active torsions:
REMARK  status: ('A' for Active; 'I' for Inactive)
REMARK    1  A    between atoms: C_1  and  O_2 
REMARK    2  A    between atoms: O_2  and  C_3 
REMARK    3  A    between atoms: C_6  and  C_11 
REMARK    4  A    between atoms: C_8  and  O_9 
REMARK    5  A    between atoms: O_9  and  C_10 
REMARK    6  A    between atoms: C_18  and  N_20 
REMARK    7  A    between atoms: N_20  and  C_21 
REMARK    8  A    between atoms: C_21  and  C_22 
ROOT
ATOM      1  C   LIG d   1       5.116  -4.183  -6.131  0.00  0.00    -0.003 C 
ATOM      2  H   LIG d   1       6.126  -4.371  -6.495  0.00  0.00     0.036 H 
ATOM      3  C   LIG d   1       4.722  -5.272  -5.136  0.00  0.00    -0.002 C 
ATOM      4  C   LIG d   1       4.624  -6.611  -5.809  0.00  0.00     0.057 A 
ATOM      5  C   LIG d   1       4.412  -6.726  -7.187  0.00  0.00     0.057 A 
ATOM      6  C   LIG d   1       4.324  -8.001  -7.758  0.00  0.00     0.043 A 
ATOM      7  N   LIG d   1       4.446  -9.056  -6.972  0.00  0.00    -0.222 NA
ATOM      8  C   LIG d   1       4.649  -8.910  -5.669  0.00  0.00     0.216 A 
ATOM      9  N   LIG d   1       4.736  -7.717  -5.094  0.00  0.00    -0.219 NA
ATOM     10  C   LIG d   1       4.292  -5.522  -8.022  0.00  0.00     0.167 C 
ATOM     11  O   LIG d   1       4.316  -5.590  -9.233  0.00  0.00    -0.292 OA
ATOM     12  C   LIG d   1       4.137  -4.191  -7.313  0.00  0.00     0.018 C 
ATOM     13  H   LIG d   1       5.471  -5.322  -4.346  0.00  0.00     0.033 H 
ATOM     14  H   LIG d   1       3.756  -5.022  -4.696  0.00  0.00     0.033 H 
ATOM     15  H   LIG d   1       4.158  -8.121  -8.819  0.00  0.00     0.084 H 
ATOM     16  H   LIG d   1       3.204  -4.079  -6.974  0.00  0.00     0.035 H 
ATOM     17  H   LIG d   1       4.376  -3.377  -7.997  0.00  0.00     0.035 H 
ENDROOT
BRANCH   1  18
ATOM     18  C   LIG d   1       5.068  -2.839  -5.451  0.00  0.00    -0.040 A 
ATOM     19  C   LIG d   1       5.678  -2.666  -4.222  0.00  0.00    -0.055 A 
ATOM     20  C   LIG d   1       5.643  -1.433  -3.597  0.00  0.00    -0.016 A 
ATOM     21  H   LIG d   1       6.186  -3.495  -3.752  0.00  0.00     0.062 H 
ATOM     22  C   LIG d   1       4.986  -0.371  -4.196  0.00  0.00     0.162 A 
ATOM     23  H   LIG d   1       6.124  -1.300  -2.640  0.00  0.00     0.066 H 
ATOM     24  C   LIG d   1       4.372  -0.545  -5.433  0.00  0.00     0.162 A 
ATOM     25  C   LIG d   1       4.416  -1.782  -6.057  0.00  0.00    -0.013 A 
ATOM     26  H   LIG d   1       3.941  -1.919  -7.018  0.00  0.00     0.066 H 
BRANCH  22  27
ATOM     27  O   LIG d   1       4.945   0.841  -3.580  0.00  0.00    -0.491 OA
BRANCH  27  28
ATOM     28  C   LIG d   1       4.868   0.840  -2.153  0.00  0.00     0.079 C 
ATOM     29  H   LIG d   1       4.757   1.863  -1.795  0.00  0.00     0.066 H 
ATOM     30  H   LIG d   1       4.009   0.249  -1.836  0.00  0.00     0.066 H 
ATOM     31  H   LIG d   1       5.779   0.407  -1.740  0.00  0.00     0.066 H 
ENDBRANCH  27  28
ENDBRANCH  22  27
BRANCH  24  32
ATOM     32  O   LIG d   1       3.731   0.496  -6.029  0.00  0.00    -0.491 OA
BRANCH  32  33
ATOM     33  C   LIG d   1       2.968   0.203  -7.200  0.00  0.00     0.079 C 
ATOM     34  H   LIG d   1       3.640   0.069  -8.049  0.00  0.00     0.066 H 
ATOM     35  H   LIG d   1       2.396  -0.711  -7.042  0.00  0.00     0.066 H 
ATOM     36  H   LIG d   1       2.285   1.028  -7.404  0.00  0.00     0.066 H 
ENDBRANCH  32  33
ENDBRANCH  24  32
ENDBRANCH   1  18
BRANCH   8  37
ATOM     37  N   LIG d   1       4.773 -10.037  -4.884  0.00  0.00    -0.306 N 
ATOM     38  H   LIG d   1       5.107 -10.862  -5.270  0.00  0.00     0.149 HD
BRANCH  37  39
ATOM     39  C   LIG d   1       4.404  -9.987  -3.468  0.00  0.00     0.070 C 
ATOM     40  H   LIG d   1       4.277  -8.949  -3.161  0.00  0.00     0.054 H 
ATOM     41  H   LIG d   1       3.469 -10.527  -3.317  0.00  0.00     0.054 H 
BRANCH  39  42
ATOM     42  C   LIG d   1       5.491 -10.625  -2.642  0.00  0.00     0.122 A 
ATOM     43  O   LIG d   1       5.805 -10.304  -1.376  0.00  0.00    -0.466 OA
ATOM     44  C   LIG d   1       6.822 -11.076  -0.958  0.00  0.00     0.092 A 
ATOM     45  C   LIG d   1       7.168 -11.903  -1.961  0.00  0.00    -0.024 A 
ATOM     46  H   LIG d   1       7.283 -11.040   0.018  0.00  0.00     0.103 H 
ATOM     47  C   LIG d   1       6.306 -11.615  -3.045  0.00  0.00    -0.019 A 
ATOM     48  H   LIG d   1       7.952 -12.646  -1.942  0.00  0.00     0.065 H 
ATOM     49  H   LIG d   1       6.305 -12.098  -4.011  0.00  0.00     0.065 H 
ENDBRANCH  39  42
ENDBRANCH  37  39
ENDBRANCH   8  37
TORSDOF 8
ENDMDL
MODEL 9
REMARK VINA RESULT:      -5.8      1.330      2.084
REMARK  8 active torsions:
REMARK  status: ('A' for Active; 'I' for Inactive)
REMARK    1  A    between atoms: C_1  and  O_2 
REMARK    2  A    between atoms: O_2  and  C_3 
REMARK    3  A    between atoms: C_6  and  C_11 
REMARK    4  A    between atoms: C_8  and  O_9 
REMARK    5  A    between atoms: O_9  and  C_10 
REMARK    6  A    between atoms: C_18  and  N_20 
REMARK    7  A    between atoms: N_20  and  C_21 
REMARK    8  A    between atoms: C_21  and  C_22 
ROOT
ATOM      1  C   LIG d   1      10.466   3.488  -2.695  0.00  0.00    -0.003 C 
ATOM      2  H   LIG d   1      10.385   2.773  -1.877  0.00  0.00     0.036 H 
ATOM      3  C   LIG d   1       9.157   3.514  -3.481  0.00  0.00    -0.002 C 
ATOM      4  C   LIG d   1       8.912   2.200  -4.167  0.00  0.00     0.057 A 
ATOM      5  C   LIG d   1       9.957   1.317  -4.457  0.00  0.00     0.057 A 
ATOM      6  C   LIG d   1       9.668   0.109  -5.104  0.00  0.00     0.043 A 
ATOM      7  N   LIG d   1       8.412  -0.156  -5.417  0.00  0.00    -0.222 NA
ATOM      8  C   LIG d   1       7.444   0.704  -5.124  0.00  0.00     0.216 A 
ATOM      9  N   LIG d   1       7.682   1.859  -4.513  0.00  0.00    -0.219 NA
ATOM     10  C   LIG d   1      11.338   1.653  -4.081  0.00  0.00     0.167 C 
ATOM     11  O   LIG d   1      12.223   0.826  -4.132  0.00  0.00    -0.292 OA
ATOM     12  C   LIG d   1      11.613   3.072  -3.626  0.00  0.00     0.018 C 
ATOM     13  H   LIG d   1       8.334   3.720  -2.797  0.00  0.00     0.033 H 
ATOM     14  H   LIG d   1       9.205   4.304  -4.230  0.00  0.00     0.033 H 
ATOM     15  H   LIG d   1      10.455  -0.591  -5.344  0.00  0.00     0.084 H 
ATOM     16  H   LIG d   1      11.650   3.693  -4.408  0.00  0.00     0.035 H 
ATOM     17  H   LIG d   1      12.560   3.111  -3.086  0.00  0.00     0.035 H 
ENDROOT
BRANCH   1  18
ATOM     18  C   LIG d   1      10.745   4.860  -2.138  0.00  0.00    -0.040 A 
ATOM     19  C   LIG d   1      11.532   5.000  -1.010  0.00  0.00    -0.055 A 
ATOM     20  C   LIG d   1      11.796   6.257  -0.499  0.00  0.00    -0.016 A 
ATOM     21  H   LIG d   1      11.944   4.125  -0.529  0.00  0.00     0.062 H 
ATOM     22  C   LIG d   1      11.262   7.380  -1.111  0.00  0.00     0.162 A 
ATOM     23  H   LIG d   1      12.415   6.363   0.380  0.00  0.00     0.066 H 
ATOM     24  C   LIG d   1      10.471   7.239  -2.246  0.00  0.00     0.162 A 
ATOM     25  C   LIG d   1      10.214   5.976  -2.757  0.00  0.00    -0.013 A 
ATOM     26  H   LIG d   1       9.601   5.865  -3.639  0.00  0.00     0.066 H 
BRANCH  22  27
ATOM     27  O   LIG d   1      11.516   8.617  -0.606  0.00  0.00    -0.491 OA
BRANCH  27  28
ATOM     28  C   LIG d   1      12.875   9.059  -0.625  0.00  0.00     0.079 C 
ATOM     29  H   LIG d   1      13.041   9.682  -1.503  0.00  0.00     0.066 H 
ATOM     30  H   LIG d   1      13.081   9.637   0.275  0.00  0.00     0.066 H 
ATOM     31  H   LIG d   1      13.537   8.194  -0.662  0.00  0.00     0.066 H 
ENDBRANCH  27  28
ENDBRANCH  22  27
BRANCH  24  32
ATOM     32  O   LIG d   1       9.949   8.338  -2.854  0.00  0.00    -0.491 OA
BRANCH  32  33
ATOM     33  C   LIG d   1      10.305   8.553  -4.221  0.00  0.00     0.079 C 
ATOM     34  H   LIG d   1      11.009   9.383  -4.288  0.00  0.00     0.066 H 
ATOM     35  H   LIG d   1      10.767   7.651  -4.622  0.00  0.00     0.066 H 
ATOM     36  H   LIG d   1       9.410   8.789  -4.797  0.00  0.00     0.066 H 
ENDBRANCH  32  33
ENDBRANCH  24  32
ENDBRANCH   1  18
BRANCH   8  37
ATOM     37  N   LIG d   1       6.147   0.387  -5.465  0.00  0.00    -0.306 N 
ATOM     38  H   LIG d   1       5.527   1.089  -5.715  0.00  0.00     0.149 HD
BRANCH  37  39
ATOM     39  C   LIG d   1       5.707  -1.010  -5.453  0.00  0.00     0.070 C 
ATOM     40  H   LIG d   1       5.201  -1.241  -6.392  0.00  0.00     0.054 H 
ATOM     41  H   LIG d   1       6.572  -1.663  -5.337  0.00  0.00     0.054 H 
BRANCH  39  42
ATOM     42  C   LIG d   1       4.756  -1.227  -4.305  0.00  0.00     0.122 A 
ATOM     43  O   LIG d   1       3.532  -0.686  -4.185  0.00  0.00    -0.466 OA
ATOM     44  C   LIG d   1       2.970  -1.100  -3.037  0.00  0.00     0.092 A 
ATOM     45  C   LIG d   1       3.837  -1.915  -2.410  0.00  0.00    -0.024 A 
ATOM     46  H   LIG d   1       1.989  -0.825  -2.680  0.00  0.00     0.103 H 
ATOM     47  C   LIG d   1       4.986  -2.002  -3.229  0.00  0.00    -0.019 A 
ATOM     48  H   LIG d   1       3.683  -2.411  -1.462  0.00  0.00     0.065 H 
ATOM     49  H   LIG d   1       5.877  -2.577  -3.029  0.00  0.00     0.065 H 
ENDBRANCH  39  42
ENDBRANCH  37  39
ENDBRANCH   8  37
TORSDOF 8
ENDMDL
MODEL 10
REMARK VINA RESULT:      -5.8      4.955      6.535
REMARK  8 active torsions:
REMARK  status: ('A' for Active; 'I' for Inactive)
REMARK    1  A    between atoms: C_1  and  O_2 
REMARK    2  A    between atoms: O_2  and  C_3 
REMARK    3  A    between atoms: C_6  and  C_11 
REMARK    4  A    between atoms: C_8  and  O_9 
REMARK    5  A    between atoms: O_9  and  C_10 
REMARK    6  A    between atoms: C_18  and  N_20 
REMARK    7  A    between atoms: N_20  and  C_21 
REMARK    8  A    between atoms: C_21  and  C_22 
ROOT
ATOM      1  C   LIG d   1       9.607   5.719  -7.079  0.00  0.00    -0.003 C 
ATOM      2  H   LIG d   1       8.690   6.162  -6.691  0.00  0.00     0.036 H 
ATOM      3  C   LIG d   1       9.515   4.198  -6.989  0.00  0.00    -0.002 C 
ATOM      4  C   LIG d   1       9.467   3.742  -5.558  0.00  0.00     0.057 A 
ATOM      5  C   LIG d   1       9.955   4.539  -4.517  0.00  0.00     0.057 A 
ATOM      6  C   LIG d   1       9.889   4.059  -3.203  0.00  0.00     0.043 A 
ATOM      7  N   LIG d   1       9.362   2.865  -2.992  0.00  0.00    -0.222 NA
ATOM      8  C   LIG d   1       8.906   2.137  -4.003  0.00  0.00     0.216 A 
ATOM      9  N   LIG d   1       8.955   2.560  -5.261  0.00  0.00    -0.219 NA
ATOM     10  C   LIG d   1      10.523   5.865  -4.802  0.00  0.00     0.167 C 
ATOM     11  O   LIG d   1      10.760   6.652  -3.911  0.00  0.00    -0.292 OA
ATOM     12  C   LIG d   1      10.802   6.210  -6.251  0.00  0.00     0.018 C 
ATOM     13  H   LIG d   1       8.614   3.863  -7.502  0.00  0.00     0.033 H 
ATOM     14  H   LIG d   1      10.387   3.758  -7.474  0.00  0.00     0.033 H 
ATOM     15  H   LIG d   1      10.260   4.651  -2.380  0.00  0.00     0.084 H 
ATOM     16  H   LIG d   1      11.635   5.758  -6.568  0.00  0.00     0.035 H 
ATOM     17  H   LIG d   1      10.910   7.290  -6.361  0.00  0.00     0.035 H 
ENDROOT
BRANCH   1  18
ATOM     18  C   LIG d   1       9.793   6.127  -8.518  0.00  0.00    -0.040 A 
ATOM     19  C   LIG d   1      10.202   7.412  -8.823  0.00  0.00    -0.055 A 
ATOM     20  C   LIG d   1      10.380   7.789 -10.142  0.00  0.00    -0.016 A 
ATOM     21  H   LIG d   1      10.386   8.122  -8.030  0.00  0.00     0.062 H 
ATOM     22  C   LIG d   1      10.138   6.881 -11.161  0.00  0.00     0.162 A 
ATOM     23  H   LIG d   1      10.704   8.791 -10.378  0.00  0.00     0.066 H 
ATOM     24  C   LIG d   1       9.726   5.588 -10.853  0.00  0.00     0.162 A 
ATOM     25  C   LIG d   1       9.555   5.215  -9.529  0.00  0.00    -0.013 A 
ATOM     26  H   LIG d   1       9.237   4.212  -9.288  0.00  0.00     0.066 H 
BRANCH  22  27
ATOM     27  O   LIG d   1      10.307   7.252 -12.458  0.00  0.00    -0.491 OA
BRANCH  27  28
ATOM     28  C   LIG d   1      11.633   7.595 -12.867  0.00  0.00     0.079 C 
ATOM     29  H   LIG d   1      12.234   7.829 -11.990  0.00  0.00     0.066 H 
ATOM     30  H   LIG d   1      12.077   6.753 -13.398  0.00  0.00     0.066 H 
ATOM     31  H   LIG d   1      11.596   8.462 -13.526  0.00  0.00     0.066 H 
ENDBRANCH  27  28
ENDBRANCH  22  27
BRANCH  24  32
ATOM     32  O   LIG d   1       9.493   4.692 -11.849  0.00  0.00    -0.491 OA
BRANCH  32  33
ATOM     33  C   LIG d   1      10.519   3.733 -12.112  0.00  0.00     0.079 C 
ATOM     34  H   LIG d   1      11.484   4.139 -11.804  0.00  0.00     0.066 H 
ATOM     35  H   LIG d   1      10.314   2.820 -11.553  0.00  0.00     0.066 H 
ATOM     36  H   LIG d   1      10.543   3.509 -13.178  0.00  0.00     0.066 H 
ENDBRANCH  32  33
ENDBRANCH  24  32
ENDBRANCH   1  18
BRANCH   8  37
ATOM     37  N   LIG d   1       8.362   0.899  -3.739  0.00  0.00    -0.306 N 
ATOM     38  H   LIG d   1       8.826   0.280  -3.154  0.00  0.00     0.149 HD
BRANCH  37  39
ATOM     39  C   LIG d   1       7.082   0.518  -4.341  0.00  0.00     0.070 C 
ATOM     40  H   LIG d   1       6.781   1.276  -5.065  0.00  0.00     0.054 H 
ATOM     41  H   LIG d   1       7.188  -0.443  -4.844  0.00  0.00     0.054 H 
BRANCH  39  42
ATOM     42  C   LIG d   1       6.033   0.408  -3.265  0.00  0.00     0.122 A 
ATOM     43  O   LIG d   1       5.568   1.421  -2.516  0.00  0.00    -0.466 OA
ATOM     44  C   LIG d   1       4.642   0.956  -1.660  0.00  0.00     0.092 A 
ATOM     45  C   LIG d   1       4.507  -0.367  -1.858  0.00  0.00    -0.024 A 
ATOM     46  H   LIG d   1       4.098   1.546  -0.937  0.00  0.00     0.103 H 
ATOM     47  C   LIG d   1       5.400  -0.720  -2.896  0.00  0.00    -0.019 A 
ATOM     48  H   LIG d   1       3.841  -1.033  -1.328  0.00  0.00     0.065 H 
ATOM     49  H   LIG d   1       5.547  -1.706  -3.311  0.00  0.00     0.065 H 
ENDBRANCH  39  42
ENDBRANCH  37  39
ENDBRANCH   8  37
TORSDOF 8
ENDMDL
