MODEL 1
REMARK VINA RESULT:      -6.3      0.000      0.000
REMARK  3 active torsions:
REMARK  status: ('A' for Active; 'I' for Inactive)
REMARK    1  A    between atoms: N_10  and  N_11 
REMARK    2  A    between atoms: N_13  and  N_17 
REMARK    3  A    between atoms: N_17  and  O_18 
ROOT
ATOM      1  C   LIG d   1       6.874  -1.542  -3.742  0.00  0.00    -0.052 A 
ATOM      2  C   LIG d   1       6.646  -2.729  -4.419  0.00  0.00    -0.025 A 
ATOM      3  C   LIG d   1       5.353  -3.103  -4.742  0.00  0.00     0.051 A 
ATOM      4  C   LIG d   1       4.292  -2.271  -4.388  0.00  0.00    -0.016 A 
ATOM      5  C   LIG d   1       4.526  -1.082  -3.714  0.00  0.00     0.059 A 
ATOM      6  C   LIG d   1       5.824  -0.717  -3.385  0.00  0.00    -0.024 A 
ATOM      7  C   LIG d   1       6.117   0.559  -2.639  0.00  0.00    -0.024 C 
ATOM      8  C   LIG d   1       4.954   1.541  -2.781  0.00  0.00    -0.031 C 
ATOM      9  C   LIG d   1       3.650   0.823  -2.407  0.00  0.00     0.038 C 
ATOM     10  N   LIG d   1       3.443  -0.264  -3.374  0.00  0.00    -0.189 N 
ATOM     11  N   LIG d   1       5.050  -4.293  -5.404  0.00  0.00    -0.244 NA
ATOM     12  C   LIG d   1       6.192  -4.857  -6.126  0.00  0.00     0.031 C 
ATOM     13  C   LIG d   1       7.370  -4.989  -5.154  0.00  0.00    -0.032 C 
ATOM     14  C   LIG d   1       7.837  -3.580  -4.783  0.00  0.00    -0.024 C 
ATOM     15  H   LIG d   1       7.885  -1.258  -3.489  0.00  0.00     0.062 H 
ATOM     16  H   LIG d   1       3.281  -2.554  -4.642  0.00  0.00     0.066 H 
ATOM     17  H   LIG d   1       6.269   0.332  -1.584  0.00  0.00     0.031 H 
ATOM     18  H   LIG d   1       7.022   1.012  -3.044  0.00  0.00     0.031 H 
ATOM     19  H   LIG d   1       4.895   1.891  -3.812  0.00  0.00     0.028 H 
ATOM     20  H   LIG d   1       5.109   2.388  -2.114  0.00  0.00     0.028 H 
ATOM     21  H   LIG d   1       2.817   1.523  -2.455  0.00  0.00     0.049 H 
ATOM     22  H   LIG d   1       3.731   0.412  -1.401  0.00  0.00     0.049 H 
ATOM     23  H   LIG d   1       6.468  -4.195  -6.948  0.00  0.00     0.048 H 
ATOM     24  H   LIG d   1       5.930  -5.838  -6.519  0.00  0.00     0.048 H 
ATOM     25  H   LIG d   1       8.184  -5.533  -5.632  0.00  0.00     0.028 H 
ATOM     26  H   LIG d   1       7.049  -5.519  -4.256  0.00  0.00     0.028 H 
ATOM     27  H   LIG d   1       8.354  -3.134  -5.634  0.00  0.00     0.031 H 
ATOM     28  H   LIG d   1       8.518  -3.634  -3.933  0.00  0.00     0.031 H 
ENDROOT
BRANCH  11  29
ATOM     29  N   LIG d   1       3.908  -4.121  -6.288  0.00  0.00    -0.121 NA
ATOM     30  H   LIG d   1       3.380  -3.297  -6.041  0.00  0.00     0.178 HD
BRANCH  29  31
ATOM     31  O   LIG d   1       3.056  -5.310  -6.283  0.00  0.00    -0.297 OA
ATOM     32  H   LIG d   1       2.110  -5.116  -6.293  0.00  0.00     0.238 HD
ENDBRANCH  29  31
ENDBRANCH  11  29
BRANCH  10  33
ATOM     33  N   LIG d   1       2.282  -0.462  -3.899  0.00  0.00     0.049 NA
ATOM     34  O   LIG d   1       1.900   0.245  -4.815  0.00  0.00    -0.126 OA
ENDBRANCH  10  33
TORSDOF 3
ENDMDL
MODEL 2
REMARK VINA RESULT:      -6.3      1.989      5.346
REMARK  3 active torsions:
REMARK  status: ('A' for Active; 'I' for Inactive)
REMARK    1  A    between atoms: N_10  and  N_11 
REMARK    2  A    between atoms: N_13  and  N_17 
REMARK    3  A    between atoms: N_17  and  O_18 
ROOT
ATOM      1  C   LIG d   1       4.777  -2.778  -3.641  0.00  0.00    -0.052 A 
ATOM      2  C   LIG d   1       4.451  -1.467  -3.337  0.00  0.00    -0.025 A 
ATOM      3  C   LIG d   1       4.146  -0.577  -4.353  0.00  0.00     0.051 A 
ATOM      4  C   LIG d   1       4.162  -1.018  -5.675  0.00  0.00    -0.016 A 
ATOM      5  C   LIG d   1       4.485  -2.333  -5.974  0.00  0.00     0.059 A 
ATOM      6  C   LIG d   1       4.800  -3.218  -4.952  0.00  0.00    -0.024 A 
ATOM      7  C   LIG d   1       5.172  -4.650  -5.238  0.00  0.00    -0.024 C 
ATOM      8  C   LIG d   1       4.664  -5.070  -6.616  0.00  0.00    -0.031 C 
ATOM      9  C   LIG d   1       5.121  -4.032  -7.651  0.00  0.00     0.038 C 
ATOM     10  N   LIG d   1       4.491  -2.750  -7.309  0.00  0.00    -0.189 N 
ATOM     11  N   LIG d   1       3.827   0.761  -4.120  0.00  0.00    -0.244 NA
ATOM     12  C   LIG d   1       3.390   1.018  -2.747  0.00  0.00     0.031 C 
ATOM     13  C   LIG d   1       4.450   0.471  -1.783  0.00  0.00    -0.032 C 
ATOM     14  C   LIG d   1       4.440  -1.055  -1.886  0.00  0.00    -0.024 C 
ATOM     15  H   LIG d   1       5.018  -3.466  -2.844  0.00  0.00     0.062 H 
ATOM     16  H   LIG d   1       3.919  -0.331  -6.472  0.00  0.00     0.066 H 
ATOM     17  H   LIG d   1       6.257  -4.752  -5.208  0.00  0.00     0.031 H 
ATOM     18  H   LIG d   1       4.728  -5.294  -4.479  0.00  0.00     0.031 H 
ATOM     19  H   LIG d   1       3.575  -5.117  -6.606  0.00  0.00     0.028 H 
ATOM     20  H   LIG d   1       5.072  -6.046  -6.874  0.00  0.00     0.028 H 
ATOM     21  H   LIG d   1       4.809  -4.343  -8.648  0.00  0.00     0.049 H 
ATOM     22  H   LIG d   1       6.206  -3.931  -7.617  0.00  0.00     0.049 H 
ATOM     23  H   LIG d   1       2.438   0.516  -2.567  0.00  0.00     0.048 H 
ATOM     24  H   LIG d   1       3.273   2.090  -2.592  0.00  0.00     0.048 H 
ATOM     25  H   LIG d   1       4.213   0.774  -0.764  0.00  0.00     0.028 H 
ATOM     26  H   LIG d   1       5.433   0.853  -2.062  0.00  0.00     0.028 H 
ATOM     27  H   LIG d   1       3.542  -1.445  -1.405  0.00  0.00     0.031 H 
ATOM     28  H   LIG d   1       5.322  -1.459  -1.387  0.00  0.00     0.031 H 
ENDROOT
BRANCH  11  29
ATOM     29  N   LIG d   1       2.843   1.237  -5.078  0.00  0.00    -0.121 NA
ATOM     30  H   LIG d   1       3.228   1.262  -6.011  0.00  0.00     0.178 HD
BRANCH  29  31
ATOM     31  O   LIG d   1       2.323   2.548  -4.690  0.00  0.00    -0.297 OA
ATOM     32  H   LIG d   1       1.574   2.510  -4.082  0.00  0.00     0.238 HD
ENDBRANCH  29  31
ENDBRANCH  11  29
BRANCH  10  33
ATOM     33  N   LIG d   1       3.953  -2.019  -8.226  0.00  0.00     0.049 NA
ATOM     34  O   LIG d   1       3.056  -2.471  -8.916  0.00  0.00    -0.126 OA
ENDBRANCH  10  33
TORSDOF 3
ENDMDL
MODEL 3
REMARK VINA RESULT:      -5.9      1.293      1.832
REMARK  3 active torsions:
REMARK  status: ('A' for Active; 'I' for Inactive)
REMARK    1  A    between atoms: N_10  and  N_11 
REMARK    2  A    between atoms: N_13  and  N_17 
REMARK    3  A    between atoms: N_17  and  O_18 
ROOT
ATOM      1  C   LIG d   1       7.228  -3.491  -4.546  0.00  0.00    -0.052 A 
ATOM      2  C   LIG d   1       6.509  -4.550  -5.075  0.00  0.00    -0.025 A 
ATOM      3  C   LIG d   1       5.127  -4.491  -5.124  0.00  0.00     0.051 A 
ATOM      4  C   LIG d   1       4.474  -3.356  -4.648  0.00  0.00    -0.016 A 
ATOM      5  C   LIG d   1       5.199  -2.296  -4.123  0.00  0.00     0.059 A 
ATOM      6  C   LIG d   1       6.584  -2.365  -4.067  0.00  0.00    -0.024 A 
ATOM      7  C   LIG d   1       7.405  -1.242  -3.489  0.00  0.00    -0.024 C 
ATOM      8  C   LIG d   1       6.605   0.061  -3.491  0.00  0.00    -0.031 C 
ATOM      9  C   LIG d   1       5.243  -0.192  -2.829  0.00  0.00     0.038 C 
ATOM     10  N   LIG d   1       4.518  -1.168  -3.654  0.00  0.00    -0.189 N 
ATOM     11  N   LIG d   1       4.340  -5.528  -5.626  0.00  0.00    -0.244 NA
ATOM     12  C   LIG d   1       5.080  -6.442  -6.499  0.00  0.00     0.031 C 
ATOM     13  C   LIG d   1       6.326  -6.933  -5.752  0.00  0.00    -0.032 C 
ATOM     14  C   LIG d   1       7.276  -5.745  -5.585  0.00  0.00    -0.024 C 
ATOM     15  H   LIG d   1       8.306  -3.545  -4.506  0.00  0.00     0.062 H 
ATOM     16  H   LIG d   1       3.396  -3.301  -4.689  0.00  0.00     0.066 H 
ATOM     17  H   LIG d   1       7.684  -1.490  -2.465  0.00  0.00     0.031 H 
ATOM     18  H   LIG d   1       8.306  -1.111  -4.087  0.00  0.00     0.031 H 
ATOM     19  H   LIG d   1       6.454   0.396  -4.517  0.00  0.00     0.028 H 
ATOM     20  H   LIG d   1       7.147   0.822  -2.931  0.00  0.00     0.028 H 
ATOM     21  H   LIG d   1       4.680   0.739  -2.778  0.00  0.00     0.049 H 
ATOM     22  H   LIG d   1       5.390  -0.593  -1.826  0.00  0.00     0.049 H 
ATOM     23  H   LIG d   1       5.380  -5.916  -7.406  0.00  0.00     0.048 H 
ATOM     24  H   LIG d   1       4.451  -7.292  -6.760  0.00  0.00     0.048 H 
ATOM     25  H   LIG d   1       6.815  -7.718  -6.329  0.00  0.00     0.028 H 
ATOM     26  H   LIG d   1       6.040  -7.318  -4.772  0.00  0.00     0.028 H 
ATOM     27  H   LIG d   1       7.726  -5.503  -6.547  0.00  0.00     0.031 H 
ATOM     28  H   LIG d   1       8.060  -6.005  -4.873  0.00  0.00     0.031 H 
ENDROOT
BRANCH  11  29
ATOM     29  N   LIG d   1       3.159  -5.009  -6.295  0.00  0.00    -0.121 NA
ATOM     30  H   LIG d   1       2.318  -5.265  -5.798  0.00  0.00     0.178 HD
BRANCH  29  31
ATOM     31  O   LIG d   1       3.102  -5.460  -7.685  0.00  0.00    -0.297 OA
ATOM     32  H   LIG d   1       3.574  -4.888  -8.304  0.00  0.00     0.238 HD
ENDBRANCH  29  31
ENDBRANCH  11  29
BRANCH  10  33
ATOM     33  N   LIG d   1       3.273  -0.987  -3.940  0.00  0.00     0.049 NA
ATOM     34  O   LIG d   1       2.463  -0.807  -3.048  0.00  0.00    -0.126 OA
ENDBRANCH  10  33
TORSDOF 3
ENDMDL
MODEL 4
REMARK VINA RESULT:      -5.9      3.437      4.665
REMARK  3 active torsions:
REMARK  status: ('A' for Active; 'I' for Inactive)
REMARK    1  A    between atoms: N_10  and  N_11 
REMARK    2  A    between atoms: N_13  and  N_17 
REMARK    3  A    between atoms: N_17  and  O_18 
ROOT
ATOM      1  C   LIG d   1       4.482  -2.164  -6.426  0.00  0.00    -0.052 A 
ATOM      2  C   LIG d   1       3.962  -1.427  -7.478  0.00  0.00    -0.025 A 
ATOM      3  C   LIG d   1       3.353  -0.209  -7.234  0.00  0.00     0.051 A 
ATOM      4  C   LIG d   1       3.278   0.268  -5.926  0.00  0.00    -0.016 A 
ATOM      5  C   LIG d   1       3.803  -0.472  -4.877  0.00  0.00     0.059 A 
ATOM      6  C   LIG d   1       4.405  -1.697  -5.127  0.00  0.00    -0.024 A 
ATOM      7  C   LIG d   1       4.973  -2.537  -4.013  0.00  0.00    -0.024 C 
ATOM      8  C   LIG d   1       5.250  -1.675  -2.782  0.00  0.00    -0.031 C 
ATOM      9  C   LIG d   1       3.988  -0.868  -2.446  0.00  0.00     0.038 C 
ATOM     10  N   LIG d   1       3.717   0.032  -3.575  0.00  0.00    -0.189 N 
ATOM     11  N   LIG d   1       2.791   0.575  -8.242  0.00  0.00    -0.244 NA
ATOM     12  C   LIG d   1       3.302   0.250  -9.575  0.00  0.00     0.031 C 
ATOM     13  C   LIG d   1       3.131  -1.255  -9.813  0.00  0.00    -0.032 C 
ATOM     14  C   LIG d   1       4.085  -1.993  -8.871  0.00  0.00    -0.024 C 
ATOM     15  H   LIG d   1       4.952  -3.116  -6.624  0.00  0.00     0.062 H 
ATOM     16  H   LIG d   1       2.809   1.221  -5.729  0.00  0.00     0.066 H 
ATOM     17  H   LIG d   1       4.258  -3.317  -3.751  0.00  0.00     0.031 H 
ATOM     18  H   LIG d   1       5.902  -2.996  -4.347  0.00  0.00     0.031 H 
ATOM     19  H   LIG d   1       6.074  -0.992  -2.992  0.00  0.00     0.028 H 
ATOM     20  H   LIG d   1       5.509  -2.315  -1.939  0.00  0.00     0.028 H 
ATOM     21  H   LIG d   1       4.154  -0.285  -1.540  0.00  0.00     0.049 H 
ATOM     22  H   LIG d   1       3.146  -1.544  -2.303  0.00  0.00     0.049 H 
ATOM     23  H   LIG d   1       4.359   0.513  -9.635  0.00  0.00     0.048 H 
ATOM     24  H   LIG d   1       2.744   0.806 -10.328  0.00  0.00     0.048 H 
ATOM     25  H   LIG d   1       3.376  -1.494 -10.847  0.00  0.00     0.028 H 
ATOM     26  H   LIG d   1       2.102  -1.547  -9.600  0.00  0.00     0.028 H 
ATOM     27  H   LIG d   1       5.109  -1.870  -9.223  0.00  0.00     0.031 H 
ATOM     28  H   LIG d   1       3.832  -3.053  -8.856  0.00  0.00     0.031 H 
ENDROOT
BRANCH  11  29
ATOM     29  N   LIG d   1       2.953   1.991  -7.953  0.00  0.00    -0.121 NA
ATOM     30  H   LIG d   1       2.075   2.481  -8.039  0.00  0.00     0.178 HD
BRANCH  29  31
ATOM     31  O   LIG d   1       3.974   2.590  -8.813  0.00  0.00    -0.297 OA
ATOM     32  H   LIG d   1       3.617   3.128  -9.531  0.00  0.00     0.238 HD
ENDBRANCH  29  31
ENDBRANCH  11  29
BRANCH  10  33
ATOM     33  N   LIG d   1       3.404   1.267  -3.369  0.00  0.00     0.049 NA
ATOM     34  O   LIG d   1       4.278   2.089  -3.157  0.00  0.00    -0.126 OA
ENDBRANCH  10  33
TORSDOF 3
ENDMDL
MODEL 5
REMARK VINA RESULT:      -5.8      3.278      5.277
REMARK  3 active torsions:
REMARK  status: ('A' for Active; 'I' for Inactive)
REMARK    1  A    between atoms: N_10  and  N_11 
REMARK    2  A    between atoms: N_13  and  N_17 
REMARK    3  A    between atoms: N_17  and  O_18 
ROOT
ATOM      1  C   LIG d   1       6.882  -1.811  -4.271  0.00  0.00    -0.052 A 
ATOM      2  C   LIG d   1       5.709  -1.427  -3.641  0.00  0.00    -0.025 A 
ATOM      3  C   LIG d   1       5.521  -0.104  -3.280  0.00  0.00     0.051 A 
ATOM      4  C   LIG d   1       6.515   0.830  -3.564  0.00  0.00    -0.016 A 
ATOM      5  C   LIG d   1       7.685   0.441  -4.198  0.00  0.00     0.059 A 
ATOM      6  C   LIG d   1       7.873  -0.888  -4.550  0.00  0.00    -0.024 A 
ATOM      7  C   LIG d   1       9.137  -1.353  -5.225  0.00  0.00    -0.024 C 
ATOM      8  C   LIG d   1       9.853  -0.176  -5.887  0.00  0.00    -0.031 C 
ATOM      9  C   LIG d   1      10.011   0.952  -4.858  0.00  0.00     0.038 C 
ATOM     10  N   LIG d   1       8.665   1.400  -4.474  0.00  0.00    -0.189 N 
ATOM     11  N   LIG d   1       4.374   0.348  -2.627  0.00  0.00    -0.244 NA
ATOM     12  C   LIG d   1       3.231  -0.554  -2.779  0.00  0.00     0.031 C 
ATOM     13  C   LIG d   1       3.657  -1.963  -2.348  0.00  0.00    -0.032 C 
ATOM     14  C   LIG d   1       4.667  -2.484  -3.372  0.00  0.00    -0.024 C 
ATOM     15  H   LIG d   1       7.025  -2.846  -4.546  0.00  0.00     0.062 H 
ATOM     16  H   LIG d   1       6.372   1.865  -3.290  0.00  0.00     0.066 H 
ATOM     17  H   LIG d   1       9.796  -1.803  -4.483  0.00  0.00     0.031 H 
ATOM     18  H   LIG d   1       8.887  -2.095  -5.983  0.00  0.00     0.031 H 
ATOM     19  H   LIG d   1       9.265   0.182  -6.732  0.00  0.00     0.028 H 
ATOM     20  H   LIG d   1      10.836  -0.495  -6.233  0.00  0.00     0.028 H 
ATOM     21  H   LIG d   1      10.564   1.780  -5.300  0.00  0.00     0.049 H 
ATOM     22  H   LIG d   1      10.539   0.579  -3.981  0.00  0.00     0.049 H 
ATOM     23  H   LIG d   1       2.915  -0.570  -3.823  0.00  0.00     0.048 H 
ATOM     24  H   LIG d   1       2.407  -0.213  -2.153  0.00  0.00     0.048 H 
ATOM     25  H   LIG d   1       2.787  -2.618  -2.322  0.00  0.00     0.028 H 
ATOM     26  H   LIG d   1       4.119  -1.922  -1.361  0.00  0.00     0.028 H 
ATOM     27  H   LIG d   1       4.150  -2.728  -4.300  0.00  0.00     0.031 H 
ATOM     28  H   LIG d   1       5.151  -3.380  -2.981  0.00  0.00     0.031 H 
ENDROOT
BRANCH  11  29
ATOM     29  N   LIG d   1       4.033   1.697  -3.047  0.00  0.00    -0.121 NA
ATOM     30  H   LIG d   1       3.643   2.228  -2.282  0.00  0.00     0.178 HD
BRANCH  29  31
ATOM     31  O   LIG d   1       3.119   1.676  -4.189  0.00  0.00    -0.297 OA
ATOM     32  H   LIG d   1       3.558   1.568  -5.043  0.00  0.00     0.238 HD
ENDBRANCH  29  31
ENDBRANCH  11  29
BRANCH  10  33
ATOM     33  N   LIG d   1       8.393   2.659  -4.393  0.00  0.00     0.049 NA
ATOM     34  O   LIG d   1       9.105   3.473  -4.951  0.00  0.00    -0.126 OA
ENDBRANCH  10  33
TORSDOF 3
ENDMDL
MODEL 6
REMARK VINA RESULT:      -5.8      0.919      5.045
REMARK  3 active torsions:
REMARK  status: ('A' for Active; 'I' for Inactive)
REMARK    1  A    between atoms: N_10  and  N_11 
REMARK    2  A    between atoms: N_13  and  N_17 
REMARK    3  A    between atoms: N_17  and  O_18 
ROOT
ATOM      1  C   LIG d   1       7.272  -2.517  -4.123  0.00  0.00    -0.052 A 
ATOM      2  C   LIG d   1       6.371  -1.502  -3.847  0.00  0.00    -0.025 A 
ATOM      3  C   LIG d   1       5.042  -1.640  -4.204  0.00  0.00     0.051 A 
ATOM      4  C   LIG d   1       4.622  -2.811  -4.834  0.00  0.00    -0.016 A 
ATOM      5  C   LIG d   1       5.527  -3.827  -5.105  0.00  0.00     0.059 A 
ATOM      6  C   LIG d   1       6.860  -3.678  -4.753  0.00  0.00    -0.024 A 
ATOM      7  C   LIG d   1       7.876  -4.751  -5.045  0.00  0.00    -0.024 C 
ATOM      8  C   LIG d   1       7.185  -6.098  -5.258  0.00  0.00    -0.031 C 
ATOM      9  C   LIG d   1       6.067  -5.923  -6.295  0.00  0.00     0.038 C 
ATOM     10  N   LIG d   1       5.078  -4.992  -5.736  0.00  0.00    -0.189 N 
ATOM     11  N   LIG d   1       4.086  -0.651  -3.974  0.00  0.00    -0.244 NA
ATOM     12  C   LIG d   1       4.484   0.303  -2.936  0.00  0.00     0.031 C 
ATOM     13  C   LIG d   1       5.865   0.866  -3.291  0.00  0.00    -0.032 C 
ATOM     14  C   LIG d   1       6.886  -0.265  -3.153  0.00  0.00    -0.024 C 
ATOM     15  H   LIG d   1       8.309  -2.401  -3.845  0.00  0.00     0.062 H 
ATOM     16  H   LIG d   1       3.585  -2.928  -5.111  0.00  0.00     0.066 H 
ATOM     17  H   LIG d   1       8.431  -4.486  -5.945  0.00  0.00     0.031 H 
ATOM     18  H   LIG d   1       8.567  -4.830  -4.206  0.00  0.00     0.031 H 
ATOM     19  H   LIG d   1       6.758  -6.442  -4.316  0.00  0.00     0.028 H 
ATOM     20  H   LIG d   1       7.909  -6.826  -5.621  0.00  0.00     0.028 H 
ATOM     21  H   LIG d   1       5.596  -6.886  -6.494  0.00  0.00     0.049 H 
ATOM     22  H   LIG d   1       6.479  -5.514  -7.216  0.00  0.00     0.049 H 
ATOM     23  H   LIG d   1       4.532  -0.205  -1.973  0.00  0.00     0.048 H 
ATOM     24  H   LIG d   1       3.760   1.115  -2.886  0.00  0.00     0.048 H 
ATOM     25  H   LIG d   1       6.119   1.677  -2.609  0.00  0.00     0.028 H 
ATOM     26  H   LIG d   1       5.860   1.235  -4.318  0.00  0.00     0.028 H 
ATOM     27  H   LIG d   1       7.046  -0.482  -2.096  0.00  0.00     0.031 H 
ATOM     28  H   LIG d   1       7.830   0.040  -3.607  0.00  0.00     0.031 H 
ENDROOT
BRANCH  11  29
ATOM     29  N   LIG d   1       2.790  -1.237  -3.673  0.00  0.00    -0.121 NA
ATOM     30  H   LIG d   1       2.783  -2.225  -3.880  0.00  0.00     0.178 HD
BRANCH  29  31
ATOM     31  O   LIG d   1       1.721  -0.544  -4.391  0.00  0.00    -0.297 OA
ATOM     32  H   LIG d   1       1.275  -1.087  -5.054  0.00  0.00     0.238 HD
ENDBRANCH  29  31
ENDBRANCH  11  29
BRANCH  10  33
ATOM     33  N   LIG d   1       3.816  -5.244  -5.825  0.00  0.00     0.049 NA
ATOM     34  O   LIG d   1       3.366  -5.744  -6.841  0.00  0.00    -0.126 OA
ENDBRANCH  10  33
TORSDOF 3
ENDMDL
MODEL 7
REMARK VINA RESULT:      -5.7      3.341      4.468
REMARK  3 active torsions:
REMARK  status: ('A' for Active; 'I' for Inactive)
REMARK    1  A    between atoms: N_10  and  N_11 
REMARK    2  A    between atoms: N_13  and  N_17 
REMARK    3  A    between atoms: N_17  and  O_18 
ROOT
ATOM      1  C   LIG d   1       6.832  -2.326  -4.190  0.00  0.00    -0.052 A 
ATOM      2  C   LIG d   1       7.909  -1.574  -4.629  0.00  0.00    -0.025 A 
ATOM      3  C   LIG d   1       7.833  -0.193  -4.631  0.00  0.00     0.051 A 
ATOM      4  C   LIG d   1       6.670   0.428  -4.179  0.00  0.00    -0.016 A 
ATOM      5  C   LIG d   1       5.595  -0.329  -3.737  0.00  0.00     0.059 A 
ATOM      6  C   LIG d   1       5.674  -1.714  -3.746  0.00  0.00    -0.024 A 
ATOM      7  C   LIG d   1       4.523  -2.571  -3.288  0.00  0.00    -0.024 C 
ATOM      8  C   LIG d   1       3.580  -1.767  -2.394  0.00  0.00    -0.031 C 
ATOM      9  C   LIG d   1       3.209  -0.461  -3.111  0.00  0.00     0.038 C 
ATOM     10  N   LIG d   1       4.441   0.320  -3.286  0.00  0.00    -0.189 N 
ATOM     11  N   LIG d   1       8.872   0.625  -5.078  0.00  0.00    -0.244 NA
ATOM     12  C   LIG d   1      10.171  -0.051  -5.091  0.00  0.00     0.031 C 
ATOM     13  C   LIG d   1      10.039  -1.353  -5.890  0.00  0.00    -0.032 C 
ATOM     14  C   LIG d   1       9.144  -2.306  -5.095  0.00  0.00    -0.024 C 
ATOM     15  H   LIG d   1       6.897  -3.404  -4.196  0.00  0.00     0.062 H 
ATOM     16  H   LIG d   1       6.606   1.506  -4.172  0.00  0.00     0.066 H 
ATOM     17  H   LIG d   1       3.973  -2.930  -4.159  0.00  0.00     0.031 H 
ATOM     18  H   LIG d   1       4.909  -3.424  -2.730  0.00  0.00     0.031 H 
ATOM     19  H   LIG d   1       4.078  -1.536  -1.452  0.00  0.00     0.028 H 
ATOM     20  H   LIG d   1       2.678  -2.346  -2.200  0.00  0.00     0.028 H 
ATOM     21  H   LIG d   1       2.498   0.101  -2.507  0.00  0.00     0.049 H 
ATOM     22  H   LIG d   1       2.773  -0.686  -4.084  0.00  0.00     0.049 H 
ATOM     23  H   LIG d   1      10.474  -0.278  -4.068  0.00  0.00     0.048 H 
ATOM     24  H   LIG d   1      10.915   0.592  -5.559  0.00  0.00     0.048 H 
ATOM     25  H   LIG d   1      11.022  -1.801  -6.030  0.00  0.00     0.028 H 
ATOM     26  H   LIG d   1       9.586  -1.145  -6.860  0.00  0.00     0.028 H 
ATOM     27  H   LIG d   1       9.691  -2.681  -4.230  0.00  0.00     0.031 H 
ATOM     28  H   LIG d   1       8.852  -3.144  -5.729  0.00  0.00     0.031 H 
ENDROOT
BRANCH  11  29
ATOM     29  N   LIG d   1       8.933   1.857  -4.308  0.00  0.00    -0.121 NA
ATOM     30  H   LIG d   1       8.953   2.663  -4.916  0.00  0.00     0.178 HD
BRANCH  29  31
ATOM     31  O   LIG d   1      10.082   1.855  -3.403  0.00  0.00    -0.297 OA
ATOM     32  H   LIG d   1      10.368   0.973  -3.133  0.00  0.00     0.238 HD
ENDBRANCH  29  31
ENDBRANCH  11  29
BRANCH  10  33
ATOM     33  N   LIG d   1       4.458   1.584  -3.029  0.00  0.00     0.049 NA
ATOM     34  O   LIG d   1       3.562   2.300  -3.438  0.00  0.00    -0.126 OA
ENDBRANCH  10  33
TORSDOF 3
ENDMDL
MODEL 8
REMARK VINA RESULT:      -5.7      4.162      5.356
REMARK  3 active torsions:
REMARK  status: ('A' for Active; 'I' for Inactive)
REMARK    1  A    between atoms: N_10  and  N_11 
REMARK    2  A    between atoms: N_13  and  N_17 
REMARK    3  A    between atoms: N_17  and  O_18 
ROOT
ATOM      1  C   LIG d   1       2.813   0.358  -5.860  0.00  0.00    -0.052 A 
ATOM      2  C   LIG d   1       3.438  -0.372  -4.862  0.00  0.00    -0.025 A 
ATOM      3  C   LIG d   1       4.657  -0.980  -5.110  0.00  0.00     0.051 A 
ATOM      4  C   LIG d   1       5.247  -0.840  -6.365  0.00  0.00    -0.016 A 
ATOM      5  C   LIG d   1       4.619  -0.104  -7.359  0.00  0.00     0.059 A 
ATOM      6  C   LIG d   1       3.393   0.494  -7.107  0.00  0.00    -0.024 A 
ATOM      7  C   LIG d   1       2.672   1.288  -8.166  0.00  0.00    -0.024 C 
ATOM      8  C   LIG d   1       3.649   1.744  -9.250  0.00  0.00    -0.031 C 
ATOM      9  C   LIG d   1       4.448   0.529  -9.741  0.00  0.00     0.038 C 
ATOM     10  N   LIG d   1       5.235   0.022  -8.609  0.00  0.00    -0.189 N 
ATOM     11  N   LIG d   1       5.332  -1.745  -4.158  0.00  0.00    -0.244 NA
ATOM     12  C   LIG d   1       4.902  -1.467  -2.787  0.00  0.00     0.031 C 
ATOM     13  C   LIG d   1       3.377  -1.614  -2.711  0.00  0.00    -0.032 C 
ATOM     14  C   LIG d   1       2.753  -0.476  -3.522  0.00  0.00    -0.024 C 
ATOM     15  H   LIG d   1       1.860   0.825  -5.661  0.00  0.00     0.062 H 
ATOM     16  H   LIG d   1       6.201  -1.306  -6.564  0.00  0.00     0.066 H 
ATOM     17  H   LIG d   1       1.899   0.665  -8.618  0.00  0.00     0.031 H 
ATOM     18  H   LIG d   1       2.210   2.161  -7.708  0.00  0.00     0.031 H 
ATOM     19  H   LIG d   1       4.332   2.487  -8.837  0.00  0.00     0.028 H 
ATOM     20  H   LIG d   1       3.094   2.176 -10.082  0.00  0.00     0.028 H 
ATOM     21  H   LIG d   1       5.115   0.829 -10.549  0.00  0.00     0.049 H 
ATOM     22  H   LIG d   1       3.765  -0.245 -10.091  0.00  0.00     0.049 H 
ATOM     23  H   LIG d   1       5.186  -0.450  -2.514  0.00  0.00     0.048 H 
ATOM     24  H   LIG d   1       5.372  -2.174  -2.104  0.00  0.00     0.048 H 
ATOM     25  H   LIG d   1       3.052  -1.548  -1.673  0.00  0.00     0.028 H 
ATOM     26  H   LIG d   1       3.078  -2.575  -3.131  0.00  0.00     0.028 H 
ATOM     27  H   LIG d   1       2.871   0.462  -2.980  0.00  0.00     0.031 H 
ATOM     28  H   LIG d   1       1.692  -0.677  -3.671  0.00  0.00     0.031 H 
ENDROOT
BRANCH  11  29
ATOM     29  N   LIG d   1       6.771  -1.594  -4.295  0.00  0.00    -0.121 NA
ATOM     30  H   LIG d   1       7.219  -2.489  -4.425  0.00  0.00     0.178 HD
BRANCH  29  31
ATOM     31  O   LIG d   1       7.337  -0.889  -3.144  0.00  0.00    -0.297 OA
ATOM     32  H   LIG d   1       8.155  -0.414  -3.337  0.00  0.00     0.238 HD
ENDBRANCH  29  31
ENDBRANCH  11  29
BRANCH  10  33
ATOM     33  N   LIG d   1       6.475  -0.301  -8.764  0.00  0.00     0.049 NA
ATOM     34  O   LIG d   1       7.316   0.567  -8.912  0.00  0.00    -0.126 OA
ENDBRANCH  10  33
TORSDOF 3
ENDMDL
MODEL 9
REMARK VINA RESULT:      -5.6      3.645      4.879
REMARK  3 active torsions:
REMARK  status: ('A' for Active; 'I' for Inactive)
REMARK    1  A    between atoms: N_10  and  N_11 
REMARK    2  A    between atoms: N_13  and  N_17 
REMARK    3  A    between atoms: N_17  and  O_18 
ROOT
ATOM      1  C   LIG d   1       2.874   0.769  -5.897  0.00  0.00    -0.052 A 
ATOM      2  C   LIG d   1       3.206   0.655  -7.237  0.00  0.00    -0.025 A 
ATOM      3  C   LIG d   1       3.993  -0.400  -7.666  0.00  0.00     0.051 A 
ATOM      4  C   LIG d   1       4.435  -1.343  -6.740  0.00  0.00    -0.016 A 
ATOM      5  C   LIG d   1       4.096  -1.227  -5.400  0.00  0.00     0.059 A 
ATOM      6  C   LIG d   1       3.315  -0.162  -4.975  0.00  0.00    -0.024 A 
ATOM      7  C   LIG d   1       2.939   0.008  -3.526  0.00  0.00    -0.024 C 
ATOM      8  C   LIG d   1       3.067  -1.320  -2.780  0.00  0.00    -0.031 C 
ATOM      9  C   LIG d   1       4.457  -1.910  -3.054  0.00  0.00     0.038 C 
ATOM     10  N   LIG d   1       4.551  -2.190  -4.493  0.00  0.00    -0.189 N 
ATOM     11  N   LIG d   1       4.382  -0.565  -8.996  0.00  0.00    -0.244 NA
ATOM     12  C   LIG d   1       3.531   0.163  -9.939  0.00  0.00     0.031 C 
ATOM     13  C   LIG d   1       3.465   1.633  -9.506  0.00  0.00    -0.032 C 
ATOM     14  C   LIG d   1       2.687   1.703  -8.190  0.00  0.00    -0.024 C 
ATOM     15  H   LIG d   1       2.263   1.597  -5.568  0.00  0.00     0.062 H 
ATOM     16  H   LIG d   1       5.045  -2.172  -7.069  0.00  0.00     0.066 H 
ATOM     17  H   LIG d   1       3.600   0.743  -3.067  0.00  0.00     0.031 H 
ATOM     18  H   LIG d   1       1.909   0.359  -3.461  0.00  0.00     0.031 H 
ATOM     19  H   LIG d   1       2.302  -2.012  -3.132  0.00  0.00     0.028 H 
ATOM     20  H   LIG d   1       2.946  -1.151  -1.711  0.00  0.00     0.028 H 
ATOM     21  H   LIG d   1       4.583  -2.834  -2.490  0.00  0.00     0.049 H 
ATOM     22  H   LIG d   1       5.226  -1.192  -2.767  0.00  0.00     0.049 H 
ATOM     23  H   LIG d   1       2.529  -0.266  -9.932  0.00  0.00     0.048 H 
ATOM     24  H   LIG d   1       3.952   0.095 -10.941  0.00  0.00     0.048 H 
ATOM     25  H   LIG d   1       2.952   2.218 -10.269  0.00  0.00     0.028 H 
ATOM     26  H   LIG d   1       4.474   2.020  -9.359  0.00  0.00     0.028 H 
ATOM     27  H   LIG d   1       1.629   1.524  -8.384  0.00  0.00     0.031 H 
ATOM     28  H   LIG d   1       2.812   2.691  -7.746  0.00  0.00     0.031 H 
ENDROOT
BRANCH  11  29
ATOM     29  N   LIG d   1       4.459  -1.974  -9.344  0.00  0.00    -0.121 NA
ATOM     30  H   LIG d   1       5.198  -2.143 -10.011  0.00  0.00     0.178 HD
BRANCH  29  31
ATOM     31  O   LIG d   1       3.176  -2.461  -9.851  0.00  0.00    -0.297 OA
ATOM     32  H   LIG d   1       3.094  -3.424  -9.855  0.00  0.00     0.238 HD
ENDBRANCH  29  31
ENDBRANCH  11  29
BRANCH  10  33
ATOM     33  N   LIG d   1       5.045  -3.305  -4.914  0.00  0.00     0.049 NA
ATOM     34  O   LIG d   1       4.420  -4.340  -4.770  0.00  0.00    -0.126 OA
ENDBRANCH  10  33
TORSDOF 3
ENDMDL
MODEL 10
REMARK VINA RESULT:      -5.6      8.225     10.887
REMARK  3 active torsions:
REMARK  status: ('A' for Active; 'I' for Inactive)
REMARK    1  A    between atoms: N_10  and  N_11 
REMARK    2  A    between atoms: N_13  and  N_17 
REMARK    3  A    between atoms: N_17  and  O_18 
ROOT
ATOM      1  C   LIG d   1       9.951   7.326  -3.689  0.00  0.00    -0.052 A 
ATOM      2  C   LIG d   1      10.112   7.527  -2.328  0.00  0.00    -0.025 A 
ATOM      3  C   LIG d   1      10.157   6.442  -1.470  0.00  0.00     0.051 A 
ATOM      4  C   LIG d   1      10.049   5.154  -1.991  0.00  0.00    -0.016 A 
ATOM      5  C   LIG d   1       9.892   4.958  -3.356  0.00  0.00     0.059 A 
ATOM      6  C   LIG d   1       9.838   6.050  -4.210  0.00  0.00    -0.024 A 
ATOM      7  C   LIG d   1       9.652   5.879  -5.695  0.00  0.00    -0.024 C 
ATOM      8  C   LIG d   1      10.049   4.467  -6.125  0.00  0.00    -0.031 C 
ATOM      9  C   LIG d   1       9.321   3.454  -5.230  0.00  0.00     0.038 C 
ATOM     10  N   LIG d   1       9.789   3.654  -3.852  0.00  0.00    -0.189 N 
ATOM     11  N   LIG d   1      10.297   6.572  -0.088  0.00  0.00    -0.244 NA
ATOM     12  C   LIG d   1      10.853   7.865   0.315  0.00  0.00     0.031 C 
ATOM     13  C   LIG d   1      10.008   8.980  -0.315  0.00  0.00    -0.032 C 
ATOM     14  C   LIG d   1      10.234   8.945  -1.828  0.00  0.00    -0.024 C 
ATOM     15  H   LIG d   1       9.912   8.178  -4.353  0.00  0.00     0.062 H 
ATOM     16  H   LIG d   1      10.089   4.302  -1.329  0.00  0.00     0.066 H 
ATOM     17  H   LIG d   1       8.607   6.052  -5.949  0.00  0.00     0.031 H 
ATOM     18  H   LIG d   1      10.275   6.603  -6.220  0.00  0.00     0.031 H 
ATOM     19  H   LIG d   1      11.126   4.341  -6.016  0.00  0.00     0.028 H 
ATOM     20  H   LIG d   1       9.764   4.308  -7.164  0.00  0.00     0.028 H 
ATOM     21  H   LIG d   1       9.555   2.441  -5.556  0.00  0.00     0.049 H 
ATOM     22  H   LIG d   1       8.246   3.621  -5.283  0.00  0.00     0.049 H 
ATOM     23  H   LIG d   1      11.883   7.945  -0.034  0.00  0.00     0.048 H 
ATOM     24  H   LIG d   1      10.826   7.955   1.400  0.00  0.00     0.048 H 
ATOM     25  H   LIG d   1      10.318   9.945   0.082  0.00  0.00     0.028 H 
ATOM     26  H   LIG d   1       8.953   8.811  -0.096  0.00  0.00     0.028 H 
ATOM     27  H   LIG d   1      11.231   9.324  -2.055  0.00  0.00     0.031 H 
ATOM     28  H   LIG d   1       9.489   9.570  -2.321  0.00  0.00     0.031 H 
ENDROOT
BRANCH  11  29
ATOM     29  N   LIG d   1      11.078   5.475   0.461  0.00  0.00    -0.121 NA
ATOM     30  H   LIG d   1      11.084   4.685  -0.166  0.00  0.00     0.178 HD
BRANCH  29  31
ATOM     31  O   LIG d   1      10.584   5.090   1.784  0.00  0.00    -0.297 OA
ATOM     32  H   LIG d   1      10.022   4.305   1.780  0.00  0.00     0.238 HD
ENDBRANCH  29  31
ENDBRANCH  11  29
BRANCH  10  33
ATOM     33  N   LIG d   1      10.099   2.644  -3.112  0.00  0.00     0.049 NA
ATOM     34  O   LIG d   1      11.187   2.111  -3.234  0.00  0.00    -0.126 OA
ENDBRANCH  10  33
TORSDOF 3
ENDMDL
