MODEL 1
REMARK VINA RESULT:      -7.6      0.000      0.000
REMARK  11 active torsions:
REMARK  status: ('A' for Active; 'I' for Inactive)
REMARK    1  A    between atoms: C_3  and  O_37 
REMARK    2  A    between atoms: C_4  and  O_36 
REMARK    3  A    between atoms: C_6  and  C_7 
REMARK    4  A    between atoms: C_12  and  O_35 
REMARK    5  A    between atoms: C_14  and  O_18 
REMARK    6  A    between atoms: O_18  and  C_19 
REMARK    7  A    between atoms: C_21  and  O_34 
REMARK    8  A    between atoms: C_23  and  O_33 
REMARK    9  A    between atoms: C_25  and  O_32 
REMARK   10  A    between atoms: C_27  and  C_30 
REMARK   11  A    between atoms: C_30  and  O_31 
ROOT
ATOM      1  C   LIG d   1       7.717   1.417  -4.165  0.00  0.00     0.139 A 
ATOM      2  C   LIG d   1       8.034   1.316  -5.483  0.00  0.00     0.029 A 
ATOM      3  C   LIG d   1       8.999   2.190  -6.038  0.00  0.00     0.197 A 
ATOM      4  O   LIG d   1       9.304   2.131  -7.218  0.00  0.00    -0.287 OA
ATOM      5  C   LIG d   1       9.620   3.174  -5.134  0.00  0.00     0.105 A 
ATOM      6  C   LIG d   1      10.585   4.078  -5.597  0.00  0.00     0.135 A 
ATOM      7  C   LIG d   1      11.144   4.986  -4.718  0.00  0.00     0.023 A 
ATOM      8  C   LIG d   1      10.751   5.000  -3.384  0.00  0.00     0.131 A 
ATOM      9  C   LIG d   1       9.798   4.107  -2.919  0.00  0.00     0.024 A 
ATOM     10  C   LIG d   1       9.225   3.190  -3.787  0.00  0.00     0.146 A 
ATOM     11  O   LIG d   1       8.294   2.314  -3.351  0.00  0.00    -0.454 OA
ATOM     12  H   LIG d   1       7.549   0.577  -6.105  0.00  0.00     0.069 H 
ATOM     13  H   LIG d   1      11.888   5.687  -5.068  0.00  0.00     0.069 H 
ATOM     14  H   LIG d   1       9.500   4.127  -1.881  0.00  0.00     0.069 H 
ENDROOT
BRANCH   8  15
ATOM     15  O   LIG d   1      11.306   5.895  -2.529  0.00  0.00    -0.461 OA
BRANCH  15  16
ATOM     16  C   LIG d   1      10.937   5.794  -1.152  0.00  0.00     0.231 C 
ATOM     17  H   LIG d   1      10.580   4.785  -0.945  0.00  0.00     0.108 H 
ATOM     18  O   LIG d   1       9.899   6.734  -0.868  0.00  0.00    -0.331 OA
ATOM     19  C   LIG d   1      10.253   8.093  -1.131  0.00  0.00     0.114 C 
ATOM     20  C   LIG d   1      11.443   8.488  -0.251  0.00  0.00     0.112 C 
ATOM     21  H   LIG d   1      10.526   8.201  -2.181  0.00  0.00     0.065 H 
ATOM     22  C   LIG d   1      12.610   7.537  -0.526  0.00  0.00     0.115 C 
ATOM     23  H   LIG d   1      11.742   9.511  -0.481  0.00  0.00     0.065 H 
ATOM     24  C   LIG d   1      12.153   6.097  -0.273  0.00  0.00     0.145 C 
ATOM     25  H   LIG d   1      12.930   7.641  -1.564  0.00  0.00     0.065 H 
ATOM     26  H   LIG d   1      11.882   5.980   0.775  0.00  0.00     0.068 H 
BRANCH  19  27
ATOM     27  C   LIG d   1       9.062   9.001  -0.818  0.00  0.00     0.073 C 
ATOM     28  H   LIG d   1       9.180   9.423   0.180  0.00  0.00     0.058 H 
ATOM     29  H   LIG d   1       9.018   9.807  -1.550  0.00  0.00     0.058 H 
BRANCH  27  30
ATOM     30  O   LIG d   1       7.855   8.239  -0.875  0.00  0.00    -0.392 OA
ATOM     31  H   LIG d   1       7.309   8.425  -1.653  0.00  0.00     0.209 HD
ENDBRANCH  27  30
ENDBRANCH  19  27
BRANCH  20  32
ATOM     32  O   LIG d   1      11.068   8.399   1.125  0.00  0.00    -0.387 OA
ATOM     33  H   LIG d   1      10.119   8.495   1.282  0.00  0.00     0.210 HD
ENDBRANCH  20  32
BRANCH  22  34
ATOM     34  O   LIG d   1      13.700   7.852   0.343  0.00  0.00    -0.386 OA
ATOM     35  H   LIG d   1      14.021   8.759   0.257  0.00  0.00     0.210 HD
ENDBRANCH  22  34
BRANCH  24  36
ATOM     36  O   LIG d   1      13.213   5.195  -0.597  0.00  0.00    -0.383 OA
ATOM     37  H   LIG d   1      12.961   4.263  -0.560  0.00  0.00     0.210 HD
ENDBRANCH  24  36
ENDBRANCH  15  16
ENDBRANCH   8  15
BRANCH   6  38
ATOM     38  O   LIG d   1      10.967   4.063  -6.900  0.00  0.00    -0.506 OA
ATOM     39  H   LIG d   1      10.240   3.925  -7.522  0.00  0.00     0.292 HD
ENDBRANCH   6  38
BRANCH   1  40
ATOM     40  C   LIG d   1       6.704   0.500  -3.607  0.00  0.00     0.021 A 
ATOM     41  C   LIG d   1       6.888  -0.882  -3.690  0.00  0.00    -0.047 A 
ATOM     42  C   LIG d   1       5.944  -1.736  -3.163  0.00  0.00    -0.016 A 
ATOM     43  H   LIG d   1       7.773  -1.281  -4.163  0.00  0.00     0.063 H 
ATOM     44  C   LIG d   1       4.803  -1.227  -2.560  0.00  0.00     0.158 A 
ATOM     45  H   LIG d   1       6.090  -2.804  -3.224  0.00  0.00     0.066 H 
ATOM     46  C   LIG d   1       4.610   0.152  -2.479  0.00  0.00     0.159 A 
ATOM     47  C   LIG d   1       5.554   1.013  -2.999  0.00  0.00    -0.006 A 
ATOM     48  H   LIG d   1       5.406   2.081  -2.937  0.00  0.00     0.066 H 
BRANCH  44  49
ATOM     49  O   LIG d   1       3.872  -2.074  -2.046  0.00  0.00    -0.503 OA
ATOM     50  H   LIG d   1       4.244  -2.884  -1.671  0.00  0.00     0.292 HD
ENDBRANCH  44  49
BRANCH  46  51
ATOM     51  O   LIG d   1       3.489   0.647  -1.886  0.00  0.00    -0.503 OA
ATOM     52  H   LIG d   1       2.810  -0.019  -1.712  0.00  0.00     0.292 HD
ENDBRANCH  46  51
ENDBRANCH   1  40
TORSDOF 11
ENDMDL
MODEL 2
REMARK VINA RESULT:      -7.5      1.726      8.592
REMARK  11 active torsions:
REMARK  status: ('A' for Active; 'I' for Inactive)
REMARK    1  A    between atoms: C_3  and  O_37 
REMARK    2  A    between atoms: C_4  and  O_36 
REMARK    3  A    between atoms: C_6  and  C_7 
REMARK    4  A    between atoms: C_12  and  O_35 
REMARK    5  A    between atoms: C_14  and  O_18 
REMARK    6  A    between atoms: O_18  and  C_19 
REMARK    7  A    between atoms: C_21  and  O_34 
REMARK    8  A    between atoms: C_23  and  O_33 
REMARK    9  A    between atoms: C_25  and  O_32 
REMARK   10  A    between atoms: C_27  and  C_30 
REMARK   11  A    between atoms: C_30  and  O_31 
ROOT
ATOM      1  C   LIG d   1       9.935   4.490  -3.243  0.00  0.00     0.139 A 
ATOM      2  C   LIG d   1      10.312   4.949  -4.466  0.00  0.00     0.029 A 
ATOM      3  C   LIG d   1       9.930   4.236  -5.627  0.00  0.00     0.197 A 
ATOM      4  O   LIG d   1      10.255   4.615  -6.741  0.00  0.00    -0.287 OA
ATOM      5  C   LIG d   1       9.123   3.018  -5.439  0.00  0.00     0.105 A 
ATOM      6  C   LIG d   1       8.700   2.250  -6.531  0.00  0.00     0.135 A 
ATOM      7  C   LIG d   1       7.944   1.113  -6.313  0.00  0.00     0.023 A 
ATOM      8  C   LIG d   1       7.608   0.737  -5.017  0.00  0.00     0.131 A 
ATOM      9  C   LIG d   1       8.022   1.492  -3.932  0.00  0.00     0.024 A 
ATOM     10  C   LIG d   1       8.782   2.635  -4.131  0.00  0.00     0.146 A 
ATOM     11  O   LIG d   1       9.195   3.382  -3.085  0.00  0.00    -0.454 OA
ATOM     12  H   LIG d   1      10.905   5.848  -4.551  0.00  0.00     0.069 H 
ATOM     13  H   LIG d   1       7.615   0.516  -7.150  0.00  0.00     0.069 H 
ATOM     14  H   LIG d   1       7.755   1.190  -2.929  0.00  0.00     0.069 H 
ENDROOT
BRANCH   8  15
ATOM     15  O   LIG d   1       6.866  -0.381  -4.813  0.00  0.00    -0.461 OA
BRANCH  15  16
ATOM     16  C   LIG d   1       5.570  -0.419  -5.416  0.00  0.00     0.231 C 
ATOM     17  H   LIG d   1       5.636  -0.051  -6.440  0.00  0.00     0.108 H 
ATOM     18  O   LIG d   1       4.673   0.405  -4.669  0.00  0.00    -0.331 OA
ATOM     19  C   LIG d   1       4.534   0.024  -3.300  0.00  0.00     0.114 C 
ATOM     20  C   LIG d   1       3.974  -1.399  -3.221  0.00  0.00     0.112 C 
ATOM     21  H   LIG d   1       5.508   0.059  -2.811  0.00  0.00     0.065 H 
ATOM     22  C   LIG d   1       4.907  -2.349  -3.979  0.00  0.00     0.115 C 
ATOM     23  H   LIG d   1       3.908  -1.708  -2.178  0.00  0.00     0.065 H 
ATOM     24  C   LIG d   1       5.052  -1.860  -5.423  0.00  0.00     0.145 C 
ATOM     25  H   LIG d   1       5.885  -2.361  -3.497  0.00  0.00     0.065 H 
ATOM     26  H   LIG d   1       4.083  -1.896  -5.920  0.00  0.00     0.068 H 
BRANCH  19  27
ATOM     27  C   LIG d   1       3.576   0.989  -2.597  0.00  0.00     0.073 C 
ATOM     28  H   LIG d   1       2.577   0.553  -2.569  0.00  0.00     0.058 H 
ATOM     29  H   LIG d   1       3.923   1.167  -1.578  0.00  0.00     0.058 H 
BRANCH  27  30
ATOM     30  O   LIG d   1       3.539   2.226  -3.310  0.00  0.00    -0.392 OA
ATOM     31  H   LIG d   1       2.833   2.823  -3.023  0.00  0.00     0.209 HD
ENDBRANCH  27  30
ENDBRANCH  19  27
BRANCH  20  32
ATOM     32  O   LIG d   1       2.674  -1.434  -3.813  0.00  0.00    -0.387 OA
ATOM     33  H   LIG d   1       2.030  -1.959  -3.318  0.00  0.00     0.210 HD
ENDBRANCH  20  32
BRANCH  22  34
ATOM     34  O   LIG d   1       4.354  -3.667  -3.974  0.00  0.00    -0.386 OA
ATOM     35  H   LIG d   1       3.987  -3.936  -3.121  0.00  0.00     0.210 HD
ENDBRANCH  22  34
BRANCH  24  36
ATOM     36  O   LIG d   1       5.978  -2.697  -6.120  0.00  0.00    -0.383 OA
ATOM     37  H   LIG d   1       6.088  -3.573  -5.727  0.00  0.00     0.210 HD
ENDBRANCH  24  36
ENDBRANCH  15  16
ENDBRANCH   8  15
BRANCH   6  38
ATOM     38  O   LIG d   1       9.029   2.620  -7.796  0.00  0.00    -0.506 OA
ATOM     39  H   LIG d   1       9.973   2.786  -7.923  0.00  0.00     0.292 HD
ENDBRANCH   6  38
BRANCH   1  40
ATOM     40  C   LIG d   1      10.349   5.244  -2.044  0.00  0.00     0.021 A 
ATOM     41  C   LIG d   1      11.355   4.744  -1.215  0.00  0.00    -0.047 A 
ATOM     42  C   LIG d   1      11.745   5.453  -0.099  0.00  0.00    -0.016 A 
ATOM     43  H   LIG d   1      11.832   3.804  -1.450  0.00  0.00     0.063 H 
ATOM     44  C   LIG d   1      11.131   6.658   0.211  0.00  0.00     0.158 A 
ATOM     45  H   LIG d   1      12.526   5.067   0.538  0.00  0.00     0.066 H 
ATOM     46  C   LIG d   1      10.121   7.160  -0.609  0.00  0.00     0.159 A 
ATOM     47  C   LIG d   1       9.730   6.458  -1.732  0.00  0.00    -0.006 A 
ATOM     48  H   LIG d   1       8.948   6.846  -2.368  0.00  0.00     0.066 H 
BRANCH  44  49
ATOM     49  O   LIG d   1      11.515   7.351   1.315  0.00  0.00    -0.503 OA
ATOM     50  H   LIG d   1      11.015   7.127   2.112  0.00  0.00     0.292 HD
ENDBRANCH  44  49
BRANCH  46  51
ATOM     51  O   LIG d   1       9.521   8.342  -0.302  0.00  0.00    -0.503 OA
ATOM     52  H   LIG d   1       9.681   8.640   0.604  0.00  0.00     0.292 HD
ENDBRANCH  46  51
ENDBRANCH   1  40
TORSDOF 11
ENDMDL
MODEL 3
REMARK VINA RESULT:      -7.0      2.149      9.072
REMARK  11 active torsions:
REMARK  status: ('A' for Active; 'I' for Inactive)
REMARK    1  A    between atoms: C_3  and  O_37 
REMARK    2  A    between atoms: C_4  and  O_36 
REMARK    3  A    between atoms: C_6  and  C_7 
REMARK    4  A    between atoms: C_12  and  O_35 
REMARK    5  A    between atoms: C_14  and  O_18 
REMARK    6  A    between atoms: O_18  and  C_19 
REMARK    7  A    between atoms: C_21  and  O_34 
REMARK    8  A    between atoms: C_23  and  O_33 
REMARK    9  A    between atoms: C_25  and  O_32 
REMARK   10  A    between atoms: C_27  and  C_30 
REMARK   11  A    between atoms: C_30  and  O_31 
ROOT
ATOM      1  C   LIG d   1      10.668   4.432  -2.547  0.00  0.00     0.139 A 
ATOM      2  C   LIG d   1      11.862   3.956  -2.991  0.00  0.00     0.029 A 
ATOM      3  C   LIG d   1      11.897   2.765  -3.755  0.00  0.00     0.197 A 
ATOM      4  O   LIG d   1      12.951   2.306  -4.167  0.00  0.00    -0.287 OA
ATOM      5  C   LIG d   1      10.612   2.102  -4.035  0.00  0.00     0.105 A 
ATOM      6  C   LIG d   1      10.552   0.919  -4.783  0.00  0.00     0.135 A 
ATOM      7  C   LIG d   1       9.327   0.326  -5.023  0.00  0.00     0.023 A 
ATOM      8  C   LIG d   1       8.163   0.902  -4.525  0.00  0.00     0.131 A 
ATOM      9  C   LIG d   1       8.215   2.073  -3.785  0.00  0.00     0.024 A 
ATOM     10  C   LIG d   1       9.435   2.681  -3.533  0.00  0.00     0.146 A 
ATOM     11  O   LIG d   1       9.504   3.821  -2.813  0.00  0.00    -0.454 OA
ATOM     12  H   LIG d   1      12.778   4.480  -2.760  0.00  0.00     0.069 H 
ATOM     13  H   LIG d   1       9.273  -0.586  -5.598  0.00  0.00     0.069 H 
ATOM     14  H   LIG d   1       7.304   2.511  -3.403  0.00  0.00     0.069 H 
ENDROOT
BRANCH   8  15
ATOM     15  O   LIG d   1       6.965   0.312  -4.767  0.00  0.00    -0.461 OA
BRANCH  15  16
ATOM     16  C   LIG d   1       6.338  -0.357  -3.671  0.00  0.00     0.231 C 
ATOM     17  H   LIG d   1       6.782  -0.017  -2.735  0.00  0.00     0.108 H 
ATOM     18  O   LIG d   1       6.528  -1.768  -3.804  0.00  0.00    -0.331 OA
ATOM     19  C   LIG d   1       6.004  -2.316  -5.014  0.00  0.00     0.114 C 
ATOM     20  C   LIG d   1       4.491  -2.080  -5.067  0.00  0.00     0.112 C 
ATOM     21  H   LIG d   1       6.478  -1.831  -5.868  0.00  0.00     0.065 H 
ATOM     22  C   LIG d   1       4.213  -0.578  -4.961  0.00  0.00     0.115 C 
ATOM     23  H   LIG d   1       4.097  -2.459  -6.010  0.00  0.00     0.065 H 
ATOM     24  C   LIG d   1       4.839  -0.043  -3.670  0.00  0.00     0.145 C 
ATOM     25  H   LIG d   1       4.648  -0.064  -5.819  0.00  0.00     0.065 H 
ATOM     26  H   LIG d   1       4.369  -0.520  -2.811  0.00  0.00     0.068 H 
BRANCH  19  27
ATOM     27  C   LIG d   1       6.288  -3.819  -5.059  0.00  0.00     0.073 C 
ATOM     28  H   LIG d   1       7.216  -3.997  -5.601  0.00  0.00     0.058 H 
ATOM     29  H   LIG d   1       6.383  -4.201  -4.042  0.00  0.00     0.058 H 
BRANCH  27  30
ATOM     30  O   LIG d   1       5.213  -4.487  -5.720  0.00  0.00    -0.392 OA
ATOM     31  H   LIG d   1       5.466  -5.322  -6.138  0.00  0.00     0.209 HD
ENDBRANCH  27  30
ENDBRANCH  19  27
BRANCH  20  32
ATOM     32  O   LIG d   1       3.864  -2.761  -3.979  0.00  0.00    -0.387 OA
ATOM     33  H   LIG d   1       3.235  -2.217  -3.484  0.00  0.00     0.210 HD
ENDBRANCH  20  32
BRANCH  22  34
ATOM     34  O   LIG d   1       2.801  -0.354  -4.936  0.00  0.00    -0.386 OA
ATOM     35  H   LIG d   1       2.394  -0.510  -4.074  0.00  0.00     0.210 HD
ENDBRANCH  22  34
BRANCH  24  36
ATOM     36  O   LIG d   1       4.648   1.371  -3.596  0.00  0.00    -0.383 OA
ATOM     37  H   LIG d   1       3.783   1.634  -3.255  0.00  0.00     0.210 HD
ENDBRANCH  24  36
ENDBRANCH  15  16
ENDBRANCH   8  15
BRANCH   6  38
ATOM     38  O   LIG d   1      11.690   0.358  -5.268  0.00  0.00    -0.506 OA
ATOM     39  H   LIG d   1      11.574  -0.098  -6.112  0.00  0.00     0.292 HD
ENDBRANCH   6  38
BRANCH   1  40
ATOM     40  C   LIG d   1      10.653   5.672  -1.747  0.00  0.00     0.021 A 
ATOM     41  C   LIG d   1      11.773   6.033  -0.993  0.00  0.00    -0.047 A 
ATOM     42  C   LIG d   1      11.759   7.194  -0.251  0.00  0.00    -0.016 A 
ATOM     43  H   LIG d   1      12.651   5.405  -0.996  0.00  0.00     0.063 H 
ATOM     44  C   LIG d   1      10.630   8.001  -0.240  0.00  0.00     0.158 A 
ATOM     45  H   LIG d   1      12.627   7.475   0.327  0.00  0.00     0.066 H 
ATOM     46  C   LIG d   1       9.506   7.643  -0.986  0.00  0.00     0.159 A 
ATOM     47  C   LIG d   1       9.515   6.485  -1.735  0.00  0.00    -0.006 A 
ATOM     48  H   LIG d   1       8.647   6.206  -2.313  0.00  0.00     0.066 H 
BRANCH  44  49
ATOM     49  O   LIG d   1      10.619   9.143   0.496  0.00  0.00    -0.503 OA
ATOM     50  H   LIG d   1      10.515   9.948  -0.029  0.00  0.00     0.292 HD
ENDBRANCH  44  49
BRANCH  46  51
ATOM     51  O   LIG d   1       8.401   8.437  -0.972  0.00  0.00    -0.503 OA
ATOM     52  H   LIG d   1       8.538   9.293  -0.543  0.00  0.00     0.292 HD
ENDBRANCH  46  51
ENDBRANCH   1  40
TORSDOF 11
ENDMDL
MODEL 4
REMARK VINA RESULT:      -6.9      3.711      5.923
REMARK  11 active torsions:
REMARK  status: ('A' for Active; 'I' for Inactive)
REMARK    1  A    between atoms: C_3  and  O_37 
REMARK    2  A    between atoms: C_4  and  O_36 
REMARK    3  A    between atoms: C_6  and  C_7 
REMARK    4  A    between atoms: C_12  and  O_35 
REMARK    5  A    between atoms: C_14  and  O_18 
REMARK    6  A    between atoms: O_18  and  C_19 
REMARK    7  A    between atoms: C_21  and  O_34 
REMARK    8  A    between atoms: C_23  and  O_33 
REMARK    9  A    between atoms: C_25  and  O_32 
REMARK   10  A    between atoms: C_27  and  C_30 
REMARK   11  A    between atoms: C_30  and  O_31 
ROOT
ATOM      1  C   LIG d   1       9.963   5.117  -6.319  0.00  0.00     0.139 A 
ATOM      2  C   LIG d   1       9.933   3.798  -5.987  0.00  0.00     0.029 A 
ATOM      3  C   LIG d   1      10.232   3.405  -4.661  0.00  0.00     0.197 A 
ATOM      4  O   LIG d   1      10.219   2.230  -4.329  0.00  0.00    -0.287 OA
ATOM      5  C   LIG d   1      10.559   4.469  -3.697  0.00  0.00     0.105 A 
ATOM      6  C   LIG d   1      10.867   4.172  -2.363  0.00  0.00     0.135 A 
ATOM      7  C   LIG d   1      11.169   5.199  -1.489  0.00  0.00     0.023 A 
ATOM      8  C   LIG d   1      11.166   6.518  -1.932  0.00  0.00     0.131 A 
ATOM      9  C   LIG d   1      10.860   6.819  -3.250  0.00  0.00     0.024 A 
ATOM     10  C   LIG d   1      10.556   5.801  -4.142  0.00  0.00     0.146 A 
ATOM     11  O   LIG d   1      10.258   6.077  -5.429  0.00  0.00    -0.454 OA
ATOM     12  H   LIG d   1       9.687   3.055  -6.732  0.00  0.00     0.069 H 
ATOM     13  H   LIG d   1      11.409   4.978  -0.460  0.00  0.00     0.069 H 
ATOM     14  H   LIG d   1      10.860   7.847  -3.584  0.00  0.00     0.069 H 
ENDROOT
BRANCH   8  15
ATOM     15  O   LIG d   1      11.463   7.519  -1.066  0.00  0.00    -0.461 OA
BRANCH  15  16
ATOM     16  C   LIG d   1      10.411   7.973  -0.212  0.00  0.00     0.231 C 
ATOM     17  H   LIG d   1       9.834   7.117   0.139  0.00  0.00     0.108 H 
ATOM     18  O   LIG d   1       9.557   8.858  -0.939  0.00  0.00    -0.331 OA
ATOM     19  C   LIG d   1      10.221  10.006  -1.469  0.00  0.00     0.114 C 
ATOM     20  C   LIG d   1      10.813  10.828  -0.319  0.00  0.00     0.112 C 
ATOM     21  H   LIG d   1      11.022   9.687  -2.137  0.00  0.00     0.065 H 
ATOM     22  C   LIG d   1      11.768   9.946   0.489  0.00  0.00     0.115 C 
ATOM     23  H   LIG d   1      11.357  11.681  -0.725  0.00  0.00     0.065 H 
ATOM     24  C   LIG d   1      11.009   8.713   0.987  0.00  0.00     0.145 C 
ATOM     25  H   LIG d   1      12.600   9.633  -0.143  0.00  0.00     0.065 H 
ATOM     26  H   LIG d   1      10.210   9.022   1.659  0.00  0.00     0.068 H 
BRANCH  19  27
ATOM     27  C   LIG d   1       9.219  10.863  -2.246  0.00  0.00     0.073 C 
ATOM     28  H   LIG d   1       9.444  11.917  -2.088  0.00  0.00     0.058 H 
ATOM     29  H   LIG d   1       9.290  10.631  -3.308  0.00  0.00     0.058 H 
BRANCH  27  30
ATOM     30  O   LIG d   1       7.896  10.582  -1.785  0.00  0.00    -0.392 OA
ATOM     31  H   LIG d   1       7.543   9.736  -2.095  0.00  0.00     0.209 HD
ENDBRANCH  27  30
ENDBRANCH  19  27
BRANCH  20  32
ATOM     32  O   LIG d   1       9.759  11.292   0.527  0.00  0.00    -0.387 OA
ATOM     33  H   LIG d   1       9.513  12.216   0.380  0.00  0.00     0.210 HD
ENDBRANCH  20  32
BRANCH  22  34
ATOM     34  O   LIG d   1      12.268  10.683   1.607  0.00  0.00    -0.386 OA
ATOM     35  H   LIG d   1      11.956  10.361   2.463  0.00  0.00     0.210 HD
ENDBRANCH  22  34
BRANCH  24  36
ATOM     36  O   LIG d   1      11.910   7.847   1.682  0.00  0.00    -0.383 OA
ATOM     37  H   LIG d   1      11.474   7.222   2.277  0.00  0.00     0.210 HD
ENDBRANCH  24  36
ENDBRANCH  15  16
ENDBRANCH   8  15
BRANCH   6  38
ATOM     38  O   LIG d   1      10.870   2.884  -1.932  0.00  0.00    -0.506 OA
ATOM     39  H   LIG d   1      11.468   2.306  -2.425  0.00  0.00     0.292 HD
ENDBRANCH   6  38
BRANCH   1  40
ATOM     40  C   LIG d   1       9.655   5.506  -7.709  0.00  0.00     0.021 A 
ATOM     41  C   LIG d   1       9.402   4.525  -8.671  0.00  0.00    -0.047 A 
ATOM     42  C   LIG d   1       9.108   4.890  -9.967  0.00  0.00    -0.016 A 
ATOM     43  H   LIG d   1       9.432   3.480  -8.398  0.00  0.00     0.063 H 
ATOM     44  C   LIG d   1       9.074   6.231 -10.322  0.00  0.00     0.158 A 
ATOM     45  H   LIG d   1       8.908   4.132 -10.708  0.00  0.00     0.066 H 
ATOM     46  C   LIG d   1       9.331   7.215  -9.367  0.00  0.00     0.159 A 
ATOM     47  C   LIG d   1       9.621   6.857  -8.067  0.00  0.00    -0.006 A 
ATOM     48  H   LIG d   1       9.820   7.617  -7.326  0.00  0.00     0.066 H 
BRANCH  44  49
ATOM     49  O   LIG d   1       8.789   6.587 -11.602  0.00  0.00    -0.503 OA
ATOM     50  H   LIG d   1       9.240   6.050 -12.268  0.00  0.00     0.292 HD
ENDBRANCH  44  49
BRANCH  46  51
ATOM     51  O   LIG d   1       9.297   8.529  -9.720  0.00  0.00    -0.503 OA
ATOM     52  H   LIG d   1       8.602   9.037  -9.279  0.00  0.00     0.292 HD
ENDBRANCH  46  51
ENDBRANCH   1  40
TORSDOF 11
ENDMDL
MODEL 5
REMARK VINA RESULT:      -6.7      6.800     13.575
REMARK  11 active torsions:
REMARK  status: ('A' for Active; 'I' for Inactive)
REMARK    1  A    between atoms: C_3  and  O_37 
REMARK    2  A    between atoms: C_4  and  O_36 
REMARK    3  A    between atoms: C_6  and  C_7 
REMARK    4  A    between atoms: C_12  and  O_35 
REMARK    5  A    between atoms: C_14  and  O_18 
REMARK    6  A    between atoms: O_18  and  C_19 
REMARK    7  A    between atoms: C_21  and  O_34 
REMARK    8  A    between atoms: C_23  and  O_33 
REMARK    9  A    between atoms: C_25  and  O_32 
REMARK   10  A    between atoms: C_27  and  C_30 
REMARK   11  A    between atoms: C_30  and  O_31 
ROOT
ATOM      1  C   LIG d   1       4.741  -2.595  -5.144  0.00  0.00     0.139 A 
ATOM      2  C   LIG d   1       4.410  -2.218  -6.408  0.00  0.00     0.029 A 
ATOM      3  C   LIG d   1       4.374  -3.188  -7.438  0.00  0.00     0.197 A 
ATOM      4  O   LIG d   1       4.086  -2.885  -8.585  0.00  0.00    -0.287 OA
ATOM      5  C   LIG d   1       4.697  -4.578  -7.072  0.00  0.00     0.105 A 
ATOM      6  C   LIG d   1       4.686  -5.603  -8.027  0.00  0.00     0.135 A 
ATOM      7  C   LIG d   1       4.996  -6.894  -7.644  0.00  0.00     0.023 A 
ATOM      8  C   LIG d   1       5.316  -7.172  -6.319  0.00  0.00     0.131 A 
ATOM      9  C   LIG d   1       5.327  -6.162  -5.369  0.00  0.00     0.024 A 
ATOM     10  C   LIG d   1       5.020  -4.861  -5.735  0.00  0.00     0.146 A 
ATOM     11  O   LIG d   1       5.029  -3.866  -4.823  0.00  0.00    -0.454 OA
ATOM     12  H   LIG d   1       4.181  -1.186  -6.626  0.00  0.00     0.069 H 
ATOM     13  H   LIG d   1       4.990  -7.689  -8.374  0.00  0.00     0.069 H 
ATOM     14  H   LIG d   1       5.577  -6.390  -4.342  0.00  0.00     0.069 H 
ENDROOT
BRANCH   8  15
ATOM     15  O   LIG d   1       5.618  -8.443  -5.953  0.00  0.00    -0.461 OA
BRANCH  15  16
ATOM     16  C   LIG d   1       4.923  -9.495  -6.626  0.00  0.00     0.231 C 
ATOM     17  H   LIG d   1       4.450  -9.100  -7.525  0.00  0.00     0.108 H 
ATOM     18  O   LIG d   1       3.923 -10.035  -5.759  0.00  0.00    -0.331 OA
ATOM     19  C   LIG d   1       4.435 -10.558  -4.532  0.00  0.00     0.114 C 
ATOM     20  C   LIG d   1       5.407 -11.704  -4.832  0.00  0.00     0.112 C 
ATOM     21  H   LIG d   1       4.959  -9.770  -3.991  0.00  0.00     0.065 H 
ATOM     22  C   LIG d   1       6.529 -11.186  -5.737  0.00  0.00     0.115 C 
ATOM     23  H   LIG d   1       5.831 -12.075  -3.900  0.00  0.00     0.065 H 
ATOM     24  C   LIG d   1       5.914 -10.597  -7.010  0.00  0.00     0.145 C 
ATOM     25  H   LIG d   1       7.094 -10.415  -5.213  0.00  0.00     0.065 H 
ATOM     26  H   LIG d   1       5.392 -11.380  -7.559  0.00  0.00     0.068 H 
BRANCH  19  27
ATOM     27  C   LIG d   1       3.278 -11.081  -3.679  0.00  0.00     0.073 C 
ATOM     28  H   LIG d   1       2.632 -11.712  -4.289  0.00  0.00     0.058 H 
ATOM     29  H   LIG d   1       3.674 -11.666  -2.848  0.00  0.00     0.058 H 
BRANCH  27  30
ATOM     30  O   LIG d   1       2.526  -9.979  -3.169  0.00  0.00    -0.392 OA
ATOM     31  H   LIG d   1       1.763  -9.739  -3.713  0.00  0.00     0.209 HD
ENDBRANCH  27  30
ENDBRANCH  19  27
BRANCH  20  32
ATOM     32  O   LIG d   1       4.709 -12.761  -5.494  0.00  0.00    -0.387 OA
ATOM     33  H   LIG d   1       5.287 -13.421  -5.901  0.00  0.00     0.210 HD
ENDBRANCH  20  32
BRANCH  22  34
ATOM     34  O   LIG d   1       7.400 -12.265  -6.082  0.00  0.00    -0.386 OA
ATOM     35  H   LIG d   1       8.255 -12.239  -5.634  0.00  0.00     0.210 HD
ENDBRANCH  22  34
BRANCH  24  36
ATOM     36  O   LIG d   1       6.947 -10.046  -7.829  0.00  0.00    -0.383 OA
ATOM     37  H   LIG d   1       6.933 -10.359  -8.743  0.00  0.00     0.210 HD
ENDBRANCH  24  36
ENDBRANCH  15  16
ENDBRANCH   8  15
BRANCH   6  38
ATOM     38  O   LIG d   1       4.374  -5.329  -9.320  0.00  0.00    -0.506 OA
ATOM     39  H   LIG d   1       5.053  -5.598  -9.953  0.00  0.00     0.292 HD
ENDBRANCH   6  38
BRANCH   1  40
ATOM     40  C   LIG d   1       4.780  -1.568  -4.085  0.00  0.00     0.021 A 
ATOM     41  C   LIG d   1       4.006  -1.722  -2.933  0.00  0.00    -0.047 A 
ATOM     42  C   LIG d   1       4.048  -0.765  -1.942  0.00  0.00    -0.016 A 
ATOM     43  H   LIG d   1       3.379  -2.593  -2.815  0.00  0.00     0.063 H 
ATOM     44  C   LIG d   1       4.847   0.360  -2.092  0.00  0.00     0.158 A 
ATOM     45  H   LIG d   1       3.453  -0.887  -1.049  0.00  0.00     0.066 H 
ATOM     46  C   LIG d   1       5.618   0.522  -3.244  0.00  0.00     0.159 A 
ATOM     47  C   LIG d   1       5.585  -0.436  -4.237  0.00  0.00    -0.006 A 
ATOM     48  H   LIG d   1       6.181  -0.311  -5.129  0.00  0.00     0.066 H 
BRANCH  44  49
ATOM     49  O   LIG d   1       4.881   1.303  -1.115  0.00  0.00    -0.503 OA
ATOM     50  H   LIG d   1       5.619   1.923  -1.193  0.00  0.00     0.292 HD
ENDBRANCH  44  49
BRANCH  46  51
ATOM     51  O   LIG d   1       6.400   1.626  -3.387  0.00  0.00    -0.503 OA
ATOM     52  H   LIG d   1       5.908   2.432  -3.594  0.00  0.00     0.292 HD
ENDBRANCH  46  51
ENDBRANCH   1  40
TORSDOF 11
ENDMDL
MODEL 6
REMARK VINA RESULT:      -6.6      2.665      9.096
REMARK  11 active torsions:
REMARK  status: ('A' for Active; 'I' for Inactive)
REMARK    1  A    between atoms: C_3  and  O_37 
REMARK    2  A    between atoms: C_4  and  O_36 
REMARK    3  A    between atoms: C_6  and  C_7 
REMARK    4  A    between atoms: C_12  and  O_35 
REMARK    5  A    between atoms: C_14  and  O_18 
REMARK    6  A    between atoms: O_18  and  C_19 
REMARK    7  A    between atoms: C_21  and  O_34 
REMARK    8  A    between atoms: C_23  and  O_33 
REMARK    9  A    between atoms: C_25  and  O_32 
REMARK   10  A    between atoms: C_27  and  C_30 
REMARK   11  A    between atoms: C_30  and  O_31 
ROOT
ATOM      1  C   LIG d   1      10.580   4.434  -2.506  0.00  0.00     0.139 A 
ATOM      2  C   LIG d   1      11.770   3.888  -2.876  0.00  0.00     0.029 A 
ATOM      3  C   LIG d   1      11.782   2.701  -3.646  0.00  0.00     0.197 A 
ATOM      4  O   LIG d   1      12.831   2.180  -3.992  0.00  0.00    -0.287 OA
ATOM      5  C   LIG d   1      10.480   2.119  -4.016  0.00  0.00     0.105 A 
ATOM      6  C   LIG d   1      10.398   0.946  -4.776  0.00  0.00     0.135 A 
ATOM      7  C   LIG d   1       9.158   0.431  -5.102  0.00  0.00     0.023 A 
ATOM      8  C   LIG d   1       8.000   1.075  -4.676  0.00  0.00     0.131 A 
ATOM      9  C   LIG d   1       8.075   2.237  -3.924  0.00  0.00     0.024 A 
ATOM     10  C   LIG d   1       9.311   2.767  -3.587  0.00  0.00     0.146 A 
ATOM     11  O   LIG d   1       9.401   3.897  -2.853  0.00  0.00    -0.454 OA
ATOM     12  H   LIG d   1      12.698   4.353  -2.579  0.00  0.00     0.069 H 
ATOM     13  H   LIG d   1       9.086  -0.473  -5.688  0.00  0.00     0.069 H 
ATOM     14  H   LIG d   1       7.169   2.729  -3.599  0.00  0.00     0.069 H 
ENDROOT
BRANCH   8  15
ATOM     15  O   LIG d   1       6.787   0.561  -5.001  0.00  0.00    -0.461 OA
BRANCH  15  16
ATOM     16  C   LIG d   1       6.761  -0.780  -5.495  0.00  0.00     0.231 C 
ATOM     17  H   LIG d   1       7.752  -1.222  -5.398  0.00  0.00     0.108 H 
ATOM     18  O   LIG d   1       6.374  -0.772  -6.871  0.00  0.00    -0.331 OA
ATOM     19  C   LIG d   1       5.094  -0.187  -7.114  0.00  0.00     0.114 C 
ATOM     20  C   LIG d   1       4.019  -0.986  -6.371  0.00  0.00     0.112 C 
ATOM     21  H   LIG d   1       5.091   0.844  -6.759  0.00  0.00     0.065 H 
ATOM     22  C   LIG d   1       4.354  -1.009  -4.876  0.00  0.00     0.115 C 
ATOM     23  H   LIG d   1       3.047  -0.515  -6.520  0.00  0.00     0.065 H 
ATOM     24  C   LIG d   1       5.753  -1.602  -4.687  0.00  0.00     0.145 C 
ATOM     25  H   LIG d   1       4.330   0.007  -4.481  0.00  0.00     0.065 H 
ATOM     26  H   LIG d   1       5.763  -2.633  -5.035  0.00  0.00     0.068 H 
BRANCH  19  27
ATOM     27  C   LIG d   1       4.799  -0.210  -8.615  0.00  0.00     0.073 C 
ATOM     28  H   LIG d   1       5.245   0.666  -9.086  0.00  0.00     0.058 H 
ATOM     29  H   LIG d   1       5.223  -1.113  -9.055  0.00  0.00     0.058 H 
BRANCH  27  30
ATOM     30  O   LIG d   1       3.386  -0.197  -8.823  0.00  0.00    -0.392 OA
ATOM     31  H   LIG d   1       2.952   0.614  -8.524  0.00  0.00     0.209 HD
ENDBRANCH  27  30
ENDBRANCH  19  27
BRANCH  20  32
ATOM     32  O   LIG d   1       3.984  -2.323  -6.874  0.00  0.00    -0.387 OA
ATOM     33  H   LIG d   1       3.213  -2.832  -6.587  0.00  0.00     0.210 HD
ENDBRANCH  20  32
BRANCH  22  34
ATOM     34  O   LIG d   1       3.396  -1.814  -4.185  0.00  0.00    -0.386 OA
ATOM     35  H   LIG d   1       3.349  -2.726  -4.499  0.00  0.00     0.210 HD
ENDBRANCH  22  34
BRANCH  24  36
ATOM     36  O   LIG d   1       6.105  -1.561  -3.302  0.00  0.00    -0.383 OA
ATOM     37  H   LIG d   1       6.592  -2.339  -2.997  0.00  0.00     0.210 HD
ENDBRANCH  24  36
ENDBRANCH  15  16
ENDBRANCH   8  15
BRANCH   6  38
ATOM     38  O   LIG d   1      11.529   0.319  -5.191  0.00  0.00    -0.506 OA
ATOM     39  H   LIG d   1      12.016   0.798  -5.874  0.00  0.00     0.292 HD
ENDBRANCH   6  38
BRANCH   1  40
ATOM     40  C   LIG d   1      10.588   5.669  -1.697  0.00  0.00     0.021 A 
ATOM     41  C   LIG d   1      11.598   5.883  -0.756  0.00  0.00    -0.047 A 
ATOM     42  C   LIG d   1      11.607   7.039  -0.006  0.00  0.00    -0.016 A 
ATOM     43  H   LIG d   1      12.375   5.145  -0.620  0.00  0.00     0.063 H 
ATOM     44  C   LIG d   1      10.607   7.987  -0.174  0.00  0.00     0.158 A 
ATOM     45  H   LIG d   1      12.391   7.206   0.717  0.00  0.00     0.066 H 
ATOM     46  C   LIG d   1       9.593   7.776  -1.108  0.00  0.00     0.159 A 
ATOM     47  C   LIG d   1       9.581   6.623  -1.867  0.00  0.00    -0.006 A 
ATOM     48  H   LIG d   1       8.796   6.458  -2.590  0.00  0.00     0.066 H 
BRANCH  44  49
ATOM     49  O   LIG d   1      10.618   9.123   0.571  0.00  0.00    -0.503 OA
ATOM     50  H   LIG d   1      11.444   9.270   1.051  0.00  0.00     0.292 HD
ENDBRANCH  44  49
BRANCH  46  51
ATOM     51  O   LIG d   1       8.615   8.708  -1.270  0.00  0.00    -0.503 OA
ATOM     52  H   LIG d   1       7.905   8.651  -0.615  0.00  0.00     0.292 HD
ENDBRANCH  46  51
ENDBRANCH   1  40
TORSDOF 11
ENDMDL
MODEL 7
REMARK VINA RESULT:      -6.4      6.559     13.232
REMARK  11 active torsions:
REMARK  status: ('A' for Active; 'I' for Inactive)
REMARK    1  A    between atoms: C_3  and  O_37 
REMARK    2  A    between atoms: C_4  and  O_36 
REMARK    3  A    between atoms: C_6  and  C_7 
REMARK    4  A    between atoms: C_12  and  O_35 
REMARK    5  A    between atoms: C_14  and  O_18 
REMARK    6  A    between atoms: O_18  and  C_19 
REMARK    7  A    between atoms: C_21  and  O_34 
REMARK    8  A    between atoms: C_23  and  O_33 
REMARK    9  A    between atoms: C_25  and  O_32 
REMARK   10  A    between atoms: C_27  and  C_30 
REMARK   11  A    between atoms: C_30  and  O_31 
ROOT
ATOM      1  C   LIG d   1       4.616  -2.720  -5.307  0.00  0.00     0.139 A 
ATOM      2  C   LIG d   1       4.548  -2.273  -6.589  0.00  0.00     0.029 A 
ATOM      3  C   LIG d   1       4.489  -3.207  -7.651  0.00  0.00     0.197 A 
ATOM      4  O   LIG d   1       4.433  -2.842  -8.815  0.00  0.00    -0.287 OA
ATOM      5  C   LIG d   1       4.498  -4.637  -7.297  0.00  0.00     0.105 A 
ATOM      6  C   LIG d   1       4.443  -5.630  -8.283  0.00  0.00     0.135 A 
ATOM      7  C   LIG d   1       4.455  -6.961  -7.910  0.00  0.00     0.023 A 
ATOM      8  C   LIG d   1       4.520  -7.309  -6.565  0.00  0.00     0.131 A 
ATOM      9  C   LIG d   1       4.574  -6.331  -5.584  0.00  0.00     0.024 A 
ATOM     10  C   LIG d   1       4.565  -4.991  -5.939  0.00  0.00     0.146 A 
ATOM     11  O   LIG d   1       4.618  -4.025  -4.997  0.00  0.00    -0.454 OA
ATOM     12  H   LIG d   1       4.544  -1.213  -6.797  0.00  0.00     0.069 H 
ATOM     13  H   LIG d   1       4.413  -7.732  -8.664  0.00  0.00     0.069 H 
ATOM     14  H   LIG d   1       4.625  -6.613  -4.542  0.00  0.00     0.069 H 
ENDROOT
BRANCH   8  15
ATOM     15  O   LIG d   1       4.531  -8.618  -6.209  0.00  0.00    -0.461 OA
BRANCH  15  16
ATOM     16  C   LIG d   1       5.058  -8.937  -4.919  0.00  0.00     0.231 C 
ATOM     17  H   LIG d   1       4.599  -8.292  -4.170  0.00  0.00     0.108 H 
ATOM     18  O   LIG d   1       6.473  -8.735  -4.921  0.00  0.00    -0.331 OA
ATOM     19  C   LIG d   1       7.174  -9.517  -5.889  0.00  0.00     0.114 C 
ATOM     20  C   LIG d   1       6.953 -11.004  -5.598  0.00  0.00     0.112 C 
ATOM     21  H   LIG d   1       6.799  -9.282  -6.886  0.00  0.00     0.065 H 
ATOM     22  C   LIG d   1       5.451 -11.302  -5.612  0.00  0.00     0.115 C 
ATOM     23  H   LIG d   1       7.451 -11.602  -6.362  0.00  0.00     0.065 H 
ATOM     24  C   LIG d   1       4.753 -10.401  -4.590  0.00  0.00     0.145 C 
ATOM     25  H   LIG d   1       5.049 -11.106  -6.607  0.00  0.00     0.065 H 
ATOM     26  H   LIG d   1       5.118 -10.632  -3.590  0.00  0.00     0.068 H 
BRANCH  19  27
ATOM     27  C   LIG d   1       8.668  -9.199  -5.817  0.00  0.00     0.073 C 
ATOM     28  H   LIG d   1       9.242 -10.095  -6.051  0.00  0.00     0.058 H 
ATOM     29  H   LIG d   1       8.908  -8.416  -6.537  0.00  0.00     0.058 H 
BRANCH  27  30
ATOM     30  O   LIG d   1       8.997  -8.751  -4.501  0.00  0.00    -0.392 OA
ATOM     31  H   LIG d   1       9.272  -9.460  -3.902  0.00  0.00     0.209 HD
ENDBRANCH  27  30
ENDBRANCH  19  27
BRANCH  20  32
ATOM     32  O   LIG d   1       7.492 -11.325  -4.314  0.00  0.00    -0.387 OA
ATOM     33  H   LIG d   1       7.585 -10.563  -3.725  0.00  0.00     0.210 HD
ENDBRANCH  20  32
BRANCH  22  34
ATOM     34  O   LIG d   1       5.232 -12.672  -5.270  0.00  0.00    -0.386 OA
ATOM     35  H   LIG d   1       6.032 -13.143  -5.001  0.00  0.00     0.210 HD
ENDBRANCH  22  34
BRANCH  24  36
ATOM     36  O   LIG d   1       3.341 -10.618  -4.646  0.00  0.00    -0.383 OA
ATOM     37  H   LIG d   1       2.939 -10.807  -3.788  0.00  0.00     0.210 HD
ENDBRANCH  24  36
ENDBRANCH  15  16
ENDBRANCH   8  15
BRANCH   6  38
ATOM     38  O   LIG d   1       4.380  -5.289  -9.595  0.00  0.00    -0.506 OA
ATOM     39  H   LIG d   1       4.348  -4.336  -9.753  0.00  0.00     0.292 HD
ENDBRANCH   6  38
BRANCH   1  40
ATOM     40  C   LIG d   1       4.682  -1.730  -4.214  0.00  0.00     0.021 A 
ATOM     41  C   LIG d   1       4.087  -2.007  -2.981  0.00  0.00    -0.047 A 
ATOM     42  C   LIG d   1       4.156  -1.085  -1.960  0.00  0.00    -0.016 A 
ATOM     43  H   LIG d   1       3.578  -2.947  -2.826  0.00  0.00     0.063 H 
ATOM     44  C   LIG d   1       4.804   0.126  -2.157  0.00  0.00     0.158 A 
ATOM     45  H   LIG d   1       3.700  -1.302  -1.006  0.00  0.00     0.066 H 
ATOM     46  C   LIG d   1       5.395   0.412  -3.388  0.00  0.00     0.159 A 
ATOM     47  C   LIG d   1       5.335  -0.510  -4.413  0.00  0.00    -0.006 A 
ATOM     48  H   LIG d   1       5.792  -0.291  -5.366  0.00  0.00     0.066 H 
BRANCH  44  49
ATOM     49  O   LIG d   1       4.865   1.035  -1.148  0.00  0.00    -0.503 OA
ATOM     50  H   LIG d   1       5.656   1.591  -1.168  0.00  0.00     0.292 HD
ENDBRANCH  44  49
BRANCH  46  51
ATOM     51  O   LIG d   1       6.030   1.600  -3.577  0.00  0.00    -0.503 OA
ATOM     52  H   LIG d   1       5.567   2.202  -4.176  0.00  0.00     0.292 HD
ENDBRANCH  46  51
ENDBRANCH   1  40
TORSDOF 11
ENDMDL
MODEL 8
REMARK VINA RESULT:      -6.3      3.939      6.250
REMARK  11 active torsions:
REMARK  status: ('A' for Active; 'I' for Inactive)
REMARK    1  A    between atoms: C_3  and  O_37 
REMARK    2  A    between atoms: C_4  and  O_36 
REMARK    3  A    between atoms: C_6  and  C_7 
REMARK    4  A    between atoms: C_12  and  O_35 
REMARK    5  A    between atoms: C_14  and  O_18 
REMARK    6  A    between atoms: O_18  and  C_19 
REMARK    7  A    between atoms: C_21  and  O_34 
REMARK    8  A    between atoms: C_23  and  O_33 
REMARK    9  A    between atoms: C_25  and  O_32 
REMARK   10  A    between atoms: C_27  and  C_30 
REMARK   11  A    between atoms: C_30  and  O_31 
ROOT
ATOM      1  C   LIG d   1       9.902   4.934  -6.439  0.00  0.00     0.139 A 
ATOM      2  C   LIG d   1      10.223   3.697  -5.972  0.00  0.00     0.029 A 
ATOM      3  C   LIG d   1      10.452   3.512  -4.588  0.00  0.00     0.197 A 
ATOM      4  O   LIG d   1      10.747   2.417  -4.135  0.00  0.00    -0.287 OA
ATOM      5  C   LIG d   1      10.320   4.691  -3.716  0.00  0.00     0.105 A 
ATOM      6  C   LIG d   1      10.529   4.599  -2.334  0.00  0.00     0.135 A 
ATOM      7  C   LIG d   1      10.396   5.729  -1.549  0.00  0.00     0.023 A 
ATOM      8  C   LIG d   1      10.057   6.947  -2.129  0.00  0.00     0.131 A 
ATOM      9  C   LIG d   1       9.848   7.044  -3.496  0.00  0.00     0.024 A 
ATOM     10  C   LIG d   1       9.978   5.922  -4.299  0.00  0.00     0.146 A 
ATOM     11  O   LIG d   1       9.780   5.999  -5.632  0.00  0.00    -0.454 OA
ATOM     12  H   LIG d   1      10.308   2.863  -6.654  0.00  0.00     0.069 H 
ATOM     13  H   LIG d   1      10.556   5.667  -0.483  0.00  0.00     0.069 H 
ATOM     14  H   LIG d   1       9.585   7.996  -3.936  0.00  0.00     0.069 H 
ENDROOT
BRANCH   8  15
ATOM     15  O   LIG d   1       9.929   8.050  -1.350  0.00  0.00    -0.461 OA
BRANCH  15  16
ATOM     16  C   LIG d   1      10.272   9.306  -1.940  0.00  0.00     0.231 C 
ATOM     17  H   LIG d   1      10.016   9.292  -2.999  0.00  0.00     0.108 H 
ATOM     18  O   LIG d   1      11.676   9.533  -1.792  0.00  0.00    -0.331 OA
ATOM     19  C   LIG d   1      12.126   9.544  -0.436  0.00  0.00     0.114 C 
ATOM     20  C   LIG d   1      11.426  10.676   0.323  0.00  0.00     0.112 C 
ATOM     21  H   LIG d   1      11.888   8.589   0.034  0.00  0.00     0.065 H 
ATOM     22  C   LIG d   1       9.910  10.479   0.233  0.00  0.00     0.115 C 
ATOM     23  H   LIG d   1      11.736  10.658   1.368  0.00  0.00     0.065 H 
ATOM     24  C   LIG d   1       9.499  10.428  -1.241  0.00  0.00     0.145 C 
ATOM     25  H   LIG d   1       9.633   9.545   0.723  0.00  0.00     0.065 H 
ATOM     26  H   LIG d   1       9.729  11.379  -1.718  0.00  0.00     0.068 H 
BRANCH  19  27
ATOM     27  C   LIG d   1      13.639   9.766  -0.403  0.00  0.00     0.073 C 
ATOM     28  H   LIG d   1      13.915  10.250   0.534  0.00  0.00     0.058 H 
ATOM     29  H   LIG d   1      14.149   8.806  -0.479  0.00  0.00     0.058 H 
BRANCH  27  30
ATOM     30  O   LIG d   1      14.023  10.597  -1.500  0.00  0.00    -0.392 OA
ATOM     31  H   LIG d   1      14.966  10.812  -1.519  0.00  0.00     0.209 HD
ENDBRANCH  27  30
ENDBRANCH  19  27
BRANCH  20  32
ATOM     32  O   LIG d   1      11.781  11.931  -0.259  0.00  0.00    -0.387 OA
ATOM     33  H   LIG d   1      11.032  12.419  -0.629  0.00  0.00     0.210 HD
ENDBRANCH  20  32
BRANCH  22  34
ATOM     34  O   LIG d   1       9.248  11.570   0.876  0.00  0.00    -0.386 OA
ATOM     35  H   LIG d   1       9.381  12.423   0.441  0.00  0.00     0.210 HD
ENDBRANCH  22  34
BRANCH  24  36
ATOM     36  O   LIG d   1       8.096  10.172  -1.337  0.00  0.00    -0.383 OA
ATOM     37  H   LIG d   1       7.708  10.423  -2.186  0.00  0.00     0.210 HD
ENDBRANCH  24  36
ENDBRANCH  15  16
ENDBRANCH   8  15
BRANCH   6  38
ATOM     38  O   LIG d   1      10.860   3.410  -1.769  0.00  0.00    -0.506 OA
ATOM     39  H   LIG d   1      11.160   2.744  -2.402  0.00  0.00     0.292 HD
ENDBRANCH   6  38
BRANCH   1  40
ATOM     40  C   LIG d   1       9.673   5.108  -7.886  0.00  0.00     0.021 A 
ATOM     41  C   LIG d   1       9.359   6.369  -8.398  0.00  0.00    -0.047 A 
ATOM     42  C   LIG d   1       9.151   6.531  -9.751  0.00  0.00    -0.016 A 
ATOM     43  H   LIG d   1       9.283   7.218  -7.735  0.00  0.00     0.063 H 
ATOM     44  C   LIG d   1       9.241   5.441 -10.606  0.00  0.00     0.158 A 
ATOM     45  H   LIG d   1       8.913   7.507 -10.146  0.00  0.00     0.066 H 
ATOM     46  C   LIG d   1       9.548   4.178 -10.100  0.00  0.00     0.159 A 
ATOM     47  C   LIG d   1       9.763   4.010  -8.747  0.00  0.00    -0.006 A 
ATOM     48  H   LIG d   1      10.001   3.033  -8.353  0.00  0.00     0.066 H 
BRANCH  44  49
ATOM     49  O   LIG d   1       9.031   5.605 -11.938  0.00  0.00    -0.503 OA
ATOM     50  H   LIG d   1       8.831   4.784 -12.408  0.00  0.00     0.292 HD
ENDBRANCH  44  49
BRANCH  46  51
ATOM     51  O   LIG d   1       9.636   3.113 -10.941  0.00  0.00    -0.503 OA
ATOM     52  H   LIG d   1      10.542   2.827 -11.121  0.00  0.00     0.292 HD
ENDBRANCH  46  51
ENDBRANCH   1  40
TORSDOF 11
ENDMDL
MODEL 9
REMARK VINA RESULT:      -6.3      1.446      2.499
REMARK  11 active torsions:
REMARK  status: ('A' for Active; 'I' for Inactive)
REMARK    1  A    between atoms: C_3  and  O_37 
REMARK    2  A    between atoms: C_4  and  O_36 
REMARK    3  A    between atoms: C_6  and  C_7 
REMARK    4  A    between atoms: C_12  and  O_35 
REMARK    5  A    between atoms: C_14  and  O_18 
REMARK    6  A    between atoms: O_18  and  C_19 
REMARK    7  A    between atoms: C_21  and  O_34 
REMARK    8  A    between atoms: C_23  and  O_33 
REMARK    9  A    between atoms: C_25  and  O_32 
REMARK   10  A    between atoms: C_27  and  C_30 
REMARK   11  A    between atoms: C_30  and  O_31 
ROOT
ATOM      1  C   LIG d   1       8.013   1.272  -4.035  0.00  0.00     0.139 A 
ATOM      2  C   LIG d   1       8.637   0.890  -5.181  0.00  0.00     0.029 A 
ATOM      3  C   LIG d   1       9.712   1.663  -5.681  0.00  0.00     0.197 A 
ATOM      4  O   LIG d   1      10.292   1.353  -6.709  0.00  0.00    -0.287 OA
ATOM      5  C   LIG d   1      10.103   2.857  -4.912  0.00  0.00     0.105 A 
ATOM      6  C   LIG d   1      11.155   3.680  -5.333  0.00  0.00     0.135 A 
ATOM      7  C   LIG d   1      11.491   4.792  -4.584  0.00  0.00     0.023 A 
ATOM      8  C   LIG d   1      10.789   5.089  -3.420  0.00  0.00     0.131 A 
ATOM      9  C   LIG d   1       9.747   4.278  -2.998  0.00  0.00     0.024 A 
ATOM     10  C   LIG d   1       9.395   3.159  -3.737  0.00  0.00     0.146 A 
ATOM     11  O   LIG d   1       8.382   2.359  -3.341  0.00  0.00    -0.454 OA
ATOM     12  H   LIG d   1       8.313   0.005  -5.709  0.00  0.00     0.069 H 
ATOM     13  H   LIG d   1      12.301   5.432  -4.902  0.00  0.00     0.069 H 
ATOM     14  H   LIG d   1       9.209   4.518  -2.092  0.00  0.00     0.069 H 
ENDROOT
BRANCH   8  15
ATOM     15  O   LIG d   1      11.127   6.183  -2.692  0.00  0.00    -0.461 OA
BRANCH  15  16
ATOM     16  C   LIG d   1      11.562   7.336  -3.415  0.00  0.00     0.231 C 
ATOM     17  H   LIG d   1      11.839   7.045  -4.429  0.00  0.00     0.108 H 
ATOM     18  O   LIG d   1      12.693   7.911  -2.758  0.00  0.00    -0.331 OA
ATOM     19  C   LIG d   1      12.447   8.305  -1.407  0.00  0.00     0.114 C 
ATOM     20  C   LIG d   1      11.347   9.371  -1.380  0.00  0.00     0.112 C 
ATOM     21  H   LIG d   1      12.126   7.438  -0.829  0.00  0.00     0.065 H 
ATOM     22  C   LIG d   1      10.086   8.810  -2.045  0.00  0.00     0.115 C 
ATOM     23  H   LIG d   1      11.127   9.641  -0.348  0.00  0.00     0.065 H 
ATOM     24  C   LIG d   1      10.428   8.363  -3.469  0.00  0.00     0.145 C 
ATOM     25  H   LIG d   1       9.720   7.957  -1.472  0.00  0.00     0.065 H 
ATOM     26  H   LIG d   1      10.745   9.224  -4.056  0.00  0.00     0.068 H 
BRANCH  19  27
ATOM     27  C   LIG d   1      13.729   8.878  -0.800  0.00  0.00     0.073 C 
ATOM     28  H   LIG d   1      14.349   8.063  -0.426  0.00  0.00     0.058 H 
ATOM     29  H   LIG d   1      14.277   9.430  -1.563  0.00  0.00     0.058 H 
BRANCH  27  30
ATOM     30  O   LIG d   1      13.394   9.756   0.275  0.00  0.00    -0.392 OA
ATOM     31  H   LIG d   1      13.994  10.510   0.369  0.00  0.00     0.209 HD
ENDBRANCH  27  30
ENDBRANCH  19  27
BRANCH  20  32
ATOM     32  O   LIG d   1      11.788  10.528  -2.093  0.00  0.00    -0.387 OA
ATOM     33  H   LIG d   1      11.465  11.363  -1.727  0.00  0.00     0.210 HD
ENDBRANCH  20  32
BRANCH  22  34
ATOM     34  O   LIG d   1       9.079   9.823  -2.090  0.00  0.00    -0.386 OA
ATOM     35  H   LIG d   1       9.415  10.718  -1.948  0.00  0.00     0.210 HD
ENDBRANCH  22  34
BRANCH  24  36
ATOM     36  O   LIG d   1       9.276   7.771  -4.073  0.00  0.00    -0.383 OA
ATOM     37  H   LIG d   1       8.442   8.196  -3.830  0.00  0.00     0.210 HD
ENDBRANCH  24  36
ENDBRANCH  15  16
ENDBRANCH   8  15
BRANCH   6  38
ATOM     38  O   LIG d   1      11.840   3.389  -6.469  0.00  0.00    -0.506 OA
ATOM     39  H   LIG d   1      12.004   4.154  -7.036  0.00  0.00     0.292 HD
ENDBRANCH   6  38
BRANCH   1  40
ATOM     40  C   LIG d   1       6.891   0.456  -3.533  0.00  0.00     0.021 A 
ATOM     41  C   LIG d   1       6.936  -0.936  -3.638  0.00  0.00    -0.047 A 
ATOM     42  C   LIG d   1       5.889  -1.697  -3.163  0.00  0.00    -0.016 A 
ATOM     43  H   LIG d   1       7.792  -1.417  -4.086  0.00  0.00     0.063 H 
ATOM     44  C   LIG d   1       4.784  -1.083  -2.592  0.00  0.00     0.158 A 
ATOM     45  H   LIG d   1       5.927  -2.773  -3.240  0.00  0.00     0.066 H 
ATOM     46  C   LIG d   1       4.730   0.307  -2.490  0.00  0.00     0.159 A 
ATOM     47  C   LIG d   1       5.777   1.075  -2.958  0.00  0.00    -0.006 A 
ATOM     48  H   LIG d   1       5.737   2.151  -2.880  0.00  0.00     0.066 H 
BRANCH  44  49
ATOM     49  O   LIG d   1       3.752  -1.837  -2.129  0.00  0.00    -0.503 OA
ATOM     50  H   LIG d   1       2.880  -1.456  -2.301  0.00  0.00     0.292 HD
ENDBRANCH  44  49
BRANCH  46  51
ATOM     51  O   LIG d   1       3.644   0.905  -1.929  0.00  0.00    -0.503 OA
ATOM     52  H   LIG d   1       3.663   0.929  -0.962  0.00  0.00     0.292 HD
ENDBRANCH  46  51
ENDBRANCH   1  40
TORSDOF 11
ENDMDL
MODEL 10
REMARK VINA RESULT:      -6.3      4.067      9.211
REMARK  11 active torsions:
REMARK  status: ('A' for Active; 'I' for Inactive)
REMARK    1  A    between atoms: C_3  and  O_37 
REMARK    2  A    between atoms: C_4  and  O_36 
REMARK    3  A    between atoms: C_6  and  C_7 
REMARK    4  A    between atoms: C_12  and  O_35 
REMARK    5  A    between atoms: C_14  and  O_18 
REMARK    6  A    between atoms: O_18  and  C_19 
REMARK    7  A    between atoms: C_21  and  O_34 
REMARK    8  A    between atoms: C_23  and  O_33 
REMARK    9  A    between atoms: C_25  and  O_32 
REMARK   10  A    between atoms: C_27  and  C_30 
REMARK   11  A    between atoms: C_30  and  O_31 
ROOT
ATOM      1  C   LIG d   1      10.723   8.193  -0.902  0.00  0.00     0.139 A 
ATOM      2  C   LIG d   1      11.062   7.148  -0.100  0.00  0.00     0.029 A 
ATOM      3  C   LIG d   1      11.040   5.833  -0.620  0.00  0.00     0.197 A 
ATOM      4  O   LIG d   1      11.333   4.871   0.072  0.00  0.00    -0.287 OA
ATOM      5  C   LIG d   1      10.650   5.669  -2.031  0.00  0.00     0.105 A 
ATOM      6  C   LIG d   1      10.601   4.404  -2.630  0.00  0.00     0.135 A 
ATOM      7  C   LIG d   1      10.229   4.291  -3.956  0.00  0.00     0.023 A 
ATOM      8  C   LIG d   1       9.907   5.429  -4.690  0.00  0.00     0.131 A 
ATOM      9  C   LIG d   1       9.955   6.684  -4.104  0.00  0.00     0.024 A 
ATOM     10  C   LIG d   1      10.324   6.816  -2.774  0.00  0.00     0.146 A 
ATOM     11  O   LIG d   1      10.374   8.030  -2.188  0.00  0.00    -0.454 OA
ATOM     12  H   LIG d   1      11.341   7.321   0.929  0.00  0.00     0.069 H 
ATOM     13  H   LIG d   1      10.188   3.319  -4.424  0.00  0.00     0.069 H 
ATOM     14  H   LIG d   1       9.703   7.560  -4.684  0.00  0.00     0.069 H 
ENDROOT
BRANCH   8  15
ATOM     15  O   LIG d   1       9.544   5.308  -5.992  0.00  0.00    -0.461 OA
BRANCH  15  16
ATOM     16  C   LIG d   1      10.593   5.320  -6.962  0.00  0.00     0.231 C 
ATOM     17  H   LIG d   1      11.545   5.123  -6.470  0.00  0.00     0.108 H 
ATOM     18  O   LIG d   1      10.638   6.599  -7.598  0.00  0.00    -0.331 OA
ATOM     19  C   LIG d   1       9.425   6.969  -8.255  0.00  0.00     0.114 C 
ATOM     20  C   LIG d   1       9.113   5.953  -9.358  0.00  0.00     0.112 C 
ATOM     21  H   LIG d   1       8.609   6.981  -7.531  0.00  0.00     0.065 H 
ATOM     22  C   LIG d   1       9.018   4.554  -8.741  0.00  0.00     0.115 C 
ATOM     23  H   LIG d   1       8.165   6.209  -9.831  0.00  0.00     0.065 H 
ATOM     24  C   LIG d   1      10.328   4.238  -8.013  0.00  0.00     0.145 C 
ATOM     25  H   LIG d   1       8.190   4.523  -8.033  0.00  0.00     0.065 H 
ATOM     26  H   LIG d   1      11.148   4.219  -8.730  0.00  0.00     0.068 H 
BRANCH  19  27
ATOM     27  C   LIG d   1       9.582   8.360  -8.871  0.00  0.00     0.073 C 
ATOM     28  H   LIG d   1      10.440   8.861  -8.424  0.00  0.00     0.058 H 
ATOM     29  H   LIG d   1       9.737   8.265  -9.946  0.00  0.00     0.058 H 
BRANCH  27  30
ATOM     30  O   LIG d   1       8.401   9.125  -8.626  0.00  0.00    -0.392 OA
ATOM     31  H   LIG d   1       8.181   9.746  -9.335  0.00  0.00     0.209 HD
ENDBRANCH  27  30
ENDBRANCH  19  27
BRANCH  20  32
ATOM     32  O   LIG d   1      10.156   5.974 -10.335  0.00  0.00    -0.387 OA
ATOM     33  H   LIG d   1      10.289   5.130 -10.788  0.00  0.00     0.210 HD
ENDBRANCH  20  32
BRANCH  22  34
ATOM     34  O   LIG d   1       8.800   3.590  -9.774  0.00  0.00    -0.386 OA
ATOM     35  H   LIG d   1       9.601   3.342 -10.255  0.00  0.00     0.210 HD
ENDBRANCH  22  34
BRANCH  24  36
ATOM     36  O   LIG d   1      10.223   2.965  -7.372  0.00  0.00    -0.383 OA
ATOM     37  H   LIG d   1      10.677   2.251  -7.840  0.00  0.00     0.210 HD
ENDBRANCH  24  36
ENDBRANCH  15  16
ENDBRANCH   8  15
BRANCH   6  38
ATOM     38  O   LIG d   1      10.915   3.295  -1.912  0.00  0.00    -0.506 OA
ATOM     39  H   LIG d   1      11.261   2.566  -2.445  0.00  0.00     0.292 HD
ENDBRANCH   6  38
BRANCH   1  40
ATOM     40  C   LIG d   1      10.747   9.556  -0.339  0.00  0.00     0.021 A 
ATOM     41  C   LIG d   1      11.322   9.787   0.913  0.00  0.00    -0.047 A 
ATOM     42  C   LIG d   1      11.348  11.063   1.434  0.00  0.00    -0.016 A 
ATOM     43  H   LIG d   1      11.751   8.968   1.470  0.00  0.00     0.063 H 
ATOM     44  C   LIG d   1      10.792  12.118   0.725  0.00  0.00     0.158 A 
ATOM     45  H   LIG d   1      11.798  11.241   2.400  0.00  0.00     0.066 H 
ATOM     46  C   LIG d   1      10.211  11.893  -0.523  0.00  0.00     0.159 A 
ATOM     47  C   LIG d   1      10.186  10.619  -1.054  0.00  0.00    -0.006 A 
ATOM     48  H   LIG d   1       9.736  10.443  -2.019  0.00  0.00     0.066 H 
BRANCH  44  49
ATOM     49  O   LIG d   1      10.816  13.373   1.245  0.00  0.00    -0.503 OA
ATOM     50  H   LIG d   1      11.548  13.529   1.858  0.00  0.00     0.292 HD
ENDBRANCH  44  49
BRANCH  46  51
ATOM     51  O   LIG d   1       9.667  12.930  -1.215  0.00  0.00    -0.503 OA
ATOM     52  H   LIG d   1       9.473  13.707  -0.673  0.00  0.00     0.292 HD
ENDBRANCH  46  51
ENDBRANCH   1  40
TORSDOF 11
ENDMDL
