MODEL 1
REMARK VINA RESULT:      -6.4      0.000      0.000
REMARK  8 active torsions:
REMARK  status: ('A' for Active; 'I' for Inactive)
REMARK    1  A    between atoms: C_9  and  C_11 
REMARK    2  A    between atoms: C_11  and  C_13 
REMARK    3  A    between atoms: C_11  and  O_30 
REMARK    4  A    between atoms: C_13  and  C_14 
REMARK    5  A    between atoms: C_14  and  C_16 
REMARK    6  A    between atoms: C_16  and  C_17 
REMARK    7  A    between atoms: C_17  and  C_19 
REMARK    8  A    between atoms: C_17  and  O_29 
ROOT
ATOM      1  C   LIG d   1       4.646  -0.681  -2.851  0.00  0.00     0.139 C 
ATOM      2  O   LIG d   1       4.181  -0.043  -1.936  0.00  0.00    -0.297 OA
ENDROOT
BRANCH   1   3
ATOM      3  C   LIG d   1       6.130  -0.934  -2.914  0.00  0.00     0.037 C 
ATOM      4  H   LIG d   1       6.484  -1.077  -1.989  0.00  0.00     0.037 H 
ATOM      5  H   LIG d   1       6.322  -1.822  -3.516  0.00  0.00     0.037 H 
BRANCH   3   6
ATOM      6  C   LIG d   1       6.828   0.272  -3.546  0.00  0.00     0.104 C 
ATOM      7  H   LIG d   1       7.759   0.473  -3.016  0.00  0.00     0.066 H 
BRANCH   6   8
ATOM      8  C   LIG d   1       7.127  -0.021  -4.993  0.00  0.00     0.071 A 
ATOM      9  C   LIG d   1       7.472  -1.318  -5.365  0.00  0.00    -0.037 A 
ATOM     10  C   LIG d   1       7.747  -1.602  -6.673  0.00  0.00    -0.051 A 
ATOM     11  H   LIG d   1       7.523  -2.099  -4.621  0.00  0.00     0.064 H 
ATOM     12  C   LIG d   1       7.668  -0.555  -7.610  0.00  0.00     0.000 A 
ATOM     13  H   LIG d   1       8.017  -2.602  -6.979  0.00  0.00     0.062 H 
ATOM     14  C   LIG d   1       7.311   0.741  -7.164  0.00  0.00     0.071 A 
ATOM     15  C   LIG d   1       7.936  -0.770  -8.972  0.00  0.00    -0.053 A 
ATOM     16  C   LIG d   1       7.232   1.789  -8.099  0.00  0.00    -0.036 A 
ATOM     17  N   LIG d   1       7.049   0.951  -5.870  0.00  0.00    -0.249 NA
ATOM     18  C   LIG d   1       7.498   1.544  -9.410  0.00  0.00    -0.060 A 
ATOM     19  H   LIG d   1       6.962   2.784  -7.777  0.00  0.00     0.064 H 
ATOM     20  C   LIG d   1       7.849   0.268  -9.847  0.00  0.00    -0.061 A 
ATOM     21  H   LIG d   1       7.436   2.352 -10.125  0.00  0.00     0.062 H 
ATOM     22  H   LIG d   1       8.055   0.101 -10.895  0.00  0.00     0.062 H 
ATOM     23  H   LIG d   1       8.209  -1.755  -9.323  0.00  0.00     0.062 H 
ENDBRANCH   6   8
BRANCH   6  24
ATOM     24  O   LIG d   1       5.975   1.415  -3.458  0.00  0.00    -0.385 OA
ATOM     25  H   LIG d   1       5.033   1.200  -3.398  0.00  0.00     0.210 HD
ENDBRANCH   6  24
ENDBRANCH   3   6
ENDBRANCH   1   3
BRANCH   1  26
ATOM     26  C   LIG d   1       3.743  -1.222  -3.928  0.00  0.00     0.037 C 
ATOM     27  H   LIG d   1       4.287  -1.737  -4.592  0.00  0.00     0.037 H 
ATOM     28  H   LIG d   1       2.998  -1.880  -3.482  0.00  0.00     0.037 H 
BRANCH  26  29
ATOM     29  C   LIG d   1       3.041  -0.062  -4.636  0.00  0.00     0.104 C 
ATOM     30  H   LIG d   1       3.371   0.882  -4.201  0.00  0.00     0.066 H 
BRANCH  29  31
ATOM     31  C   LIG d   1       3.385  -0.086  -6.104  0.00  0.00     0.071 A 
ATOM     32  N   LIG d   1       3.172   0.986  -6.827  0.00  0.00    -0.249 NA
ATOM     33  C   LIG d   1       3.466   1.015  -8.131  0.00  0.00     0.071 A 
ATOM     34  C   LIG d   1       4.010  -0.135  -8.756  0.00  0.00     0.000 A 
ATOM     35  C   LIG d   1       3.239   2.168  -8.900  0.00  0.00    -0.036 A 
ATOM     36  C   LIG d   1       4.237  -1.289  -7.984  0.00  0.00    -0.051 A 
ATOM     37  C   LIG d   1       4.312  -0.102 -10.126  0.00  0.00    -0.053 A 
ATOM     38  C   LIG d   1       3.918  -1.250  -6.655  0.00  0.00    -0.037 A 
ATOM     39  H   LIG d   1       4.650  -2.182  -8.428  0.00  0.00     0.062 H 
ATOM     40  H   LIG d   1       4.079  -2.118  -6.034  0.00  0.00     0.064 H 
ATOM     41  C   LIG d   1       4.079   1.034 -10.840  0.00  0.00    -0.061 A 
ATOM     42  H   LIG d   1       4.728  -0.972 -10.612  0.00  0.00     0.062 H 
ATOM     43  C   LIG d   1       3.543   2.166 -10.227  0.00  0.00    -0.060 A 
ATOM     44  H   LIG d   1       4.311   1.059 -11.895  0.00  0.00     0.062 H 
ATOM     45  H   LIG d   1       3.367   3.054 -10.815  0.00  0.00     0.062 H 
ATOM     46  H   LIG d   1       2.825   3.054  -8.441  0.00  0.00     0.064 H 
ENDBRANCH  29  31
BRANCH  29  47
ATOM     47  O   LIG d   1       1.627  -0.192  -4.477  0.00  0.00    -0.385 OA
ATOM     48  H   LIG d   1       1.364  -0.690  -3.691  0.00  0.00     0.210 HD
ENDBRANCH  29  47
ENDBRANCH  26  29
ENDBRANCH   1  26
TORSDOF 8
ENDMDL
MODEL 2
REMARK VINA RESULT:      -6.2      3.702      6.624
REMARK  8 active torsions:
REMARK  status: ('A' for Active; 'I' for Inactive)
REMARK    1  A    between atoms: C_9  and  C_11 
REMARK    2  A    between atoms: C_11  and  C_13 
REMARK    3  A    between atoms: C_11  and  O_30 
REMARK    4  A    between atoms: C_13  and  C_14 
REMARK    5  A    between atoms: C_14  and  C_16 
REMARK    6  A    between atoms: C_16  and  C_17 
REMARK    7  A    between atoms: C_17  and  C_19 
REMARK    8  A    between atoms: C_17  and  O_29 
ROOT
ATOM      1  C   LIG d   1       4.555  -6.200  -8.016  0.00  0.00     0.139 C 
ATOM      2  O   LIG d   1       3.931  -7.220  -7.847  0.00  0.00    -0.297 OA
ENDROOT
BRANCH   1   3
ATOM      3  C   LIG d   1       4.494  -5.491  -9.345  0.00  0.00     0.037 C 
ATOM      4  H   LIG d   1       5.042  -4.655  -9.303  0.00  0.00     0.037 H 
ATOM      5  H   LIG d   1       4.888  -6.144 -10.124  0.00  0.00     0.037 H 
BRANCH   3   6
ATOM      6  C   LIG d   1       3.042  -5.132  -9.666  0.00  0.00     0.104 C 
ATOM      7  H   LIG d   1       2.377  -5.658  -8.980  0.00  0.00     0.066 H 
BRANCH   6   8
ATOM      8  C   LIG d   1       2.846  -3.646  -9.515  0.00  0.00     0.071 A 
ATOM      9  C   LIG d   1       2.020  -2.975 -10.413  0.00  0.00    -0.037 A 
ATOM     10  C   LIG d   1       1.831  -1.628 -10.292  0.00  0.00    -0.051 A 
ATOM     11  H   LIG d   1       1.529  -3.520 -11.207  0.00  0.00     0.064 H 
ATOM     12  C   LIG d   1       2.490  -0.958  -9.244  0.00  0.00     0.000 A 
ATOM     13  H   LIG d   1       1.194  -1.092 -10.980  0.00  0.00     0.062 H 
ATOM     14  C   LIG d   1       3.316  -1.700  -8.365  0.00  0.00     0.071 A 
ATOM     15  C   LIG d   1       2.343   0.427  -9.056  0.00  0.00    -0.053 A 
ATOM     16  C   LIG d   1       3.975  -1.032  -7.317  0.00  0.00    -0.036 A 
ATOM     17  N   LIG d   1       3.454  -3.018  -8.536  0.00  0.00    -0.249 NA
ATOM     18  C   LIG d   1       3.810   0.310  -7.164  0.00  0.00    -0.060 A 
ATOM     19  H   LIG d   1       4.609  -1.581  -6.638  0.00  0.00     0.064 H 
ATOM     20  C   LIG d   1       2.997   1.038  -8.031  0.00  0.00    -0.061 A 
ATOM     21  H   LIG d   1       4.318   0.819  -6.359  0.00  0.00     0.062 H 
ATOM     22  H   LIG d   1       2.883   2.103  -7.886  0.00  0.00     0.062 H 
ATOM     23  H   LIG d   1       1.716   1.002  -9.720  0.00  0.00     0.062 H 
ENDBRANCH   6   8
BRANCH   6  24
ATOM     24  O   LIG d   1       2.742  -5.518 -11.008  0.00  0.00    -0.385 OA
ATOM     25  H   LIG d   1       3.398  -5.227 -11.657  0.00  0.00     0.210 HD
ENDBRANCH   6  24
ENDBRANCH   3   6
ENDBRANCH   1   3
BRANCH   1  26
ATOM     26  C   LIG d   1       5.395  -5.636  -6.900  0.00  0.00     0.037 C 
ATOM     27  H   LIG d   1       6.068  -6.317  -6.611  0.00  0.00     0.037 H 
ATOM     28  H   LIG d   1       5.910  -4.741  -7.249  0.00  0.00     0.037 H 
BRANCH  26  29
ATOM     29  C   LIG d   1       4.495  -5.277  -5.716  0.00  0.00     0.104 C 
ATOM     30  H   LIG d   1       4.542  -6.071  -4.971  0.00  0.00     0.066 H 
BRANCH  29  31
ATOM     31  C   LIG d   1       4.963  -3.983  -5.102  0.00  0.00     0.071 A 
ATOM     32  N   LIG d   1       4.238  -3.420  -4.167  0.00  0.00    -0.249 NA
ATOM     33  C   LIG d   1       4.614  -2.275  -3.589  0.00  0.00     0.071 A 
ATOM     34  C   LIG d   1       5.816  -1.643  -3.995  0.00  0.00     0.000 A 
ATOM     35  C   LIG d   1       3.834  -1.679  -2.584  0.00  0.00    -0.036 A 
ATOM     36  C   LIG d   1       6.596  -2.241  -5.001  0.00  0.00    -0.051 A 
ATOM     37  C   LIG d   1       6.204  -0.438  -3.388  0.00  0.00    -0.053 A 
ATOM     38  C   LIG d   1       6.156  -3.414  -5.547  0.00  0.00    -0.037 A 
ATOM     39  H   LIG d   1       7.517  -1.786  -5.334  0.00  0.00     0.062 H 
ATOM     40  H   LIG d   1       6.730  -3.899  -6.322  0.00  0.00     0.064 H 
ATOM     41  C   LIG d   1       5.422   0.110  -2.417  0.00  0.00    -0.061 A 
ATOM     42  H   LIG d   1       7.119   0.052  -3.690  0.00  0.00     0.062 H 
ATOM     43  C   LIG d   1       4.240  -0.510  -2.017  0.00  0.00    -0.060 A 
ATOM     44  H   LIG d   1       5.722   1.038  -1.952  0.00  0.00     0.062 H 
ATOM     45  H   LIG d   1       3.638  -0.056  -1.245  0.00  0.00     0.062 H 
ATOM     46  H   LIG d   1       2.915  -2.147  -2.261  0.00  0.00     0.064 H 
ENDBRANCH  29  31
BRANCH  29  47
ATOM     47  O   LIG d   1       3.148  -5.129  -6.170  0.00  0.00    -0.385 OA
ATOM     48  H   LIG d   1       3.044  -4.494  -6.892  0.00  0.00     0.210 HD
ENDBRANCH  29  47
ENDBRANCH  26  29
ENDBRANCH   1  26
TORSDOF 8
ENDMDL
MODEL 3
REMARK VINA RESULT:      -6.1      2.284      5.119
REMARK  8 active torsions:
REMARK  status: ('A' for Active; 'I' for Inactive)
REMARK    1  A    between atoms: C_9  and  C_11 
REMARK    2  A    between atoms: C_11  and  C_13 
REMARK    3  A    between atoms: C_11  and  O_30 
REMARK    4  A    between atoms: C_13  and  C_14 
REMARK    5  A    between atoms: C_14  and  C_16 
REMARK    6  A    between atoms: C_16  and  C_17 
REMARK    7  A    between atoms: C_17  and  C_19 
REMARK    8  A    between atoms: C_17  and  O_29 
ROOT
ATOM      1  C   LIG d   1       4.401   1.861  -9.413  0.00  0.00     0.139 C 
ATOM      2  O   LIG d   1       4.035   1.887 -10.564  0.00  0.00    -0.297 OA
ENDROOT
BRANCH   1   3
ATOM      3  C   LIG d   1       5.811   2.259  -9.062  0.00  0.00     0.037 C 
ATOM      4  H   LIG d   1       6.075   3.061  -9.599  0.00  0.00     0.037 H 
ATOM      5  H   LIG d   1       5.867   2.500  -8.000  0.00  0.00     0.037 H 
BRANCH   3   6
ATOM      6  C   LIG d   1       6.761   1.101  -9.374  0.00  0.00     0.104 C 
ATOM      7  H   LIG d   1       7.694   1.495  -9.777  0.00  0.00     0.066 H 
BRANCH   6   8
ATOM      8  C   LIG d   1       7.045   0.330  -8.111  0.00  0.00     0.071 A 
ATOM      9  C   LIG d   1       7.436  -1.004  -8.204  0.00  0.00    -0.037 A 
ATOM     10  C   LIG d   1       7.697  -1.718  -7.069  0.00  0.00    -0.051 A 
ATOM     11  H   LIG d   1       7.532  -1.473  -9.172  0.00  0.00     0.064 H 
ATOM     12  C   LIG d   1       7.560  -1.067  -5.829  0.00  0.00     0.000 A 
ATOM     13  H   LIG d   1       8.001  -2.754  -7.122  0.00  0.00     0.062 H 
ATOM     14  C   LIG d   1       7.158   0.291  -5.805  0.00  0.00     0.071 A 
ATOM     15  C   LIG d   1       7.811  -1.737  -4.620  0.00  0.00    -0.053 A 
ATOM     16  C   LIG d   1       7.021   0.943  -4.567  0.00  0.00    -0.036 A 
ATOM     17  N   LIG d   1       6.923   0.935  -6.953  0.00  0.00    -0.249 NA
ATOM     18  C   LIG d   1       7.273   0.264  -3.416  0.00  0.00    -0.060 A 
ATOM     19  H   LIG d   1       6.715   1.978  -4.530  0.00  0.00     0.064 H 
ATOM     20  C   LIG d   1       7.668  -1.073  -3.441  0.00  0.00    -0.061 A 
ATOM     21  H   LIG d   1       7.165   0.768  -2.467  0.00  0.00     0.062 H 
ATOM     22  H   LIG d   1       7.862  -1.589  -2.511  0.00  0.00     0.062 H 
ATOM     23  H   LIG d   1       8.118  -2.773  -4.626  0.00  0.00     0.062 H 
ENDBRANCH   6   8
BRANCH   6  24
ATOM     24  O   LIG d   1       6.155   0.234 -10.335  0.00  0.00    -0.385 OA
ATOM     25  H   LIG d   1       5.190   0.201 -10.281  0.00  0.00     0.210 HD
ENDBRANCH   6  24
ENDBRANCH   3   6
ENDBRANCH   1   3
BRANCH   1  26
ATOM     26  C   LIG d   1       3.448   1.431  -8.328  0.00  0.00     0.037 C 
ATOM     27  H   LIG d   1       3.784   1.752  -7.443  0.00  0.00     0.037 H 
ATOM     28  H   LIG d   1       2.463   1.856  -8.520  0.00  0.00     0.037 H 
BRANCH  26  29
ATOM     29  C   LIG d   1       3.350  -0.096  -8.312  0.00  0.00     0.104 C 
ATOM     30  H   LIG d   1       4.091  -0.515  -8.994  0.00  0.00     0.066 H 
BRANCH  29  31
ATOM     31  C   LIG d   1       3.611  -0.602  -6.916  0.00  0.00     0.071 A 
ATOM     32  N   LIG d   1       3.417   0.202  -5.900  0.00  0.00    -0.249 NA
ATOM     33  C   LIG d   1       3.629  -0.202  -4.643  0.00  0.00     0.071 A 
ATOM     34  C   LIG d   1       4.082  -1.521  -4.395  0.00  0.00     0.000 A 
ATOM     35  C   LIG d   1       3.416   0.663  -3.557  0.00  0.00    -0.036 A 
ATOM     36  C   LIG d   1       4.295  -2.387  -5.484  0.00  0.00    -0.051 A 
ATOM     37  C   LIG d   1       4.309  -1.939  -3.074  0.00  0.00    -0.053 A 
ATOM     38  C   LIG d   1       4.055  -1.911  -6.742  0.00  0.00    -0.037 A 
ATOM     39  H   LIG d   1       4.641  -3.398  -5.329  0.00  0.00     0.062 H 
ATOM     40  H   LIG d   1       4.209  -2.549  -7.599  0.00  0.00     0.064 H 
ATOM     41  C   LIG d   1       4.091  -1.073  -2.046  0.00  0.00    -0.061 A 
ATOM     42  H   LIG d   1       4.654  -2.943  -2.873  0.00  0.00     0.062 H 
ATOM     43  C   LIG d   1       3.646   0.226  -2.289  0.00  0.00    -0.060 A 
ATOM     44  H   LIG d   1       4.266  -1.395  -1.030  0.00  0.00     0.062 H 
ATOM     45  H   LIG d   1       3.480   0.894  -1.457  0.00  0.00     0.062 H 
ATOM     46  H   LIG d   1       3.070   1.673  -3.727  0.00  0.00     0.064 H 
ENDBRANCH  29  31
BRANCH  29  47
ATOM     47  O   LIG d   1       2.042  -0.494  -8.727  0.00  0.00    -0.385 OA
ATOM     48  H   LIG d   1       1.884  -0.398  -9.676  0.00  0.00     0.210 HD
ENDBRANCH  29  47
ENDBRANCH  26  29
ENDBRANCH   1  26
TORSDOF 8
ENDMDL
MODEL 4
REMARK VINA RESULT:      -6.1      2.229      6.146
REMARK  8 active torsions:
REMARK  status: ('A' for Active; 'I' for Inactive)
REMARK    1  A    between atoms: C_9  and  C_11 
REMARK    2  A    between atoms: C_11  and  C_13 
REMARK    3  A    between atoms: C_11  and  O_30 
REMARK    4  A    between atoms: C_13  and  C_14 
REMARK    5  A    between atoms: C_14  and  C_16 
REMARK    6  A    between atoms: C_16  and  C_17 
REMARK    7  A    between atoms: C_17  and  C_19 
REMARK    8  A    between atoms: C_17  and  O_29 
ROOT
ATOM      1  C   LIG d   1       4.376   1.027 -10.094  0.00  0.00     0.139 C 
ATOM      2  O   LIG d   1       4.023   2.078 -10.570  0.00  0.00    -0.297 OA
ENDROOT
BRANCH   1   3
ATOM      3  C   LIG d   1       3.372   0.136  -9.408  0.00  0.00     0.037 C 
ATOM      4  H   LIG d   1       2.581   0.003 -10.005  0.00  0.00     0.037 H 
ATOM      5  H   LIG d   1       3.830  -0.830  -9.194  0.00  0.00     0.037 H 
BRANCH   3   6
ATOM      6  C   LIG d   1       2.920   0.788  -8.100  0.00  0.00     0.104 C 
ATOM      7  H   LIG d   1       1.836   0.907  -8.109  0.00  0.00     0.066 H 
BRANCH   6   8
ATOM      8  C   LIG d   1       3.320  -0.084  -6.939  0.00  0.00     0.071 A 
ATOM      9  C   LIG d   1       3.920  -1.316  -7.190  0.00  0.00    -0.037 A 
ATOM     10  C   LIG d   1       4.288  -2.120  -6.148  0.00  0.00    -0.051 A 
ATOM     11  H   LIG d   1       4.092  -1.637  -8.207  0.00  0.00     0.064 H 
ATOM     12  C   LIG d   1       4.045  -1.664  -4.839  0.00  0.00     0.000 A 
ATOM     13  H   LIG d   1       4.754  -3.079  -6.325  0.00  0.00     0.062 H 
ATOM     14  C   LIG d   1       3.432  -0.401  -4.654  0.00  0.00     0.071 A 
ATOM     15  C   LIG d   1       4.397  -2.435  -3.719  0.00  0.00    -0.053 A 
ATOM     16  C   LIG d   1       3.188   0.057  -3.347  0.00  0.00    -0.036 A 
ATOM     17  N   LIG d   1       3.100   0.340  -5.717  0.00  0.00    -0.249 NA
ATOM     18  C   LIG d   1       3.543  -0.716  -2.285  0.00  0.00    -0.060 A 
ATOM     19  H   LIG d   1       2.721   1.017  -3.187  0.00  0.00     0.064 H 
ATOM     20  C   LIG d   1       4.146  -1.959  -2.470  0.00  0.00    -0.061 A 
ATOM     21  H   LIG d   1       3.353  -0.361  -1.283  0.00  0.00     0.062 H 
ATOM     22  H   LIG d   1       4.417  -2.553  -1.608  0.00  0.00     0.062 H 
ATOM     23  H   LIG d   1       4.865  -3.400  -3.849  0.00  0.00     0.062 H 
ENDBRANCH   6   8
BRANCH   6  24
ATOM     24  O   LIG d   1       3.539   2.069  -7.968  0.00  0.00    -0.385 OA
ATOM     25  H   LIG d   1       4.236   2.238  -8.618  0.00  0.00     0.210 HD
ENDBRANCH   6  24
ENDBRANCH   3   6
ENDBRANCH   1   3
BRANCH   1  26
ATOM     26  C   LIG d   1       5.819   0.605 -10.184  0.00  0.00     0.037 C 
ATOM     27  H   LIG d   1       5.896  -0.369  -9.970  0.00  0.00     0.037 H 
ATOM     28  H   LIG d   1       6.189   0.786 -11.193  0.00  0.00     0.037 H 
BRANCH  26  29
ATOM     29  C   LIG d   1       6.650   1.412  -9.184  0.00  0.00     0.104 C 
ATOM     30  H   LIG d   1       6.077   2.278  -8.852  0.00  0.00     0.066 H 
BRANCH  29  31
ATOM     31  C   LIG d   1       6.987   0.548  -7.996  0.00  0.00     0.071 A 
ATOM     32  N   LIG d   1       6.789   1.016  -6.789  0.00  0.00    -0.249 NA
ATOM     33  C   LIG d   1       7.068   0.286  -5.704  0.00  0.00     0.071 A 
ATOM     34  C   LIG d   1       7.597  -1.020  -5.852  0.00  0.00     0.000 A 
ATOM     35  C   LIG d   1       6.848   0.792  -4.412  0.00  0.00    -0.036 A 
ATOM     36  C   LIG d   1       7.816  -1.526  -7.147  0.00  0.00    -0.051 A 
ATOM     37  C   LIG d   1       7.894  -1.782  -4.711  0.00  0.00    -0.053 A 
ATOM     38  C   LIG d   1       7.505  -0.728  -8.212  0.00  0.00    -0.037 A 
ATOM     39  H   LIG d   1       8.219  -2.517  -7.296  0.00  0.00     0.062 H 
ATOM     40  H   LIG d   1       7.661  -1.085  -9.219  0.00  0.00     0.064 H 
ATOM     41  C   LIG d   1       7.668  -1.258  -3.474  0.00  0.00    -0.061 A 
ATOM     42  H   LIG d   1       8.298  -2.779  -4.813  0.00  0.00     0.062 H 
ATOM     43  C   LIG d   1       7.147   0.027  -3.327  0.00  0.00    -0.060 A 
ATOM     44  H   LIG d   1       7.897  -1.844  -2.597  0.00  0.00     0.062 H 
ATOM     45  H   LIG d   1       6.977   0.420  -2.336  0.00  0.00     0.062 H 
ATOM     46  H   LIG d   1       6.445   1.785  -4.280  0.00  0.00     0.064 H 
ENDBRANCH  29  31
BRANCH  29  47
ATOM     47  O   LIG d   1       7.856   1.851  -9.812  0.00  0.00    -0.385 OA
ATOM     48  H   LIG d   1       7.850   2.783 -10.069  0.00  0.00     0.210 HD
ENDBRANCH  29  47
ENDBRANCH  26  29
ENDBRANCH   1  26
TORSDOF 8
ENDMDL
MODEL 5
REMARK VINA RESULT:      -6.1      0.898      3.843
REMARK  8 active torsions:
REMARK  status: ('A' for Active; 'I' for Inactive)
REMARK    1  A    between atoms: C_9  and  C_11 
REMARK    2  A    between atoms: C_11  and  C_13 
REMARK    3  A    between atoms: C_11  and  O_30 
REMARK    4  A    between atoms: C_13  and  C_14 
REMARK    5  A    between atoms: C_14  and  C_16 
REMARK    6  A    between atoms: C_16  and  C_17 
REMARK    7  A    between atoms: C_17  and  C_19 
REMARK    8  A    between atoms: C_17  and  O_29 
ROOT
ATOM      1  C   LIG d   1       4.596   0.497  -2.940  0.00  0.00     0.139 C 
ATOM      2  O   LIG d   1       4.330  -0.035  -1.889  0.00  0.00    -0.297 OA
ENDROOT
BRANCH   1   3
ATOM      3  C   LIG d   1       3.496   1.083  -3.787  0.00  0.00     0.037 C 
ATOM      4  H   LIG d   1       2.851   1.576  -3.203  0.00  0.00     0.037 H 
ATOM      5  H   LIG d   1       3.925   1.771  -4.516  0.00  0.00     0.037 H 
BRANCH   3   6
ATOM      6  C   LIG d   1       2.761  -0.042  -4.520  0.00  0.00     0.104 C 
ATOM      7  H   LIG d   1       1.685   0.108  -4.431  0.00  0.00     0.066 H 
BRANCH   6   8
ATOM      8  C   LIG d   1       3.152  -0.035  -5.975  0.00  0.00     0.071 A 
ATOM      9  C   LIG d   1       3.624  -1.209  -6.557  0.00  0.00    -0.037 A 
ATOM     10  C   LIG d   1       3.984  -1.220  -7.874  0.00  0.00    -0.051 A 
ATOM     11  H   LIG d   1       3.707  -2.110  -5.966  0.00  0.00     0.064 H 
ATOM     12  C   LIG d   1       3.859  -0.024  -8.606  0.00  0.00     0.000 A 
ATOM     13  H   LIG d   1       4.352  -2.121  -8.342  0.00  0.00     0.062 H 
ATOM     14  C   LIG d   1       3.372   1.134  -7.953  0.00  0.00     0.071 A 
ATOM     15  C   LIG d   1       4.209   0.041  -9.965  0.00  0.00    -0.053 A 
ATOM     16  C   LIG d   1       3.247   2.330  -8.683  0.00  0.00    -0.036 A 
ATOM     17  N   LIG d   1       3.032   1.077  -6.661  0.00  0.00    -0.249 NA
ATOM     18  C   LIG d   1       3.594   2.357  -9.998  0.00  0.00    -0.060 A 
ATOM     19  H   LIG d   1       2.878   3.223  -8.201  0.00  0.00     0.064 H 
ATOM     20  C   LIG d   1       4.074   1.216 -10.639  0.00  0.00    -0.061 A 
ATOM     21  H   LIG d   1       3.497   3.277 -10.554  0.00  0.00     0.062 H 
ATOM     22  H   LIG d   1       4.343   1.265 -11.684  0.00  0.00     0.062 H 
ATOM     23  H   LIG d   1       4.582  -0.836 -10.473  0.00  0.00     0.062 H 
ENDBRANCH   6   8
BRANCH   6  24
ATOM     24  O   LIG d   1       3.115  -1.299  -3.938  0.00  0.00    -0.385 OA
ATOM     25  H   LIG d   1       2.803  -2.066  -4.440  0.00  0.00     0.210 HD
ENDBRANCH   6  24
ENDBRANCH   3   6
ENDBRANCH   1   3
BRANCH   1  26
ATOM     26  C   LIG d   1       6.027   0.574  -3.406  0.00  0.00     0.037 C 
ATOM     27  H   LIG d   1       6.094   1.212  -4.174  0.00  0.00     0.037 H 
ATOM     28  H   LIG d   1       6.657   0.923  -2.588  0.00  0.00     0.037 H 
BRANCH  26  29
ATOM     29  C   LIG d   1       6.493  -0.813  -3.854  0.00  0.00     0.104 C 
ATOM     30  H   LIG d   1       5.682  -1.529  -3.721  0.00  0.00     0.066 H 
BRANCH  29  31
ATOM     31  C   LIG d   1       6.888  -0.765  -5.307  0.00  0.00     0.071 A 
ATOM     32  N   LIG d   1       6.836   0.378  -5.946  0.00  0.00    -0.249 NA
ATOM     33  C   LIG d   1       7.181   0.472  -7.234  0.00  0.00     0.071 A 
ATOM     34  C   LIG d   1       7.605  -0.684  -7.935  0.00  0.00     0.000 A 
ATOM     35  C   LIG d   1       7.127   1.701  -7.912  0.00  0.00    -0.036 A 
ATOM     36  C   LIG d   1       7.659  -1.915  -7.255  0.00  0.00    -0.051 A 
ATOM     37  C   LIG d   1       7.962  -0.582  -9.289  0.00  0.00    -0.053 A 
ATOM     38  C   LIG d   1       7.296  -1.939  -5.938  0.00  0.00    -0.037 A 
ATOM     39  H   LIG d   1       7.977  -2.814  -7.759  0.00  0.00     0.062 H 
ATOM     40  H   LIG d   1       7.325  -2.867  -5.386  0.00  0.00     0.064 H 
ATOM     41  C   LIG d   1       7.897   0.627  -9.913  0.00  0.00    -0.061 A 
ATOM     42  H   LIG d   1       8.287  -1.457  -9.833  0.00  0.00     0.062 H 
ATOM     43  C   LIG d   1       7.480   1.765  -9.225  0.00  0.00    -0.060 A 
ATOM     44  H   LIG d   1       8.171   0.705 -10.955  0.00  0.00     0.062 H 
ATOM     45  H   LIG d   1       7.437   2.712  -9.742  0.00  0.00     0.062 H 
ATOM     46  H   LIG d   1       6.807   2.593  -7.394  0.00  0.00     0.064 H 
ENDBRANCH  29  31
BRANCH  29  47
ATOM     47  O   LIG d   1       7.616  -1.214  -3.067  0.00  0.00    -0.385 OA
ATOM     48  H   LIG d   1       7.384  -1.733  -2.285  0.00  0.00     0.210 HD
ENDBRANCH  29  47
ENDBRANCH  26  29
ENDBRANCH   1  26
TORSDOF 8
ENDMDL
MODEL 6
REMARK VINA RESULT:      -6.1      3.304      6.265
REMARK  8 active torsions:
REMARK  status: ('A' for Active; 'I' for Inactive)
REMARK    1  A    between atoms: C_9  and  C_11 
REMARK    2  A    between atoms: C_11  and  C_13 
REMARK    3  A    between atoms: C_11  and  O_30 
REMARK    4  A    between atoms: C_13  and  C_14 
REMARK    5  A    between atoms: C_14  and  C_16 
REMARK    6  A    between atoms: C_16  and  C_17 
REMARK    7  A    between atoms: C_17  and  C_19 
REMARK    8  A    between atoms: C_17  and  O_29 
ROOT
ATOM      1  C   LIG d   1       3.996  -5.029  -8.864  0.00  0.00     0.139 C 
ATOM      2  O   LIG d   1       4.334  -6.182  -8.981  0.00  0.00    -0.297 OA
ENDROOT
BRANCH   1   3
ATOM      3  C   LIG d   1       2.767  -4.528  -9.578  0.00  0.00     0.037 C 
ATOM      4  H   LIG d   1       2.260  -5.303  -9.955  0.00  0.00     0.037 H 
ATOM      5  H   LIG d   1       2.133  -3.987  -8.875  0.00  0.00     0.037 H 
BRANCH   3   6
ATOM      6  C   LIG d   1       3.183  -3.592 -10.715  0.00  0.00     0.104 C 
ATOM      7  H   LIG d   1       2.547  -3.768 -11.582  0.00  0.00     0.066 H 
BRANCH   6   8
ATOM      8  C   LIG d   1       3.037  -2.161 -10.266  0.00  0.00     0.071 A 
ATOM      9  C   LIG d   1       1.777  -1.686  -9.912  0.00  0.00    -0.037 A 
ATOM     10  C   LIG d   1       1.626  -0.391  -9.504  0.00  0.00    -0.051 A 
ATOM     11  H   LIG d   1       0.919  -2.340  -9.960  0.00  0.00     0.064 H 
ATOM     12  C   LIG d   1       2.771   0.427  -9.455  0.00  0.00     0.000 A 
ATOM     13  H   LIG d   1       0.656  -0.006  -9.225  0.00  0.00     0.062 H 
ATOM     14  C   LIG d   1       4.023  -0.119  -9.830  0.00  0.00     0.071 A 
ATOM     15  C   LIG d   1       2.694   1.769  -9.046  0.00  0.00    -0.053 A 
ATOM     16  C   LIG d   1       5.167   0.697  -9.783  0.00  0.00    -0.036 A 
ATOM     17  N   LIG d   1       4.103  -1.396 -10.216  0.00  0.00    -0.249 NA
ATOM     18  C   LIG d   1       5.056   1.992  -9.380  0.00  0.00    -0.060 A 
ATOM     19  H   LIG d   1       6.130   0.298 -10.065  0.00  0.00     0.064 H 
ATOM     20  C   LIG d   1       3.823   2.527  -9.012  0.00  0.00    -0.061 A 
ATOM     21  H   LIG d   1       5.937   2.615  -9.346  0.00  0.00     0.062 H 
ATOM     22  H   LIG d   1       3.763   3.559  -8.697  0.00  0.00     0.062 H 
ATOM     23  H   LIG d   1       1.744   2.195  -8.758  0.00  0.00     0.062 H 
ENDBRANCH   6   8
BRANCH   6  24
ATOM     24  O   LIG d   1       4.546  -3.844 -11.065  0.00  0.00    -0.385 OA
ATOM     25  H   LIG d   1       5.119  -3.067 -11.002  0.00  0.00     0.210 HD
ENDBRANCH   6  24
ENDBRANCH   3   6
ENDBRANCH   1   3
BRANCH   1  26
ATOM     26  C   LIG d   1       4.803  -4.090  -8.005  0.00  0.00     0.037 C 
ATOM     27  H   LIG d   1       5.778  -4.243  -8.168  0.00  0.00     0.037 H 
ATOM     28  H   LIG d   1       4.549  -3.060  -8.254  0.00  0.00     0.037 H 
BRANCH  26  29
ATOM     29  C   LIG d   1       4.487  -4.351  -6.530  0.00  0.00     0.104 C 
ATOM     30  H   LIG d   1       5.276  -4.963  -6.093  0.00  0.00     0.066 H 
BRANCH  29  31
ATOM     31  C   LIG d   1       4.403  -3.038  -5.795  0.00  0.00     0.071 A 
ATOM     32  N   LIG d   1       4.410  -3.039  -4.485  0.00  0.00    -0.249 NA
ATOM     33  C   LIG d   1       4.342  -1.900  -3.787  0.00  0.00     0.071 A 
ATOM     34  C   LIG d   1       4.251  -0.662  -4.470  0.00  0.00     0.000 A 
ATOM     35  C   LIG d   1       4.355  -1.907  -2.383  0.00  0.00    -0.036 A 
ATOM     36  C   LIG d   1       4.239  -0.656  -5.877  0.00  0.00    -0.051 A 
ATOM     37  C   LIG d   1       4.175   0.531  -3.734  0.00  0.00    -0.053 A 
ATOM     38  C   LIG d   1       4.315  -1.855  -6.527  0.00  0.00    -0.037 A 
ATOM     39  H   LIG d   1       4.169   0.270  -6.428  0.00  0.00     0.062 H 
ATOM     40  H   LIG d   1       4.307  -1.887  -7.606  0.00  0.00     0.064 H 
ATOM     41  C   LIG d   1       4.190   0.485  -2.373  0.00  0.00    -0.061 A 
ATOM     42  H   LIG d   1       4.105   1.481  -4.244  0.00  0.00     0.062 H 
ATOM     43  C   LIG d   1       4.279  -0.732  -1.700  0.00  0.00    -0.060 A 
ATOM     44  H   LIG d   1       4.130   1.404  -1.807  0.00  0.00     0.062 H 
ATOM     45  H   LIG d   1       4.290  -0.742  -0.621  0.00  0.00     0.062 H 
ATOM     46  H   LIG d   1       4.424  -2.842  -1.845  0.00  0.00     0.064 H 
ENDBRANCH  29  31
BRANCH  29  47
ATOM     47  O   LIG d   1       3.238  -5.037  -6.425  0.00  0.00    -0.385 OA
ATOM     48  H   LIG d   1       2.958  -5.471  -7.242  0.00  0.00     0.210 HD
ENDBRANCH  29  47
ENDBRANCH  26  29
ENDBRANCH   1  26
TORSDOF 8
ENDMDL
MODEL 7
REMARK VINA RESULT:      -6.0      3.275      5.606
REMARK  8 active torsions:
REMARK  status: ('A' for Active; 'I' for Inactive)
REMARK    1  A    between atoms: C_9  and  C_11 
REMARK    2  A    between atoms: C_11  and  C_13 
REMARK    3  A    between atoms: C_11  and  O_30 
REMARK    4  A    between atoms: C_13  and  C_14 
REMARK    5  A    between atoms: C_14  and  C_16 
REMARK    6  A    between atoms: C_16  and  C_17 
REMARK    7  A    between atoms: C_17  and  C_19 
REMARK    8  A    between atoms: C_17  and  O_29 
ROOT
ATOM      1  C   LIG d   1       4.243  -4.936  -8.876  0.00  0.00     0.139 C 
ATOM      2  O   LIG d   1       4.711  -6.045  -8.978  0.00  0.00    -0.297 OA
ENDROOT
BRANCH   1   3
ATOM      3  C   LIG d   1       4.901  -3.922  -7.976  0.00  0.00     0.037 C 
ATOM      4  H   LIG d   1       5.894  -3.986  -8.071  0.00  0.00     0.037 H 
ATOM      5  H   LIG d   1       4.574  -2.920  -8.257  0.00  0.00     0.037 H 
BRANCH   3   6
ATOM      6  C   LIG d   1       4.509  -4.198  -6.523  0.00  0.00     0.104 C 
ATOM      7  H   LIG d   1       5.271  -4.820  -6.053  0.00  0.00     0.066 H 
BRANCH   6   8
ATOM      8  C   LIG d   1       4.394  -2.894  -5.777  0.00  0.00     0.071 A 
ATOM      9  C   LIG d   1       4.237  -1.712  -6.496  0.00  0.00    -0.037 A 
ATOM     10  C   LIG d   1       4.132  -0.521  -5.835  0.00  0.00    -0.051 A 
ATOM     11  H   LIG d   1       4.198  -1.736  -7.575  0.00  0.00     0.064 H 
ATOM     12  C   LIG d   1       4.186  -0.535  -4.429  0.00  0.00     0.000 A 
ATOM     13  H   LIG d   1       4.009   0.406  -6.378  0.00  0.00     0.062 H 
ATOM     14  C   LIG d   1       4.348  -1.772  -3.759  0.00  0.00     0.071 A 
ATOM     15  C   LIG d   1       4.084   0.650  -3.682  0.00  0.00    -0.053 A 
ATOM     16  C   LIG d   1       4.403  -1.788  -2.354  0.00  0.00    -0.036 A 
ATOM     17  N   LIG d   1       4.440  -2.904  -4.466  0.00  0.00    -0.249 NA
ATOM     18  C   LIG d   1       4.301  -0.621  -1.662  0.00  0.00    -0.060 A 
ATOM     19  H   LIG d   1       4.527  -2.722  -1.827  0.00  0.00     0.064 H 
ATOM     20  C   LIG d   1       4.141   0.595  -2.323  0.00  0.00    -0.061 A 
ATOM     21  H   LIG d   1       4.344  -0.638  -0.584  0.00  0.00     0.062 H 
ATOM     22  H   LIG d   1       4.063   1.508  -1.749  0.00  0.00     0.062 H 
ATOM     23  H   LIG d   1       3.961   1.599  -4.182  0.00  0.00     0.062 H 
ENDBRANCH   6   8
BRANCH   6  24
ATOM     24  O   LIG d   1       3.253  -4.878  -6.490  0.00  0.00    -0.385 OA
ATOM     25  H   LIG d   1       3.326  -5.842  -6.520  0.00  0.00     0.210 HD
ENDBRANCH   6  24
ENDBRANCH   3   6
ENDBRANCH   1   3
BRANCH   1  26
ATOM     26  C   LIG d   1       3.003  -4.567  -9.647  0.00  0.00     0.037 C 
ATOM     27  H   LIG d   1       2.604  -5.390 -10.053  0.00  0.00     0.037 H 
ATOM     28  H   LIG d   1       2.280  -4.106  -8.974  0.00  0.00     0.037 H 
BRANCH  26  29
ATOM     29  C   LIG d   1       3.368  -3.579 -10.757  0.00  0.00     0.104 C 
ATOM     30  H   LIG d   1       2.726  -3.749 -11.621  0.00  0.00     0.066 H 
BRANCH  29  31
ATOM     31  C   LIG d   1       3.175  -2.169 -10.258  0.00  0.00     0.071 A 
ATOM     32  N   LIG d   1       4.198  -1.351 -10.248  0.00  0.00    -0.249 NA
ATOM     33  C   LIG d   1       4.076  -0.090  -9.820  0.00  0.00     0.071 A 
ATOM     34  C   LIG d   1       2.822   0.378  -9.357  0.00  0.00     0.000 A 
ATOM     35  C   LIG d   1       5.175   0.785  -9.817  0.00  0.00    -0.036 A 
ATOM     36  C   LIG d   1       1.721  -0.499  -9.362  0.00  0.00    -0.051 A 
ATOM     37  C   LIG d   1       2.699   1.701  -8.903  0.00  0.00    -0.053 A 
ATOM     38  C   LIG d   1       1.914  -1.774  -9.816  0.00  0.00    -0.037 A 
ATOM     39  H   LIG d   1       0.752  -0.176  -9.014  0.00  0.00     0.062 H 
ATOM     40  H   LIG d   1       1.092  -2.473  -9.832  0.00  0.00     0.064 H 
ATOM     41  C   LIG d   1       3.787   2.520  -8.914  0.00  0.00    -0.061 A 
ATOM     42  H   LIG d   1       1.747   2.068  -8.548  0.00  0.00     0.062 H 
ATOM     43  C   LIG d   1       5.022   2.062  -9.370  0.00  0.00    -0.060 A 
ATOM     44  H   LIG d   1       3.692   3.537  -8.565  0.00  0.00     0.062 H 
ATOM     45  H   LIG d   1       5.869   2.730  -9.369  0.00  0.00     0.062 H 
ATOM     46  H   LIG d   1       6.140   0.446 -10.167  0.00  0.00     0.064 H 
ENDBRANCH  29  31
BRANCH  29  47
ATOM     47  O   LIG d   1       4.733  -3.769 -11.133  0.00  0.00    -0.385 OA
ATOM     48  H   LIG d   1       5.013  -4.694 -11.145  0.00  0.00     0.210 HD
ENDBRANCH  29  47
ENDBRANCH  26  29
ENDBRANCH   1  26
TORSDOF 8
ENDMDL
MODEL 8
REMARK VINA RESULT:      -5.9      2.676      5.611
REMARK  8 active torsions:
REMARK  status: ('A' for Active; 'I' for Inactive)
REMARK    1  A    between atoms: C_9  and  C_11 
REMARK    2  A    between atoms: C_11  and  C_13 
REMARK    3  A    between atoms: C_11  and  O_30 
REMARK    4  A    between atoms: C_13  and  C_14 
REMARK    5  A    between atoms: C_14  and  C_16 
REMARK    6  A    between atoms: C_16  and  C_17 
REMARK    7  A    between atoms: C_17  and  C_19 
REMARK    8  A    between atoms: C_17  and  O_29 
ROOT
ATOM      1  C   LIG d   1       9.704   2.459  -6.091  0.00  0.00     0.139 C 
ATOM      2  O   LIG d   1      10.718   3.106  -5.981  0.00  0.00    -0.297 OA
ENDROOT
BRANCH   1   3
ATOM      3  C   LIG d   1       9.639   1.324  -7.080  0.00  0.00     0.037 C 
ATOM      4  H   LIG d   1      10.566   1.032  -7.315  0.00  0.00     0.037 H 
ATOM      5  H   LIG d   1       9.096   0.488  -6.639  0.00  0.00     0.037 H 
BRANCH   3   6
ATOM      6  C   LIG d   1       8.917   1.791  -8.346  0.00  0.00     0.104 C 
ATOM      7  H   LIG d   1       9.400   1.358  -9.222  0.00  0.00     0.066 H 
BRANCH   6   8
ATOM      8  C   LIG d   1       7.477   1.349  -8.296  0.00  0.00     0.071 A 
ATOM      9  C   LIG d   1       7.153   0.170  -7.628  0.00  0.00    -0.037 A 
ATOM     10  C   LIG d   1       5.853  -0.247  -7.574  0.00  0.00    -0.051 A 
ATOM     11  H   LIG d   1       7.928  -0.415  -7.155  0.00  0.00     0.064 H 
ATOM     12  C   LIG d   1       4.875   0.546  -8.204  0.00  0.00     0.000 A 
ATOM     13  H   LIG d   1       5.583  -1.158  -7.060  0.00  0.00     0.062 H 
ATOM     14  C   LIG d   1       5.273   1.733  -8.866  0.00  0.00     0.071 A 
ATOM     15  C   LIG d   1       3.518   0.182  -8.189  0.00  0.00    -0.053 A 
ATOM     16  C   LIG d   1       4.298   2.526  -9.496  0.00  0.00    -0.036 A 
ATOM     17  N   LIG d   1       6.562   2.087  -8.878  0.00  0.00    -0.249 NA
ATOM     18  C   LIG d   1       2.993   2.143  -9.461  0.00  0.00    -0.060 A 
ATOM     19  H   LIG d   1       4.583   3.433 -10.006  0.00  0.00     0.064 H 
ATOM     20  C   LIG d   1       2.603   0.974  -8.810  0.00  0.00    -0.061 A 
ATOM     21  H   LIG d   1       2.247   2.754  -9.947  0.00  0.00     0.062 H 
ATOM     22  H   LIG d   1       1.559   0.693  -8.798  0.00  0.00     0.062 H 
ATOM     23  H   LIG d   1       3.204  -0.722  -7.687  0.00  0.00     0.062 H 
ENDBRANCH   6   8
BRANCH   6  24
ATOM     24  O   LIG d   1       8.974   3.217  -8.428  0.00  0.00    -0.385 OA
ATOM     25  H   LIG d   1       9.813   3.595  -8.128  0.00  0.00     0.210 HD
ENDBRANCH   6  24
ENDBRANCH   3   6
ENDBRANCH   1   3
BRANCH   1  26
ATOM     26  C   LIG d   1       8.505   2.786  -5.240  0.00  0.00     0.037 C 
ATOM     27  H   LIG d   1       8.450   3.775  -5.106  0.00  0.00     0.037 H 
ATOM     28  H   LIG d   1       7.600   2.434  -5.735  0.00  0.00     0.037 H 
BRANCH  26  29
ATOM     29  C   LIG d   1       8.642   2.096  -3.880  0.00  0.00     0.104 C 
ATOM     30  H   LIG d   1       8.565   2.840  -3.087  0.00  0.00     0.066 H 
BRANCH  29  31
ATOM     31  C   LIG d   1       7.544   1.076  -3.721  0.00  0.00     0.071 A 
ATOM     32  N   LIG d   1       6.379   1.460  -3.261  0.00  0.00    -0.249 NA
ATOM     33  C   LIG d   1       5.372   0.593  -3.107  0.00  0.00     0.071 A 
ATOM     34  C   LIG d   1       5.562  -0.772  -3.435  0.00  0.00     0.000 A 
ATOM     35  C   LIG d   1       4.123   1.011  -2.618  0.00  0.00    -0.036 A 
ATOM     36  C   LIG d   1       6.813  -1.189  -3.925  0.00  0.00    -0.051 A 
ATOM     37  C   LIG d   1       4.504  -1.679  -3.266  0.00  0.00    -0.053 A 
ATOM     38  C   LIG d   1       7.797  -0.251  -4.062  0.00  0.00    -0.037 A 
ATOM     39  H   LIG d   1       6.992  -2.222  -4.184  0.00  0.00     0.062 H 
ATOM     40  H   LIG d   1       8.769  -0.537  -4.435  0.00  0.00     0.064 H 
ATOM     41  C   LIG d   1       3.307  -1.237  -2.790  0.00  0.00    -0.061 A 
ATOM     42  H   LIG d   1       4.638  -2.722  -3.514  0.00  0.00     0.062 H 
ATOM     43  C   LIG d   1       3.119   0.105  -2.466  0.00  0.00    -0.060 A 
ATOM     44  H   LIG d   1       2.494  -1.936  -2.660  0.00  0.00     0.062 H 
ATOM     45  H   LIG d   1       2.161   0.431  -2.090  0.00  0.00     0.062 H 
ATOM     46  H   LIG d   1       3.960   2.049  -2.363  0.00  0.00     0.064 H 
ENDBRANCH  29  31
BRANCH  29  47
ATOM     47  O   LIG d   1       9.912   1.446  -3.803  0.00  0.00    -0.385 OA
ATOM     48  H   LIG d   1      10.488   1.789  -3.106  0.00  0.00     0.210 HD
ENDBRANCH  29  47
ENDBRANCH  26  29
ENDBRANCH   1  26
TORSDOF 8
ENDMDL
MODEL 9
REMARK VINA RESULT:      -5.9      2.649      4.294
REMARK  8 active torsions:
REMARK  status: ('A' for Active; 'I' for Inactive)
REMARK    1  A    between atoms: C_9  and  C_11 
REMARK    2  A    between atoms: C_11  and  C_13 
REMARK    3  A    between atoms: C_11  and  O_30 
REMARK    4  A    between atoms: C_13  and  C_14 
REMARK    5  A    between atoms: C_14  and  C_16 
REMARK    6  A    between atoms: C_16  and  C_17 
REMARK    7  A    between atoms: C_17  and  C_19 
REMARK    8  A    between atoms: C_17  and  O_29 
ROOT
ATOM      1  C   LIG d   1       5.041  -3.872  -5.033  0.00  0.00     0.139 C 
ATOM      2  O   LIG d   1       4.343  -4.472  -4.252  0.00  0.00    -0.297 OA
ENDROOT
BRANCH   1   3
ATOM      3  C   LIG d   1       5.161  -4.351  -6.457  0.00  0.00     0.037 C 
ATOM      4  H   LIG d   1       5.900  -3.855  -6.915  0.00  0.00     0.037 H 
ATOM      5  H   LIG d   1       5.383  -5.418  -6.464  0.00  0.00     0.037 H 
BRANCH   3   6
ATOM      6  C   LIG d   1       3.845  -4.097  -7.194  0.00  0.00     0.104 C 
ATOM      7  H   LIG d   1       3.178  -3.515  -6.557  0.00  0.00     0.066 H 
BRANCH   6   8
ATOM      8  C   LIG d   1       4.118  -3.335  -8.465  0.00  0.00     0.071 A 
ATOM      9  C   LIG d   1       5.431  -3.207  -8.910  0.00  0.00    -0.037 A 
ATOM     10  C   LIG d   1       5.697  -2.519 -10.060  0.00  0.00    -0.051 A 
ATOM     11  H   LIG d   1       6.239  -3.651  -8.347  0.00  0.00     0.064 H 
ATOM     12  C   LIG d   1       4.615  -1.958 -10.763  0.00  0.00     0.000 A 
ATOM     13  H   LIG d   1       6.710  -2.410 -10.420  0.00  0.00     0.062 H 
ATOM     14  C   LIG d   1       3.304  -2.125 -10.254  0.00  0.00     0.071 A 
ATOM     15  C   LIG d   1       4.811  -1.237 -11.953  0.00  0.00    -0.053 A 
ATOM     16  C   LIG d   1       2.221  -1.565 -10.955  0.00  0.00    -0.036 A 
ATOM     17  N   LIG d   1       3.111  -2.815  -9.125  0.00  0.00    -0.249 NA
ATOM     18  C   LIG d   1       2.447  -0.874 -12.105  0.00  0.00    -0.060 A 
ATOM     19  H   LIG d   1       1.215  -1.681 -10.582  0.00  0.00     0.064 H 
ATOM     20  C   LIG d   1       3.738  -0.710 -12.603  0.00  0.00    -0.061 A 
ATOM     21  H   LIG d   1       1.613  -0.444 -12.639  0.00  0.00     0.062 H 
ATOM     22  H   LIG d   1       3.890  -0.156 -13.519  0.00  0.00     0.062 H 
ATOM     23  H   LIG d   1       5.806  -1.104 -12.350  0.00  0.00     0.062 H 
ENDBRANCH   6   8
BRANCH   6  24
ATOM     24  O   LIG d   1       3.229  -5.347  -7.512  0.00  0.00    -0.385 OA
ATOM     25  H   LIG d   1       2.270  -5.357  -7.383  0.00  0.00     0.210 HD
ENDBRANCH   6  24
ENDBRANCH   3   6
ENDBRANCH   1   3
BRANCH   1  26
ATOM     26  C   LIG d   1       5.792  -2.644  -4.586  0.00  0.00     0.037 C 
ATOM     27  H   LIG d   1       6.153  -2.791  -3.665  0.00  0.00     0.037 H 
ATOM     28  H   LIG d   1       6.614  -2.450  -5.273  0.00  0.00     0.037 H 
BRANCH  26  29
ATOM     29  C   LIG d   1       4.843  -1.443  -4.574  0.00  0.00     0.104 C 
ATOM     30  H   LIG d   1       5.096  -0.789  -3.739  0.00  0.00     0.066 H 
BRANCH  29  31
ATOM     31  C   LIG d   1       4.979  -0.682  -5.868  0.00  0.00     0.071 A 
ATOM     32  N   LIG d   1       3.903  -0.210  -6.447  0.00  0.00    -0.249 NA
ATOM     33  C   LIG d   1       3.973   0.476  -7.592  0.00  0.00     0.071 A 
ATOM     34  C   LIG d   1       5.231   0.693  -8.207  0.00  0.00     0.000 A 
ATOM     35  C   LIG d   1       2.815   0.984  -8.206  0.00  0.00    -0.036 A 
ATOM     36  C   LIG d   1       6.389   0.184  -7.591  0.00  0.00    -0.051 A 
ATOM     37  C   LIG d   1       5.299   1.409  -9.412  0.00  0.00    -0.053 A 
ATOM     38  C   LIG d   1       6.247  -0.504  -6.419  0.00  0.00    -0.037 A 
ATOM     39  H   LIG d   1       7.363   0.332  -8.032  0.00  0.00     0.062 H 
ATOM     40  H   LIG d   1       7.115  -0.908  -5.920  0.00  0.00     0.064 H 
ATOM     41  C   LIG d   1       4.156   1.887  -9.978  0.00  0.00    -0.061 A 
ATOM     42  H   LIG d   1       6.253   1.581  -9.889  0.00  0.00     0.062 H 
ATOM     43  C   LIG d   1       2.917   1.673  -9.375  0.00  0.00    -0.060 A 
ATOM     44  H   LIG d   1       4.209   2.437 -10.906  0.00  0.00     0.062 H 
ATOM     45  H   LIG d   1       2.026   2.062  -9.843  0.00  0.00     0.062 H 
ATOM     46  H   LIG d   1       1.847   0.827  -7.752  0.00  0.00     0.064 H 
ENDBRANCH  29  31
BRANCH  29  47
ATOM     47  O   LIG d   1       3.497  -1.901  -4.430  0.00  0.00    -0.385 OA
ATOM     48  H   LIG d   1       3.018  -1.982  -5.265  0.00  0.00     0.210 HD
ENDBRANCH  29  47
ENDBRANCH  26  29
ENDBRANCH   1  26
TORSDOF 8
ENDMDL
MODEL 10
REMARK VINA RESULT:      -5.8      5.302      7.664
REMARK  8 active torsions:
REMARK  status: ('A' for Active; 'I' for Inactive)
REMARK    1  A    between atoms: C_9  and  C_11 
REMARK    2  A    between atoms: C_11  and  C_13 
REMARK    3  A    between atoms: C_11  and  O_30 
REMARK    4  A    between atoms: C_13  and  C_14 
REMARK    5  A    between atoms: C_14  and  C_16 
REMARK    6  A    between atoms: C_16  and  C_17 
REMARK    7  A    between atoms: C_17  and  C_19 
REMARK    8  A    between atoms: C_17  and  O_29 
ROOT
ATOM      1  C   LIG d   1       9.245   2.100  -4.184  0.00  0.00     0.139 C 
ATOM      2  O   LIG d   1       8.319   2.266  -3.427  0.00  0.00    -0.297 OA
ENDROOT
BRANCH   1   3
ATOM      3  C   LIG d   1      10.243   3.207  -4.408  0.00  0.00     0.037 C 
ATOM      4  H   LIG d   1      10.846   2.964  -5.168  0.00  0.00     0.037 H 
ATOM      5  H   LIG d   1       9.714   4.130  -4.645  0.00  0.00     0.037 H 
BRANCH   3   6
ATOM      6  C   LIG d   1      11.077   3.407  -3.141  0.00  0.00     0.104 C 
ATOM      7  H   LIG d   1      12.137   3.377  -3.394  0.00  0.00     0.066 H 
BRANCH   6   8
ATOM      8  C   LIG d   1      10.745   4.742  -2.526  0.00  0.00     0.071 A 
ATOM      9  C   LIG d   1       9.848   5.585  -3.178  0.00  0.00    -0.037 A 
ATOM     10  C   LIG d   1       9.537   6.800  -2.635  0.00  0.00    -0.051 A 
ATOM     11  H   LIG d   1       9.400   5.280  -4.112  0.00  0.00     0.064 H 
ATOM     12  C   LIG d   1      10.143   7.157  -1.417  0.00  0.00     0.000 A 
ATOM     13  H   LIG d   1       8.843   7.466  -3.127  0.00  0.00     0.062 H 
ATOM     14  C   LIG d   1      11.046   6.253  -0.806  0.00  0.00     0.071 A 
ATOM     15  C   LIG d   1       9.871   8.389  -0.798  0.00  0.00    -0.053 A 
ATOM     16  C   LIG d   1      11.654   6.609   0.411  0.00  0.00    -0.036 A 
ATOM     17  N   LIG d   1      11.305   5.077  -1.388  0.00  0.00    -0.249 NA
ATOM     18  C   LIG d   1      11.367   7.809   0.982  0.00  0.00    -0.060 A 
ATOM     19  H   LIG d   1      12.345   5.932   0.890  0.00  0.00     0.064 H 
ATOM     20  C   LIG d   1      10.478   8.698   0.380  0.00  0.00    -0.061 A 
ATOM     21  H   LIG d   1      11.836   8.079   1.917  0.00  0.00     0.062 H 
ATOM     22  H   LIG d   1      10.268   9.646   0.855  0.00  0.00     0.062 H 
ATOM     23  H   LIG d   1       9.184   9.086  -1.255  0.00  0.00     0.062 H 
ENDBRANCH   6   8
BRANCH   6  24
ATOM     24  O   LIG d   1      10.780   2.367  -2.207  0.00  0.00    -0.385 OA
ATOM     25  H   LIG d   1      10.877   1.474  -2.568  0.00  0.00     0.210 HD
ENDBRANCH   6  24
ENDBRANCH   3   6
ENDBRANCH   1   3
BRANCH   1  26
ATOM     26  C   LIG d   1       9.404   0.786  -4.905  0.00  0.00     0.037 C 
ATOM     27  H   LIG d   1      10.202   0.829  -5.505  0.00  0.00     0.037 H 
ATOM     28  H   LIG d   1       9.538  -0.014  -4.177  0.00  0.00     0.037 H 
BRANCH  26  29
ATOM     29  C   LIG d   1       8.152   0.510  -5.741  0.00  0.00     0.104 C 
ATOM     30  H   LIG d   1       8.412  -0.134  -6.581  0.00  0.00     0.066 H 
BRANCH  29  31
ATOM     31  C   LIG d   1       7.116  -0.173  -4.886  0.00  0.00     0.071 A 
ATOM     32  N   LIG d   1       5.888   0.282  -4.885  0.00  0.00    -0.249 NA
ATOM     33  C   LIG d   1       4.933  -0.293  -4.147  0.00  0.00     0.071 A 
ATOM     34  C   LIG d   1       5.247  -1.413  -3.338  0.00  0.00     0.000 A 
ATOM     35  C   LIG d   1       3.616   0.197  -4.155  0.00  0.00    -0.036 A 
ATOM     36  C   LIG d   1       6.567  -1.903  -3.332  0.00  0.00    -0.051 A 
ATOM     37  C   LIG d   1       4.242  -2.010  -2.560  0.00  0.00    -0.053 A 
ATOM     38  C   LIG d   1       7.493  -1.270  -4.113  0.00  0.00    -0.037 A 
ATOM     39  H   LIG d   1       6.840  -2.753  -2.726  0.00  0.00     0.062 H 
ATOM     40  H   LIG d   1       8.514  -1.620  -4.131  0.00  0.00     0.064 H 
ATOM     41  C   LIG d   1       2.977  -1.507  -2.593  0.00  0.00    -0.061 A 
ATOM     42  H   LIG d   1       4.471  -2.864  -1.940  0.00  0.00     0.062 H 
ATOM     43  C   LIG d   1       2.666  -0.406  -3.388  0.00  0.00    -0.060 A 
ATOM     44  H   LIG d   1       2.205  -1.967  -1.994  0.00  0.00     0.062 H 
ATOM     45  H   LIG d   1       1.656  -0.026  -3.397  0.00  0.00     0.062 H 
ATOM     46  H   LIG d   1       3.358   1.050  -4.766  0.00  0.00     0.064 H 
ENDBRANCH  29  31
BRANCH  29  47
ATOM     47  O   LIG d   1       7.626   1.744  -6.232  0.00  0.00    -0.385 OA
ATOM     48  H   LIG d   1       6.803   1.651  -6.731  0.00  0.00     0.210 HD
ENDBRANCH  29  47
ENDBRANCH  26  29
ENDBRANCH   1  26
TORSDOF 8
ENDMDL
