MODEL 1
REMARK VINA RESULT:      -7.7      0.000      0.000
REMARK  4 active torsions:
REMARK  status: ('A' for Active; 'I' for Inactive)
REMARK    1  A    between atoms: CG_4  and  CB_7 
REMARK    2  A    between atoms: CB_7  and  CA_8 
REMARK    3  A    between atoms: CA_13  and  CB_18 
REMARK    4  A    between atoms: CB_18  and  CG_19 
ROOT
ATOM      1  CA  PHE d   2       5.019  -2.693  -4.272  0.00  0.00     0.103 C 
ATOM      2  HA  PHE d   2       5.753  -3.248  -3.669  0.00  0.00     0.060 H 
ATOM      3  C   PHE d   2       4.642  -3.531  -5.456  0.00  0.00     0.234 C 
ATOM      4  O   PHE d   2       4.426  -4.713  -5.288  0.00  0.00    -0.274 OA
ATOM      5  N   PHE d   2       5.678  -1.461  -4.683  0.00  0.00    -0.302 N 
ATOM      6  H   PHE d   2       6.292  -0.899  -3.964  0.00  0.00     0.149 HD
ATOM      7  N   PHE d   1       4.535  -3.030  -6.691  0.00  0.00    -0.302 N 
ATOM      8  CA  PHE d   1       4.773  -1.625  -6.996  0.00  0.00     0.103 C 
ATOM      9  HA  PHE d   1       5.356  -1.608  -7.930  0.00  0.00     0.060 H 
ATOM     10  C   PHE d   1       5.575  -0.961  -5.919  0.00  0.00     0.234 C 
ATOM     11  O   PHE d   1       6.156   0.071  -6.178  0.00  0.00    -0.274 OA
ATOM     12  H   PHE d   1       4.254  -3.728  -7.493  0.00  0.00     0.149 HD
ENDROOT
BRANCH   1  13
ATOM     13  CB  PHE d   2       3.755  -2.346  -3.482  0.00  0.00    -0.001 C 
ATOM     14  HB1 PHE d   2       3.674  -3.010  -2.609  0.00  0.00     0.034 H 
ATOM     15  HB2 PHE d   2       2.873  -2.475  -4.126  0.00  0.00     0.034 H 
BRANCH  13  16
ATOM     16  CG  PHE d   2       3.833  -0.915  -3.016  0.00  0.00    -0.045 A 
ATOM     17  CD1 PHE d   2       4.609  -0.586  -1.920  0.00  0.00    -0.059 A 
ATOM     18  CE1 PHE d   2       4.681   0.727  -1.493  0.00  0.00    -0.061 A 
ATOM     19  HD1 PHE d   2       5.160  -1.354  -1.398  0.00  0.00     0.062 H 
ATOM     20  CZ  PHE d   2       3.977   1.711  -2.161  0.00  0.00    -0.062 A 
ATOM     21  HE1 PHE d   2       5.288   0.984  -0.638  0.00  0.00     0.062 H 
ATOM     22  CE2 PHE d   2       3.201   1.383  -3.257  0.00  0.00    -0.061 A 
ATOM     23  HZ  PHE d   2       4.033   2.736  -1.827  0.00  0.00     0.062 H 
ATOM     24  CD2 PHE d   2       3.133   0.070  -3.687  0.00  0.00    -0.059 A 
ATOM     25  HE2 PHE d   2       2.651   2.152  -3.780  0.00  0.00     0.062 H 
ATOM     26  HD2 PHE d   2       2.530  -0.185  -4.546  0.00  0.00     0.062 H 
ENDBRANCH  13  16
ENDBRANCH   1  13
BRANCH   8  27
ATOM     27  CB  PHE d   1       3.428  -0.908  -7.134  0.00  0.00    -0.001 C 
ATOM     28  HB1 PHE d   1       2.647  -1.640  -7.387  0.00  0.00     0.034 H 
ATOM     29  HB2 PHE d   1       3.177  -0.416  -6.183  0.00  0.00     0.034 H 
BRANCH  27  30
ATOM     30  CG  PHE d   1       3.520   0.126  -8.226  0.00  0.00    -0.045 A 
ATOM     31  CD1 PHE d   1       3.025   1.400  -8.014  0.00  0.00    -0.059 A 
ATOM     32  CE1 PHE d   1       3.109   2.349  -9.016  0.00  0.00    -0.061 A 
ATOM     33  HD1 PHE d   1       2.574   1.653  -7.067  0.00  0.00     0.062 H 
ATOM     34  CZ  PHE d   1       3.686   2.025 -10.229  0.00  0.00    -0.062 A 
ATOM     35  HE1 PHE d   1       2.723   3.343  -8.851  0.00  0.00     0.062 H 
ATOM     36  CE2 PHE d   1       4.181   0.751 -10.441  0.00  0.00    -0.061 A 
ATOM     37  HZ  PHE d   1       3.752   2.765 -11.012  0.00  0.00     0.062 H 
ATOM     38  CD2 PHE d   1       4.102  -0.197  -9.438  0.00  0.00    -0.059 A 
ATOM     39  HE2 PHE d   1       4.632   0.497 -11.388  0.00  0.00     0.062 H 
ATOM     40  HD2 PHE d   1       4.491  -1.190  -9.601  0.00  0.00     0.062 H 
ENDBRANCH  27  30
ENDBRANCH   8  27
TORSDOF 4
ENDMDL
MODEL 2
REMARK VINA RESULT:      -7.7      0.052      5.653
REMARK  4 active torsions:
REMARK  status: ('A' for Active; 'I' for Inactive)
REMARK    1  A    between atoms: CG_4  and  CB_7 
REMARK    2  A    between atoms: CB_7  and  CA_8 
REMARK    3  A    between atoms: CA_13  and  CB_18 
REMARK    4  A    between atoms: CB_18  and  CG_19 
ROOT
ATOM      1  CA  PHE d   2       4.812  -1.589  -6.961  0.00  0.00     0.103 C 
ATOM      2  HA  PHE d   2       5.397  -1.557  -7.891  0.00  0.00     0.060 H 
ATOM      3  C   PHE d   2       5.614  -0.948  -5.869  0.00  0.00     0.234 C 
ATOM      4  O   PHE d   2       6.198   0.088  -6.108  0.00  0.00    -0.274 OA
ATOM      5  N   PHE d   2       4.569  -2.998  -6.682  0.00  0.00    -0.302 N 
ATOM      6  H   PHE d   2       4.288  -3.680  -7.498  0.00  0.00     0.149 HD
ATOM      7  N   PHE d   1       5.713  -1.471  -4.643  0.00  0.00    -0.302 N 
ATOM      8  CA  PHE d   1       5.048  -2.709  -4.256  0.00  0.00     0.103 C 
ATOM      9  HA  PHE d   1       5.780  -3.277  -3.662  0.00  0.00     0.060 H 
ATOM     10  C   PHE d   1       4.672  -3.523  -5.457  0.00  0.00     0.234 C 
ATOM     11  O   PHE d   1       4.452  -4.706  -5.311  0.00  0.00    -0.274 OA
ATOM     12  H   PHE d   1       6.326  -0.924  -3.912  0.00  0.00     0.149 HD
ENDROOT
BRANCH   1  13
ATOM     13  CB  PHE d   2       3.470  -0.865  -7.088  0.00  0.00    -0.001 C 
ATOM     14  HB1 PHE d   2       3.236  -0.357  -6.141  0.00  0.00     0.034 H 
ATOM     15  HB2 PHE d   2       2.680  -1.595  -7.317  0.00  0.00     0.034 H 
BRANCH  13  16
ATOM     16  CG  PHE d   2       3.551   0.152  -8.196  0.00  0.00    -0.045 A 
ATOM     17  CD1 PHE d   2       3.005   1.410  -8.021  0.00  0.00    -0.059 A 
ATOM     18  CE1 PHE d   2       3.080   2.345  -9.037  0.00  0.00    -0.061 A 
ATOM     19  HD1 PHE d   2       2.519   1.663  -7.090  0.00  0.00     0.062 H 
ATOM     20  CZ  PHE d   2       3.702   2.022 -10.228  0.00  0.00    -0.062 A 
ATOM     21  HE1 PHE d   2       2.654   3.327  -8.899  0.00  0.00     0.062 H 
ATOM     22  CE2 PHE d   2       4.248   0.764 -10.404  0.00  0.00    -0.061 A 
ATOM     23  HZ  PHE d   2       3.760   2.751 -11.022  0.00  0.00     0.062 H 
ATOM     24  CD2 PHE d   2       4.177  -0.169  -9.386  0.00  0.00    -0.059 A 
ATOM     25  HE2 PHE d   2       4.735   0.511 -11.335  0.00  0.00     0.062 H 
ATOM     26  HD2 PHE d   2       4.609  -1.150  -9.521  0.00  0.00     0.062 H 
ENDBRANCH  13  16
ENDBRANCH   1  13
BRANCH   8  27
ATOM     27  CB  PHE d   1       3.784  -2.372  -3.462  0.00  0.00    -0.001 C 
ATOM     28  HB1 PHE d   1       2.900  -2.521  -4.101  0.00  0.00     0.034 H 
ATOM     29  HB2 PHE d   1       3.718  -3.031  -2.584  0.00  0.00     0.034 H 
BRANCH  27  30
ATOM     30  CG  PHE d   1       3.842  -0.936  -3.010  0.00  0.00    -0.045 A 
ATOM     31  CD1 PHE d   1       3.113   0.029  -3.680  0.00  0.00    -0.059 A 
ATOM     32  CE1 PHE d   1       3.165   1.346  -3.264  0.00  0.00    -0.061 A 
ATOM     33  HD1 PHE d   1       2.503  -0.246  -4.526  0.00  0.00     0.062 H 
ATOM     34  CZ  PHE d   1       3.948   1.699  -2.180  0.00  0.00    -0.062 A 
ATOM     35  HE1 PHE d   1       2.597   2.100  -3.787  0.00  0.00     0.062 H 
ATOM     36  CE2 PHE d   1       4.676   0.733  -1.510  0.00  0.00    -0.061 A 
ATOM     37  HZ  PHE d   1       3.989   2.728  -1.856  0.00  0.00     0.062 H 
ATOM     38  CD2 PHE d   1       4.620  -0.585  -1.922  0.00  0.00    -0.059 A 
ATOM     39  HE2 PHE d   1       5.287   1.009  -0.664  0.00  0.00     0.062 H 
ATOM     40  HD2 PHE d   1       5.186  -1.339  -1.397  0.00  0.00     0.062 H 
ENDBRANCH  27  30
ENDBRANCH   8  27
TORSDOF 4
ENDMDL
MODEL 3
REMARK VINA RESULT:      -7.2      2.942      3.687
REMARK  4 active torsions:
REMARK  status: ('A' for Active; 'I' for Inactive)
REMARK    1  A    between atoms: CG_4  and  CB_7 
REMARK    2  A    between atoms: CB_7  and  CA_8 
REMARK    3  A    between atoms: CA_13  and  CB_18 
REMARK    4  A    between atoms: CB_18  and  CG_19 
ROOT
ATOM      1  CA  PHE d   2       4.181  -0.081  -6.565  0.00  0.00     0.103 C 
ATOM      2  HA  PHE d   2       5.118   0.139  -6.034  0.00  0.00     0.060 H 
ATOM      3  C   PHE d   2       4.322  -1.405  -7.253  0.00  0.00     0.234 C 
ATOM      4  O   PHE d   2       4.833  -2.324  -6.647  0.00  0.00    -0.274 OA
ATOM      5  N   PHE d   2       3.996   0.997  -7.526  0.00  0.00    -0.302 N 
ATOM      6  H   PHE d   2       4.194   2.038  -7.231  0.00  0.00     0.149 HD
ATOM      7  N   PHE d   1       3.910  -1.616  -8.506  0.00  0.00    -0.302 N 
ATOM      8  CA  PHE d   1       3.284  -0.580  -9.317  0.00  0.00     0.103 C 
ATOM      9  HA  PHE d   1       3.723  -0.669 -10.322  0.00  0.00     0.060 H 
ATOM     10  C   PHE d   1       3.588   0.787  -8.782  0.00  0.00     0.234 C 
ATOM     11  O   PHE d   1       3.458   1.741  -9.519  0.00  0.00    -0.274 OA
ATOM     12  H   PHE d   1       4.058  -2.624  -8.921  0.00  0.00     0.149 HD
ENDROOT
BRANCH   1  13
ATOM     13  CB  PHE d   2       2.973  -0.129  -5.628  0.00  0.00    -0.001 C 
ATOM     14  HB1 PHE d   2       2.398  -1.047  -5.818  0.00  0.00     0.034 H 
ATOM     15  HB2 PHE d   2       2.334   0.748  -5.808  0.00  0.00     0.034 H 
BRANCH  13  16
ATOM     16  CG  PHE d   2       3.447  -0.121  -4.198  0.00  0.00    -0.045 A 
ATOM     17  CD1 PHE d   2       3.693  -1.315  -3.545  0.00  0.00    -0.059 A 
ATOM     18  CE1 PHE d   2       4.129  -1.308  -2.233  0.00  0.00    -0.061 A 
ATOM     19  HD1 PHE d   2       3.546  -2.253  -4.059  0.00  0.00     0.062 H 
ATOM     20  CZ  PHE d   2       4.319  -0.108  -1.573  0.00  0.00    -0.062 A 
ATOM     21  HE1 PHE d   2       4.322  -2.240  -1.724  0.00  0.00     0.062 H 
ATOM     22  CE2 PHE d   2       4.072   1.085  -2.226  0.00  0.00    -0.061 A 
ATOM     23  HZ  PHE d   2       4.658  -0.103  -0.549  0.00  0.00     0.062 H 
ATOM     24  CD2 PHE d   2       3.641   1.079  -3.540  0.00  0.00    -0.059 A 
ATOM     25  HE2 PHE d   2       4.221   2.024  -1.711  0.00  0.00     0.062 H 
ATOM     26  HD2 PHE d   2       3.454   2.011  -4.051  0.00  0.00     0.062 H 
ENDBRANCH  13  16
ENDBRANCH   1  13
BRANCH   8  27
ATOM     27  CB  PHE d   1       1.769  -0.792  -9.319  0.00  0.00    -0.001 C 
ATOM     28  HB1 PHE d   1       1.465  -1.273  -8.378  0.00  0.00     0.034 H 
ATOM     29  HB2 PHE d   1       1.264   0.181  -9.414  0.00  0.00     0.034 H 
BRANCH  27  30
ATOM     30  CG  PHE d   1       1.386  -1.672 -10.481  0.00  0.00    -0.045 A 
ATOM     31  CD1 PHE d   1       1.237  -1.125 -11.742  0.00  0.00    -0.059 A 
ATOM     32  CE1 PHE d   1       0.886  -1.933 -12.807  0.00  0.00    -0.061 A 
ATOM     33  HD1 PHE d   1       1.395  -0.069 -11.895  0.00  0.00     0.062 H 
ATOM     34  CZ  PHE d   1       0.683  -3.287 -12.612  0.00  0.00    -0.062 A 
ATOM     35  HE1 PHE d   1       0.770  -1.507 -13.793  0.00  0.00     0.062 H 
ATOM     36  CE2 PHE d   1       0.832  -3.833 -11.350  0.00  0.00    -0.061 A 
ATOM     37  HZ  PHE d   1       0.408  -3.918 -13.444  0.00  0.00     0.062 H 
ATOM     38  CD2 PHE d   1       1.188  -3.026 -10.286  0.00  0.00    -0.059 A 
ATOM     39  HE2 PHE d   1       0.673  -4.890 -11.198  0.00  0.00     0.062 H 
ATOM     40  HD2 PHE d   1       1.308  -3.453  -9.302  0.00  0.00     0.062 H 
ENDBRANCH  27  30
ENDBRANCH   8  27
TORSDOF 4
ENDMDL
MODEL 4
REMARK VINA RESULT:      -7.1      2.343      7.030
REMARK  4 active torsions:
REMARK  status: ('A' for Active; 'I' for Inactive)
REMARK    1  A    between atoms: CG_4  and  CB_7 
REMARK    2  A    between atoms: CB_7  and  CA_8 
REMARK    3  A    between atoms: CA_13  and  CB_18 
REMARK    4  A    between atoms: CB_18  and  CG_19 
ROOT
ATOM      1  CA  PHE d   2       4.638  -0.155  -9.413  0.00  0.00     0.103 C 
ATOM      2  HA  PHE d   2       5.214  -0.233 -10.346  0.00  0.00     0.060 H 
ATOM      3  C   PHE d   2       5.303   0.853  -8.524  0.00  0.00     0.234 C 
ATOM      4  O   PHE d   2       5.690   1.894  -9.012  0.00  0.00    -0.274 OA
ATOM      5  N   PHE d   2       4.654  -1.481  -8.813  0.00  0.00    -0.302 N 
ATOM      6  H   PHE d   2       4.507  -2.372  -9.442  0.00  0.00     0.149 HD
ATOM      7  N   PHE d   1       5.487   0.652  -7.215  0.00  0.00    -0.302 N 
ATOM      8  CA  PHE d   1       5.057  -0.562  -6.534  0.00  0.00     0.103 C 
ATOM      9  HA  PHE d   1       5.876  -0.839  -5.853  0.00  0.00     0.060 H 
ATOM     10  C   PHE d   1       4.843  -1.684  -7.505  0.00  0.00     0.234 C 
ATOM     11  O   PHE d   1       4.842  -2.822  -7.087  0.00  0.00    -0.274 OA
ATOM     12  H   PHE d   1       5.986   1.453  -6.650  0.00  0.00     0.149 HD
ENDROOT
BRANCH   1  13
ATOM     13  CB  PHE d   2       3.187   0.269  -9.652  0.00  0.00    -0.001 C 
ATOM     14  HB1 PHE d   2       3.149   1.349  -9.853  0.00  0.00     0.034 H 
ATOM     15  HB2 PHE d   2       2.586   0.039  -8.760  0.00  0.00     0.034 H 
BRANCH  13  16
ATOM     16  CG  PHE d   2       2.635  -0.481 -10.837  0.00  0.00    -0.045 A 
ATOM     17  CD1 PHE d   2       1.341  -0.966 -10.806  0.00  0.00    -0.059 A 
ATOM     18  CE1 PHE d   2       0.833  -1.653 -11.893  0.00  0.00    -0.061 A 
ATOM     19  HD1 PHE d   2       0.725  -0.808  -9.932  0.00  0.00     0.062 H 
ATOM     20  CZ  PHE d   2       1.620  -1.855 -13.011  0.00  0.00    -0.062 A 
ATOM     21  HE1 PHE d   2      -0.178  -2.031 -11.868  0.00  0.00     0.062 H 
ATOM     22  CE2 PHE d   2       2.914  -1.370 -13.043  0.00  0.00    -0.061 A 
ATOM     23  HZ  PHE d   2       1.224  -2.392 -13.860  0.00  0.00     0.062 H 
ATOM     24  CD2 PHE d   2       3.420  -0.679 -11.957  0.00  0.00    -0.059 A 
ATOM     25  HE2 PHE d   2       3.529  -1.527 -13.917  0.00  0.00     0.062 H 
ATOM     26  HD2 PHE d   2       4.429  -0.295 -11.984  0.00  0.00     0.062 H 
ENDBRANCH  13  16
ENDBRANCH   1  13
BRANCH   8  27
ATOM     27  CB  PHE d   1       3.748  -0.284  -5.793  0.00  0.00    -0.001 C 
ATOM     28  HB1 PHE d   1       3.436   0.754  -5.978  0.00  0.00     0.034 H 
ATOM     29  HB2 PHE d   1       2.970  -0.972  -6.154  0.00  0.00     0.034 H 
BRANCH  27  30
ATOM     30  CG  PHE d   1       3.954  -0.491  -4.314  0.00  0.00    -0.045 A 
ATOM     31  CD1 PHE d   1       4.132   0.599  -3.483  0.00  0.00    -0.059 A 
ATOM     32  CE1 PHE d   1       4.320   0.409  -2.127  0.00  0.00    -0.061 A 
ATOM     33  HD1 PHE d   1       4.123   1.598  -3.892  0.00  0.00     0.062 H 
ATOM     34  CZ  PHE d   1       4.332  -0.870  -1.602  0.00  0.00    -0.062 A 
ATOM     35  HE1 PHE d   1       4.459   1.260  -1.477  0.00  0.00     0.062 H 
ATOM     36  CE2 PHE d   1       4.154  -1.960  -2.434  0.00  0.00    -0.061 A 
ATOM     37  HZ  PHE d   1       4.480  -1.019  -0.543  0.00  0.00     0.062 H 
ATOM     38  CD2 PHE d   1       3.960  -1.770  -3.789  0.00  0.00    -0.059 A 
ATOM     39  HE2 PHE d   1       4.163  -2.958  -2.025  0.00  0.00     0.062 H 
ATOM     40  HD2 PHE d   1       3.818  -2.621  -4.439  0.00  0.00     0.062 H 
ENDBRANCH  27  30
ENDBRANCH   8  27
TORSDOF 4
ENDMDL
MODEL 5
REMARK VINA RESULT:      -7.1      3.497      6.431
REMARK  4 active torsions:
REMARK  status: ('A' for Active; 'I' for Inactive)
REMARK    1  A    between atoms: CG_4  and  CB_7 
REMARK    2  A    between atoms: CB_7  and  CA_8 
REMARK    3  A    between atoms: CA_13  and  CB_18 
REMARK    4  A    between atoms: CB_18  and  CG_19 
ROOT
ATOM      1  CA  PHE d   2       4.933  -2.938  -5.238  0.00  0.00     0.103 C 
ATOM      2  HA  PHE d   2       5.081  -1.905  -5.587  0.00  0.00     0.060 H 
ATOM      3  C   PHE d   2       6.250  -3.652  -5.286  0.00  0.00     0.234 C 
ATOM      4  O   PHE d   2       7.238  -3.077  -4.880  0.00  0.00    -0.274 OA
ATOM      5  N   PHE d   2       3.971  -3.541  -6.150  0.00  0.00    -0.302 N 
ATOM      6  H   PHE d   2       3.088  -2.971  -6.476  0.00  0.00     0.149 HD
ATOM      7  N   PHE d   1       6.382  -4.895  -5.759  0.00  0.00    -0.302 N 
ATOM      8  CA  PHE d   1       5.257  -5.669  -6.267  0.00  0.00     0.103 C 
ATOM      9  HA  PHE d   1       5.616  -6.167  -7.181  0.00  0.00     0.060 H 
ATOM     10  C   PHE d   1       4.104  -4.783  -6.627  0.00  0.00     0.234 C 
ATOM     11  O   PHE d   1       3.256  -5.209  -7.382  0.00  0.00    -0.274 OA
ATOM     12  H   PHE d   1       7.391  -5.330  -5.751  0.00  0.00     0.149 HD
ENDROOT
BRANCH   1  13
ATOM     13  CB  PHE d   2       4.380  -3.002  -3.813  0.00  0.00    -0.001 C 
ATOM     14  HB1 PHE d   2       5.107  -3.506  -3.160  0.00  0.00     0.034 H 
ATOM     15  HB2 PHE d   2       3.434  -3.564  -3.812  0.00  0.00     0.034 H 
BRANCH  13  16
ATOM     16  CG  PHE d   2       4.136  -1.604  -3.306  0.00  0.00    -0.045 A 
ATOM     17  CD1 PHE d   2       3.321  -0.744  -4.018  0.00  0.00    -0.059 A 
ATOM     18  CE1 PHE d   2       3.096   0.539  -3.553  0.00  0.00    -0.061 A 
ATOM     19  HD1 PHE d   2       2.860  -1.073  -4.938  0.00  0.00     0.062 H 
ATOM     20  CZ  PHE d   2       3.686   0.961  -2.376  0.00  0.00    -0.062 A 
ATOM     21  HE1 PHE d   2       2.460   1.210  -4.109  0.00  0.00     0.062 H 
ATOM     22  CE2 PHE d   2       4.501   0.100  -1.664  0.00  0.00    -0.061 A 
ATOM     23  HZ  PHE d   2       3.511   1.962  -2.013  0.00  0.00     0.062 H 
ATOM     24  CD2 PHE d   2       4.721  -1.184  -2.126  0.00  0.00    -0.059 A 
ATOM     25  HE2 PHE d   2       4.961   0.429  -0.744  0.00  0.00     0.062 H 
ATOM     26  HD2 PHE d   2       5.354  -1.858  -1.568  0.00  0.00     0.062 H 
ENDBRANCH  13  16
ENDBRANCH   1  13
BRANCH   8  27
ATOM     27  CB  PHE d   1       4.809  -6.665  -5.196  0.00  0.00    -0.001 C 
ATOM     28  HB1 PHE d   1       5.508  -6.629  -4.347  0.00  0.00     0.034 H 
ATOM     29  HB2 PHE d   1       3.799  -6.401  -4.851  0.00  0.00     0.034 H 
BRANCH  27  30
ATOM     30  CG  PHE d   1       4.794  -8.056  -5.776  0.00  0.00    -0.045 A 
ATOM     31  CD1 PHE d   1       4.830  -8.232  -7.147  0.00  0.00    -0.059 A 
ATOM     32  CE1 PHE d   1       4.817  -9.508  -7.680  0.00  0.00    -0.061 A 
ATOM     33  HD1 PHE d   1       4.870  -7.375  -7.801  0.00  0.00     0.062 H 
ATOM     34  CZ  PHE d   1       4.766 -10.607  -6.842  0.00  0.00    -0.062 A 
ATOM     35  HE1 PHE d   1       4.846  -9.646  -8.750  0.00  0.00     0.062 H 
ATOM     36  CE2 PHE d   1       4.731 -10.429  -5.471  0.00  0.00    -0.061 A 
ATOM     37  HZ  PHE d   1       4.755 -11.603  -7.258  0.00  0.00     0.062 H 
ATOM     38  CD2 PHE d   1       4.749  -9.154  -4.939  0.00  0.00    -0.059 A 
ATOM     39  HE2 PHE d   1       4.691 -11.287  -4.817  0.00  0.00     0.062 H 
ATOM     40  HD2 PHE d   1       4.725  -9.016  -3.868  0.00  0.00     0.062 H 
ENDBRANCH  27  30
ENDBRANCH   8  27
TORSDOF 4
ENDMDL
MODEL 6
REMARK VINA RESULT:      -7.1      3.549      6.987
REMARK  4 active torsions:
REMARK  status: ('A' for Active; 'I' for Inactive)
REMARK    1  A    between atoms: CG_4  and  CB_7 
REMARK    2  A    between atoms: CB_7  and  CA_8 
REMARK    3  A    between atoms: CA_13  and  CB_18 
REMARK    4  A    between atoms: CB_18  and  CG_19 
ROOT
ATOM      1  CA  PHE d   2       5.228  -5.766  -6.222  0.00  0.00     0.103 C 
ATOM      2  HA  PHE d   2       5.602  -6.269  -7.125  0.00  0.00     0.060 H 
ATOM      3  C   PHE d   2       4.098  -4.861  -6.612  0.00  0.00     0.234 C 
ATOM      4  O   PHE d   2       3.263  -5.276  -7.389  0.00  0.00    -0.274 OA
ATOM      5  N   PHE d   2       6.350  -5.009  -5.685  0.00  0.00    -0.302 N 
ATOM      6  H   PHE d   2       7.353  -5.459  -5.651  0.00  0.00     0.149 HD
ATOM      7  N   PHE d   1       3.972  -3.617  -6.141  0.00  0.00    -0.302 N 
ATOM      8  CA  PHE d   1       4.919  -3.028  -5.204  0.00  0.00     0.103 C 
ATOM      9  HA  PHE d   1       5.092  -1.997  -5.549  0.00  0.00     0.060 H 
ATOM     10  C   PHE d   1       6.226  -3.762  -5.217  0.00  0.00     0.234 C 
ATOM     11  O   PHE d   1       7.211  -3.203  -4.786  0.00  0.00    -0.274 OA
ATOM     12  H   PHE d   1       3.107  -3.034  -6.489  0.00  0.00     0.149 HD
ENDROOT
BRANCH   1  13
ATOM     13  CB  PHE d   2       4.736  -6.753  -5.161  0.00  0.00    -0.001 C 
ATOM     14  HB1 PHE d   2       3.703  -6.502  -4.878  0.00  0.00     0.034 H 
ATOM     15  HB2 PHE d   2       5.384  -6.692  -4.275  0.00  0.00     0.034 H 
BRANCH  13  16
ATOM     16  CG  PHE d   2       4.777  -8.152  -5.720  0.00  0.00    -0.045 A 
ATOM     17  CD1 PHE d   2       4.771  -9.238  -4.865  0.00  0.00    -0.059 A 
ATOM     18  CE1 PHE d   2       4.808 -10.521  -5.377  0.00  0.00    -0.061 A 
ATOM     19  HD1 PHE d   2       4.738  -9.084  -3.796  0.00  0.00     0.062 H 
ATOM     20  CZ  PHE d   2       4.851 -10.719  -6.744  0.00  0.00    -0.062 A 
ATOM     21  HE1 PHE d   2       4.804 -11.369  -4.708  0.00  0.00     0.062 H 
ATOM     22  CE2 PHE d   2       4.856  -9.633  -7.600  0.00  0.00    -0.061 A 
ATOM     23  HZ  PHE d   2       4.880 -11.721  -7.144  0.00  0.00     0.062 H 
ATOM     24  CD2 PHE d   2       4.814  -8.349  -7.088  0.00  0.00    -0.059 A 
ATOM     25  HE2 PHE d   2       4.888  -9.787  -8.668  0.00  0.00     0.062 H 
ATOM     26  HD2 PHE d   2       4.813  -7.501  -7.756  0.00  0.00     0.062 H 
ENDBRANCH  13  16
ENDBRANCH   1  13
BRANCH   8  27
ATOM     27  CB  PHE d   1       4.328  -3.081  -3.794  0.00  0.00    -0.001 C 
ATOM     28  HB1 PHE d   1       3.370  -3.622  -3.818  0.00  0.00     0.034 H 
ATOM     29  HB2 PHE d   1       5.027  -3.603  -3.124  0.00  0.00     0.034 H 
BRANCH  27  30
ATOM     30  CG  PHE d   1       4.102  -1.679  -3.290  0.00  0.00    -0.045 A 
ATOM     31  CD1 PHE d   1       3.273  -0.821  -3.987  0.00  0.00    -0.059 A 
ATOM     32  CE1 PHE d   1       3.064   0.465  -3.524  0.00  0.00    -0.061 A 
ATOM     33  HD1 PHE d   1       2.786  -1.154  -4.891  0.00  0.00     0.062 H 
ATOM     34  CZ  PHE d   1       3.687   0.893  -2.366  0.00  0.00    -0.062 A 
ATOM     35  HE1 PHE d   1       2.416   1.136  -4.068  0.00  0.00     0.062 H 
ATOM     36  CE2 PHE d   1       4.517   0.034  -1.670  0.00  0.00    -0.061 A 
ATOM     37  HZ  PHE d   1       3.526   1.898  -2.005  0.00  0.00     0.062 H 
ATOM     38  CD2 PHE d   1       4.721  -1.253  -2.129  0.00  0.00    -0.059 A 
ATOM     39  HE2 PHE d   1       5.003   0.368  -0.766  0.00  0.00     0.062 H 
ATOM     40  HD2 PHE d   1       5.366  -1.926  -1.584  0.00  0.00     0.062 H 
ENDBRANCH  27  30
ENDBRANCH   8  27
TORSDOF 4
ENDMDL
MODEL 7
REMARK VINA RESULT:      -7.1      2.129      2.888
REMARK  4 active torsions:
REMARK  status: ('A' for Active; 'I' for Inactive)
REMARK    1  A    between atoms: CG_4  and  CB_7 
REMARK    2  A    between atoms: CB_7  and  CA_8 
REMARK    3  A    between atoms: CA_13  and  CB_18 
REMARK    4  A    between atoms: CB_18  and  CG_19 
ROOT
ATOM      1  CA  PHE d   2       4.943  -0.907  -6.305  0.00  0.00     0.103 C 
ATOM      2  HA  PHE d   2       5.675  -1.332  -5.603  0.00  0.00     0.060 H 
ATOM      3  C   PHE d   2       4.683  -1.910  -7.389  0.00  0.00     0.234 C 
ATOM      4  O   PHE d   2       4.529  -3.073  -7.081  0.00  0.00    -0.274 OA
ATOM      5  N   PHE d   2       5.549   0.304  -6.840  0.00  0.00    -0.302 N 
ATOM      6  H   PHE d   2       6.088   0.992  -6.172  0.00  0.00     0.149 HD
ATOM      7  N   PHE d   1       4.615  -1.576  -8.681  0.00  0.00    -0.302 N 
ATOM      8  CA  PHE d   1       4.784  -0.208  -9.153  0.00  0.00     0.103 C 
ATOM      9  HA  PHE d   1       5.416  -0.269 -10.053  0.00  0.00     0.060 H 
ATOM     10  C   PHE d   1       5.485   0.637  -8.134  0.00  0.00     0.234 C 
ATOM     11  O   PHE d   1       6.017   1.665  -8.496  0.00  0.00    -0.274 OA
ATOM     12  H   PHE d   1       4.420  -2.386  -9.400  0.00  0.00     0.149 HD
ENDROOT
BRANCH   1  13
ATOM     13  CB  PHE d   2       3.619  -0.548  -5.627  0.00  0.00    -0.001 C 
ATOM     14  HB1 PHE d   2       2.925  -1.398  -5.704  0.00  0.00     0.034 H 
ATOM     15  HB2 PHE d   2       3.180   0.330  -6.122  0.00  0.00     0.034 H 
BRANCH  13  16
ATOM     16  CG  PHE d   2       3.869  -0.235  -4.174  0.00  0.00    -0.045 A 
ATOM     17  CD1 PHE d   2       4.460  -1.179  -3.356  0.00  0.00    -0.059 A 
ATOM     18  CE1 PHE d   2       4.691  -0.892  -2.023  0.00  0.00    -0.061 A 
ATOM     19  HD1 PHE d   2       4.743  -2.142  -3.757  0.00  0.00     0.062 H 
ATOM     20  CZ  PHE d   2       4.330   0.339  -1.509  0.00  0.00    -0.062 A 
ATOM     21  HE1 PHE d   2       5.153  -1.630  -1.385  0.00  0.00     0.062 H 
ATOM     22  CE2 PHE d   2       3.738   1.283  -2.327  0.00  0.00    -0.061 A 
ATOM     23  HZ  PHE d   2       4.508   0.562  -0.468  0.00  0.00     0.062 H 
ATOM     24  CD2 PHE d   2       3.513   0.998  -3.661  0.00  0.00    -0.059 A 
ATOM     25  HE2 PHE d   2       3.457   2.246  -1.926  0.00  0.00     0.062 H 
ATOM     26  HD2 PHE d   2       3.056   1.738  -4.301  0.00  0.00     0.062 H 
ENDBRANCH  13  16
ENDBRANCH   1  13
BRANCH   8  27
ATOM     27  CB  PHE d   1       3.409   0.396  -9.445  0.00  0.00    -0.001 C 
ATOM     28  HB1 PHE d   1       2.771   0.301  -8.554  0.00  0.00     0.034 H 
ATOM     29  HB2 PHE d   1       3.524   1.458  -9.704  0.00  0.00     0.034 H 
BRANCH  27  30
ATOM     30  CG  PHE d   1       2.773  -0.336 -10.599  0.00  0.00    -0.045 A 
ATOM     31  CD1 PHE d   1       3.492  -0.553 -11.760  0.00  0.00    -0.059 A 
ATOM     32  CE1 PHE d   1       2.909  -1.225 -12.818  0.00  0.00    -0.061 A 
ATOM     33  HD1 PHE d   1       4.508  -0.199 -11.840  0.00  0.00     0.062 H 
ATOM     34  CZ  PHE d   1       1.607  -1.679 -12.716  0.00  0.00    -0.062 A 
ATOM     35  HE1 PHE d   1       3.470  -1.394 -13.725  0.00  0.00     0.062 H 
ATOM     36  CE2 PHE d   1       0.889  -1.462 -11.554  0.00  0.00    -0.061 A 
ATOM     37  HZ  PHE d   1       1.151  -2.202 -13.542  0.00  0.00     0.062 H 
ATOM     38  CD2 PHE d   1       1.473  -0.795 -10.495  0.00  0.00    -0.059 A 
ATOM     39  HE2 PHE d   1      -0.128  -1.816 -11.475  0.00  0.00     0.062 H 
ATOM     40  HD2 PHE d   1       0.914  -0.628  -9.587  0.00  0.00     0.062 H 
ENDBRANCH  27  30
ENDBRANCH   8  27
TORSDOF 4
ENDMDL
MODEL 8
REMARK VINA RESULT:      -7.0      5.501      6.449
REMARK  4 active torsions:
REMARK  status: ('A' for Active; 'I' for Inactive)
REMARK    1  A    between atoms: CG_4  and  CB_7 
REMARK    2  A    between atoms: CB_7  and  CA_8 
REMARK    3  A    between atoms: CA_13  and  CB_18 
REMARK    4  A    between atoms: CB_18  and  CG_19 
ROOT
ATOM      1  CA  PHE d   2       8.115   0.949  -4.470  0.00  0.00     0.103 C 
ATOM      2  HA  PHE d   2       7.993  -0.126  -4.669  0.00  0.00     0.060 H 
ATOM      3  C   PHE d   2       8.039   1.688  -5.772  0.00  0.00     0.234 C 
ATOM      4  O   PHE d   2       7.178   1.376  -6.568  0.00  0.00    -0.274 OA
ATOM      5  N   PHE d   2       9.424   1.102  -3.851  0.00  0.00    -0.302 N 
ATOM      6  H   PHE d   2       9.756   0.389  -3.082  0.00  0.00     0.149 HD
ATOM      7  N   PHE d   1       8.881   2.675  -6.094  0.00  0.00    -0.302 N 
ATOM      8  CA  PHE d   1       9.946   3.123  -5.207  0.00  0.00     0.103 C 
ATOM      9  HA  PHE d   1      10.832   3.274  -5.843  0.00  0.00     0.060 H 
ATOM     10  C   PHE d   1      10.269   2.086  -4.175  0.00  0.00     0.234 C 
ATOM     11  O   PHE d   1      11.341   2.141  -3.611  0.00  0.00    -0.274 OA
ATOM     12  H   PHE d   1       8.742   3.154  -7.074  0.00  0.00     0.149 HD
ENDROOT
BRANCH   1  13
ATOM     13  CB  PHE d   2       7.046   1.495  -3.521  0.00  0.00    -0.001 C 
ATOM     14  HB1 PHE d   2       6.457   2.266  -4.038  0.00  0.00     0.034 H 
ATOM     15  HB2 PHE d   2       7.530   1.934  -2.637  0.00  0.00     0.034 H 
BRANCH  13  16
ATOM     16  CG  PHE d   2       6.136   0.373  -3.092  0.00  0.00    -0.045 A 
ATOM     17  CD1 PHE d   2       6.403  -0.924  -3.490  0.00  0.00    -0.059 A 
ATOM     18  CE1 PHE d   2       5.569  -1.954  -3.096  0.00  0.00    -0.061 A 
ATOM     19  HD1 PHE d   2       7.264  -1.133  -4.109  0.00  0.00     0.062 H 
ATOM     20  CZ  PHE d   2       4.468  -1.687  -2.304  0.00  0.00    -0.062 A 
ATOM     21  HE1 PHE d   2       5.779  -2.966  -3.407  0.00  0.00     0.062 H 
ATOM     22  CE2 PHE d   2       4.201  -0.391  -1.907  0.00  0.00    -0.061 A 
ATOM     23  HZ  PHE d   2       3.817  -2.492  -1.998  0.00  0.00     0.062 H 
ATOM     24  CD2 PHE d   2       5.038   0.639  -2.296  0.00  0.00    -0.059 A 
ATOM     25  HE2 PHE d   2       3.341  -0.182  -1.287  0.00  0.00     0.062 H 
ATOM     26  HD2 PHE d   2       4.832   1.651  -1.981  0.00  0.00     0.062 H 
ENDBRANCH  13  16
ENDBRANCH   1  13
BRANCH   8  27
ATOM     27  CB  PHE d   1       9.506   4.409  -4.505  0.00  0.00    -0.001 C 
ATOM     28  HB1 PHE d   1       8.456   4.314  -4.190  0.00  0.00     0.034 H 
ATOM     29  HB2 PHE d   1      10.140   4.580  -3.623  0.00  0.00     0.034 H 
BRANCH  27  30
ATOM     30  CG  PHE d   1       9.642   5.572  -5.454  0.00  0.00    -0.045 A 
ATOM     31  CD1 PHE d   1       9.182   6.822  -5.084  0.00  0.00    -0.059 A 
ATOM     32  CE1 PHE d   1       9.307   7.890  -5.954  0.00  0.00    -0.061 A 
ATOM     33  HD1 PHE d   1       8.727   6.966  -4.116  0.00  0.00     0.062 H 
ATOM     34  CZ  PHE d   1       9.890   7.706  -7.194  0.00  0.00    -0.062 A 
ATOM     35  HE1 PHE d   1       8.948   8.866  -5.665  0.00  0.00     0.062 H 
ATOM     36  CE2 PHE d   1      10.350   6.455  -7.563  0.00  0.00    -0.061 A 
ATOM     37  HZ  PHE d   1       9.987   8.539  -7.874  0.00  0.00     0.062 H 
ATOM     38  CD2 PHE d   1      10.230   5.390  -6.692  0.00  0.00    -0.059 A 
ATOM     39  HE2 PHE d   1      10.805   6.313  -8.532  0.00  0.00     0.062 H 
ATOM     40  HD2 PHE d   1      10.592   4.414  -6.978  0.00  0.00     0.062 H 
ENDBRANCH  27  30
ENDBRANCH   8  27
TORSDOF 4
ENDMDL
MODEL 9
REMARK VINA RESULT:      -7.0      5.703      7.848
REMARK  4 active torsions:
REMARK  status: ('A' for Active; 'I' for Inactive)
REMARK    1  A    between atoms: CG_4  and  CB_7 
REMARK    2  A    between atoms: CB_7  and  CA_8 
REMARK    3  A    between atoms: CA_13  and  CB_18 
REMARK    4  A    between atoms: CB_18  and  CG_19 
ROOT
ATOM      1  CA  PHE d   2       9.903   3.299  -5.175  0.00  0.00     0.103 C 
ATOM      2  HA  PHE d   2      10.813   3.461  -5.771  0.00  0.00     0.060 H 
ATOM      3  C   PHE d   2      10.218   2.326  -4.078  0.00  0.00     0.234 C 
ATOM      4  O   PHE d   2      11.255   2.460  -3.462  0.00  0.00    -0.274 OA
ATOM      5  N   PHE d   2       8.908   2.759  -6.091  0.00  0.00    -0.302 N 
ATOM      6  H   PHE d   2       8.800   3.184  -7.100  0.00  0.00     0.149 HD
ATOM      7  N   PHE d   1       9.404   1.318  -3.750  0.00  0.00    -0.302 N 
ATOM      8  CA  PHE d   1       8.137   1.074  -4.427  0.00  0.00     0.103 C 
ATOM      9  HA  PHE d   1       8.075  -0.014  -4.579  0.00  0.00     0.060 H 
ATOM     10  C   PHE d   1       8.096   1.747  -5.766  0.00  0.00     0.234 C 
ATOM     11  O   PHE d   1       7.295   1.358  -6.588  0.00  0.00    -0.274 OA
ATOM     12  H   PHE d   1       9.726   0.660  -2.931  0.00  0.00     0.149 HD
ENDROOT
BRANCH   1  13
ATOM     13  CB  PHE d   2       9.367   4.592  -4.559  0.00  0.00    -0.001 C 
ATOM     14  HB1 PHE d   2       9.792   4.724  -3.553  0.00  0.00     0.034 H 
ATOM     15  HB2 PHE d   2       8.271   4.539  -4.490  0.00  0.00     0.034 H 
BRANCH  13  16
ATOM     16  CG  PHE d   2       9.761   5.761  -5.425  0.00  0.00    -0.045 A 
ATOM     17  CD1 PHE d   2       9.112   6.974  -5.285  0.00  0.00    -0.059 A 
ATOM     18  CE1 PHE d   2       9.473   8.047  -6.079  0.00  0.00    -0.061 A 
ATOM     19  HD1 PHE d   2       8.323   7.084  -4.556  0.00  0.00     0.062 H 
ATOM     20  CZ  PHE d   2      10.483   7.907  -7.013  0.00  0.00    -0.062 A 
ATOM     21  HE1 PHE d   2       8.967   8.994  -5.970  0.00  0.00     0.062 H 
ATOM     22  CE2 PHE d   2      11.132   6.694  -7.153  0.00  0.00    -0.061 A 
ATOM     23  HZ  PHE d   2      10.764   8.744  -7.633  0.00  0.00     0.062 H 
ATOM     24  CD2 PHE d   2      10.774   5.623  -6.355  0.00  0.00    -0.059 A 
ATOM     25  HE2 PHE d   2      11.922   6.584  -7.882  0.00  0.00     0.062 H 
ATOM     26  HD2 PHE d   2      11.284   4.677  -6.461  0.00  0.00     0.062 H 
ENDBRANCH  13  16
ENDBRANCH   1  13
BRANCH   8  27
ATOM     27  CB  PHE d   1       6.995   1.610  -3.562  0.00  0.00    -0.001 C 
ATOM     28  HB1 PHE d   1       7.412   2.124  -2.682  0.00  0.00     0.034 H 
ATOM     29  HB2 PHE d   1       6.392   2.318  -4.149  0.00  0.00     0.034 H 
BRANCH  27  30
ATOM     30  CG  PHE d   1       6.126   0.465  -3.110  0.00  0.00    -0.045 A 
ATOM     31  CD1 PHE d   1       5.088   0.693  -2.226  0.00  0.00    -0.059 A 
ATOM     32  CE1 PHE d   1       4.290  -0.357  -1.812  0.00  0.00    -0.061 A 
ATOM     33  HD1 PHE d   1       4.899   1.690  -1.860  0.00  0.00     0.062 H 
ATOM     34  CZ  PHE d   1       4.531  -1.636  -2.281  0.00  0.00    -0.062 A 
ATOM     35  HE1 PHE d   1       3.479  -0.180  -1.122  0.00  0.00     0.062 H 
ATOM     36  CE2 PHE d   1       5.570  -1.863  -3.165  0.00  0.00    -0.061 A 
ATOM     37  HZ  PHE d   1       3.909  -2.456  -1.957  0.00  0.00     0.062 H 
ATOM     38  CD2 PHE d   1       6.364  -0.812  -3.583  0.00  0.00    -0.059 A 
ATOM     39  HE2 PHE d   1       5.758  -2.861  -3.531  0.00  0.00     0.062 H 
ATOM     40  HD2 PHE d   1       7.173  -0.988  -4.276  0.00  0.00     0.062 H 
ENDBRANCH  27  30
ENDBRANCH   8  27
TORSDOF 4
ENDMDL
MODEL 10
REMARK VINA RESULT:      -6.6      3.565      7.074
REMARK  4 active torsions:
REMARK  status: ('A' for Active; 'I' for Inactive)
REMARK    1  A    between atoms: CG_4  and  CB_7 
REMARK    2  A    between atoms: CB_7  and  CA_8 
REMARK    3  A    between atoms: CA_13  and  CB_18 
REMARK    4  A    between atoms: CB_18  and  CG_19 
ROOT
ATOM      1  CA  PHE d   2       5.295  -5.670  -6.372  0.00  0.00     0.103 C 
ATOM      2  HA  PHE d   2       5.553  -6.194  -7.304  0.00  0.00     0.060 H 
ATOM      3  C   PHE d   2       4.224  -4.664  -6.671  0.00  0.00     0.234 C 
ATOM      4  O   PHE d   2       3.299  -4.994  -7.384  0.00  0.00    -0.274 OA
ATOM      5  N   PHE d   2       6.517  -5.021  -5.918  0.00  0.00    -0.302 N 
ATOM      6  H   PHE d   2       7.476  -5.559  -5.963  0.00  0.00     0.149 HD
ATOM      7  N   PHE d   1       4.245  -3.419  -6.186  0.00  0.00    -0.302 N 
ATOM      8  CA  PHE d   1       5.309  -2.928  -5.321  0.00  0.00     0.103 C 
ATOM      9  HA  PHE d   1       5.547  -1.912  -5.673  0.00  0.00     0.060 H 
ATOM     10  C   PHE d   1       6.541  -3.774  -5.436  0.00  0.00     0.234 C 
ATOM     11  O   PHE d   1       7.602  -3.309  -5.079  0.00  0.00    -0.274 OA
ATOM     12  H   PHE d   1       3.413  -2.757  -6.464  0.00  0.00     0.149 HD
ENDROOT
BRANCH   1  13
ATOM     13  CB  PHE d   2       4.798  -6.621  -5.282  0.00  0.00    -0.001 C 
ATOM     14  HB1 PHE d   2       3.775  -6.343  -4.991  0.00  0.00     0.034 H 
ATOM     15  HB2 PHE d   2       5.460  -6.553  -4.407  0.00  0.00     0.034 H 
BRANCH  13  16
ATOM     16  CG  PHE d   2       4.803  -8.033  -5.809  0.00  0.00    -0.045 A 
ATOM     17  CD1 PHE d   2       4.611  -8.268  -7.157  0.00  0.00    -0.059 A 
ATOM     18  CE1 PHE d   2       4.616  -9.563  -7.641  0.00  0.00    -0.061 A 
ATOM     19  HD1 PHE d   2       4.457  -7.440  -7.834  0.00  0.00     0.062 H 
ATOM     20  CZ  PHE d   2       4.813 -10.624  -6.777  0.00  0.00    -0.062 A 
ATOM     21  HE1 PHE d   2       4.466  -9.746  -8.695  0.00  0.00     0.062 H 
ATOM     22  CE2 PHE d   2       5.005 -10.389  -5.428  0.00  0.00    -0.061 A 
ATOM     23  HZ  PHE d   2       4.817 -11.635  -7.154  0.00  0.00     0.062 H 
ATOM     24  CD2 PHE d   2       5.006  -9.093  -4.945  0.00  0.00    -0.059 A 
ATOM     25  HE2 PHE d   2       5.161 -11.217  -4.752  0.00  0.00     0.062 H 
ATOM     26  HD2 PHE d   2       5.161  -8.910  -3.892  0.00  0.00     0.062 H 
ENDBRANCH  13  16
ENDBRANCH   1  13
BRANCH   8  27
ATOM     27  CB  PHE d   1       4.824  -2.945  -3.870  0.00  0.00    -0.001 C 
ATOM     28  HB1 PHE d   1       3.784  -3.302  -3.836  0.00  0.00     0.034 H 
ATOM     29  HB2 PHE d   1       5.462  -3.617  -3.278  0.00  0.00     0.034 H 
BRANCH  27  30
ATOM     30  CG  PHE d   1       4.896  -1.552  -3.299  0.00  0.00    -0.045 A 
ATOM     31  CD1 PHE d   1       5.506  -0.541  -4.019  0.00  0.00    -0.059 A 
ATOM     32  CE1 PHE d   1       5.571   0.737  -3.496  0.00  0.00    -0.061 A 
ATOM     33  HD1 PHE d   1       5.929  -0.749  -4.990  0.00  0.00     0.062 H 
ATOM     34  CZ  PHE d   1       5.030   1.003  -2.252  0.00  0.00    -0.062 A 
ATOM     35  HE1 PHE d   1       6.047   1.526  -4.057  0.00  0.00     0.062 H 
ATOM     36  CE2 PHE d   1       4.420  -0.008  -1.532  0.00  0.00    -0.061 A 
ATOM     37  HZ  PHE d   1       5.082   2.001  -1.842  0.00  0.00     0.062 H 
ATOM     38  CD2 PHE d   1       4.350  -1.284  -2.058  0.00  0.00    -0.059 A 
ATOM     39  HE2 PHE d   1       3.997   0.200  -0.561  0.00  0.00     0.062 H 
ATOM     40  HD2 PHE d   1       3.871  -2.073  -1.497  0.00  0.00     0.062 H 
ENDBRANCH  27  30
ENDBRANCH   8  27
TORSDOF 4
ENDMDL
