MODEL 1
REMARK VINA RESULT:      -5.0      0.000      0.000
REMARK  6 active torsions:
REMARK  status: ('A' for Active; 'I' for Inactive)
REMARK    1  A    between atoms: C_1  and  C_2 
REMARK    2  A    between atoms: C_2  and  C_20 
REMARK    3  A    between atoms: C_8  and  C_19 
REMARK    4  A    between atoms: C_15  and  C_17 
REMARK    5  A    between atoms: C_15  and  C_18 
REMARK    6  A    between atoms: C_19  and  N_39 
ROOT
ATOM      1  C   LIG d   1       8.361  -3.627  -4.875  0.00  0.00     0.166 C 
ATOM      2  O   LIG d   1       7.954  -3.094  -6.173  0.00  0.00    -0.341 OA
ATOM      3  C   LIG d   1       7.288  -1.893  -5.790  0.00  0.00     0.114 C 
ATOM      4  H   LIG d   1       8.047  -1.206  -5.416  0.00  0.00     0.065 H 
ATOM      5  C   LIG d   1       6.335  -1.168  -6.702  0.00  0.00     0.080 C 
ATOM      6  O   LIG d   1       5.966   0.054  -6.009  0.00  0.00    -0.340 OA
ATOM      7  C   LIG d   1       5.758  -0.077  -4.632  0.00  0.00     0.243 C 
ATOM      8  C   LIG d   1       5.435  -1.522  -4.184  0.00  0.00     0.149 C 
ATOM      9  H   LIG d   1       4.469  -1.818  -4.650  0.00  0.00     0.068 H 
ATOM     10  C   LIG d   1       6.450  -2.489  -4.614  0.00  0.00     0.122 C 
ATOM     11  H   LIG d   1       5.905  -3.363  -5.039  0.00  0.00     0.065 H 
ATOM     12  O   LIG d   1       7.509  -3.034  -3.850  0.00  0.00    -0.341 OA
ATOM     13  O   LIG d   1       5.171  -1.286  -2.795  0.00  0.00    -0.338 OA
ATOM     14  C   LIG d   1       4.310  -0.117  -2.856  0.00  0.00     0.169 C 
ATOM     15  O   LIG d   1       4.649   0.628  -4.050  0.00  0.00    -0.311 OA
ATOM     16  H   LIG d   1       6.819  -0.931  -7.651  0.00  0.00     0.059 H 
ATOM     17  H   LIG d   1       5.447  -1.777  -6.888  0.00  0.00     0.059 H 
ENDROOT
BRANCH   1  18
ATOM     18  C   LIG d   1       9.820  -3.266  -4.601  0.00  0.00    -0.011 C 
ATOM     19  H   LIG d   1      10.368  -4.163  -4.313  0.00  0.00     0.028 H 
ATOM     20  H   LIG d   1      10.265  -2.844  -5.503  0.00  0.00     0.028 H 
ATOM     21  H   LIG d   1       9.868  -2.535  -3.795  0.00  0.00     0.028 H 
ENDBRANCH   1  18
BRANCH   1  22
ATOM     22  C   LIG d   1       8.188  -5.146  -4.868  0.00  0.00    -0.011 C 
ATOM     23  H   LIG d   1       9.167  -5.624  -4.866  0.00  0.00     0.028 H 
ATOM     24  H   LIG d   1       7.635  -5.443  -3.977  0.00  0.00     0.028 H 
ATOM     25  H   LIG d   1       7.637  -5.452  -5.757  0.00  0.00     0.028 H 
ENDBRANCH   1  22
BRANCH   7  26
ATOM     26  C   LIG d   1       6.993   0.430  -3.882  0.00  0.00     0.023 C 
ATOM     27  H   LIG d   1       6.821   0.358  -2.808  0.00  0.00     0.087 H 
ATOM     28  H   LIG d   1       7.857  -0.177  -4.153  0.00  0.00     0.087 H 
BRANCH  26  29
ATOM     29  N   LIG d   1       7.250   1.828  -4.268  0.00  0.00     0.222 N 
ATOM     30  H   LIG d   1       6.901   2.001  -5.208  0.00  0.00     0.200 HD
ATOM     31  H   LIG d   1       6.792   2.461  -3.615  0.00  0.00     0.200 HD
ATOM     32  H   LIG d   1       8.262   2.003  -4.249  0.00  0.00     0.200 HD
ENDBRANCH  26  29
ENDBRANCH   7  26
BRANCH  14  33
ATOM     33  C   LIG d   1       2.844  -0.557  -2.921  0.00  0.00    -0.011 C 
ATOM     34  H   LIG d   1       2.735  -1.347  -3.663  0.00  0.00     0.028 H 
ATOM     35  H   LIG d   1       2.533  -0.929  -1.945  0.00  0.00     0.028 H 
ATOM     36  H   LIG d   1       2.222   0.293  -3.201  0.00  0.00     0.028 H 
ENDBRANCH  14  33
BRANCH  14  37
ATOM     37  C   LIG d   1       4.518   0.751  -1.613  0.00  0.00    -0.011 C 
ATOM     38  H   LIG d   1       5.461   1.291  -1.701  0.00  0.00     0.028 H 
ATOM     39  H   LIG d   1       3.697   1.464  -1.526  0.00  0.00     0.028 H 
ATOM     40  H   LIG d   1       4.544   0.117  -0.727  0.00  0.00     0.028 H 
ENDBRANCH  14  37
TORSDOF 6
ENDMDL
MODEL 2
REMARK VINA RESULT:      -5.0      1.705      4.802
REMARK  6 active torsions:
REMARK  status: ('A' for Active; 'I' for Inactive)
REMARK    1  A    between atoms: C_1  and  C_2 
REMARK    2  A    between atoms: C_2  and  C_20 
REMARK    3  A    between atoms: C_8  and  C_19 
REMARK    4  A    between atoms: C_15  and  C_17 
REMARK    5  A    between atoms: C_15  and  C_18 
REMARK    6  A    between atoms: C_19  and  N_39 
ROOT
ATOM      1  C   LIG d   1       4.291  -0.145  -2.838  0.00  0.00     0.166 C 
ATOM      2  O   LIG d   1       5.184  -1.277  -2.606  0.00  0.00    -0.341 OA
ATOM      3  C   LIG d   1       6.287  -0.946  -3.447  0.00  0.00     0.114 C 
ATOM      4  H   LIG d   1       6.786  -0.085  -3.004  0.00  0.00     0.065 H 
ATOM      5  C   LIG d   1       7.303  -1.964  -3.890  0.00  0.00     0.080 C 
ATOM      6  O   LIG d   1       8.320  -1.226  -4.620  0.00  0.00    -0.340 OA
ATOM      7  C   LIG d   1       7.840  -0.211  -5.453  0.00  0.00     0.243 C 
ATOM      8  C   LIG d   1       6.358  -0.386  -5.862  0.00  0.00     0.149 C 
ATOM      9  H   LIG d   1       6.275  -1.316  -6.466  0.00  0.00     0.068 H 
ATOM     10  C   LIG d   1       5.465  -0.526  -4.707  0.00  0.00     0.122 C 
ATOM     11  H   LIG d   1       4.783  -1.379  -4.927  0.00  0.00     0.065 H 
ATOM     12  O   LIG d   1       4.652   0.468  -4.112  0.00  0.00    -0.341 OA
ATOM     13  O   LIG d   1       6.232   0.713  -6.773  0.00  0.00    -0.338 OA
ATOM     14  C   LIG d   1       7.439   0.572  -7.570  0.00  0.00     0.169 C 
ATOM     15  O   LIG d   1       8.447  -0.060  -6.747  0.00  0.00    -0.311 OA
ATOM     16  H   LIG d   1       7.748  -2.461  -3.026  0.00  0.00     0.059 H 
ATOM     17  H   LIG d   1       6.840  -2.709  -4.540  0.00  0.00     0.059 H 
ENDROOT
BRANCH   1  18
ATOM     18  C   LIG d   1       4.448   0.878  -1.715  0.00  0.00    -0.011 C 
ATOM     19  H   LIG d   1       3.782   1.722  -1.896  0.00  0.00     0.028 H 
ATOM     20  H   LIG d   1       4.192   0.412  -0.762  0.00  0.00     0.028 H 
ATOM     21  H   LIG d   1       5.479   1.228  -1.682  0.00  0.00     0.028 H 
ENDBRANCH   1  18
BRANCH   1  22
ATOM     22  C   LIG d   1       2.845  -0.637  -2.899  0.00  0.00    -0.011 C 
ATOM     23  H   LIG d   1       2.168   0.214  -2.830  0.00  0.00     0.028 H 
ATOM     24  H   LIG d   1       2.680  -1.158  -3.843  0.00  0.00     0.028 H 
ATOM     25  H   LIG d   1       2.659  -1.318  -2.069  0.00  0.00     0.028 H 
ENDBRANCH   1  22
BRANCH   7  26
ATOM     26  C   LIG d   1       8.026   1.143  -4.763  0.00  0.00     0.023 C 
ATOM     27  H   LIG d   1       8.029   1.935  -5.511  0.00  0.00     0.087 H 
ATOM     28  H   LIG d   1       7.209   1.309  -4.061  0.00  0.00     0.087 H 
BRANCH  26  29
ATOM     29  N   LIG d   1       9.299   1.133  -4.021  0.00  0.00     0.222 N 
ATOM     30  H   LIG d   1       9.272   1.820  -3.270  0.00  0.00     0.200 HD
ATOM     31  H   LIG d   1       9.467   0.209  -3.627  0.00  0.00     0.200 HD
ATOM     32  H   LIG d   1      10.066   1.368  -4.663  0.00  0.00     0.200 HD
ENDBRANCH  26  29
ENDBRANCH   7  26
BRANCH  14  33
ATOM     33  C   LIG d   1       7.150  -0.301  -8.795  0.00  0.00    -0.011 C 
ATOM     34  H   LIG d   1       6.078  -0.481  -8.868  0.00  0.00     0.028 H 
ATOM     35  H   LIG d   1       7.494   0.210  -9.694  0.00  0.00     0.028 H 
ATOM     36  H   LIG d   1       7.672  -1.252  -8.694  0.00  0.00     0.028 H 
ENDBRANCH  14  33
BRANCH  14  37
ATOM     37  C   LIG d   1       7.921   1.947  -8.037  0.00  0.00    -0.011 C 
ATOM     38  H   LIG d   1       7.778   2.035  -9.115  0.00  0.00     0.028 H 
ATOM     39  H   LIG d   1       7.350   2.725  -7.530  0.00  0.00     0.028 H 
ATOM     40  H   LIG d   1       8.979   2.061  -7.801  0.00  0.00     0.028 H 
ENDBRANCH  14  37
TORSDOF 6
ENDMDL
MODEL 3
REMARK VINA RESULT:      -5.0      2.047      3.718
REMARK  6 active torsions:
REMARK  status: ('A' for Active; 'I' for Inactive)
REMARK    1  A    between atoms: C_1  and  C_2 
REMARK    2  A    between atoms: C_2  and  C_20 
REMARK    3  A    between atoms: C_8  and  C_19 
REMARK    4  A    between atoms: C_15  and  C_17 
REMARK    5  A    between atoms: C_15  and  C_18 
REMARK    6  A    between atoms: C_19  and  N_39 
ROOT
ATOM      1  C   LIG d   1       7.509   0.371  -7.548  0.00  0.00     0.166 C 
ATOM      2  O   LIG d   1       8.406  -0.534  -6.833  0.00  0.00    -0.341 OA
ATOM      3  C   LIG d   1       7.518  -1.124  -5.887  0.00  0.00     0.114 C 
ATOM      4  H   LIG d   1       6.834  -1.766  -6.440  0.00  0.00     0.065 H 
ATOM      5  C   LIG d   1       8.005  -1.827  -4.648  0.00  0.00     0.080 C 
ATOM      6  O   LIG d   1       6.824  -2.390  -4.015  0.00  0.00    -0.340 OA
ATOM      7  C   LIG d   1       5.688  -1.575  -4.037  0.00  0.00     0.243 C 
ATOM      8  C   LIG d   1       5.999  -0.072  -4.232  0.00  0.00     0.149 C 
ATOM      9  H   LIG d   1       6.584   0.275  -3.352  0.00  0.00     0.068 H 
ATOM     10  C   LIG d   1       6.803   0.188  -5.431  0.00  0.00     0.122 C 
ATOM     11  H   LIG d   1       7.614   0.891  -5.130  0.00  0.00     0.065 H 
ATOM     12  O   LIG d   1       6.357   0.641  -6.695  0.00  0.00    -0.341 OA
ATOM     13  O   LIG d   1       4.677   0.464  -4.090  0.00  0.00    -0.338 OA
ATOM     14  C   LIG d   1       4.201  -0.241  -2.912  0.00  0.00     0.169 C 
ATOM     15  O   LIG d   1       4.879  -1.519  -2.850  0.00  0.00    -0.311 OA
ATOM     16  H   LIG d   1       8.706  -2.622  -4.909  0.00  0.00     0.059 H 
ATOM     17  H   LIG d   1       8.492  -1.119  -3.973  0.00  0.00     0.059 H 
ENDROOT
BRANCH   1  18
ATOM     18  C   LIG d   1       7.044  -0.280  -8.849  0.00  0.00    -0.011 C 
ATOM     19  H   LIG d   1       6.176  -0.909  -8.650  0.00  0.00     0.028 H 
ATOM     20  H   LIG d   1       6.774   0.495  -9.567  0.00  0.00     0.028 H 
ATOM     21  H   LIG d   1       7.849  -0.890  -9.258  0.00  0.00     0.028 H 
ENDBRANCH   1  18
BRANCH   1  22
ATOM     22  C   LIG d   1       8.238   1.681  -7.851  0.00  0.00    -0.011 C 
ATOM     23  H   LIG d   1       8.686   1.627  -8.843  0.00  0.00     0.028 H 
ATOM     24  H   LIG d   1       7.527   2.507  -7.816  0.00  0.00     0.028 H 
ATOM     25  H   LIG d   1       9.019   1.841  -7.108  0.00  0.00     0.028 H 
ENDBRANCH   1  22
BRANCH   7  26
ATOM     26  C   LIG d   1       4.742  -2.053  -5.143  0.00  0.00     0.023 C 
ATOM     27  H   LIG d   1       3.914  -1.351  -5.241  0.00  0.00     0.087 H 
ATOM     28  H   LIG d   1       5.286  -2.107  -6.086  0.00  0.00     0.087 H 
BRANCH  26  29
ATOM     29  N   LIG d   1       4.241  -3.395  -4.801  0.00  0.00     0.222 N 
ATOM     30  H   LIG d   1       4.455  -4.050  -5.551  0.00  0.00     0.200 HD
ATOM     31  H   LIG d   1       4.670  -3.719  -3.936  0.00  0.00     0.200 HD
ATOM     32  H   LIG d   1       3.223  -3.353  -4.673  0.00  0.00     0.200 HD
ENDBRANCH  26  29
ENDBRANCH   7  26
BRANCH  14  33
ATOM     33  C   LIG d   1       4.521   0.575  -1.657  0.00  0.00    -0.011 C 
ATOM     34  H   LIG d   1       5.387   1.209  -1.847  0.00  0.00     0.028 H 
ATOM     35  H   LIG d   1       3.664   1.197  -1.399  0.00  0.00     0.028 H 
ATOM     36  H   LIG d   1       4.741  -0.101  -0.830  0.00  0.00     0.028 H 
ENDBRANCH  14  33
BRANCH  14  37
ATOM     37  C   LIG d   1       2.688  -0.448  -3.003  0.00  0.00    -0.011 C 
ATOM     38  H   LIG d   1       2.320  -0.030  -3.941  0.00  0.00     0.028 H 
ATOM     39  H   LIG d   1       2.463  -1.514  -2.967  0.00  0.00     0.028 H 
ATOM     40  H   LIG d   1       2.201   0.055  -2.167  0.00  0.00     0.028 H 
ENDBRANCH  14  37
TORSDOF 6
ENDMDL
MODEL 4
REMARK VINA RESULT:      -4.8      2.871      4.938
REMARK  6 active torsions:
REMARK  status: ('A' for Active; 'I' for Inactive)
REMARK    1  A    between atoms: C_1  and  C_2 
REMARK    2  A    between atoms: C_2  and  C_20 
REMARK    3  A    between atoms: C_8  and  C_19 
REMARK    4  A    between atoms: C_15  and  C_17 
REMARK    5  A    between atoms: C_15  and  C_18 
REMARK    6  A    between atoms: C_19  and  N_39 
ROOT
ATOM      1  C   LIG d   1       4.819  -0.236  -3.440  0.00  0.00     0.166 C 
ATOM      2  O   LIG d   1       5.041  -1.608  -3.889  0.00  0.00    -0.341 OA
ATOM      3  C   LIG d   1       5.186  -1.427  -5.296  0.00  0.00     0.114 C 
ATOM      4  H   LIG d   1       6.129  -0.908  -5.461  0.00  0.00     0.065 H 
ATOM      5  C   LIG d   1       5.034  -2.556  -6.279  0.00  0.00     0.080 C 
ATOM      6  O   LIG d   1       5.372  -2.005  -7.580  0.00  0.00    -0.340 OA
ATOM      7  C   LIG d   1       4.900  -0.710  -7.822  0.00  0.00     0.243 C 
ATOM      8  C   LIG d   1       3.699  -0.306  -6.935  0.00  0.00     0.149 C 
ATOM      9  H   LIG d   1       2.846  -0.974  -7.187  0.00  0.00     0.068 H 
ATOM     10  C   LIG d   1       3.977  -0.459  -5.503  0.00  0.00     0.122 C 
ATOM     11  H   LIG d   1       3.094  -0.972  -5.056  0.00  0.00     0.065 H 
ATOM     12  O   LIG d   1       4.343   0.546  -4.577  0.00  0.00    -0.341 OA
ATOM     13  O   LIG d   1       3.405   0.976  -7.504  0.00  0.00    -0.338 OA
ATOM     14  C   LIG d   1       3.453   0.682  -8.927  0.00  0.00     0.169 C 
ATOM     15  O   LIG d   1       4.367  -0.423  -9.125  0.00  0.00    -0.311 OA
ATOM     16  H   LIG d   1       5.713  -3.374  -6.030  0.00  0.00     0.059 H 
ATOM     17  H   LIG d   1       4.006  -2.925  -6.282  0.00  0.00     0.059 H 
ENDROOT
BRANCH   1  18
ATOM     18  C   LIG d   1       6.127   0.358  -2.921  0.00  0.00    -0.011 C 
ATOM     19  H   LIG d   1       6.926  -0.376  -3.026  0.00  0.00     0.028 H 
ATOM     20  H   LIG d   1       6.375   1.250  -3.497  0.00  0.00     0.028 H 
ATOM     21  H   LIG d   1       6.013   0.624  -1.870  0.00  0.00     0.028 H 
ENDBRANCH   1  18
BRANCH   1  22
ATOM     22  C   LIG d   1       3.764  -0.224  -2.334  0.00  0.00    -0.011 C 
ATOM     23  H   LIG d   1       4.144   0.328  -1.474  0.00  0.00     0.028 H 
ATOM     24  H   LIG d   1       2.858   0.257  -2.704  0.00  0.00     0.028 H 
ATOM     25  H   LIG d   1       3.537  -1.248  -2.037  0.00  0.00     0.028 H 
ENDBRANCH   1  22
BRANCH   7  26
ATOM     26  C   LIG d   1       6.044   0.290  -7.628  0.00  0.00     0.023 C 
ATOM     27  H   LIG d   1       5.659   1.305  -7.724  0.00  0.00     0.087 H 
ATOM     28  H   LIG d   1       6.477   0.158  -6.636  0.00  0.00     0.087 H 
BRANCH  26  29
ATOM     29  N   LIG d   1       7.082   0.037  -8.642  0.00  0.00     0.222 N 
ATOM     30  H   LIG d   1       7.364  -0.941  -8.617  0.00  0.00     0.200 HD
ATOM     31  H   LIG d   1       6.728   0.264  -9.569  0.00  0.00     0.200 HD
ATOM     32  H   LIG d   1       7.899   0.626  -8.442  0.00  0.00     0.200 HD
ENDBRANCH  26  29
ENDBRANCH   7  26
BRANCH  14  33
ATOM     33  C   LIG d   1       2.057   0.293  -9.421  0.00  0.00    -0.011 C 
ATOM     34  H   LIG d   1       1.323   0.510  -8.645  0.00  0.00     0.028 H 
ATOM     35  H   LIG d   1       1.817   0.863 -10.318  0.00  0.00     0.028 H 
ATOM     36  H   LIG d   1       2.037  -0.772  -9.651  0.00  0.00     0.028 H 
ENDBRANCH  14  33
BRANCH  14  37
ATOM     37  C   LIG d   1       3.933   1.912  -9.699  0.00  0.00    -0.011 C 
ATOM     38  H   LIG d   1       3.214   2.723  -9.573  0.00  0.00     0.028 H 
ATOM     39  H   LIG d   1       4.905   2.226  -9.318  0.00  0.00     0.028 H 
ATOM     40  H   LIG d   1       4.020   1.666 -10.758  0.00  0.00     0.028 H 
ENDBRANCH  14  37
TORSDOF 6
ENDMDL
MODEL 5
REMARK VINA RESULT:      -4.8      2.809      4.676
REMARK  6 active torsions:
REMARK  status: ('A' for Active; 'I' for Inactive)
REMARK    1  A    between atoms: C_1  and  C_2 
REMARK    2  A    between atoms: C_2  and  C_20 
REMARK    3  A    between atoms: C_8  and  C_19 
REMARK    4  A    between atoms: C_15  and  C_17 
REMARK    5  A    between atoms: C_15  and  C_18 
REMARK    6  A    between atoms: C_19  and  N_39 
ROOT
ATOM      1  C   LIG d   1       3.229  -0.185  -8.561  0.00  0.00     0.166 C 
ATOM      2  O   LIG d   1       4.676  -0.027  -8.686  0.00  0.00    -0.341 OA
ATOM      3  C   LIG d   1       5.135  -0.666  -7.498  0.00  0.00     0.114 C 
ATOM      4  H   LIG d   1       4.946  -1.733  -7.609  0.00  0.00     0.065 H 
ATOM      5  C   LIG d   1       6.511  -0.438  -6.934  0.00  0.00     0.080 C 
ATOM      6  O   LIG d   1       6.641  -1.346  -5.808  0.00  0.00    -0.340 OA
ATOM      7  C   LIG d   1       5.499  -1.477  -5.010  0.00  0.00     0.243 C 
ATOM      8  C   LIG d   1       4.516  -0.288  -5.126  0.00  0.00     0.149 C 
ATOM      9  H   LIG d   1       5.030   0.621  -4.743  0.00  0.00     0.068 H 
ATOM     10  C   LIG d   1       4.111  -0.021  -6.510  0.00  0.00     0.122 C 
ATOM     11  H   LIG d   1       4.190   1.080  -6.662  0.00  0.00     0.065 H 
ATOM     12  O   LIG d   1       2.913  -0.411  -7.155  0.00  0.00    -0.341 OA
ATOM     13  O   LIG d   1       3.560  -0.674  -4.130  0.00  0.00    -0.338 OA
ATOM     14  C   LIG d   1       4.425  -1.062  -3.029  0.00  0.00     0.169 C 
ATOM     15  O   LIG d   1       5.678  -1.527  -3.585  0.00  0.00    -0.311 OA
ATOM     16  H   LIG d   1       7.273  -0.659  -7.684  0.00  0.00     0.059 H 
ATOM     17  H   LIG d   1       6.620   0.596  -6.598  0.00  0.00     0.059 H 
ENDROOT
BRANCH   1  18
ATOM     18  C   LIG d   1       2.764  -1.381  -9.390  0.00  0.00    -0.011 C 
ATOM     19  H   LIG d   1       2.453  -1.040 -10.377  0.00  0.00     0.028 H 
ATOM     20  H   LIG d   1       3.585  -2.092  -9.494  0.00  0.00     0.028 H 
ATOM     21  H   LIG d   1       1.925  -1.865  -8.891  0.00  0.00     0.028 H 
ENDBRANCH   1  18
BRANCH   1  22
ATOM     22  C   LIG d   1       2.531   1.087  -9.043  0.00  0.00    -0.011 C 
ATOM     23  H   LIG d   1       1.463   0.898  -9.152  0.00  0.00     0.028 H 
ATOM     24  H   LIG d   1       2.687   1.884  -8.315  0.00  0.00     0.028 H 
ATOM     25  H   LIG d   1       2.947   1.387 -10.005  0.00  0.00     0.028 H 
ENDBRANCH   1  22
BRANCH   7  26
ATOM     26  C   LIG d   1       4.777  -2.779  -5.369  0.00  0.00     0.023 C 
ATOM     27  H   LIG d   1       3.818  -2.817  -4.852  0.00  0.00     0.087 H 
ATOM     28  H   LIG d   1       4.611  -2.817  -6.446  0.00  0.00     0.087 H 
BRANCH  26  29
ATOM     29  N   LIG d   1       5.619  -3.921  -4.973  0.00  0.00     0.222 N 
ATOM     30  H   LIG d   1       6.603  -3.686  -5.088  0.00  0.00     0.200 HD
ATOM     31  H   LIG d   1       5.441  -4.167  -4.001  0.00  0.00     0.200 HD
ATOM     32  H   LIG d   1       5.395  -4.727  -5.569  0.00  0.00     0.200 HD
ENDBRANCH  26  29
ENDBRANCH   7  26
BRANCH  14  33
ATOM     33  C   LIG d   1       4.680   0.146  -2.122  0.00  0.00    -0.011 C 
ATOM     34  H   LIG d   1       5.717   0.467  -2.227  0.00  0.00     0.028 H 
ATOM     35  H   LIG d   1       4.017   0.963  -2.409  0.00  0.00     0.028 H 
ATOM     36  H   LIG d   1       4.489  -0.130  -1.086  0.00  0.00     0.028 H 
ENDBRANCH  14  33
BRANCH  14  37
ATOM     37  C   LIG d   1       3.764  -2.172  -2.209  0.00  0.00    -0.011 C 
ATOM     38  H   LIG d   1       4.535  -2.804  -1.766  0.00  0.00     0.028 H 
ATOM     39  H   LIG d   1       3.158  -1.729  -1.419  0.00  0.00     0.028 H 
ATOM     40  H   LIG d   1       3.130  -2.775  -2.859  0.00  0.00     0.028 H 
ENDBRANCH  14  37
TORSDOF 6
ENDMDL
MODEL 6
REMARK VINA RESULT:      -4.8      2.334      3.839
REMARK  6 active torsions:
REMARK  status: ('A' for Active; 'I' for Inactive)
REMARK    1  A    between atoms: C_1  and  C_2 
REMARK    2  A    between atoms: C_2  and  C_20 
REMARK    3  A    between atoms: C_8  and  C_19 
REMARK    4  A    between atoms: C_15  and  C_17 
REMARK    5  A    between atoms: C_15  and  C_18 
REMARK    6  A    between atoms: C_19  and  N_39 
ROOT
ATOM      1  C   LIG d   1       8.741   1.890  -4.611  0.00  0.00     0.166 C 
ATOM      2  O   LIG d   1       9.137   0.485  -4.562  0.00  0.00    -0.341 OA
ATOM      3  C   LIG d   1       7.913  -0.167  -4.892  0.00  0.00     0.114 C 
ATOM      4  H   LIG d   1       7.706   0.043  -5.941  0.00  0.00     0.065 H 
ATOM      5  C   LIG d   1       7.663  -1.621  -4.593  0.00  0.00     0.080 C 
ATOM      6  O   LIG d   1       6.373  -1.936  -5.183  0.00  0.00    -0.340 OA
ATOM      7  C   LIG d   1       5.394  -0.946  -5.045  0.00  0.00     0.243 C 
ATOM      8  C   LIG d   1       5.659   0.037  -3.880  0.00  0.00     0.149 C 
ATOM      9  H   LIG d   1       5.620  -0.539  -2.929  0.00  0.00     0.068 H 
ATOM     10  C   LIG d   1       6.979   0.671  -3.962  0.00  0.00     0.122 C 
ATOM     11  H   LIG d   1       7.428   0.614  -2.944  0.00  0.00     0.065 H 
ATOM     12  O   LIG d   1       7.293   1.962  -4.447  0.00  0.00    -0.341 OA
ATOM     13  O   LIG d   1       4.454   0.811  -3.945  0.00  0.00    -0.338 OA
ATOM     14  C   LIG d   1       3.446  -0.227  -4.075  0.00  0.00     0.169 C 
ATOM     15  O   LIG d   1       4.056  -1.364  -4.731  0.00  0.00    -0.311 OA
ATOM     16  H   LIG d   1       8.441  -2.242  -5.039  0.00  0.00     0.059 H 
ATOM     17  H   LIG d   1       7.635  -1.790  -3.515  0.00  0.00     0.059 H 
ENDROOT
BRANCH   1  18
ATOM     18  C   LIG d   1       9.136   2.494  -5.956  0.00  0.00    -0.011 C 
ATOM     19  H   LIG d   1       9.699   3.413  -5.791  0.00  0.00     0.028 H 
ATOM     20  H   LIG d   1       9.755   1.783  -6.506  0.00  0.00     0.028 H 
ATOM     21  H   LIG d   1       8.238   2.716  -6.533  0.00  0.00     0.028 H 
ENDBRANCH   1  18
BRANCH   1  22
ATOM     22  C   LIG d   1       9.422   2.654  -3.475  0.00  0.00    -0.011 C 
ATOM     23  H   LIG d   1      10.441   2.907  -3.767  0.00  0.00     0.028 H 
ATOM     24  H   LIG d   1       8.865   3.567  -3.268  0.00  0.00     0.028 H 
ATOM     25  H   LIG d   1       9.445   2.030  -2.581  0.00  0.00     0.028 H 
ENDBRANCH   1  22
BRANCH   7  26
ATOM     26  C   LIG d   1       5.272  -0.167  -6.358  0.00  0.00     0.023 C 
ATOM     27  H   LIG d   1       4.526   0.619  -6.246  0.00  0.00     0.087 H 
ATOM     28  H   LIG d   1       6.236   0.280  -6.605  0.00  0.00     0.087 H 
BRANCH  26  29
ATOM     29  N   LIG d   1       4.885  -1.096  -7.434  0.00  0.00     0.222 N 
ATOM     30  H   LIG d   1       5.675  -1.261  -8.054  0.00  0.00     0.200 HD
ATOM     31  H   LIG d   1       4.573  -1.980  -7.037  0.00  0.00     0.200 HD
ATOM     32  H   LIG d   1       4.115  -0.682  -7.975  0.00  0.00     0.200 HD
ENDBRANCH  26  29
ENDBRANCH   7  26
BRANCH  14  33
ATOM     33  C   LIG d   1       2.946  -0.638  -2.687  0.00  0.00    -0.011 C 
ATOM     34  H   LIG d   1       3.474  -0.064  -1.926  0.00  0.00     0.028 H 
ATOM     35  H   LIG d   1       1.876  -0.441  -2.613  0.00  0.00     0.028 H 
ATOM     36  H   LIG d   1       3.131  -1.701  -2.534  0.00  0.00     0.028 H 
ENDBRANCH  14  33
BRANCH  14  37
ATOM     37  C   LIG d   1       2.265   0.290  -4.900  0.00  0.00    -0.011 C 
ATOM     38  H   LIG d   1       1.957   1.265  -4.520  0.00  0.00     0.028 H 
ATOM     39  H   LIG d   1       2.564   0.385  -5.944  0.00  0.00     0.028 H 
ATOM     40  H   LIG d   1       1.433  -0.409  -4.822  0.00  0.00     0.028 H 
ENDBRANCH  14  37
TORSDOF 6
ENDMDL
MODEL 7
REMARK VINA RESULT:      -4.7      2.954      5.105
REMARK  6 active torsions:
REMARK  status: ('A' for Active; 'I' for Inactive)
REMARK    1  A    between atoms: C_1  and  C_2 
REMARK    2  A    between atoms: C_2  and  C_20 
REMARK    3  A    between atoms: C_8  and  C_19 
REMARK    4  A    between atoms: C_15  and  C_17 
REMARK    5  A    between atoms: C_15  and  C_18 
REMARK    6  A    between atoms: C_19  and  N_39 
ROOT
ATOM      1  C   LIG d   1       3.817   0.591  -9.312  0.00  0.00     0.166 C 
ATOM      2  O   LIG d   1       3.773  -0.869  -9.304  0.00  0.00    -0.341 OA
ATOM      3  C   LIG d   1       3.998  -1.153  -7.926  0.00  0.00     0.114 C 
ATOM      4  H   LIG d   1       3.113  -0.830  -7.379  0.00  0.00     0.065 H 
ATOM      5  C   LIG d   1       4.446  -2.506  -7.439  0.00  0.00     0.080 C 
ATOM      6  O   LIG d   1       4.444  -2.432  -5.989  0.00  0.00    -0.340 OA
ATOM      7  C   LIG d   1       4.915  -1.230  -5.450  0.00  0.00     0.243 C 
ATOM      8  C   LIG d   1       5.823  -0.428  -6.411  0.00  0.00     0.149 C 
ATOM      9  H   LIG d   1       6.736  -1.032  -6.606  0.00  0.00     0.068 H 
ATOM     10  C   LIG d   1       5.183  -0.159  -7.703  0.00  0.00     0.122 C 
ATOM     11  H   LIG d   1       5.934  -0.397  -8.491  0.00  0.00     0.065 H 
ATOM     12  O   LIG d   1       4.548   1.031  -8.128  0.00  0.00    -0.341 OA
ATOM     13  O   LIG d   1       6.210   0.639  -5.536  0.00  0.00    -0.338 OA
ATOM     14  C   LIG d   1       6.551  -0.086  -4.323  0.00  0.00     0.169 C 
ATOM     15  O   LIG d   1       5.763  -1.300  -4.292  0.00  0.00    -0.311 OA
ATOM     16  H   LIG d   1       3.755  -3.281  -7.777  0.00  0.00     0.059 H 
ATOM     17  H   LIG d   1       5.451  -2.730  -7.803  0.00  0.00     0.059 H 
ENDROOT
BRANCH   1  18
ATOM     18  C   LIG d   1       2.398   1.154  -9.278  0.00  0.00    -0.011 C 
ATOM     19  H   LIG d   1       2.271   1.867 -10.092  0.00  0.00     0.028 H 
ATOM     20  H   LIG d   1       1.682   0.339  -9.393  0.00  0.00     0.028 H 
ATOM     21  H   LIG d   1       2.228   1.655  -8.325  0.00  0.00     0.028 H 
ENDBRANCH   1  18
BRANCH   1  22
ATOM     22  C   LIG d   1       4.542   1.075 -10.568  0.00  0.00    -0.011 C 
ATOM     23  H   LIG d   1       4.541   2.164 -10.591  0.00  0.00     0.028 H 
ATOM     24  H   LIG d   1       5.570   0.711 -10.556  0.00  0.00     0.028 H 
ATOM     25  H   LIG d   1       4.031   0.692 -11.451  0.00  0.00     0.028 H 
ENDBRANCH   1  22
BRANCH   7  26
ATOM     26  C   LIG d   1       3.725  -0.365  -5.023  0.00  0.00     0.023 C 
ATOM     27  H   LIG d   1       4.088   0.585  -4.633  0.00  0.00     0.087 H 
ATOM     28  H   LIG d   1       3.082  -0.182  -5.884  0.00  0.00     0.087 H 
BRANCH  26  29
ATOM     29  N   LIG d   1       2.954  -1.083  -3.993  0.00  0.00     0.222 N 
ATOM     30  H   LIG d   1       2.698  -2.009  -4.329  0.00  0.00     0.200 HD
ATOM     31  H   LIG d   1       3.505  -1.172  -3.142  0.00  0.00     0.200 HD
ATOM     32  H   LIG d   1       2.098  -0.555  -3.784  0.00  0.00     0.200 HD
ENDBRANCH  26  29
ENDBRANCH   7  26
BRANCH  14  33
ATOM     33  C   LIG d   1       8.041  -0.438  -4.334  0.00  0.00    -0.011 C 
ATOM     34  H   LIG d   1       8.283  -1.024  -3.447  0.00  0.00     0.028 H 
ATOM     35  H   LIG d   1       8.271  -1.020  -5.226  0.00  0.00     0.028 H 
ATOM     36  H   LIG d   1       8.631   0.478  -4.335  0.00  0.00     0.028 H 
ENDBRANCH  14  33
BRANCH  14  37
ATOM     37  C   LIG d   1       6.248   0.775  -3.096  0.00  0.00    -0.011 C 
ATOM     38  H   LIG d   1       5.606   1.608  -3.386  0.00  0.00     0.028 H 
ATOM     39  H   LIG d   1       5.741   0.170  -2.343  0.00  0.00     0.028 H 
ATOM     40  H   LIG d   1       7.180   1.162  -2.684  0.00  0.00     0.028 H 
ENDBRANCH  14  37
TORSDOF 6
ENDMDL
MODEL 8
REMARK VINA RESULT:      -4.6      2.184      5.260
REMARK  6 active torsions:
REMARK  status: ('A' for Active; 'I' for Inactive)
REMARK    1  A    between atoms: C_1  and  C_2 
REMARK    2  A    between atoms: C_2  and  C_20 
REMARK    3  A    between atoms: C_8  and  C_19 
REMARK    4  A    between atoms: C_15  and  C_17 
REMARK    5  A    between atoms: C_15  and  C_18 
REMARK    6  A    between atoms: C_19  and  N_39 
ROOT
ATOM      1  C   LIG d   1       4.042   0.110  -3.387  0.00  0.00     0.166 C 
ATOM      2  O   LIG d   1       3.771   0.413  -4.791  0.00  0.00    -0.341 OA
ATOM      3  C   LIG d   1       4.277  -0.754  -5.435  0.00  0.00     0.114 C 
ATOM      4  H   LIG d   1       3.614  -1.580  -5.180  0.00  0.00     0.065 H 
ATOM      5  C   LIG d   1       4.611  -0.789  -6.903  0.00  0.00     0.080 C 
ATOM      6  O   LIG d   1       4.973  -2.164  -7.200  0.00  0.00    -0.340 OA
ATOM      7  C   LIG d   1       5.745  -2.804  -6.224  0.00  0.00     0.243 C 
ATOM      8  C   LIG d   1       6.506  -1.831  -5.293  0.00  0.00     0.149 C 
ATOM      9  H   LIG d   1       7.238  -1.266  -5.910  0.00  0.00     0.068 H 
ATOM     10  C   LIG d   1       5.622  -0.856  -4.646  0.00  0.00     0.122 C 
ATOM     11  H   LIG d   1       6.112   0.140  -4.746  0.00  0.00     0.065 H 
ATOM     12  O   LIG d   1       5.099  -0.895  -3.333  0.00  0.00    -0.341 OA
ATOM     13  O   LIG d   1       7.258  -2.780  -4.524  0.00  0.00    -0.338 OA
ATOM     14  C   LIG d   1       7.764  -3.662  -5.562  0.00  0.00     0.169 C 
ATOM     15  O   LIG d   1       6.827  -3.640  -6.665  0.00  0.00    -0.311 OA
ATOM     16  H   LIG d   1       3.746  -0.491  -7.498  0.00  0.00     0.059 H 
ATOM     17  H   LIG d   1       5.449  -0.123  -7.120  0.00  0.00     0.059 H 
ENDROOT
BRANCH   1  18
ATOM     18  C   LIG d   1       2.781  -0.434  -2.721  0.00  0.00    -0.011 C 
ATOM     19  H   LIG d   1       3.050  -0.950  -1.800  0.00  0.00     0.028 H 
ATOM     20  H   LIG d   1       2.107   0.392  -2.490  0.00  0.00     0.028 H 
ATOM     21  H   LIG d   1       2.284  -1.131  -3.396  0.00  0.00     0.028 H 
ENDBRANCH   1  18
BRANCH   1  22
ATOM     22  C   LIG d   1       4.506   1.378  -2.671  0.00  0.00    -0.011 C 
ATOM     23  H   LIG d   1       4.808   1.131  -1.653  0.00  0.00     0.028 H 
ATOM     24  H   LIG d   1       5.353   1.808  -3.207  0.00  0.00     0.028 H 
ATOM     25  H   LIG d   1       3.689   2.099  -2.643  0.00  0.00     0.028 H 
ENDBRANCH   1  22
BRANCH   7  26
ATOM     26  C   LIG d   1       4.846  -3.720  -5.388  0.00  0.00     0.023 C 
ATOM     27  H   LIG d   1       5.450  -4.502  -4.930  0.00  0.00     0.087 H 
ATOM     28  H   LIG d   1       4.357  -3.135  -4.609  0.00  0.00     0.087 H 
BRANCH  26  29
ATOM     29  N   LIG d   1       3.817  -4.311  -6.261  0.00  0.00     0.222 N 
ATOM     30  H   LIG d   1       3.260  -4.984  -5.738  0.00  0.00     0.200 HD
ATOM     31  H   LIG d   1       3.209  -3.581  -6.629  0.00  0.00     0.200 HD
ATOM     32  H   LIG d   1       4.275  -4.791  -7.044  0.00  0.00     0.200 HD
ENDBRANCH  26  29
ENDBRANCH   7  26
BRANCH  14  33
ATOM     33  C   LIG d   1       9.133  -3.166  -6.039  0.00  0.00    -0.011 C 
ATOM     34  H   LIG d   1       9.401  -3.674  -6.965  0.00  0.00     0.028 H 
ATOM     35  H   LIG d   1       9.090  -2.091  -6.214  0.00  0.00     0.028 H 
ATOM     36  H   LIG d   1       9.882  -3.381  -5.277  0.00  0.00     0.028 H 
ENDBRANCH  14  33
BRANCH  14  37
ATOM     37  C   LIG d   1       7.909  -5.084  -5.017  0.00  0.00    -0.011 C 
ATOM     38  H   LIG d   1       7.494  -5.129  -4.009  0.00  0.00     0.028 H 
ATOM     39  H   LIG d   1       7.371  -5.778  -5.663  0.00  0.00     0.028 H 
ATOM     40  H   LIG d   1       8.964  -5.357  -4.988  0.00  0.00     0.028 H 
ENDBRANCH  14  37
TORSDOF 6
ENDMDL
MODEL 9
REMARK VINA RESULT:      -4.5      2.863      5.289
REMARK  6 active torsions:
REMARK  status: ('A' for Active; 'I' for Inactive)
REMARK    1  A    between atoms: C_1  and  C_2 
REMARK    2  A    between atoms: C_2  and  C_20 
REMARK    3  A    between atoms: C_8  and  C_19 
REMARK    4  A    between atoms: C_15  and  C_17 
REMARK    5  A    between atoms: C_15  and  C_18 
REMARK    6  A    between atoms: C_19  and  N_39 
ROOT
ATOM      1  C   LIG d   1       4.230  -0.699  -2.963  0.00  0.00     0.166 C 
ATOM      2  O   LIG d   1       3.198  -0.068  -3.781  0.00  0.00    -0.341 OA
ATOM      3  C   LIG d   1       3.532  -0.549  -5.081  0.00  0.00     0.114 C 
ATOM      4  H   LIG d   1       3.310  -1.615  -5.100  0.00  0.00     0.065 H 
ATOM      5  C   LIG d   1       3.037   0.109  -6.341  0.00  0.00     0.080 C 
ATOM      6  O   LIG d   1       3.484  -0.733  -7.437  0.00  0.00    -0.340 OA
ATOM      7  C   LIG d   1       4.776  -1.254  -7.302  0.00  0.00     0.243 C 
ATOM      8  C   LIG d   1       5.674  -0.455  -6.328  0.00  0.00     0.149 C 
ATOM      9  H   LIG d   1       5.818   0.564  -6.752  0.00  0.00     0.068 H 
ATOM     10  C   LIG d   1       5.073  -0.303  -4.999  0.00  0.00     0.122 C 
ATOM     11  H   LIG d   1       5.198   0.766  -4.708  0.00  0.00     0.065 H 
ATOM     12  O   LIG d   1       5.349  -1.051  -3.831  0.00  0.00    -0.341 OA
ATOM     13  O   LIG d   1       6.908  -1.160  -6.513  0.00  0.00    -0.338 OA
ATOM     14  C   LIG d   1       6.971  -1.266  -7.961  0.00  0.00     0.169 C 
ATOM     15  O   LIG d   1       5.615  -1.277  -8.468  0.00  0.00    -0.311 OA
ATOM     16  H   LIG d   1       1.947   0.170  -6.336  0.00  0.00     0.059 H 
ATOM     17  H   LIG d   1       3.458   1.112  -6.440  0.00  0.00     0.059 H 
ENDROOT
BRANCH   1  18
ATOM     18  C   LIG d   1       3.673  -1.961  -2.307  0.00  0.00    -0.011 C 
ATOM     19  H   LIG d   1       2.596  -2.009  -2.468  0.00  0.00     0.028 H 
ATOM     20  H   LIG d   1       4.146  -2.839  -2.749  0.00  0.00     0.028 H 
ATOM     21  H   LIG d   1       3.880  -1.936  -1.237  0.00  0.00     0.028 H 
ENDBRANCH   1  18
BRANCH   1  22
ATOM     22  C   LIG d   1       4.704   0.282  -1.891  0.00  0.00    -0.011 C 
ATOM     23  H   LIG d   1       4.858  -0.251  -0.952  0.00  0.00     0.028 H 
ATOM     24  H   LIG d   1       5.642   0.739  -2.208  0.00  0.00     0.028 H 
ATOM     25  H   LIG d   1       3.951   1.056  -1.749  0.00  0.00     0.028 H 
ENDBRANCH   1  22
BRANCH   7  26
ATOM     26  C   LIG d   1       4.689  -2.712  -6.843  0.00  0.00     0.023 C 
ATOM     27  H   LIG d   1       5.650  -3.201  -7.000  0.00  0.00     0.087 H 
ATOM     28  H   LIG d   1       4.434  -2.744  -5.783  0.00  0.00     0.087 H 
BRANCH  26  29
ATOM     29  N   LIG d   1       3.633  -3.396  -7.610  0.00  0.00     0.222 N 
ATOM     30  H   LIG d   1       3.822  -3.322  -8.608  0.00  0.00     0.200 HD
ATOM     31  H   LIG d   1       3.589  -4.379  -7.345  0.00  0.00     0.200 HD
ATOM     32  H   LIG d   1       2.729  -2.954  -7.407  0.00  0.00     0.200 HD
ENDBRANCH  26  29
ENDBRANCH   7  26
BRANCH  14  33
ATOM     33  C   LIG d   1       7.727  -0.065  -8.535  0.00  0.00    -0.011 C 
ATOM     34  H   LIG d   1       7.098   0.823  -8.477  0.00  0.00     0.028 H 
ATOM     35  H   LIG d   1       8.639   0.099  -7.960  0.00  0.00     0.028 H 
ATOM     36  H   LIG d   1       7.984  -0.260  -9.576  0.00  0.00     0.028 H 
ENDBRANCH  14  33
BRANCH  14  37
ATOM     37  C   LIG d   1       7.697  -2.552  -8.360  0.00  0.00    -0.011 C 
ATOM     38  H   LIG d   1       8.689  -2.306  -8.742  0.00  0.00     0.028 H 
ATOM     39  H   LIG d   1       7.794  -3.201  -7.489  0.00  0.00     0.028 H 
ATOM     40  H   LIG d   1       7.127  -3.066  -9.134  0.00  0.00     0.028 H 
ENDBRANCH  14  37
TORSDOF 6
ENDMDL
MODEL 10
REMARK VINA RESULT:      -4.5      2.245      2.883
REMARK  6 active torsions:
REMARK  status: ('A' for Active; 'I' for Inactive)
REMARK    1  A    between atoms: C_1  and  C_2 
REMARK    2  A    between atoms: C_2  and  C_20 
REMARK    3  A    between atoms: C_8  and  C_19 
REMARK    4  A    between atoms: C_15  and  C_17 
REMARK    5  A    between atoms: C_15  and  C_18 
REMARK    6  A    between atoms: C_19  and  N_39 
ROOT
ATOM      1  C   LIG d   1       4.824  -3.287  -7.688  0.00  0.00     0.166 C 
ATOM      2  O   LIG d   1       5.542  -2.169  -8.294  0.00  0.00    -0.341 OA
ATOM      3  C   LIG d   1       5.896  -1.402  -7.146  0.00  0.00     0.114 C 
ATOM      4  H   LIG d   1       6.647  -1.968  -6.596  0.00  0.00     0.065 H 
ATOM      5  C   LIG d   1       6.295   0.047  -7.230  0.00  0.00     0.080 C 
ATOM      6  O   LIG d   1       6.694   0.433  -5.887  0.00  0.00    -0.340 OA
ATOM      7  C   LIG d   1       5.903  -0.085  -4.856  0.00  0.00     0.243 C 
ATOM      8  C   LIG d   1       4.486  -0.512  -5.309  0.00  0.00     0.149 C 
ATOM      9  H   LIG d   1       3.947   0.397  -5.655  0.00  0.00     0.068 H 
ATOM     10  C   LIG d   1       4.512  -1.466  -6.423  0.00  0.00     0.122 C 
ATOM     11  H   LIG d   1       3.761  -1.113  -7.168  0.00  0.00     0.065 H 
ATOM     12  O   LIG d   1       4.362  -2.871  -6.368  0.00  0.00    -0.341 OA
ATOM     13  O   LIG d   1       3.928  -0.867  -4.037  0.00  0.00    -0.338 OA
ATOM     14  C   LIG d   1       4.341   0.257  -3.213  0.00  0.00     0.169 C 
ATOM     15  O   LIG d   1       5.572   0.786  -3.762  0.00  0.00    -0.311 OA
ATOM     16  H   LIG d   1       7.131   0.173  -7.921  0.00  0.00     0.059 H 
ATOM     17  H   LIG d   1       5.452   0.657  -7.562  0.00  0.00     0.059 H 
ENDROOT
BRANCH   1  18
ATOM     18  C   LIG d   1       5.757  -4.489  -7.550  0.00  0.00    -0.011 C 
ATOM     19  H   LIG d   1       5.427  -5.283  -8.218  0.00  0.00     0.028 H 
ATOM     20  H   LIG d   1       6.773  -4.191  -7.813  0.00  0.00     0.028 H 
ATOM     21  H   LIG d   1       5.739  -4.847  -6.521  0.00  0.00     0.028 H 
ENDBRANCH   1  18
BRANCH   1  22
ATOM     22  C   LIG d   1       3.622  -3.656  -8.557  0.00  0.00    -0.011 C 
ATOM     23  H   LIG d   1       3.754  -3.239  -9.555  0.00  0.00     0.028 H 
ATOM     24  H   LIG d   1       3.542  -4.741  -8.623  0.00  0.00     0.028 H 
ATOM     25  H   LIG d   1       2.714  -3.250  -8.111  0.00  0.00     0.028 H 
ENDBRANCH   1  22
BRANCH   7  26
ATOM     26  C   LIG d   1       6.620  -1.277  -4.216  0.00  0.00     0.023 C 
ATOM     27  H   LIG d   1       6.064  -1.609  -3.340  0.00  0.00     0.087 H 
ATOM     28  H   LIG d   1       6.683  -2.092  -4.937  0.00  0.00     0.087 H 
BRANCH  26  29
ATOM     29  N   LIG d   1       7.984  -0.869  -3.835  0.00  0.00     0.222 N 
ATOM     30  H   LIG d   1       8.121   0.120  -4.033  0.00  0.00     0.200 HD
ATOM     31  H   LIG d   1       8.135  -1.041  -2.843  0.00  0.00     0.200 HD
ATOM     32  H   LIG d   1       8.663  -1.417  -4.377  0.00  0.00     0.200 HD
ENDBRANCH  26  29
ENDBRANCH   7  26
BRANCH  14  33
ATOM     33  C   LIG d   1       3.258   1.339  -3.235  0.00  0.00    -0.011 C 
ATOM     34  H   LIG d   1       3.360   1.936  -4.141  0.00  0.00     0.028 H 
ATOM     35  H   LIG d   1       2.275   0.870  -3.218  0.00  0.00     0.028 H 
ATOM     36  H   LIG d   1       3.370   1.982  -2.362  0.00  0.00     0.028 H 
ENDBRANCH  14  33
BRANCH  14  37
ATOM     37  C   LIG d   1       4.559  -0.205  -1.771  0.00  0.00    -0.011 C 
ATOM     38  H   LIG d   1       4.322   0.613  -1.089  0.00  0.00     0.028 H 
ATOM     39  H   LIG d   1       3.911  -1.055  -1.559  0.00  0.00     0.028 H 
ATOM     40  H   LIG d   1       5.600  -0.499  -1.636  0.00  0.00     0.028 H 
ENDBRANCH  14  37
TORSDOF 6
ENDMDL
