MODEL 1
REMARK VINA RESULT:      -6.8      0.000      0.000
REMARK  6 active torsions:
REMARK  status: ('A' for Active; 'I' for Inactive)
REMARK    1  A    between atoms: C_1  and  C_2 
REMARK    2  A    between atoms: C_2  and  C_3 
REMARK    3  A    between atoms: C_2  and  C_4 
REMARK    4  A    between atoms: C_2  and  O_5 
REMARK    5  A    between atoms: O_5  and  C_6 
REMARK       I    between atoms: C_6  and  N_8 
REMARK    6  A    between atoms: N_8  and  N_9 
ROOT
ATOM      1  N   LIG d   1       5.982  -1.886  -5.232  0.00  0.00    -0.207 N 
ATOM      2  C   LIG d   1       5.299  -3.004  -4.601  0.00  0.00     0.111 A 
ATOM      3  C   LIG d   1       4.649  -3.901  -5.603  0.00  0.00     0.236 A 
ATOM      4  O   LIG d   1       4.067  -4.881  -5.190  0.00  0.00    -0.274 OA
ATOM      5  N   LIG d   1       4.666  -3.697  -6.922  0.00  0.00    -0.282 N 
ATOM      6  C   LIG d   1       4.058  -4.710  -7.811  0.00  0.00     0.056 C 
ATOM      7  C   LIG d   1       3.225  -3.970  -8.833  0.00  0.00     0.038 A 
ATOM      8  C   LIG d   1       3.282  -2.634  -9.017  0.00  0.00    -0.015 A 
ATOM      9  C   LIG d   1       2.348  -2.310 -10.076  0.00  0.00     0.003 A 
ATOM     10  C   LIG d   1       1.988  -1.106 -10.687  0.00  0.00    -0.052 A 
ATOM     11  C   LIG d   1       1.042  -1.172 -11.681  0.00  0.00    -0.061 A 
ATOM     12  C   LIG d   1       0.465  -2.370 -12.067  0.00  0.00    -0.060 A 
ATOM     13  C   LIG d   1       0.803  -3.577 -11.481  0.00  0.00    -0.038 A 
ATOM     14  C   LIG d   1       1.761  -3.540 -10.469  0.00  0.00     0.047 A 
ATOM     15  N   LIG d   1       2.314  -4.520  -9.697  0.00  0.00    -0.356 N 
ATOM     16  H   LIG d   1       2.097  -5.465  -9.752  0.00  0.00     0.166 HD
ATOM     17  C   LIG d   1       4.168  -1.697  -8.235  0.00  0.00     0.002 C 
ATOM     18  C   LIG d   1       5.266  -2.516  -7.540  0.00  0.00     0.108 A 
ATOM     19  H   LIG d   1       5.989  -2.840  -8.289  0.00  0.00     0.060 H 
ATOM     20  C   LIG d   1       5.973  -1.656  -6.543  0.00  0.00     0.253 A 
ATOM     21  O   LIG d   1       6.578  -0.690  -6.954  0.00  0.00    -0.272 OA
ATOM     22  H   LIG d   1       6.022  -3.581  -4.025  0.00  0.00     0.058 H 
ATOM     23  H   LIG d   1       4.537  -2.617  -3.925  0.00  0.00     0.058 H 
ATOM     24  H   LIG d   1       4.840  -5.279  -8.314  0.00  0.00     0.053 H 
ATOM     25  H   LIG d   1       3.424  -5.380  -7.232  0.00  0.00     0.053 H 
ATOM     26  H   LIG d   1       2.433  -0.167 -10.392  0.00  0.00     0.062 H 
ATOM     27  H   LIG d   1       0.739  -0.261 -12.176  0.00  0.00     0.062 H 
ATOM     28  H   LIG d   1      -0.276  -2.362 -12.854  0.00  0.00     0.062 H 
ATOM     29  H   LIG d   1       0.344  -4.504 -11.791  0.00  0.00     0.064 H 
ATOM     30  H   LIG d   1       4.623  -0.975  -8.911  0.00  0.00     0.034 H 
ATOM     31  H   LIG d   1       3.574  -1.175  -7.485  0.00  0.00     0.034 H 
ENDROOT
BRANCH   1  32
ATOM     32  N   LIG d   1       6.688  -0.996  -4.411  0.00  0.00    -0.197 N 
ATOM     33  C   LIG d   1       6.053   0.055  -3.856  0.00  0.00     0.417 C 
ATOM     34  O   LIG d   1       6.665   0.827  -3.143  0.00  0.00    -0.225 OA
ATOM     35  H   LIG d   1       7.632  -1.137  -4.242  0.00  0.00     0.176 HD
BRANCH  33  36
ATOM     36  O   LIG d   1       4.742   0.250  -4.089  0.00  0.00    -0.444 OA
BRANCH  36  37
ATOM     37  C   LIG d   1       3.854   0.087  -2.981  0.00  0.00     0.107 C 
BRANCH  37  38
ATOM     38  C   LIG d   1       3.527   1.458  -2.384  0.00  0.00    -0.025 C 
ATOM     39  H   LIG d   1       4.092   1.596  -1.462  0.00  0.00     0.027 H 
ATOM     40  H   LIG d   1       3.795   2.238  -3.096  0.00  0.00     0.027 H 
ATOM     41  H   LIG d   1       2.460   1.514  -2.168  0.00  0.00     0.027 H 
ENDBRANCH  37  38
BRANCH  37  42
ATOM     42  C   LIG d   1       4.520  -0.788  -1.917  0.00  0.00    -0.025 C 
ATOM     43  H   LIG d   1       5.573  -0.519  -1.834  0.00  0.00     0.027 H 
ATOM     44  H   LIG d   1       4.028  -0.631  -0.957  0.00  0.00     0.027 H 
ATOM     45  H   LIG d   1       4.434  -1.836  -2.203  0.00  0.00     0.027 H 
ENDBRANCH  37  42
BRANCH  37  46
ATOM     46  C   LIG d   1       2.563  -0.583  -3.456  0.00  0.00    -0.025 C 
ATOM     47  H   LIG d   1       2.644  -1.662  -3.322  0.00  0.00     0.027 H 
ATOM     48  H   LIG d   1       1.722  -0.207  -2.875  0.00  0.00     0.027 H 
ATOM     49  H   LIG d   1       2.404  -0.360  -4.512  0.00  0.00     0.027 H 
ENDBRANCH  37  46
ENDBRANCH  36  37
ENDBRANCH  33  36
ENDBRANCH   1  32
TORSDOF 6
ENDMDL
MODEL 2
REMARK VINA RESULT:      -6.2      6.134      8.300
REMARK  6 active torsions:
REMARK  status: ('A' for Active; 'I' for Inactive)
REMARK    1  A    between atoms: C_1  and  C_2 
REMARK    2  A    between atoms: C_2  and  C_3 
REMARK    3  A    between atoms: C_2  and  C_4 
REMARK    4  A    between atoms: C_2  and  O_5 
REMARK    5  A    between atoms: O_5  and  C_6 
REMARK       I    between atoms: C_6  and  N_8 
REMARK    6  A    between atoms: N_8  and  N_9 
ROOT
ATOM      1  N   LIG d   1      11.144   3.244  -5.753  0.00  0.00    -0.207 N 
ATOM      2  C   LIG d   1      11.965   2.098  -5.400  0.00  0.00     0.111 A 
ATOM      3  C   LIG d   1      11.158   0.848  -5.271  0.00  0.00     0.236 A 
ATOM      4  O   LIG d   1      11.745  -0.179  -5.000  0.00  0.00    -0.274 OA
ATOM      5  N   LIG d   1       9.835   0.784  -5.433  0.00  0.00    -0.282 N 
ATOM      6  C   LIG d   1       9.168  -0.534  -5.364  0.00  0.00     0.056 C 
ATOM      7  C   LIG d   1       7.932  -0.370  -4.507  0.00  0.00     0.038 A 
ATOM      8  C   LIG d   1       7.438   0.830  -4.133  0.00  0.00    -0.015 A 
ATOM      9  C   LIG d   1       6.259   0.573  -3.331  0.00  0.00     0.003 A 
ATOM     10  C   LIG d   1       5.349   1.415  -2.687  0.00  0.00    -0.052 A 
ATOM     11  C   LIG d   1       4.325   0.811  -1.998  0.00  0.00    -0.061 A 
ATOM     12  C   LIG d   1       4.192  -0.566  -1.937  0.00  0.00    -0.060 A 
ATOM     13  C   LIG d   1       5.077  -1.423  -2.567  0.00  0.00    -0.038 A 
ATOM     14  C   LIG d   1       6.126  -0.839  -3.274  0.00  0.00     0.047 A 
ATOM     15  N   LIG d   1       7.154  -1.374  -3.996  0.00  0.00    -0.356 N 
ATOM     16  H   LIG d   1       7.309  -2.323  -4.127  0.00  0.00     0.166 HD
ATOM     17  C   LIG d   1       8.044   2.161  -4.503  0.00  0.00     0.002 C 
ATOM     18  C   LIG d   1       9.003   1.959  -5.685  0.00  0.00     0.108 A 
ATOM     19  H   LIG d   1       8.416   1.788  -6.588  0.00  0.00     0.060 H 
ATOM     20  C   LIG d   1       9.819   3.195  -5.881  0.00  0.00     0.253 A 
ATOM     21  O   LIG d   1       9.240   4.217  -6.177  0.00  0.00    -0.272 OA
ATOM     22  H   LIG d   1      12.721   1.953  -6.172  0.00  0.00     0.058 H 
ATOM     23  H   LIG d   1      12.463   2.297  -4.452  0.00  0.00     0.058 H 
ATOM     24  H   LIG d   1       8.883  -0.858  -6.365  0.00  0.00     0.053 H 
ATOM     25  H   LIG d   1       9.836  -1.266  -4.912  0.00  0.00     0.053 H 
ATOM     26  H   LIG d   1       5.446   2.490  -2.729  0.00  0.00     0.062 H 
ATOM     27  H   LIG d   1       3.603   1.430  -1.487  0.00  0.00     0.062 H 
ATOM     28  H   LIG d   1       3.368  -0.985  -1.379  0.00  0.00     0.062 H 
ATOM     29  H   LIG d   1       4.961  -2.496  -2.511  0.00  0.00     0.064 H 
ATOM     30  H   LIG d   1       7.254   2.855  -4.788  0.00  0.00     0.034 H 
ATOM     31  H   LIG d   1       8.594   2.560  -3.652  0.00  0.00     0.034 H 
ENDROOT
BRANCH   1  32
ATOM     32  N   LIG d   1      11.782   4.473  -5.966  0.00  0.00    -0.197 N 
ATOM     33  C   LIG d   1      12.306   5.149  -4.924  0.00  0.00     0.417 C 
ATOM     34  O   LIG d   1      12.860   6.215  -5.109  0.00  0.00    -0.225 OA
ATOM     35  H   LIG d   1      11.847   4.837  -6.863  0.00  0.00     0.176 HD
BRANCH  33  36
ATOM     36  O   LIG d   1      12.216   4.643  -3.680  0.00  0.00    -0.444 OA
BRANCH  36  37
ATOM     37  C   LIG d   1      11.234   5.219  -2.815  0.00  0.00     0.107 C 
BRANCH  37  38
ATOM     38  C   LIG d   1      10.430   6.269  -3.585  0.00  0.00    -0.025 C 
ATOM     39  H   LIG d   1       9.459   6.405  -3.106  0.00  0.00     0.027 H 
ATOM     40  H   LIG d   1      10.972   7.214  -3.584  0.00  0.00     0.027 H 
ATOM     41  H   LIG d   1      10.284   5.933  -4.611  0.00  0.00     0.027 H 
ENDBRANCH  37  38
BRANCH  37  42
ATOM     42  C   LIG d   1      11.929   5.881  -1.623  0.00  0.00    -0.025 C 
ATOM     43  H   LIG d   1      11.220   5.986  -0.803  0.00  0.00     0.027 H 
ATOM     44  H   LIG d   1      12.768   5.263  -1.302  0.00  0.00     0.027 H 
ATOM     45  H   LIG d   1      12.295   6.865  -1.917  0.00  0.00     0.027 H 
ENDBRANCH  37  42
BRANCH  37  46
ATOM     46  C   LIG d   1      10.293   4.123  -2.312  0.00  0.00    -0.025 C 
ATOM     47  H   LIG d   1       9.502   3.959  -3.044  0.00  0.00     0.027 H 
ATOM     48  H   LIG d   1      10.853   3.199  -2.170  0.00  0.00     0.027 H 
ATOM     49  H   LIG d   1       9.851   4.430  -1.363  0.00  0.00     0.027 H 
ENDBRANCH  37  46
ENDBRANCH  36  37
ENDBRANCH  33  36
ENDBRANCH   1  32
TORSDOF 6
ENDMDL
MODEL 3
REMARK VINA RESULT:      -6.2      3.625      6.960
REMARK  6 active torsions:
REMARK  status: ('A' for Active; 'I' for Inactive)
REMARK    1  A    between atoms: C_1  and  C_2 
REMARK    2  A    between atoms: C_2  and  C_3 
REMARK    3  A    between atoms: C_2  and  C_4 
REMARK    4  A    between atoms: C_2  and  O_5 
REMARK    5  A    between atoms: O_5  and  C_6 
REMARK       I    between atoms: C_6  and  N_8 
REMARK    6  A    between atoms: N_8  and  N_9 
ROOT
ATOM      1  N   LIG d   1       4.765  -1.469  -6.114  0.00  0.00    -0.207 N 
ATOM      2  C   LIG d   1       5.655  -0.550  -6.803  0.00  0.00     0.111 A 
ATOM      3  C   LIG d   1       6.955  -1.191  -7.164  0.00  0.00     0.236 A 
ATOM      4  O   LIG d   1       7.769  -0.521  -7.763  0.00  0.00    -0.274 OA
ATOM      5  N   LIG d   1       7.282  -2.451  -6.870  0.00  0.00    -0.282 N 
ATOM      6  C   LIG d   1       8.567  -2.991  -7.362  0.00  0.00     0.056 C 
ATOM      7  C   LIG d   1       9.212  -3.735  -6.215  0.00  0.00     0.038 A 
ATOM      8  C   LIG d   1       8.567  -4.046  -5.070  0.00  0.00    -0.015 A 
ATOM      9  C   LIG d   1       9.511  -4.753  -4.228  0.00  0.00     0.003 A 
ATOM     10  C   LIG d   1       9.408  -5.312  -2.952  0.00  0.00    -0.052 A 
ATOM     11  C   LIG d   1      10.532  -5.920  -2.448  0.00  0.00    -0.061 A 
ATOM     12  C   LIG d   1      11.717  -5.982  -3.163  0.00  0.00    -0.060 A 
ATOM     13  C   LIG d   1      11.846  -5.438  -4.429  0.00  0.00    -0.038 A 
ATOM     14  C   LIG d   1      10.722  -4.815  -4.966  0.00  0.00     0.047 A 
ATOM     15  N   LIG d   1      10.504  -4.190  -6.159  0.00  0.00    -0.356 N 
ATOM     16  H   LIG d   1      11.163  -4.085  -6.864  0.00  0.00     0.166 HD
ATOM     17  C   LIG d   1       7.132  -3.692  -4.771  0.00  0.00     0.002 C 
ATOM     18  C   LIG d   1       6.424  -3.337  -6.086  0.00  0.00     0.108 A 
ATOM     19  H   LIG d   1       6.253  -4.254  -6.652  0.00  0.00     0.060 H 
ATOM     20  C   LIG d   1       5.098  -2.716  -5.786  0.00  0.00     0.253 A 
ATOM     21  O   LIG d   1       4.272  -3.391  -5.210  0.00  0.00    -0.272 OA
ATOM     22  H   LIG d   1       5.168  -0.201  -7.714  0.00  0.00     0.058 H 
ATOM     23  H   LIG d   1       5.850   0.306  -6.158  0.00  0.00     0.058 H 
ATOM     24  H   LIG d   1       8.389  -3.674  -8.192  0.00  0.00     0.053 H 
ATOM     25  H   LIG d   1       9.214  -2.176  -7.684  0.00  0.00     0.053 H 
ATOM     26  H   LIG d   1       8.488  -5.268  -2.388  0.00  0.00     0.062 H 
ATOM     27  H   LIG d   1      10.491  -6.363  -1.465  0.00  0.00     0.062 H 
ATOM     28  H   LIG d   1      12.570  -6.471  -2.716  0.00  0.00     0.062 H 
ATOM     29  H   LIG d   1      12.777  -5.493  -4.975  0.00  0.00     0.064 H 
ATOM     30  H   LIG d   1       6.635  -4.543  -4.307  0.00  0.00     0.034 H 
ATOM     31  H   LIG d   1       7.099  -2.836  -4.098  0.00  0.00     0.034 H 
ENDROOT
BRANCH   1  32
ATOM     32  N   LIG d   1       3.485  -1.015  -5.771  0.00  0.00    -0.197 N 
ATOM     33  C   LIG d   1       3.335  -0.098  -4.795  0.00  0.00     0.417 C 
ATOM     34  O   LIG d   1       2.224   0.296  -4.497  0.00  0.00    -0.225 OA
ATOM     35  H   LIG d   1       2.707  -1.362  -6.234  0.00  0.00     0.176 HD
BRANCH  33  36
ATOM     36  O   LIG d   1       4.415   0.384  -4.152  0.00  0.00    -0.444 OA
BRANCH  36  37
ATOM     37  C   LIG d   1       4.702  -0.166  -2.864  0.00  0.00     0.107 C 
BRANCH  37  38
ATOM     38  C   LIG d   1       6.135  -0.704  -2.847  0.00  0.00    -0.025 C 
ATOM     39  H   LIG d   1       6.654  -0.382  -3.750  0.00  0.00     0.027 H 
ATOM     40  H   LIG d   1       6.657  -0.319  -1.971  0.00  0.00     0.027 H 
ATOM     41  H   LIG d   1       6.114  -1.793  -2.809  0.00  0.00     0.027 H 
ENDBRANCH  37  38
BRANCH  37  42
ATOM     42  C   LIG d   1       3.726  -1.307  -2.567  0.00  0.00    -0.025 C 
ATOM     43  H   LIG d   1       3.119  -1.049  -1.700  0.00  0.00     0.027 H 
ATOM     44  H   LIG d   1       3.079  -1.465  -3.430  0.00  0.00     0.027 H 
ATOM     45  H   LIG d   1       4.285  -2.220  -2.361  0.00  0.00     0.027 H 
ENDBRANCH  37  42
BRANCH  37  46
ATOM     46  C   LIG d   1       4.553   0.922  -1.800  0.00  0.00    -0.025 C 
ATOM     47  H   LIG d   1       3.498   1.167  -1.677  0.00  0.00     0.027 H 
ATOM     48  H   LIG d   1       4.954   0.564  -0.853  0.00  0.00     0.027 H 
ATOM     49  H   LIG d   1       5.098   1.814  -2.112  0.00  0.00     0.027 H 
ENDBRANCH  37  46
ENDBRANCH  36  37
ENDBRANCH  33  36
ENDBRANCH   1  32
TORSDOF 6
ENDMDL
MODEL 4
REMARK VINA RESULT:      -6.1      2.753      7.393
REMARK  6 active torsions:
REMARK  status: ('A' for Active; 'I' for Inactive)
REMARK    1  A    between atoms: C_1  and  C_2 
REMARK    2  A    between atoms: C_2  and  C_3 
REMARK    3  A    between atoms: C_2  and  C_4 
REMARK    4  A    between atoms: C_2  and  O_5 
REMARK    5  A    between atoms: O_5  and  C_6 
REMARK       I    between atoms: C_6  and  N_8 
REMARK    6  A    between atoms: N_8  and  N_9 
ROOT
ATOM      1  N   LIG d   1       5.587  -6.044  -7.070  0.00  0.00    -0.207 N 
ATOM      2  C   LIG d   1       6.577  -5.318  -7.849  0.00  0.00     0.111 A 
ATOM      3  C   LIG d   1       7.213  -4.219  -7.064  0.00  0.00     0.236 A 
ATOM      4  O   LIG d   1       8.073  -3.559  -7.609  0.00  0.00    -0.274 OA
ATOM      5  N   LIG d   1       6.900  -3.914  -5.803  0.00  0.00    -0.282 N 
ATOM      6  C   LIG d   1       7.668  -2.858  -5.110  0.00  0.00     0.056 C 
ATOM      7  C   LIG d   1       6.674  -1.973  -4.393  0.00  0.00     0.038 A 
ATOM      8  C   LIG d   1       5.372  -2.294  -4.229  0.00  0.00    -0.015 A 
ATOM      9  C   LIG d   1       4.755  -1.206  -3.498  0.00  0.00     0.003 A 
ATOM     10  C   LIG d   1       3.451  -0.988  -3.045  0.00  0.00    -0.052 A 
ATOM     11  C   LIG d   1       3.216   0.186  -2.371  0.00  0.00    -0.061 A 
ATOM     12  C   LIG d   1       4.216   1.117  -2.147  0.00  0.00    -0.060 A 
ATOM     13  C   LIG d   1       5.515   0.927  -2.582  0.00  0.00    -0.038 A 
ATOM     14  C   LIG d   1       5.784  -0.256  -3.268  0.00  0.00     0.047 A 
ATOM     15  N   LIG d   1       6.927  -0.753  -3.823  0.00  0.00    -0.356 N 
ATOM     16  H   LIG d   1       7.791  -0.310  -3.814  0.00  0.00     0.166 HD
ATOM     17  C   LIG d   1       4.730  -3.560  -4.737  0.00  0.00     0.002 C 
ATOM     18  C   LIG d   1       5.832  -4.580  -5.061  0.00  0.00     0.108 A 
ATOM     19  H   LIG d   1       6.240  -4.966  -4.126  0.00  0.00     0.060 H 
ATOM     20  C   LIG d   1       5.244  -5.722  -5.825  0.00  0.00     0.253 A 
ATOM     21  O   LIG d   1       4.403  -6.401  -5.275  0.00  0.00    -0.272 OA
ATOM     22  H   LIG d   1       7.350  -6.013  -8.176  0.00  0.00     0.058 H 
ATOM     23  H   LIG d   1       6.093  -4.891  -8.728  0.00  0.00     0.058 H 
ATOM     24  H   LIG d   1       8.350  -3.308  -4.388  0.00  0.00     0.053 H 
ATOM     25  H   LIG d   1       8.231  -2.270  -5.835  0.00  0.00     0.053 H 
ATOM     26  H   LIG d   1       2.665  -1.709  -3.216  0.00  0.00     0.062 H 
ATOM     27  H   LIG d   1       2.220   0.389  -2.007  0.00  0.00     0.062 H 
ATOM     28  H   LIG d   1       3.973   2.024  -1.612  0.00  0.00     0.062 H 
ATOM     29  H   LIG d   1       6.285   1.662  -2.400  0.00  0.00     0.064 H 
ATOM     30  H   LIG d   1       4.069  -3.967  -3.972  0.00  0.00     0.034 H 
ATOM     31  H   LIG d   1       4.159  -3.343  -5.639  0.00  0.00     0.034 H 
ENDROOT
BRANCH   1  32
ATOM     32  N   LIG d   1       4.954  -7.142  -7.667  0.00  0.00    -0.197 N 
ATOM     33  C   LIG d   1       3.760  -6.984  -8.273  0.00  0.00     0.417 C 
ATOM     34  O   LIG d   1       3.211  -7.937  -8.791  0.00  0.00    -0.225 OA
ATOM     35  H   LIG d   1       5.374  -8.016  -7.644  0.00  0.00     0.176 HD
BRANCH  33  36
ATOM     36  O   LIG d   1       3.177  -5.771  -8.306  0.00  0.00    -0.444 OA
BRANCH  36  37
ATOM     37  C   LIG d   1       3.088  -5.128  -9.580  0.00  0.00     0.107 C 
BRANCH  37  38
ATOM     38  C   LIG d   1       1.707  -5.388 -10.185  0.00  0.00    -0.025 C 
ATOM     39  H   LIG d   1       1.403  -4.525 -10.779  0.00  0.00     0.027 H 
ATOM     40  H   LIG d   1       1.750  -6.271 -10.823  0.00  0.00     0.027 H 
ATOM     41  H   LIG d   1       0.985  -5.551  -9.386  0.00  0.00     0.027 H 
ENDBRANCH  37  38
BRANCH  37  42
ATOM     42  C   LIG d   1       4.167  -5.687 -10.510  0.00  0.00    -0.025 C 
ATOM     43  H   LIG d   1       4.321  -4.999 -11.341  0.00  0.00     0.027 H 
ATOM     44  H   LIG d   1       5.099  -5.804  -9.957  0.00  0.00     0.027 H 
ATOM     45  H   LIG d   1       3.849  -6.656 -10.895  0.00  0.00     0.027 H 
ENDBRANCH  37  42
BRANCH  37  46
ATOM     46  C   LIG d   1       3.294  -3.623  -9.406  0.00  0.00    -0.025 C 
ATOM     47  H   LIG d   1       4.168  -3.446  -8.781  0.00  0.00     0.027 H 
ATOM     48  H   LIG d   1       3.446  -3.161 -10.381  0.00  0.00     0.027 H 
ATOM     49  H   LIG d   1       2.414  -3.187  -8.932  0.00  0.00     0.027 H 
ENDBRANCH  37  46
ENDBRANCH  36  37
ENDBRANCH  33  36
ENDBRANCH   1  32
TORSDOF 6
ENDMDL
MODEL 5
REMARK VINA RESULT:      -6.0      2.889      7.209
REMARK  6 active torsions:
REMARK  status: ('A' for Active; 'I' for Inactive)
REMARK    1  A    between atoms: C_1  and  C_2 
REMARK    2  A    between atoms: C_2  and  C_3 
REMARK    3  A    between atoms: C_2  and  C_4 
REMARK    4  A    between atoms: C_2  and  O_5 
REMARK    5  A    between atoms: O_5  and  C_6 
REMARK       I    between atoms: C_6  and  N_8 
REMARK    6  A    between atoms: N_8  and  N_9 
ROOT
ATOM      1  N   LIG d   1       4.206  -2.999 -10.156  0.00  0.00    -0.207 N 
ATOM      2  C   LIG d   1       2.825  -2.574 -10.310  0.00  0.00     0.111 A 
ATOM      3  C   LIG d   1       2.480  -1.446  -9.393  0.00  0.00     0.236 A 
ATOM      4  O   LIG d   1       1.356  -0.994  -9.450  0.00  0.00    -0.274 OA
ATOM      5  N   LIG d   1       3.326  -0.902  -8.515  0.00  0.00    -0.282 N 
ATOM      6  C   LIG d   1       2.885   0.269  -7.727  0.00  0.00     0.056 C 
ATOM      7  C   LIG d   1       3.306   0.033  -6.295  0.00  0.00     0.038 A 
ATOM      8  C   LIG d   1       4.157  -0.946  -5.918  0.00  0.00    -0.015 A 
ATOM      9  C   LIG d   1       4.312  -0.845  -4.481  0.00  0.00     0.003 A 
ATOM     10  C   LIG d   1       5.059  -1.578  -3.555  0.00  0.00    -0.052 A 
ATOM     11  C   LIG d   1       4.963  -1.197  -2.239  0.00  0.00    -0.061 A 
ATOM     12  C   LIG d   1       4.165  -0.138  -1.837  0.00  0.00    -0.060 A 
ATOM     13  C   LIG d   1       3.417   0.605  -2.732  0.00  0.00    -0.038 A 
ATOM     14  C   LIG d   1       3.495   0.242  -4.075  0.00  0.00     0.047 A 
ATOM     15  N   LIG d   1       2.904   0.747  -5.197  0.00  0.00    -0.356 N 
ATOM     16  H   LIG d   1       2.291   1.500  -5.215  0.00  0.00     0.166 HD
ATOM     17  C   LIG d   1       4.794  -1.938  -6.859  0.00  0.00     0.002 C 
ATOM     18  C   LIG d   1       4.681  -1.403  -8.294  0.00  0.00     0.108 A 
ATOM     19  H   LIG d   1       5.386  -0.581  -8.420  0.00  0.00     0.060 H 
ATOM     20  C   LIG d   1       5.045  -2.486  -9.258  0.00  0.00     0.253 A 
ATOM     21  O   LIG d   1       6.175  -2.922  -9.223  0.00  0.00    -0.272 OA
ATOM     22  H   LIG d   1       2.664  -2.255 -11.339  0.00  0.00     0.058 H 
ATOM     23  H   LIG d   1       2.168  -3.417 -10.095  0.00  0.00     0.058 H 
ATOM     24  H   LIG d   1       3.361   1.172  -8.109  0.00  0.00     0.053 H 
ATOM     25  H   LIG d   1       1.802   0.368  -7.783  0.00  0.00     0.053 H 
ATOM     26  H   LIG d   1       5.682  -2.405  -3.860  0.00  0.00     0.062 H 
ATOM     27  H   LIG d   1       5.525  -1.740  -1.495  0.00  0.00     0.062 H 
ATOM     28  H   LIG d   1       4.127   0.117  -0.788  0.00  0.00     0.062 H 
ATOM     29  H   LIG d   1       2.799   1.429  -2.405  0.00  0.00     0.064 H 
ATOM     30  H   LIG d   1       5.844  -2.066  -6.598  0.00  0.00     0.034 H 
ATOM     31  H   LIG d   1       4.278  -2.894  -6.785  0.00  0.00     0.034 H 
ENDROOT
BRANCH   1  32
ATOM     32  N   LIG d   1       4.682  -4.012 -11.000  0.00  0.00    -0.197 N 
ATOM     33  C   LIG d   1       4.391  -5.301 -10.734  0.00  0.00     0.417 C 
ATOM     34  O   LIG d   1       4.804  -6.180 -11.466  0.00  0.00    -0.225 OA
ATOM     35  H   LIG d   1       5.220  -3.786 -11.774  0.00  0.00     0.176 HD
BRANCH  33  36
ATOM     36  O   LIG d   1       3.644  -5.615  -9.660  0.00  0.00    -0.444 OA
BRANCH  36  37
ATOM     37  C   LIG d   1       4.310  -6.260  -8.572  0.00  0.00     0.107 C 
BRANCH  37  38
ATOM     38  C   LIG d   1       3.840  -7.713  -8.475  0.00  0.00    -0.025 C 
ATOM     39  H   LIG d   1       2.935  -7.842  -9.068  0.00  0.00     0.027 H 
ATOM     40  H   LIG d   1       4.620  -8.373  -8.852  0.00  0.00     0.027 H 
ATOM     41  H   LIG d   1       3.629  -7.957  -7.433  0.00  0.00     0.027 H 
ENDBRANCH  37  38
BRANCH  37  42
ATOM     42  C   LIG d   1       3.983  -5.529  -7.268  0.00  0.00    -0.025 C 
ATOM     43  H   LIG d   1       4.837  -5.589  -6.594  0.00  0.00     0.027 H 
ATOM     44  H   LIG d   1       3.761  -4.483  -7.483  0.00  0.00     0.027 H 
ATOM     45  H   LIG d   1       3.116  -5.994  -6.798  0.00  0.00     0.027 H 
ENDBRANCH  37  42
BRANCH  37  46
ATOM     46  C   LIG d   1       5.821  -6.227  -8.809  0.00  0.00    -0.025 C 
ATOM     47  H   LIG d   1       6.032  -5.691  -9.734  0.00  0.00     0.027 H 
ATOM     48  H   LIG d   1       6.310  -5.722  -7.977  0.00  0.00     0.027 H 
ATOM     49  H   LIG d   1       6.200  -7.248  -8.886  0.00  0.00     0.027 H 
ENDBRANCH  37  46
ENDBRANCH  36  37
ENDBRANCH  33  36
ENDBRANCH   1  32
TORSDOF 6
ENDMDL
MODEL 6
REMARK VINA RESULT:      -6.0      4.044      8.161
REMARK  6 active torsions:
REMARK  status: ('A' for Active; 'I' for Inactive)
REMARK    1  A    between atoms: C_1  and  C_2 
REMARK    2  A    between atoms: C_2  and  C_3 
REMARK    3  A    between atoms: C_2  and  C_4 
REMARK    4  A    between atoms: C_2  and  O_5 
REMARK    5  A    between atoms: O_5  and  C_6 
REMARK       I    between atoms: C_6  and  N_8 
REMARK    6  A    between atoms: N_8  and  N_9 
ROOT
ATOM      1  N   LIG d   1       6.614  -1.158  -5.713  0.00  0.00    -0.207 N 
ATOM      2  C   LIG d   1       5.976  -0.449  -6.810  0.00  0.00     0.111 A 
ATOM      3  C   LIG d   1       6.790   0.714  -7.274  0.00  0.00     0.236 A 
ATOM      4  O   LIG d   1       6.364   1.368  -8.203  0.00  0.00    -0.274 OA
ATOM      5  N   LIG d   1       7.954   1.084  -6.736  0.00  0.00    -0.282 N 
ATOM      6  C   LIG d   1       8.703   2.203  -7.347  0.00  0.00     0.056 C 
ATOM      7  C   LIG d   1       9.175   3.096  -6.222  0.00  0.00     0.038 A 
ATOM      8  C   LIG d   1       9.128   2.744  -4.919  0.00  0.00    -0.015 A 
ATOM      9  C   LIG d   1       9.668   3.854  -4.159  0.00  0.00     0.003 A 
ATOM     10  C   LIG d   1       9.869   4.056  -2.792  0.00  0.00    -0.052 A 
ATOM     11  C   LIG d   1      10.414   5.260  -2.416  0.00  0.00    -0.061 A 
ATOM     12  C   LIG d   1      10.752   6.234  -3.341  0.00  0.00    -0.060 A 
ATOM     13  C   LIG d   1      10.565   6.060  -4.700  0.00  0.00    -0.038 A 
ATOM     14  C   LIG d   1      10.014   4.848  -5.111  0.00  0.00     0.047 A 
ATOM     15  N   LIG d   1       9.702   4.355  -6.345  0.00  0.00    -0.356 N 
ATOM     16  H   LIG d   1       9.835   4.825  -7.184  0.00  0.00     0.166 HD
ATOM     17  C   LIG d   1       8.596   1.431  -4.404  0.00  0.00     0.002 C 
ATOM     18  C   LIG d   1       8.537   0.429  -5.567  0.00  0.00     0.108 A 
ATOM     19  H   LIG d   1       9.552   0.112  -5.810  0.00  0.00     0.060 H 
ATOM     20  C   LIG d   1       7.756  -0.774  -5.148  0.00  0.00     0.253 A 
ATOM     21  O   LIG d   1       8.192  -1.446  -4.237  0.00  0.00    -0.272 OA
ATOM     22  H   LIG d   1       5.836  -1.137  -7.643  0.00  0.00     0.058 H 
ATOM     23  H   LIG d   1       5.001  -0.090  -6.482  0.00  0.00     0.058 H 
ATOM     24  H   LIG d   1       9.560   1.818  -7.898  0.00  0.00     0.053 H 
ATOM     25  H   LIG d   1       8.052   2.764  -8.016  0.00  0.00     0.053 H 
ATOM     26  H   LIG d   1       9.608   3.302  -2.064  0.00  0.00     0.062 H 
ATOM     27  H   LIG d   1      10.584   5.452  -1.367  0.00  0.00     0.062 H 
ATOM     28  H   LIG d   1      11.176   7.163  -2.988  0.00  0.00     0.062 H 
ATOM     29  H   LIG d   1      10.832   6.828  -5.411  0.00  0.00     0.064 H 
ATOM     30  H   LIG d   1       9.257   1.049  -3.626  0.00  0.00     0.034 H 
ATOM     31  H   LIG d   1       7.596   1.576  -3.998  0.00  0.00     0.034 H 
ENDROOT
BRANCH   1  32
ATOM     32  N   LIG d   1       5.986  -2.309  -5.219  0.00  0.00    -0.197 N 
ATOM     33  C   LIG d   1       4.808  -2.209  -4.572  0.00  0.00     0.417 C 
ATOM     34  O   LIG d   1       4.264  -3.208  -4.143  0.00  0.00    -0.225 OA
ATOM     35  H   LIG d   1       6.399  -3.178  -5.342  0.00  0.00     0.176 HD
BRANCH  33  36
ATOM     36  O   LIG d   1       4.234  -1.003  -4.401  0.00  0.00    -0.444 OA
BRANCH  36  37
ATOM     37  C   LIG d   1       4.255  -0.456  -3.080  0.00  0.00     0.107 C 
BRANCH  37  38
ATOM     38  C   LIG d   1       2.856   0.043  -2.714  0.00  0.00    -0.025 C 
ATOM     39  H   LIG d   1       2.460  -0.556  -1.894  0.00  0.00     0.027 H 
ATOM     40  H   LIG d   1       2.912   1.088  -2.407  0.00  0.00     0.027 H 
ATOM     41  H   LIG d   1       2.200  -0.047  -3.580  0.00  0.00     0.027 H 
ENDBRANCH  37  38
BRANCH  37  42
ATOM     42  C   LIG d   1       5.244   0.710  -3.026  0.00  0.00    -0.025 C 
ATOM     43  H   LIG d   1       5.084   1.361  -3.885  0.00  0.00     0.027 H 
ATOM     44  H   LIG d   1       5.090   1.275  -2.107  0.00  0.00     0.027 H 
ATOM     45  H   LIG d   1       6.263   0.323  -3.048  0.00  0.00     0.027 H 
ENDBRANCH  37  42
BRANCH  37  46
ATOM     46  C   LIG d   1       4.687  -1.537  -2.088  0.00  0.00    -0.025 C 
ATOM     47  H   LIG d   1       4.591  -2.518  -2.554  0.00  0.00     0.027 H 
ATOM     48  H   LIG d   1       5.724  -1.373  -1.799  0.00  0.00     0.027 H 
ATOM     49  H   LIG d   1       4.052  -1.493  -1.202  0.00  0.00     0.027 H 
ENDBRANCH  37  46
ENDBRANCH  36  37
ENDBRANCH  33  36
ENDBRANCH   1  32
TORSDOF 6
ENDMDL
MODEL 7
REMARK VINA RESULT:      -5.9      4.138      7.011
REMARK  6 active torsions:
REMARK  status: ('A' for Active; 'I' for Inactive)
REMARK    1  A    between atoms: C_1  and  C_2 
REMARK    2  A    between atoms: C_2  and  C_3 
REMARK    3  A    between atoms: C_2  and  C_4 
REMARK    4  A    between atoms: C_2  and  O_5 
REMARK    5  A    between atoms: O_5  and  C_6 
REMARK       I    between atoms: C_6  and  N_8 
REMARK    6  A    between atoms: N_8  and  N_9 
ROOT
ATOM      1  N   LIG d   1       8.635  -5.309  -6.056  0.00  0.00    -0.207 N 
ATOM      2  C   LIG d   1       7.603  -6.289  -5.762  0.00  0.00     0.111 A 
ATOM      3  C   LIG d   1       6.252  -5.663  -5.643  0.00  0.00     0.236 A 
ATOM      4  O   LIG d   1       5.308  -6.392  -5.420  0.00  0.00    -0.274 OA
ATOM      5  N   LIG d   1       6.012  -4.356  -5.766  0.00  0.00    -0.282 N 
ATOM      6  C   LIG d   1       4.615  -3.876  -5.714  0.00  0.00     0.056 C 
ATOM      7  C   LIG d   1       4.589  -2.660  -4.816  0.00  0.00     0.038 A 
ATOM      8  C   LIG d   1       5.701  -2.021  -4.393  0.00  0.00    -0.015 A 
ATOM      9  C   LIG d   1       5.267  -0.916  -3.562  0.00  0.00     0.003 A 
ATOM     10  C   LIG d   1       5.961   0.077  -2.866  0.00  0.00    -0.052 A 
ATOM     11  C   LIG d   1       5.208   0.985  -2.163  0.00  0.00    -0.061 A 
ATOM     12  C   LIG d   1       3.824   0.929  -2.138  0.00  0.00    -0.060 A 
ATOM     13  C   LIG d   1       3.111  -0.041  -2.818  0.00  0.00    -0.038 A 
ATOM     14  C   LIG d   1       3.849  -0.977  -3.541  0.00  0.00     0.047 A 
ATOM     15  N   LIG d   1       3.476  -2.042  -4.309  0.00  0.00    -0.356 N 
ATOM     16  H   LIG d   1       2.561  -2.320  -4.472  0.00  0.00     0.166 HD
ATOM     17  C   LIG d   1       7.110  -2.428  -4.742  0.00  0.00     0.002 C 
ATOM     18  C   LIG d   1       7.069  -3.365  -5.959  0.00  0.00     0.108 A 
ATOM     19  H   LIG d   1       6.841  -2.776  -6.848  0.00  0.00     0.060 H 
ATOM     20  C   LIG d   1       8.409  -3.999  -6.145  0.00  0.00     0.253 A 
ATOM     21  O   LIG d   1       9.350  -3.277  -6.394  0.00  0.00    -0.272 OA
ATOM     22  H   LIG d   1       7.580  -7.031  -6.560  0.00  0.00     0.058 H 
ATOM     23  H   LIG d   1       7.845  -6.788  -4.824  0.00  0.00     0.058 H 
ATOM     24  H   LIG d   1       4.279  -3.604  -6.714  0.00  0.00     0.053 H 
ATOM     25  H   LIG d   1       3.970  -4.652  -5.304  0.00  0.00     0.053 H 
ATOM     26  H   LIG d   1       7.040   0.127  -2.881  0.00  0.00     0.062 H 
ATOM     27  H   LIG d   1       5.710   1.766  -1.613  0.00  0.00     0.062 H 
ATOM     28  H   LIG d   1       3.284   1.669  -1.567  0.00  0.00     0.062 H 
ATOM     29  H   LIG d   1       2.032  -0.074  -2.790  0.00  0.00     0.064 H 
ATOM     30  H   LIG d   1       7.697  -1.542  -4.983  0.00  0.00     0.034 H 
ATOM     31  H   LIG d   1       7.561  -2.949  -3.898  0.00  0.00     0.034 H 
ENDROOT
BRANCH   1  32
ATOM     32  N   LIG d   1       9.944  -5.768  -6.254  0.00  0.00    -0.197 N 
ATOM     33  C   LIG d   1      10.619  -6.334  -5.235  0.00  0.00     0.417 C 
ATOM     34  O   LIG d   1      11.755  -6.732  -5.406  0.00  0.00    -0.225 OA
ATOM     35  H   LIG d   1      10.363  -5.678  -7.124  0.00  0.00     0.176 HD
BRANCH  33  36
ATOM     36  O   LIG d   1      10.037  -6.459  -4.027  0.00  0.00    -0.444 OA
BRANCH  36  37
ATOM     37  C   LIG d   1      10.685  -5.820  -2.925  0.00  0.00     0.107 C 
BRANCH  37  38
ATOM     38  C   LIG d   1       9.717  -5.736  -1.744  0.00  0.00    -0.025 C 
ATOM     39  H   LIG d   1       9.960  -6.513  -1.019  0.00  0.00     0.027 H 
ATOM     40  H   LIG d   1       9.803  -4.757  -1.271  0.00  0.00     0.027 H 
ATOM     41  H   LIG d   1       8.697  -5.879  -2.100  0.00  0.00     0.027 H 
ENDBRANCH  37  38
BRANCH  37  42
ATOM     42  C   LIG d   1      11.116  -4.410  -3.334  0.00  0.00    -0.025 C 
ATOM     43  H   LIG d   1      10.872  -4.246  -4.383  0.00  0.00     0.027 H 
ATOM     44  H   LIG d   1      10.591  -3.677  -2.720  0.00  0.00     0.027 H 
ATOM     45  H   LIG d   1      12.191  -4.302  -3.189  0.00  0.00     0.027 H 
ENDBRANCH  37  42
BRANCH  37  46
ATOM     46  C   LIG d   1      11.917  -6.631  -2.518  0.00  0.00    -0.025 C 
ATOM     47  H   LIG d   1      12.779  -6.295  -3.095  0.00  0.00     0.027 H 
ATOM     48  H   LIG d   1      12.113  -6.488  -1.457  0.00  0.00     0.027 H 
ATOM     49  H   LIG d   1      11.738  -7.688  -2.716  0.00  0.00     0.027 H 
ENDBRANCH  37  46
ENDBRANCH  36  37
ENDBRANCH  33  36
ENDBRANCH   1  32
TORSDOF 6
ENDMDL
MODEL 8
REMARK VINA RESULT:      -5.9      4.351      7.772
REMARK  6 active torsions:
REMARK  status: ('A' for Active; 'I' for Inactive)
REMARK    1  A    between atoms: C_1  and  C_2 
REMARK    2  A    between atoms: C_2  and  C_3 
REMARK    3  A    between atoms: C_2  and  C_4 
REMARK    4  A    between atoms: C_2  and  O_5 
REMARK    5  A    between atoms: O_5  and  C_6 
REMARK       I    between atoms: C_6  and  N_8 
REMARK    6  A    between atoms: N_8  and  N_9 
ROOT
ATOM      1  N   LIG d   1       5.660  -5.935  -6.969  0.00  0.00    -0.207 N 
ATOM      2  C   LIG d   1       6.866  -5.321  -7.502  0.00  0.00     0.111 A 
ATOM      3  C   LIG d   1       7.449  -4.319  -6.559  0.00  0.00     0.236 A 
ATOM      4  O   LIG d   1       8.472  -3.759  -6.891  0.00  0.00    -0.274 OA
ATOM      5  N   LIG d   1       6.920  -4.000  -5.376  0.00  0.00    -0.282 N 
ATOM      6  C   LIG d   1       7.645  -3.056  -4.499  0.00  0.00     0.056 C 
ATOM      7  C   LIG d   1       6.632  -2.070  -3.962  0.00  0.00     0.038 A 
ATOM      8  C   LIG d   1       5.297  -2.235  -4.078  0.00  0.00    -0.015 A 
ATOM      9  C   LIG d   1       4.671  -1.093  -3.443  0.00  0.00     0.003 A 
ATOM     10  C   LIG d   1       3.335  -0.727  -3.255  0.00  0.00    -0.052 A 
ATOM     11  C   LIG d   1       3.102   0.455  -2.595  0.00  0.00    -0.061 A 
ATOM     12  C   LIG d   1       4.135   1.256  -2.134  0.00  0.00    -0.060 A 
ATOM     13  C   LIG d   1       5.465   0.917  -2.306  0.00  0.00    -0.038 A 
ATOM     14  C   LIG d   1       5.732  -0.278  -2.971  0.00  0.00     0.047 A 
ATOM     15  N   LIG d   1       6.901  -0.899  -3.303  0.00  0.00    -0.356 N 
ATOM     16  H   LIG d   1       7.789  -0.564  -3.101  0.00  0.00     0.166 HD
ATOM     17  C   LIG d   1       4.632  -3.406  -4.757  0.00  0.00     0.002 C 
ATOM     18  C   LIG d   1       5.653  -4.545  -4.893  0.00  0.00     0.108 A 
ATOM     19  H   LIG d   1       5.813  -4.993  -3.912  0.00  0.00     0.060 H 
ATOM     20  C   LIG d   1       5.108  -5.595  -5.807  0.00  0.00     0.253 A 
ATOM     21  O   LIG d   1       4.100  -6.177  -5.466  0.00  0.00    -0.272 OA
ATOM     22  H   LIG d   1       7.605  -6.098  -7.693  0.00  0.00     0.058 H 
ATOM     23  H   LIG d   1       6.625  -4.824  -8.441  0.00  0.00     0.058 H 
ATOM     24  H   LIG d   1       8.107  -3.597  -3.673  0.00  0.00     0.053 H 
ATOM     25  H   LIG d   1       8.408  -2.529  -5.070  0.00  0.00     0.053 H 
ATOM     26  H   LIG d   1       2.524  -1.345  -3.611  0.00  0.00     0.062 H 
ATOM     27  H   LIG d   1       2.083   0.771  -2.431  0.00  0.00     0.062 H 
ATOM     28  H   LIG d   1       3.892   2.176  -1.623  0.00  0.00     0.062 H 
ATOM     29  H   LIG d   1       6.261   1.551  -1.941  0.00  0.00     0.064 H 
ATOM     30  H   LIG d   1       3.786  -3.742  -4.160  0.00  0.00     0.034 H 
ATOM     31  H   LIG d   1       4.287  -3.106  -5.747  0.00  0.00     0.034 H 
ENDROOT
BRANCH   1  32
ATOM     32  N   LIG d   1       5.042  -6.938  -7.726  0.00  0.00    -0.197 N 
ATOM     33  C   LIG d   1       5.519  -8.198  -7.691  0.00  0.00     0.417 C 
ATOM     34  O   LIG d   1       4.983  -9.070  -8.348  0.00  0.00    -0.225 OA
ATOM     35  H   LIG d   1       4.272  -6.727  -8.276  0.00  0.00     0.176 HD
BRANCH  33  36
ATOM     36  O   LIG d   1       6.588  -8.493  -6.928  0.00  0.00    -0.444 OA
BRANCH  36  37
ATOM     37  C   LIG d   1       6.351  -9.264  -5.748  0.00  0.00     0.107 C 
BRANCH  37  38
ATOM     38  C   LIG d   1       6.948  -8.542  -4.538  0.00  0.00    -0.025 C 
ATOM     39  H   LIG d   1       7.241  -9.275  -3.786  0.00  0.00     0.027 H 
ATOM     40  H   LIG d   1       7.822  -7.971  -4.850  0.00  0.00     0.027 H 
ATOM     41  H   LIG d   1       6.203  -7.867  -4.116  0.00  0.00     0.027 H 
ENDBRANCH  37  38
BRANCH  37  42
ATOM     42  C   LIG d   1       7.008 -10.639  -5.897  0.00  0.00    -0.025 C 
ATOM     43  H   LIG d   1       6.255 -11.416  -5.769  0.00  0.00     0.027 H 
ATOM     44  H   LIG d   1       7.454 -10.723  -6.888  0.00  0.00     0.027 H 
ATOM     45  H   LIG d   1       7.783 -10.755  -5.139  0.00  0.00     0.027 H 
ENDBRANCH  37  42
BRANCH  37  46
ATOM     46  C   LIG d   1       4.845  -9.438  -5.547  0.00  0.00    -0.025 C 
ATOM     47  H   LIG d   1       4.653 -10.387  -5.046  0.00  0.00     0.027 H 
ATOM     48  H   LIG d   1       4.462  -8.622  -4.937  0.00  0.00     0.027 H 
ATOM     49  H   LIG d   1       4.345  -9.432  -6.517  0.00  0.00     0.027 H 
ENDBRANCH  37  46
ENDBRANCH  36  37
ENDBRANCH  33  36
ENDBRANCH   1  32
TORSDOF 6
ENDMDL
MODEL 9
REMARK VINA RESULT:      -5.9      5.875      8.613
REMARK  6 active torsions:
REMARK  status: ('A' for Active; 'I' for Inactive)
REMARK    1  A    between atoms: C_1  and  C_2 
REMARK    2  A    between atoms: C_2  and  C_3 
REMARK    3  A    between atoms: C_2  and  C_4 
REMARK    4  A    between atoms: C_2  and  O_5 
REMARK    5  A    between atoms: O_5  and  C_6 
REMARK       I    between atoms: C_6  and  N_8 
REMARK    6  A    between atoms: N_8  and  N_9 
ROOT
ATOM      1  N   LIG d   1      10.820   3.732  -4.594  0.00  0.00    -0.207 N 
ATOM      2  C   LIG d   1      11.718   2.590  -4.557  0.00  0.00     0.111 A 
ATOM      3  C   LIG d   1      10.999   1.304  -4.805  0.00  0.00     0.236 A 
ATOM      4  O   LIG d   1      11.655   0.283  -4.819  0.00  0.00    -0.274 OA
ATOM      5  N   LIG d   1       9.685   1.201  -5.013  0.00  0.00    -0.282 N 
ATOM      6  C   LIG d   1       9.112  -0.123  -5.334  0.00  0.00     0.056 C 
ATOM      7  C   LIG d   1       7.863  -0.289  -4.499  0.00  0.00     0.038 A 
ATOM      8  C   LIG d   1       7.283   0.721  -3.815  0.00  0.00    -0.015 A 
ATOM      9  C   LIG d   1       6.120   0.171  -3.149  0.00  0.00     0.003 A 
ATOM     10  C   LIG d   1       5.149   0.735  -2.317  0.00  0.00    -0.052 A 
ATOM     11  C   LIG d   1       4.166  -0.104  -1.852  0.00  0.00    -0.061 A 
ATOM     12  C   LIG d   1       4.130  -1.448  -2.185  0.00  0.00    -0.060 A 
ATOM     13  C   LIG d   1       5.076  -2.032  -3.007  0.00  0.00    -0.038 A 
ATOM     14  C   LIG d   1       6.086  -1.205  -3.494  0.00  0.00     0.047 A 
ATOM     15  N   LIG d   1       7.153  -1.446  -4.310  0.00  0.00    -0.356 N 
ATOM     16  H   LIG d   1       7.376  -2.306  -4.699  0.00  0.00     0.166 HD
ATOM     17  C   LIG d   1       7.796   2.139  -3.779  0.00  0.00     0.002 C 
ATOM     18  C   LIG d   1       8.774   2.342  -4.946  0.00  0.00     0.108 A 
ATOM     19  H   LIG d   1       8.207   2.395  -5.875  0.00  0.00     0.060 H 
ATOM     20  C   LIG d   1       9.503   3.634  -4.765  0.00  0.00     0.253 A 
ATOM     21  O   LIG d   1       8.855   4.659  -4.777  0.00  0.00    -0.272 OA
ATOM     22  H   LIG d   1      12.487   2.718  -5.318  0.00  0.00     0.058 H 
ATOM     23  H   LIG d   1      12.195   2.545  -3.578  0.00  0.00     0.058 H 
ATOM     24  H   LIG d   1       8.857  -0.169  -6.393  0.00  0.00     0.053 H 
ATOM     25  H   LIG d   1       9.827  -0.907  -5.090  0.00  0.00     0.053 H 
ATOM     26  H   LIG d   1       5.170   1.782  -2.052  0.00  0.00     0.062 H 
ATOM     27  H   LIG d   1       3.399   0.296  -1.206  0.00  0.00     0.062 H 
ATOM     28  H   LIG d   1       3.334  -2.061  -1.788  0.00  0.00     0.062 H 
ATOM     29  H   LIG d   1       5.036  -3.082  -3.258  0.00  0.00     0.064 H 
ATOM     30  H   LIG d   1       6.961   2.832  -3.878  0.00  0.00     0.034 H 
ATOM     31  H   LIG d   1       8.312   2.317  -2.836  0.00  0.00     0.034 H 
ENDROOT
BRANCH   1  32
ATOM     32  N   LIG d   1      11.372   5.010  -4.436  0.00  0.00    -0.197 N 
ATOM     33  C   LIG d   1      11.849   5.674  -5.508  0.00  0.00     0.417 C 
ATOM     34  O   LIG d   1      12.329   6.783  -5.371  0.00  0.00    -0.225 OA
ATOM     35  H   LIG d   1      11.412   5.417  -3.557  0.00  0.00     0.176 HD
BRANCH  33  36
ATOM     36  O   LIG d   1      11.794   5.111  -6.729  0.00  0.00    -0.444 OA
BRANCH  36  37
ATOM     37  C   LIG d   1      10.933   5.725  -7.689  0.00  0.00     0.107 C 
BRANCH  37  38
ATOM     38  C   LIG d   1      10.094   6.807  -7.004  0.00  0.00    -0.025 C 
ATOM     39  H   LIG d   1       9.299   6.336  -6.425  0.00  0.00     0.027 H 
ATOM     40  H   LIG d   1      10.729   7.393  -6.340  0.00  0.00     0.027 H 
ATOM     41  H   LIG d   1       9.657   7.459  -7.759  0.00  0.00     0.027 H 
ENDBRANCH  37  38
BRANCH  37  42
ATOM     42  C   LIG d   1      10.006   4.668  -8.294  0.00  0.00    -0.025 C 
ATOM     43  H   LIG d   1       9.044   4.695  -7.785  0.00  0.00     0.027 H 
ATOM     44  H   LIG d   1       9.863   4.875  -9.355  0.00  0.00     0.027 H 
ATOM     45  H   LIG d   1      10.454   3.681  -8.175  0.00  0.00     0.027 H 
ENDBRANCH  37  42
BRANCH  37  46
ATOM     46  C   LIG d   1      11.775   6.359  -8.798  0.00  0.00    -0.025 C 
ATOM     47  H   LIG d   1      11.199   7.145  -9.287  0.00  0.00     0.027 H 
ATOM     48  H   LIG d   1      12.680   6.787  -8.368  0.00  0.00     0.027 H 
ATOM     49  H   LIG d   1      12.045   5.598  -9.530  0.00  0.00     0.027 H 
ENDBRANCH  37  46
ENDBRANCH  36  37
ENDBRANCH  33  36
ENDBRANCH   1  32
TORSDOF 6
ENDMDL
