MODEL 1
REMARK VINA RESULT:      -6.5      0.000      0.000
REMARK  2 active torsions:
REMARK  status: ('A' for Active; 'I' for Inactive)
REMARK    1  A    between atoms: C_8  and  C_18 
REMARK    2  A    between atoms: N_9  and  C_10 
ROOT
ATOM      1  C   LIG d   1       4.327  -0.778  -1.611  0.00  0.00    -0.060 A 
ATOM      2  C   LIG d   1       4.496   0.433  -2.268  0.00  0.00    -0.060 A 
ATOM      3  C   LIG d   1       4.614   0.473  -3.641  0.00  0.00    -0.036 A 
ATOM      4  C   LIG d   1       4.564  -0.706  -4.372  0.00  0.00     0.077 A 
ATOM      5  C   LIG d   1       4.394  -1.934  -3.713  0.00  0.00     0.090 A 
ATOM      6  C   LIG d   1       4.275  -1.956  -2.321  0.00  0.00    -0.034 A 
ATOM      7  N   LIG d   1       4.383  -2.900  -4.668  0.00  0.00    -0.224 NA
ATOM      8  C   LIG d   1       4.532  -2.360  -5.841  0.00  0.00     0.223 A 
ATOM      9  N   LIG d   1       4.654  -1.005  -5.721  0.00  0.00    -0.257 N 
ATOM     10  H   LIG d   1       4.236  -0.796  -0.536  0.00  0.00     0.062 H 
ATOM     11  H   LIG d   1       4.534   1.350  -1.699  0.00  0.00     0.062 H 
ATOM     12  H   LIG d   1       4.744   1.419  -4.146  0.00  0.00     0.064 H 
ATOM     13  H   LIG d   1       4.143  -2.895  -1.804  0.00  0.00     0.064 H 
ENDROOT
BRANCH   9  14
ATOM     14  C   LIG d   1       4.833  -0.098  -6.757  0.00  0.00     0.242 A 
ATOM     15  N   LIG d   1       6.059   0.225  -7.155  0.00  0.00    -0.181 NA
ATOM     16  C   LIG d   1       6.227   1.089  -8.143  0.00  0.00     0.228 A 
ATOM     17  N   LIG d   1       5.175   1.631  -8.736  0.00  0.00    -0.187 NA
ATOM     18 CL   LIG d   1       7.829   1.510  -8.663  0.00  0.00    -0.041 Cl
ATOM     19  C   LIG d   1       3.952   1.311  -8.341  0.00  0.00     0.228 A 
ATOM     20  N   LIG d   1       3.779   0.444  -7.357  0.00  0.00    -0.181 NA
ATOM     21 CL   LIG d   1       2.575   2.024  -9.121  0.00  0.00    -0.041 Cl
ENDBRANCH   9  14
BRANCH   8  22
ATOM     22  C   LIG d   1       4.570  -3.118  -7.143  0.00  0.00     0.451 C 
ATOM     23  F   LIG d   1       4.356  -4.478  -6.897  0.00  0.00    -0.163 F 
ATOM     24  F   LIG d   1       5.820  -2.945  -7.747  0.00  0.00    -0.163 F 
ATOM     25  F   LIG d   1       3.569  -2.635  -7.994  0.00  0.00    -0.163 F 
ENDBRANCH   8  22
TORSDOF 2
ENDMDL
MODEL 2
REMARK VINA RESULT:      -6.5      0.030      2.103
REMARK  2 active torsions:
REMARK  status: ('A' for Active; 'I' for Inactive)
REMARK    1  A    between atoms: C_8  and  C_18 
REMARK    2  A    between atoms: N_9  and  C_10 
ROOT
ATOM      1  C   LIG d   1       4.337  -0.781  -1.607  0.00  0.00    -0.060 A 
ATOM      2  C   LIG d   1       4.520   0.429  -2.262  0.00  0.00    -0.060 A 
ATOM      3  C   LIG d   1       4.641   0.469  -3.635  0.00  0.00    -0.036 A 
ATOM      4  C   LIG d   1       4.579  -0.708  -4.368  0.00  0.00     0.077 A 
ATOM      5  C   LIG d   1       4.395  -1.935  -3.710  0.00  0.00     0.090 A 
ATOM      6  C   LIG d   1       4.274  -1.958  -2.318  0.00  0.00    -0.034 A 
ATOM      7  N   LIG d   1       4.376  -2.900  -4.667  0.00  0.00    -0.224 NA
ATOM      8  C   LIG d   1       4.533  -2.360  -5.839  0.00  0.00     0.223 A 
ATOM      9  N   LIG d   1       4.669  -1.006  -5.717  0.00  0.00    -0.257 N 
ATOM     10  H   LIG d   1       4.244  -0.799  -0.532  0.00  0.00     0.062 H 
ATOM     11  H   LIG d   1       4.566   1.345  -1.692  0.00  0.00     0.062 H 
ATOM     12  H   LIG d   1       4.782   1.414  -4.138  0.00  0.00     0.064 H 
ATOM     13  H   LIG d   1       4.131  -2.896  -1.803  0.00  0.00     0.064 H 
ENDROOT
BRANCH   9  14
ATOM     14  C   LIG d   1       4.860  -0.100  -6.752  0.00  0.00     0.242 A 
ATOM     15  N   LIG d   1       3.813   0.450  -7.356  0.00  0.00    -0.181 NA
ATOM     16  C   LIG d   1       3.997   1.313  -8.341  0.00  0.00     0.228 A 
ATOM     17  N   LIG d   1       5.224   1.630  -8.725  0.00  0.00    -0.187 NA
ATOM     18 CL   LIG d   1       2.628   2.033  -9.131  0.00  0.00    -0.041 Cl
ATOM     19  C   LIG d   1       6.270   1.084  -8.123  0.00  0.00     0.228 A 
ATOM     20  N   LIG d   1       6.090   0.224  -7.135  0.00  0.00    -0.181 NA
ATOM     21 CL   LIG d   1       7.876   1.502  -8.628  0.00  0.00    -0.041 Cl
ENDBRANCH   9  14
BRANCH   8  22
ATOM     22  C   LIG d   1       4.565  -3.116  -7.142  0.00  0.00     0.451 C 
ATOM     23  F   LIG d   1       5.814  -2.949  -7.748  0.00  0.00    -0.163 F 
ATOM     24  F   LIG d   1       3.566  -2.626  -7.990  0.00  0.00    -0.163 F 
ATOM     25  F   LIG d   1       4.344  -4.477  -6.897  0.00  0.00    -0.163 F 
ENDBRANCH   8  22
TORSDOF 2
ENDMDL
MODEL 3
REMARK VINA RESULT:      -6.4      1.620      2.439
REMARK  2 active torsions:
REMARK  status: ('A' for Active; 'I' for Inactive)
REMARK    1  A    between atoms: C_8  and  C_18 
REMARK    2  A    between atoms: N_9  and  C_10 
ROOT
ATOM      1  C   LIG d   1       4.091  -0.429  -1.980  0.00  0.00    -0.060 A 
ATOM      2  C   LIG d   1       3.242   0.339  -2.764  0.00  0.00    -0.060 A 
ATOM      3  C   LIG d   1       3.320   0.285  -4.139  0.00  0.00    -0.036 A 
ATOM      4  C   LIG d   1       4.253  -0.544  -4.745  0.00  0.00     0.077 A 
ATOM      5  C   LIG d   1       5.115  -1.324  -3.958  0.00  0.00     0.090 A 
ATOM      6  C   LIG d   1       5.023  -1.257  -2.565  0.00  0.00    -0.034 A 
ATOM      7  N   LIG d   1       5.908  -2.024  -4.810  0.00  0.00    -0.224 NA
ATOM      8  C   LIG d   1       5.599  -1.733  -6.038  0.00  0.00     0.223 A 
ATOM      9  N   LIG d   1       4.585  -0.818  -6.061  0.00  0.00    -0.257 N 
ATOM     10  H   LIG d   1       4.020  -0.378  -0.904  0.00  0.00     0.062 H 
ATOM     11  H   LIG d   1       2.515   0.984  -2.292  0.00  0.00     0.062 H 
ATOM     12  H   LIG d   1       2.655   0.885  -4.743  0.00  0.00     0.064 H 
ATOM     13  H   LIG d   1       5.680  -1.854  -1.950  0.00  0.00     0.064 H 
ENDROOT
BRANCH   9  14
ATOM     14  C   LIG d   1       3.995  -0.269  -7.192  0.00  0.00     0.242 A 
ATOM     15  N   LIG d   1       3.075  -0.952  -7.862  0.00  0.00    -0.181 NA
ATOM     16  C   LIG d   1       2.515  -0.426  -8.939  0.00  0.00     0.228 A 
ATOM     17  N   LIG d   1       2.871   0.782  -9.349  0.00  0.00    -0.187 NA
ATOM     18 CL   LIG d   1       1.310  -1.319  -9.815  0.00  0.00    -0.041 Cl
ATOM     19  C   LIG d   1       3.788   1.466  -8.682  0.00  0.00     0.228 A 
ATOM     20  N   LIG d   1       4.348   0.945  -7.603  0.00  0.00    -0.181 NA
ATOM     21 CL   LIG d   1       4.253   3.048  -9.223  0.00  0.00    -0.041 Cl
ENDBRANCH   9  14
BRANCH   8  22
ATOM     22  C   LIG d   1       6.264  -2.315  -7.258  0.00  0.00     0.451 C 
ATOM     23  F   LIG d   1       5.349  -3.113  -7.953  0.00  0.00    -0.163 F 
ATOM     24  F   LIG d   1       7.359  -3.093  -6.866  0.00  0.00    -0.163 F 
ATOM     25  F   LIG d   1       6.703  -1.278  -8.090  0.00  0.00    -0.163 F 
ENDBRANCH   8  22
TORSDOF 2
ENDMDL
MODEL 4
REMARK VINA RESULT:      -6.3      2.826      3.686
REMARK  2 active torsions:
REMARK  status: ('A' for Active; 'I' for Inactive)
REMARK    1  A    between atoms: C_8  and  C_18 
REMARK    2  A    between atoms: N_9  and  C_10 
ROOT
ATOM      1  C   LIG d   1       3.576  -1.152  -2.313  0.00  0.00    -0.060 A 
ATOM      2  C   LIG d   1       4.295  -2.165  -2.931  0.00  0.00    -0.060 A 
ATOM      3  C   LIG d   1       4.488  -2.153  -4.296  0.00  0.00    -0.036 A 
ATOM      4  C   LIG d   1       3.961  -1.120  -5.058  0.00  0.00     0.077 A 
ATOM      5  C   LIG d   1       3.232  -0.092  -4.438  0.00  0.00     0.090 A 
ATOM      6  C   LIG d   1       3.046  -0.120  -3.053  0.00  0.00    -0.034 A 
ATOM      7  N   LIG d   1       2.844   0.767  -5.416  0.00  0.00    -0.224 NA
ATOM      8  C   LIG d   1       3.274   0.344  -6.568  0.00  0.00     0.223 A 
ATOM      9  N   LIG d   1       3.968  -0.821  -6.410  0.00  0.00    -0.257 N 
ATOM     10  H   LIG d   1       3.432  -1.173  -1.243  0.00  0.00     0.062 H 
ATOM     11  H   LIG d   1       4.707  -2.969  -2.338  0.00  0.00     0.062 H 
ATOM     12  H   LIG d   1       5.049  -2.944  -4.770  0.00  0.00     0.064 H 
ATOM     13  H   LIG d   1       2.489   0.666  -2.566  0.00  0.00     0.064 H 
ENDROOT
BRANCH   9  14
ATOM     14  C   LIG d   1       4.569  -1.567  -7.416  0.00  0.00     0.242 A 
ATOM     15  N   LIG d   1       5.867  -1.431  -7.660  0.00  0.00    -0.181 NA
ATOM     16  C   LIG d   1       6.437  -2.142  -8.619  0.00  0.00     0.228 A 
ATOM     17  N   LIG d   1       5.714  -2.990  -9.335  0.00  0.00    -0.187 NA
ATOM     18 CL   LIG d   1       8.135  -1.966  -8.937  0.00  0.00    -0.041 Cl
ATOM     19  C   LIG d   1       4.419  -3.127  -9.093  0.00  0.00     0.228 A 
ATOM     20  N   LIG d   1       3.846  -2.422  -8.133  0.00  0.00    -0.181 NA
ATOM     21 CL   LIG d   1       3.476  -4.239 -10.034  0.00  0.00    -0.041 Cl
ENDBRANCH   9  14
BRANCH   8  22
ATOM     22  C   LIG d   1       3.039   1.037  -7.885  0.00  0.00     0.451 C 
ATOM     23  F   LIG d   1       2.503   2.309  -7.655  0.00  0.00    -0.163 F 
ATOM     24  F   LIG d   1       2.142   0.285  -8.653  0.00  0.00    -0.163 F 
ATOM     25  F   LIG d   1       4.252   1.160  -8.572  0.00  0.00    -0.163 F 
ENDBRANCH   8  22
TORSDOF 2
ENDMDL
MODEL 5
REMARK VINA RESULT:      -6.2      2.778      3.717
REMARK  2 active torsions:
REMARK  status: ('A' for Active; 'I' for Inactive)
REMARK    1  A    between atoms: C_8  and  C_18 
REMARK    2  A    between atoms: N_9  and  C_10 
ROOT
ATOM      1  C   LIG d   1       7.837  -2.880  -4.792  0.00  0.00    -0.060 A 
ATOM      2  C   LIG d   1       7.680  -2.655  -6.153  0.00  0.00    -0.060 A 
ATOM      3  C   LIG d   1       6.593  -1.950  -6.624  0.00  0.00    -0.036 A 
ATOM      4  C   LIG d   1       5.648  -1.462  -5.732  0.00  0.00     0.077 A 
ATOM      5  C   LIG d   1       5.801  -1.687  -4.355  0.00  0.00     0.090 A 
ATOM      6  C   LIG d   1       6.909  -2.403  -3.894  0.00  0.00    -0.034 A 
ATOM      7  N   LIG d   1       4.741  -1.104  -3.737  0.00  0.00    -0.224 NA
ATOM      8  C   LIG d   1       3.966  -0.550  -4.621  0.00  0.00     0.223 A 
ATOM      9  N   LIG d   1       4.474  -0.743  -5.874  0.00  0.00    -0.257 N 
ATOM     10  H   LIG d   1       8.692  -3.433  -4.436  0.00  0.00     0.062 H 
ATOM     11  H   LIG d   1       8.417  -3.034  -6.846  0.00  0.00     0.062 H 
ATOM     12  H   LIG d   1       6.479  -1.778  -7.684  0.00  0.00     0.064 H 
ATOM     13  H   LIG d   1       7.037  -2.581  -2.837  0.00  0.00     0.064 H 
ENDROOT
BRANCH   9  14
ATOM     14  C   LIG d   1       3.917  -0.299  -7.067  0.00  0.00     0.242 A 
ATOM     15  N   LIG d   1       4.165   0.931  -7.500  0.00  0.00    -0.181 NA
ATOM     16  C   LIG d   1       3.634   1.351  -8.637  0.00  0.00     0.228 A 
ATOM     17  N   LIG d   1       2.855   0.546  -9.343  0.00  0.00    -0.187 NA
ATOM     18 CL   LIG d   1       3.959   2.960  -9.204  0.00  0.00    -0.041 Cl
ATOM     19  C   LIG d   1       2.607  -0.682  -8.913  0.00  0.00     0.228 A 
ATOM     20  N   LIG d   1       3.139  -1.107  -7.780  0.00  0.00    -0.181 NA
ATOM     21 CL   LIG d   1       1.586  -1.735  -9.841  0.00  0.00    -0.041 Cl
ENDBRANCH   9  14
BRANCH   8  22
ATOM     22  C   LIG d   1       2.693   0.192  -4.311  0.00  0.00     0.451 C 
ATOM     23  F   LIG d   1       1.693  -0.200  -5.207  0.00  0.00    -0.163 F 
ATOM     24  F   LIG d   1       2.913   1.569  -4.432  0.00  0.00    -0.163 F 
ATOM     25  F   LIG d   1       2.288  -0.102  -3.004  0.00  0.00    -0.163 F 
ENDBRANCH   8  22
TORSDOF 2
ENDMDL
MODEL 6
REMARK VINA RESULT:      -6.0      3.758      4.676
REMARK  2 active torsions:
REMARK  status: ('A' for Active; 'I' for Inactive)
REMARK    1  A    between atoms: C_8  and  C_18 
REMARK    2  A    between atoms: N_9  and  C_10 
ROOT
ATOM      1  C   LIG d   1       3.935  -0.432  -1.926  0.00  0.00    -0.060 A 
ATOM      2  C   LIG d   1       4.280   0.907  -2.036  0.00  0.00    -0.060 A 
ATOM      3  C   LIG d   1       5.408   1.284  -2.731  0.00  0.00    -0.036 A 
ATOM      4  C   LIG d   1       6.206   0.318  -3.327  0.00  0.00     0.077 A 
ATOM      5  C   LIG d   1       5.863  -1.040  -3.219  0.00  0.00     0.090 A 
ATOM      6  C   LIG d   1       4.715  -1.404  -2.511  0.00  0.00    -0.034 A 
ATOM      7  N   LIG d   1       6.813  -1.744  -3.889  0.00  0.00    -0.224 NA
ATOM      8  C   LIG d   1       7.694  -0.930  -4.387  0.00  0.00     0.223 A 
ATOM      9  N   LIG d   1       7.375   0.359  -4.068  0.00  0.00    -0.257 N 
ATOM     10  H   LIG d   1       3.048  -0.715  -1.379  0.00  0.00     0.062 H 
ATOM     11  H   LIG d   1       3.657   1.660  -1.573  0.00  0.00     0.062 H 
ATOM     12  H   LIG d   1       5.670   2.329  -2.813  0.00  0.00     0.064 H 
ATOM     13  H   LIG d   1       4.442  -2.445  -2.422  0.00  0.00     0.064 H 
ENDROOT
BRANCH   9  14
ATOM     14  C   LIG d   1       8.088   1.497  -4.423  0.00  0.00     0.242 A 
ATOM     15  N   LIG d   1       8.196   1.844  -5.701  0.00  0.00    -0.181 NA
ATOM     16  C   LIG d   1       8.874   2.929  -6.036  0.00  0.00     0.228 A 
ATOM     17  N   LIG d   1       9.446   3.670  -5.099  0.00  0.00    -0.187 NA
ATOM     18 CL   LIG d   1       9.015   3.382  -7.706  0.00  0.00    -0.041 Cl
ATOM     19  C   LIG d   1       9.339   3.326  -3.824  0.00  0.00     0.228 A 
ATOM     20  N   LIG d   1       8.658   2.245  -3.484  0.00  0.00    -0.181 NA
ATOM     21 CL   LIG d   1      10.089   4.300  -2.598  0.00  0.00    -0.041 Cl
ENDBRANCH   9  14
BRANCH   8  22
ATOM     22  C   LIG d   1       8.896  -1.346  -5.196  0.00  0.00     0.451 C 
ATOM     23  F   LIG d   1      10.016  -0.621  -4.775  0.00  0.00    -0.163 F 
ATOM     24  F   LIG d   1       8.658  -1.091  -6.551  0.00  0.00    -0.163 F 
ATOM     25  F   LIG d   1       9.130  -2.714  -5.012  0.00  0.00    -0.163 F 
ENDBRANCH   8  22
TORSDOF 2
ENDMDL
MODEL 7
REMARK VINA RESULT:      -6.0      3.801      4.627
REMARK  2 active torsions:
REMARK  status: ('A' for Active; 'I' for Inactive)
REMARK    1  A    between atoms: C_8  and  C_18 
REMARK    2  A    between atoms: N_9  and  C_10 
ROOT
ATOM      1  C   LIG d   1       4.022  -0.498  -1.924  0.00  0.00    -0.060 A 
ATOM      2  C   LIG d   1       4.371   0.842  -2.017  0.00  0.00    -0.060 A 
ATOM      3  C   LIG d   1       5.499   1.224  -2.710  0.00  0.00    -0.036 A 
ATOM      4  C   LIG d   1       6.293   0.262  -3.320  0.00  0.00     0.077 A 
ATOM      5  C   LIG d   1       5.946  -1.095  -3.228  0.00  0.00     0.090 A 
ATOM      6  C   LIG d   1       4.798  -1.465  -2.522  0.00  0.00    -0.034 A 
ATOM      7  N   LIG d   1       6.891  -1.794  -3.908  0.00  0.00    -0.224 NA
ATOM      8  C   LIG d   1       7.775  -0.976  -4.399  0.00  0.00     0.223 A 
ATOM      9  N   LIG d   1       7.460   0.309  -4.063  0.00  0.00    -0.257 N 
ATOM     10  H   LIG d   1       3.136  -0.784  -1.378  0.00  0.00     0.062 H 
ATOM     11  H   LIG d   1       3.752   1.591  -1.544  0.00  0.00     0.062 H 
ATOM     12  H   LIG d   1       5.764   2.269  -2.780  0.00  0.00     0.064 H 
ATOM     13  H   LIG d   1       4.521  -2.506  -2.446  0.00  0.00     0.064 H 
ENDROOT
BRANCH   9  14
ATOM     14  C   LIG d   1       8.176   1.450  -4.405  0.00  0.00     0.242 A 
ATOM     15  N   LIG d   1       8.714   2.207  -3.456  0.00  0.00    -0.181 NA
ATOM     16  C   LIG d   1       9.396   3.292  -3.784  0.00  0.00     0.228 A 
ATOM     17  N   LIG d   1       9.542   3.624  -5.058  0.00  0.00    -0.187 NA
ATOM     18 CL   LIG d   1      10.101   4.282  -2.544  0.00  0.00    -0.041 Cl
ATOM     19  C   LIG d   1       9.006   2.870  -6.006  0.00  0.00     0.228 A 
ATOM     20  N   LIG d   1       8.328   1.782  -5.683  0.00  0.00    -0.181 NA
ATOM     21 CL   LIG d   1       9.200   3.308  -7.674  0.00  0.00    -0.041 Cl
ENDBRANCH   9  14
BRANCH   8  22
ATOM     22  C   LIG d   1       8.973  -1.387  -5.215  0.00  0.00     0.451 C 
ATOM     23  F   LIG d   1       8.731  -1.120  -6.567  0.00  0.00    -0.163 F 
ATOM     24  F   LIG d   1       9.206  -2.756  -5.045  0.00  0.00    -0.163 F 
ATOM     25  F   LIG d   1      10.096  -0.666  -4.792  0.00  0.00    -0.163 F 
ENDBRANCH   8  22
TORSDOF 2
ENDMDL
MODEL 8
REMARK VINA RESULT:      -5.9      3.762      5.059
REMARK  2 active torsions:
REMARK  status: ('A' for Active; 'I' for Inactive)
REMARK    1  A    between atoms: C_8  and  C_18 
REMARK    2  A    between atoms: N_9  and  C_10 
ROOT
ATOM      1  C   LIG d   1       9.500   1.980  -4.636  0.00  0.00    -0.060 A 
ATOM      2  C   LIG d   1       9.341   1.039  -5.644  0.00  0.00    -0.060 A 
ATOM      3  C   LIG d   1       8.185   0.294  -5.728  0.00  0.00    -0.036 A 
ATOM      4  C   LIG d   1       7.172   0.485  -4.799  0.00  0.00     0.077 A 
ATOM      5  C   LIG d   1       7.327   1.435  -3.777  0.00  0.00     0.090 A 
ATOM      6  C   LIG d   1       8.505   2.183  -3.707  0.00  0.00    -0.034 A 
ATOM      7  N   LIG d   1       6.193   1.403  -3.029  0.00  0.00    -0.224 NA
ATOM      8  C   LIG d   1       5.373   0.517  -3.511  0.00  0.00     0.223 A 
ATOM      9  N   LIG d   1       5.926  -0.087  -4.604  0.00  0.00    -0.257 N 
ATOM     10  H   LIG d   1      10.410   2.558  -4.582  0.00  0.00     0.062 H 
ATOM     11  H   LIG d   1      10.129   0.892  -6.368  0.00  0.00     0.062 H 
ATOM     12  H   LIG d   1       8.068  -0.436  -6.515  0.00  0.00     0.064 H 
ATOM     13  H   LIG d   1       8.634   2.917  -2.926  0.00  0.00     0.064 H 
ENDROOT
BRANCH   9  14
ATOM     14  C   LIG d   1       5.346  -1.086  -5.375  0.00  0.00     0.242 A 
ATOM     15  N   LIG d   1       4.672  -0.771  -6.476  0.00  0.00    -0.181 NA
ATOM     16  C   LIG d   1       4.122  -1.724  -7.209  0.00  0.00     0.228 A 
ATOM     17  N   LIG d   1       4.242  -2.992  -6.848  0.00  0.00    -0.187 NA
ATOM     18 CL   LIG d   1       3.242  -1.312  -8.648  0.00  0.00    -0.041 Cl
ATOM     19  C   LIG d   1       4.914  -3.309  -5.751  0.00  0.00     0.228 A 
ATOM     20  N   LIG d   1       5.470  -2.360  -5.017  0.00  0.00    -0.181 NA
ATOM     21 CL   LIG d   1       5.069  -4.972  -5.280  0.00  0.00    -0.041 Cl
ENDBRANCH   9  14
BRANCH   8  22
ATOM     22  C   LIG d   1       4.013   0.200  -2.944  0.00  0.00     0.451 C 
ATOM     23  F   LIG d   1       4.001  -1.117  -2.470  0.00  0.00    -0.163 F 
ATOM     24  F   LIG d   1       3.046   0.344  -3.945  0.00  0.00    -0.163 F 
ATOM     25  F   LIG d   1       3.730   1.077  -1.891  0.00  0.00    -0.163 F 
ENDBRANCH   8  22
TORSDOF 2
ENDMDL
MODEL 9
REMARK VINA RESULT:      -5.9      3.751      4.918
REMARK  2 active torsions:
REMARK  status: ('A' for Active; 'I' for Inactive)
REMARK    1  A    between atoms: C_8  and  C_18 
REMARK    2  A    between atoms: N_9  and  C_10 
ROOT
ATOM      1  C   LIG d   1       9.465   1.978  -4.679  0.00  0.00    -0.060 A 
ATOM      2  C   LIG d   1       9.301   1.039  -5.687  0.00  0.00    -0.060 A 
ATOM      3  C   LIG d   1       8.151   0.284  -5.758  0.00  0.00    -0.036 A 
ATOM      4  C   LIG d   1       7.148   0.463  -4.816  0.00  0.00     0.077 A 
ATOM      5  C   LIG d   1       7.308   1.411  -3.793  0.00  0.00     0.090 A 
ATOM      6  C   LIG d   1       8.480   2.169  -3.736  0.00  0.00    -0.034 A 
ATOM      7  N   LIG d   1       6.184   1.367  -3.030  0.00  0.00    -0.224 NA
ATOM      8  C   LIG d   1       5.366   0.475  -3.505  0.00  0.00     0.223 A 
ATOM      9  N   LIG d   1       5.910  -0.121  -4.606  0.00  0.00    -0.257 N 
ATOM     10  H   LIG d   1      10.370   2.565  -4.634  0.00  0.00     0.062 H 
ATOM     11  H   LIG d   1      10.082   0.900  -6.421  0.00  0.00     0.062 H 
ATOM     12  H   LIG d   1       8.030  -0.445  -6.546  0.00  0.00     0.064 H 
ATOM     13  H   LIG d   1       8.613   2.902  -2.954  0.00  0.00     0.064 H 
ENDROOT
BRANCH   9  14
ATOM     14  C   LIG d   1       5.329  -1.122  -5.374  0.00  0.00     0.242 A 
ATOM     15  N   LIG d   1       5.455  -2.395  -5.013  0.00  0.00    -0.181 NA
ATOM     16  C   LIG d   1       4.900  -3.347  -5.745  0.00  0.00     0.228 A 
ATOM     17  N   LIG d   1       4.220  -3.033  -6.836  0.00  0.00    -0.187 NA
ATOM     18 CL   LIG d   1       5.063  -5.009  -5.272  0.00  0.00    -0.041 Cl
ATOM     19  C   LIG d   1       4.093  -1.765  -7.198  0.00  0.00     0.228 A 
ATOM     20  N   LIG d   1       4.642  -0.810  -6.467  0.00  0.00    -0.181 NA
ATOM     21 CL   LIG d   1       3.201  -1.357  -8.630  0.00  0.00    -0.041 Cl
ENDBRANCH   9  14
BRANCH   8  22
ATOM     22  C   LIG d   1       4.017   0.144  -2.922  0.00  0.00     0.451 C 
ATOM     23  F   LIG d   1       3.041   0.237  -3.921  0.00  0.00    -0.163 F 
ATOM     24  F   LIG d   1       3.719   1.045  -1.894  0.00  0.00    -0.163 F 
ATOM     25  F   LIG d   1       4.036  -1.158  -2.410  0.00  0.00    -0.163 F 
ENDBRANCH   8  22
TORSDOF 2
ENDMDL
MODEL 10
REMARK VINA RESULT:      -5.8      3.391      6.091
REMARK  2 active torsions:
REMARK  status: ('A' for Active; 'I' for Inactive)
REMARK    1  A    between atoms: C_8  and  C_18 
REMARK    2  A    between atoms: N_9  and  C_10 
ROOT
ATOM      1  C   LIG d   1       2.457  -3.376 -11.094  0.00  0.00    -0.060 A 
ATOM      2  C   LIG d   1       2.870  -3.757  -9.824  0.00  0.00    -0.060 A 
ATOM      3  C   LIG d   1       3.276  -2.811  -8.909  0.00  0.00    -0.036 A 
ATOM      4  C   LIG d   1       3.275  -1.468  -9.257  0.00  0.00     0.077 A 
ATOM      5  C   LIG d   1       2.859  -1.076 -10.540  0.00  0.00     0.090 A 
ATOM      6  C   LIG d   1       2.449  -2.049 -11.456  0.00  0.00    -0.034 A 
ATOM      7  N   LIG d   1       2.962   0.277 -10.596  0.00  0.00    -0.224 NA
ATOM      8  C   LIG d   1       3.403   0.731  -9.461  0.00  0.00     0.223 A 
ATOM      9  N   LIG d   1       3.619  -0.302  -8.595  0.00  0.00    -0.257 N 
ATOM     10  H   LIG d   1       2.140  -4.127 -11.802  0.00  0.00     0.062 H 
ATOM     11  H   LIG d   1       2.870  -4.803  -9.553  0.00  0.00     0.062 H 
ATOM     12  H   LIG d   1       3.595  -3.115  -7.922  0.00  0.00     0.064 H 
ATOM     13  H   LIG d   1       2.127  -1.759 -12.445  0.00  0.00     0.064 H 
ENDROOT
BRANCH   9  14
ATOM     14  C   LIG d   1       4.094  -0.202  -7.293  0.00  0.00     0.242 A 
ATOM     15  N   LIG d   1       3.244  -0.205  -6.273  0.00  0.00    -0.181 NA
ATOM     16  C   LIG d   1       3.698  -0.110  -5.034  0.00  0.00     0.228 A 
ATOM     17  N   LIG d   1       5.000  -0.012  -4.811  0.00  0.00    -0.187 NA
ATOM     18 CL   LIG d   1       2.587  -0.116  -3.700  0.00  0.00    -0.041 Cl
ATOM     19  C   LIG d   1       5.849  -0.009  -5.827  0.00  0.00     0.228 A 
ATOM     20  N   LIG d   1       5.400  -0.108  -7.066  0.00  0.00    -0.181 NA
ATOM     21 CL   LIG d   1       7.554   0.120  -5.530  0.00  0.00    -0.041 Cl
ENDBRANCH   9  14
BRANCH   8  22
ATOM     22  C   LIG d   1       3.644   2.186  -9.147  0.00  0.00     0.451 C 
ATOM     23  F   LIG d   1       2.856   2.565  -8.055  0.00  0.00    -0.163 F 
ATOM     24  F   LIG d   1       3.306   2.965 -10.259  0.00  0.00    -0.163 F 
ATOM     25  F   LIG d   1       4.995   2.378  -8.835  0.00  0.00    -0.163 F 
ENDBRANCH   8  22
TORSDOF 2
ENDMDL
