MODEL 1
REMARK VINA RESULT:      -5.5      0.000      0.000
REMARK  1 active torsions:
REMARK  status: ('A' for Active; 'I' for Inactive)
REMARK    1  A    between atoms: C_5  and  N_7 
REMARK       I    between atoms: N_7  and  C_8 
REMARK       I    between atoms: C_8  and  N_10 
ROOT
ATOM      1  C   LIG d   1       4.222  -0.842  -2.054  0.00  0.00    -0.057 A 
ATOM      2  C   LIG d   1       4.497   0.472  -1.699  0.00  0.00    -0.043 A 
ATOM      3  C   LIG d   1       4.095   1.496  -2.533  0.00  0.00     0.030 A 
ATOM      4  N   LIG d   1       3.456   1.240  -3.659  0.00  0.00    -0.240 NA
ATOM      5  C   LIG d   1       3.176   0.002  -4.032  0.00  0.00     0.126 A 
ATOM      6  C   LIG d   1       3.551  -1.078  -3.240  0.00  0.00    -0.021 A 
ATOM      7  H   LIG d   1       4.530  -1.661  -1.421  0.00  0.00     0.062 H 
ATOM      8  H   LIG d   1       5.019   0.691  -0.779  0.00  0.00     0.063 H 
ATOM      9  H   LIG d   1       4.307   2.520  -2.261  0.00  0.00     0.083 H 
ATOM     10  H   LIG d   1       3.322  -2.088  -3.547  0.00  0.00     0.065 H 
ENDROOT
BRANCH   5  11
ATOM     11  N   LIG d   1       2.499  -0.223  -5.230  0.00  0.00    -0.254 N 
ATOM     12  C   LIG d   1       3.150  -0.099  -6.404  0.00  0.00     0.302 C 
ATOM     13  O   LIG d   1       4.346   0.117  -6.417  0.00  0.00    -0.253 OA
ATOM     14  N   LIG d   1       2.473  -0.214  -7.564  0.00  0.00    -0.313 N 
ATOM     15  H   LIG d   1       1.519  -0.386  -7.555  0.00  0.00     0.146 HD
ATOM     16  H   LIG d   1       2.941  -0.125  -8.410  0.00  0.00     0.146 HD
ATOM     17  H   LIG d   1       1.560  -0.467  -5.219  0.00  0.00     0.158 HD
ENDBRANCH   5  11
TORSDOF 1
ENDMDL
MODEL 2
REMARK VINA RESULT:      -5.0      2.109      2.303
REMARK  1 active torsions:
REMARK  status: ('A' for Active; 'I' for Inactive)
REMARK    1  A    between atoms: C_5  and  N_7 
REMARK       I    between atoms: N_7  and  C_8 
REMARK       I    between atoms: C_8  and  N_10 
ROOT
ATOM      1  C   LIG d   1       4.637  -0.228  -1.554  0.00  0.00    -0.057 A 
ATOM      2  C   LIG d   1       4.137   0.962  -2.066  0.00  0.00    -0.043 A 
ATOM      3  C   LIG d   1       3.482   0.953  -3.281  0.00  0.00     0.030 A 
ATOM      4  N   LIG d   1       3.327  -0.170  -3.958  0.00  0.00    -0.240 NA
ATOM      5  C   LIG d   1       3.789  -1.323  -3.504  0.00  0.00     0.126 A 
ATOM      6  C   LIG d   1       4.459  -1.388  -2.287  0.00  0.00    -0.021 A 
ATOM      7  H   LIG d   1       5.158  -0.247  -0.607  0.00  0.00     0.062 H 
ATOM      8  H   LIG d   1       4.259   1.885  -1.518  0.00  0.00     0.063 H 
ATOM      9  H   LIG d   1       3.091   1.877  -3.683  0.00  0.00     0.083 H 
ATOM     10  H   LIG d   1       4.836  -2.331  -1.919  0.00  0.00     0.065 H 
ENDROOT
BRANCH   5  11
ATOM     11  N   LIG d   1       3.603  -2.484  -4.252  0.00  0.00    -0.254 N 
ATOM     12  C   LIG d   1       4.481  -2.808  -5.222  0.00  0.00     0.302 C 
ATOM     13  O   LIG d   1       5.483  -2.139  -5.383  0.00  0.00    -0.253 OA
ATOM     14  N   LIG d   1       4.247  -3.873  -6.014  0.00  0.00    -0.313 N 
ATOM     15  H   LIG d   1       3.448  -4.407  -5.886  0.00  0.00     0.146 HD
ATOM     16  H   LIG d   1       4.880  -4.106  -6.712  0.00  0.00     0.146 HD
ATOM     17  H   LIG d   1       2.842  -3.059  -4.076  0.00  0.00     0.158 HD
ENDBRANCH   5  11
TORSDOF 1
ENDMDL
MODEL 3
REMARK VINA RESULT:      -4.8      3.111      4.140
REMARK  1 active torsions:
REMARK  status: ('A' for Active; 'I' for Inactive)
REMARK    1  A    between atoms: C_5  and  N_7 
REMARK       I    between atoms: N_7  and  C_8 
REMARK       I    between atoms: C_8  and  N_10 
ROOT
ATOM      1  C   LIG d   1       3.789   1.048  -2.289  0.00  0.00    -0.057 A 
ATOM      2  C   LIG d   1       3.124   0.563  -3.407  0.00  0.00    -0.043 A 
ATOM      3  C   LIG d   1       3.855   0.026  -4.448  0.00  0.00     0.030 A 
ATOM      4  N   LIG d   1       5.172  -0.032  -4.390  0.00  0.00    -0.240 NA
ATOM      5  C   LIG d   1       5.842   0.419  -3.342  0.00  0.00     0.126 A 
ATOM      6  C   LIG d   1       5.169   0.974  -2.258  0.00  0.00    -0.021 A 
ATOM      7  H   LIG d   1       3.239   1.478  -1.463  0.00  0.00     0.062 H 
ATOM      8  H   LIG d   1       2.046   0.606  -3.463  0.00  0.00     0.063 H 
ATOM      9  H   LIG d   1       3.342  -0.353  -5.320  0.00  0.00     0.083 H 
ATOM     10  H   LIG d   1       5.718   1.342  -1.403  0.00  0.00     0.065 H 
ENDROOT
BRANCH   5  11
ATOM     11  N   LIG d   1       7.233   0.338  -3.323  0.00  0.00    -0.254 N 
ATOM     12  C   LIG d   1       7.970   1.271  -3.960  0.00  0.00     0.302 C 
ATOM     13  O   LIG d   1       7.427   2.231  -4.471  0.00  0.00    -0.253 OA
ATOM     14  N   LIG d   1       9.309   1.137  -4.030  0.00  0.00    -0.313 N 
ATOM     15  H   LIG d   1       9.743   0.371  -3.624  0.00  0.00     0.146 HD
ATOM     16  H   LIG d   1       9.840   1.808  -4.489  0.00  0.00     0.146 HD
ATOM     17  H   LIG d   1       7.671  -0.388  -2.853  0.00  0.00     0.158 HD
ENDBRANCH   5  11
TORSDOF 1
ENDMDL
MODEL 4
REMARK VINA RESULT:      -4.4      2.641      5.519
REMARK  1 active torsions:
REMARK  status: ('A' for Active; 'I' for Inactive)
REMARK    1  A    between atoms: C_5  and  N_7 
REMARK       I    between atoms: N_7  and  C_8 
REMARK       I    between atoms: C_8  and  N_10 
ROOT
ATOM      1  C   LIG d   1       3.413   2.362  -9.584  0.00  0.00    -0.057 A 
ATOM      2  C   LIG d   1       3.933   1.492 -10.533  0.00  0.00    -0.043 A 
ATOM      3  C   LIG d   1       4.014   0.145 -10.241  0.00  0.00     0.030 A 
ATOM      4  N   LIG d   1       3.605  -0.321  -9.076  0.00  0.00    -0.240 NA
ATOM      5  C   LIG d   1       3.104   0.476  -8.147  0.00  0.00     0.126 A 
ATOM      6  C   LIG d   1       2.993   1.844  -8.372  0.00  0.00    -0.021 A 
ATOM      7  H   LIG d   1       3.343   3.422  -9.786  0.00  0.00     0.062 H 
ATOM      8  H   LIG d   1       4.269   1.865 -11.489  0.00  0.00     0.063 H 
ATOM      9  H   LIG d   1       4.418  -0.536 -10.977  0.00  0.00     0.083 H 
ATOM     10  H   LIG d   1       2.584   2.493  -7.612  0.00  0.00     0.065 H 
ENDROOT
BRANCH   5  11
ATOM     11  N   LIG d   1       2.684  -0.059  -6.931  0.00  0.00    -0.254 N 
ATOM     12  C   LIG d   1       3.573  -0.243  -5.934  0.00  0.00     0.302 C 
ATOM     13  O   LIG d   1       4.719   0.143  -6.061  0.00  0.00    -0.253 OA
ATOM     14  N   LIG d   1       3.191  -0.855  -4.796  0.00  0.00    -0.313 N 
ATOM     15  H   LIG d   1       2.277  -1.164  -4.693  0.00  0.00     0.146 HD
ATOM     16  H   LIG d   1       3.830  -0.987  -4.077  0.00  0.00     0.146 HD
ATOM     17  H   LIG d   1       1.754  -0.301  -6.801  0.00  0.00     0.158 HD
ENDBRANCH   5  11
TORSDOF 1
ENDMDL
MODEL 5
REMARK VINA RESULT:      -4.2     10.804     11.807
REMARK  1 active torsions:
REMARK  status: ('A' for Active; 'I' for Inactive)
REMARK    1  A    between atoms: C_5  and  N_7 
REMARK       I    between atoms: N_7  and  C_8 
REMARK       I    between atoms: C_8  and  N_10 
ROOT
ATOM      1  C   LIG d   1      11.234   9.017   0.812  0.00  0.00    -0.057 A 
ATOM      2  C   LIG d   1      11.221   7.657   0.534  0.00  0.00    -0.043 A 
ATOM      3  C   LIG d   1      10.276   7.153  -0.337  0.00  0.00     0.030 A 
ATOM      4  N   LIG d   1       9.389   7.948  -0.906  0.00  0.00    -0.240 NA
ATOM      5  C   LIG d   1       9.368   9.249  -0.666  0.00  0.00     0.126 A 
ATOM      6  C   LIG d   1      10.291   9.824   0.201  0.00  0.00    -0.021 A 
ATOM      7  H   LIG d   1      11.961   9.435   1.493  0.00  0.00     0.062 H 
ATOM      8  H   LIG d   1      11.944   6.999   0.994  0.00  0.00     0.063 H 
ATOM      9  H   LIG d   1      10.262   6.095  -0.556  0.00  0.00     0.083 H 
ATOM     10  H   LIG d   1      10.272  10.887   0.395  0.00  0.00     0.065 H 
ENDROOT
BRANCH   5  11
ATOM     11  N   LIG d   1       8.413  10.051  -1.288  0.00  0.00    -0.254 N 
ATOM     12  C   LIG d   1       8.737  10.749  -2.395  0.00  0.00     0.302 C 
ATOM     13  O   LIG d   1       9.832  10.609  -2.904  0.00  0.00    -0.253 OA
ATOM     14  N   LIG d   1       7.847  11.604  -2.937  0.00  0.00    -0.313 N 
ATOM     15  H   LIG d   1       6.974  11.717  -2.531  0.00  0.00     0.146 HD
ATOM     16  H   LIG d   1       8.080  12.106  -3.734  0.00  0.00     0.146 HD
ATOM     17  H   LIG d   1       7.515  10.108  -0.925  0.00  0.00     0.158 HD
ENDBRANCH   5  11
TORSDOF 1
ENDMDL
MODEL 6
REMARK VINA RESULT:      -4.0     10.133     10.743
REMARK  1 active torsions:
REMARK  status: ('A' for Active; 'I' for Inactive)
REMARK    1  A    between atoms: C_5  and  N_7 
REMARK       I    between atoms: N_7  and  C_8 
REMARK       I    between atoms: C_8  and  N_10 
ROOT
ATOM      1  C   LIG d   1      11.126   5.312  -1.843  0.00  0.00    -0.057 A 
ATOM      2  C   LIG d   1      11.631   5.175  -0.557  0.00  0.00    -0.043 A 
ATOM      3  C   LIG d   1      11.189   6.025   0.437  0.00  0.00     0.030 A 
ATOM      4  N   LIG d   1      10.296   6.961   0.178  0.00  0.00    -0.240 NA
ATOM      5  C   LIG d   1       9.791   7.124  -1.034  0.00  0.00     0.126 A 
ATOM      6  C   LIG d   1      10.192   6.303  -2.083  0.00  0.00    -0.021 A 
ATOM      7  H   LIG d   1      11.460   4.662  -2.639  0.00  0.00     0.062 H 
ATOM      8  H   LIG d   1      12.362   4.410  -0.336  0.00  0.00     0.063 H 
ATOM      9  H   LIG d   1      11.579   5.922   1.439  0.00  0.00     0.083 H 
ATOM     10  H   LIG d   1       9.778   6.438  -3.072  0.00  0.00     0.065 H 
ENDROOT
BRANCH   5  11
ATOM     11  N   LIG d   1       8.850   8.126  -1.262  0.00  0.00    -0.254 N 
ATOM     12  C   LIG d   1       9.246   9.411  -1.361  0.00  0.00     0.302 C 
ATOM     13  O   LIG d   1      10.430   9.686  -1.345  0.00  0.00    -0.253 OA
ATOM     14  N   LIG d   1       8.329  10.391  -1.479  0.00  0.00    -0.313 N 
ATOM     15  H   LIG d   1       7.384  10.173  -1.491  0.00  0.00     0.146 HD
ATOM     16  H   LIG d   1       8.613  11.316  -1.551  0.00  0.00     0.146 HD
ATOM     17  H   LIG d   1       7.911   7.900  -1.348  0.00  0.00     0.158 HD
ENDBRANCH   5  11
TORSDOF 1
ENDMDL
MODEL 7
REMARK VINA RESULT:      -3.9      9.400     10.657
REMARK  1 active torsions:
REMARK  status: ('A' for Active; 'I' for Inactive)
REMARK    1  A    between atoms: C_5  and  N_7 
REMARK       I    between atoms: N_7  and  C_8 
REMARK       I    between atoms: C_8  and  N_10 
ROOT
ATOM      1  C   LIG d   1      11.113   9.160   0.093  0.00  0.00    -0.057 A 
ATOM      2  C   LIG d   1       9.906   9.646  -0.391  0.00  0.00    -0.043 A 
ATOM      3  C   LIG d   1       8.975   8.762  -0.897  0.00  0.00     0.030 A 
ATOM      4  N   LIG d   1       9.219   7.465  -0.926  0.00  0.00    -0.240 NA
ATOM      5  C   LIG d   1      10.357   6.963  -0.475  0.00  0.00     0.126 A 
ATOM      6  C   LIG d   1      11.340   7.797   0.049  0.00  0.00    -0.021 A 
ATOM      7  H   LIG d   1      11.860   9.832   0.490  0.00  0.00     0.062 H 
ATOM      8  H   LIG d   1       9.697  10.706  -0.370  0.00  0.00     0.063 H 
ATOM      9  H   LIG d   1       8.034   9.136  -1.275  0.00  0.00     0.083 H 
ATOM     10  H   LIG d   1      12.269   7.384   0.416  0.00  0.00     0.065 H 
ENDROOT
BRANCH   5  11
ATOM     11  N   LIG d   1      10.574   5.588  -0.525  0.00  0.00    -0.254 N 
ATOM     12  C   LIG d   1      10.976   5.011  -1.675  0.00  0.00     0.302 C 
ATOM     13  O   LIG d   1      11.239   5.700  -2.641  0.00  0.00    -0.253 OA
ATOM     14  N   LIG d   1      11.085   3.670  -1.753  0.00  0.00    -0.313 N 
ATOM     15  H   LIG d   1      10.875   3.119  -0.983  0.00  0.00     0.146 HD
ATOM     16  H   LIG d   1      11.375   3.254  -2.581  0.00  0.00     0.146 HD
ATOM     17  H   LIG d   1      10.434   5.045   0.267  0.00  0.00     0.158 HD
ENDBRANCH   5  11
TORSDOF 1
ENDMDL
MODEL 8
REMARK VINA RESULT:      -3.8      9.247     10.429
REMARK  1 active torsions:
REMARK  status: ('A' for Active; 'I' for Inactive)
REMARK    1  A    between atoms: C_5  and  N_7 
REMARK       I    between atoms: N_7  and  C_8 
REMARK       I    between atoms: C_8  and  N_10 
ROOT
ATOM      1  C   LIG d   1      11.000   8.955   0.448  0.00  0.00    -0.057 A 
ATOM      2  C   LIG d   1      11.411   7.868   1.206  0.00  0.00    -0.043 A 
ATOM      3  C   LIG d   1      11.018   6.598   0.835  0.00  0.00     0.030 A 
ATOM      4  N   LIG d   1      10.260   6.408  -0.229  0.00  0.00    -0.240 NA
ATOM      5  C   LIG d   1       9.849   7.418  -0.977  0.00  0.00     0.126 A 
ATOM      6  C   LIG d   1      10.206   8.724  -0.661  0.00  0.00    -0.021 A 
ATOM      7  H   LIG d   1      11.290   9.960   0.720  0.00  0.00     0.062 H 
ATOM      8  H   LIG d   1      12.032   8.014   2.078  0.00  0.00     0.063 H 
ATOM      9  H   LIG d   1      11.336   5.748   1.423  0.00  0.00     0.083 H 
ATOM     10  H   LIG d   1       9.868   9.548  -1.273  0.00  0.00     0.065 H 
ENDROOT
BRANCH   5  11
ATOM     11  N   LIG d   1       9.049   7.171  -2.091  0.00  0.00    -0.254 N 
ATOM     12  C   LIG d   1       9.619   6.888  -3.279  0.00  0.00     0.302 C 
ATOM     13  O   LIG d   1      10.824   6.755  -3.360  0.00  0.00    -0.253 OA
ATOM     14  N   LIG d   1       8.851   6.751  -4.379  0.00  0.00    -0.313 N 
ATOM     15  H   LIG d   1       7.889   6.857  -4.316  0.00  0.00     0.146 HD
ATOM     16  H   LIG d   1       9.261   6.547  -5.234  0.00  0.00     0.146 HD
ATOM     17  H   LIG d   1       8.082   7.205  -2.013  0.00  0.00     0.158 HD
ENDBRANCH   5  11
TORSDOF 1
ENDMDL
MODEL 9
REMARK VINA RESULT:      -3.7     10.351     11.445
REMARK  1 active torsions:
REMARK  status: ('A' for Active; 'I' for Inactive)
REMARK    1  A    between atoms: C_5  and  N_7 
REMARK       I    between atoms: N_7  and  C_8 
REMARK       I    between atoms: C_8  and  N_10 
ROOT
ATOM      1  C   LIG d   1      10.886  10.205  -0.294  0.00  0.00    -0.057 A 
ATOM      2  C   LIG d   1       9.526  10.485  -0.302  0.00  0.00    -0.043 A 
ATOM      3  C   LIG d   1       8.630   9.479  -0.601  0.00  0.00     0.030 A 
ATOM      4  N   LIG d   1       9.051   8.259  -0.878  0.00  0.00    -0.240 NA
ATOM      5  C   LIG d   1      10.337   7.952  -0.881  0.00  0.00     0.126 A 
ATOM      6  C   LIG d   1      11.295   8.917  -0.589  0.00  0.00    -0.021 A 
ATOM      7  H   LIG d   1      11.608  10.976  -0.068  0.00  0.00     0.062 H 
ATOM      8  H   LIG d   1       9.173  11.481  -0.075  0.00  0.00     0.063 H 
ATOM      9  H   LIG d   1       7.571   9.692  -0.608  0.00  0.00     0.083 H 
ATOM     10  H   LIG d   1      12.346   8.664  -0.593  0.00  0.00     0.065 H 
ENDROOT
BRANCH   5  11
ATOM     11  N   LIG d   1      10.737   6.651  -1.181  0.00  0.00    -0.254 N 
ATOM     12  C   LIG d   1      10.897   5.751  -0.190  0.00  0.00     0.302 C 
ATOM     13  O   LIG d   1      10.605   6.046   0.953  0.00  0.00    -0.253 OA
ATOM     14  N   LIG d   1      11.382   4.525  -0.466  0.00  0.00    -0.313 N 
ATOM     15  H   LIG d   1      11.616   4.289  -1.377  0.00  0.00     0.146 HD
ATOM     16  H   LIG d   1      11.498   3.876   0.247  0.00  0.00     0.146 HD
ATOM     17  H   LIG d   1      10.901   6.393  -2.101  0.00  0.00     0.158 HD
ENDBRANCH   5  11
TORSDOF 1
ENDMDL
MODEL 10
REMARK VINA RESULT:      -3.5      9.951     10.998
REMARK  1 active torsions:
REMARK  status: ('A' for Active; 'I' for Inactive)
REMARK    1  A    between atoms: C_5  and  N_7 
REMARK       I    between atoms: N_7  and  C_8 
REMARK       I    between atoms: C_8  and  N_10 
ROOT
ATOM      1  C   LIG d   1      -2.600  -8.077 -10.555  0.00  0.00    -0.057 A 
ATOM      2  C   LIG d   1      -1.320  -7.768 -10.113  0.00  0.00    -0.043 A 
ATOM      3  C   LIG d   1      -1.113  -6.602  -9.405  0.00  0.00     0.030 A 
ATOM      4  N   LIG d   1      -2.114  -5.782  -9.144  0.00  0.00    -0.240 NA
ATOM      5  C   LIG d   1      -3.347  -6.042  -9.547  0.00  0.00     0.126 A 
ATOM      6  C   LIG d   1      -3.628  -7.198 -10.267  0.00  0.00    -0.021 A 
ATOM      7  H   LIG d   1      -2.787  -8.982 -11.116  0.00  0.00     0.062 H 
ATOM      8  H   LIG d   1      -0.495  -8.434 -10.322  0.00  0.00     0.063 H 
ATOM      9  H   LIG d   1      -0.119  -6.357  -9.059  0.00  0.00     0.083 H 
ATOM     10  H   LIG d   1      -4.635  -7.408 -10.595  0.00  0.00     0.065 H 
ENDROOT
BRANCH   5  11
ATOM     11  N   LIG d   1      -4.374  -5.148  -9.250  0.00  0.00    -0.254 N 
ATOM     12  C   LIG d   1      -4.651  -4.135 -10.095  0.00  0.00     0.302 C 
ATOM     13  O   LIG d   1      -4.069  -4.055 -11.160  0.00  0.00    -0.253 OA
ATOM     14  N   LIG d   1      -5.573  -3.211  -9.760  0.00  0.00    -0.313 N 
ATOM     15  H   LIG d   1      -6.037  -3.274  -8.911  0.00  0.00     0.146 HD
ATOM     16  H   LIG d   1      -5.773  -2.482 -10.369  0.00  0.00     0.146 HD
ATOM     17  H   LIG d   1      -4.889  -5.253  -8.434  0.00  0.00     0.158 HD
ENDBRANCH   5  11
TORSDOF 1
ENDMDL
