MODEL 1
REMARK VINA RESULT:      -8.0      0.000      0.000
REMARK  9 active torsions:
REMARK  status: ('A' for Active; 'I' for Inactive)
REMARK    1  A    between atoms: C_4  and  C_7 
REMARK    2  A    between atoms: C_15  and  O_20 
REMARK    3  A    between atoms: C_16  and  O_19 
REMARK    4  A    between atoms: C_17  and  O_18 
REMARK    5  A    between atoms: O_20  and  C_21 
REMARK    6  A    between atoms: C_23  and  O_36 
REMARK    7  A    between atoms: C_25  and  O_35 
REMARK    8  A    between atoms: C_27  and  O_34 
REMARK    9  A    between atoms: C_29  and  C_32 
ROOT
ATOM      1  C   LIG d   1       7.328   1.147  -4.019  0.00  0.00     0.139 A 
ATOM      2  C   LIG d   1       7.668   0.796  -5.287  0.00  0.00     0.029 A 
ATOM      3  C   LIG d   1       8.674   1.525  -5.966  0.00  0.00     0.197 A 
ATOM      4  O   LIG d   1       9.005   1.239  -7.105  0.00  0.00    -0.287 OA
ATOM      5  C   LIG d   1       9.313   2.636  -5.241  0.00  0.00     0.109 A 
ATOM      6  C   LIG d   1       8.885   2.915  -3.931  0.00  0.00     0.146 A 
ATOM      7  O   LIG d   1       7.913   2.165  -3.369  0.00  0.00    -0.454 OA
ATOM      8  C   LIG d   1       9.468   3.960  -3.231  0.00  0.00     0.027 A 
ATOM      9  C   LIG d   1      10.464   4.722  -3.821  0.00  0.00     0.172 A 
ATOM     10  C   LIG d   1      10.891   4.449  -5.120  0.00  0.00     0.202 A 
ATOM     11  C   LIG d   1      10.319   3.407  -5.834  0.00  0.00     0.177 A 
ATOM     12  H   LIG d   1       7.172  -0.030  -5.774  0.00  0.00     0.069 H 
ATOM     13  H   LIG d   1       9.146   4.181  -2.224  0.00  0.00     0.069 H 
ENDROOT
BRANCH   9  14
ATOM     14  O   LIG d   1      11.029   5.744  -3.128  0.00  0.00    -0.457 OA
BRANCH  14  15
ATOM     15  C   LIG d   1      10.163   6.801  -2.710  0.00  0.00     0.231 C 
ATOM     16  H   LIG d   1       9.125   6.494  -2.838  0.00  0.00     0.108 H 
ATOM     17  O   LIG d   1      10.417   7.966  -3.500  0.00  0.00    -0.328 OA
ATOM     18  C   LIG d   1       9.583   9.081  -3.180  0.00  0.00     0.130 C 
ATOM     19  C   LIG d   1       9.820   9.491  -1.724  0.00  0.00     0.115 C 
ATOM     20  H   LIG d   1       8.539   8.803  -3.314  0.00  0.00     0.069 H 
ATOM     21  C   LIG d   1       9.535   8.295  -0.811  0.00  0.00     0.116 C 
ATOM     22  H   LIG d   1      10.856   9.808  -1.599  0.00  0.00     0.065 H 
ATOM     23  C   LIG d   1      10.423   7.121  -1.235  0.00  0.00     0.145 C 
ATOM     24  H   LIG d   1       9.756   8.564   0.222  0.00  0.00     0.065 H 
ATOM     25  H   LIG d   1      11.471   7.389  -1.100  0.00  0.00     0.068 H 
BRANCH  18  26
ATOM     26  C   LIG d   1       9.918  10.235  -4.090  0.00  0.00     0.073 C 
ATOM     27  O   LIG d   1      11.026  10.332  -4.560  0.00  0.00    -0.547 OA
ATOM     28  O   LIG d   1       8.984  11.155  -4.377  0.00  0.00    -0.547 OA
ENDBRANCH  18  26
BRANCH  19  29
ATOM     29  O   LIG d   1       8.945  10.570  -1.385  0.00  0.00    -0.386 OA
ATOM     30  H   LIG d   1       9.346  11.236  -0.810  0.00  0.00     0.210 HD
ENDBRANCH  19  29
BRANCH  21  31
ATOM     31  O   LIG d   1       8.160   7.922  -0.926  0.00  0.00    -0.386 OA
ATOM     32  H   LIG d   1       7.651   8.043  -0.113  0.00  0.00     0.210 HD
ENDBRANCH  21  31
BRANCH  23  33
ATOM     33  O   LIG d   1      10.115   5.976  -0.437  0.00  0.00    -0.383 OA
ATOM     34  H   LIG d   1       9.413   5.419  -0.803  0.00  0.00     0.210 HD
ENDBRANCH  23  33
ENDBRANCH  14  15
ENDBRANCH   9  14
BRANCH  10  35
ATOM     35  O   LIG d   1      11.869   5.207  -5.688  0.00  0.00    -0.501 OA
ATOM     36  H   LIG d   1      12.664   4.708  -5.923  0.00  0.00     0.292 HD
ENDBRANCH  10  35
BRANCH  11  37
ATOM     37  O   LIG d   1      10.732   3.139  -7.100  0.00  0.00    -0.503 OA
ATOM     38  H   LIG d   1      11.693   3.119  -7.204  0.00  0.00     0.292 HD
ENDBRANCH  11  37
BRANCH   1  39
ATOM     39  C   LIG d   1       6.272   0.378  -3.329  0.00  0.00     0.017 A 
ATOM     40  C   LIG d   1       5.299   1.040  -2.578  0.00  0.00    -0.051 A 
ATOM     41  C   LIG d   1       4.316   0.316  -1.937  0.00  0.00    -0.061 A 
ATOM     42  H   LIG d   1       5.315   2.118  -2.501  0.00  0.00     0.062 H 
ATOM     43  C   LIG d   1       4.293  -1.064  -2.034  0.00  0.00    -0.062 A 
ATOM     44  H   LIG d   1       3.562   0.827  -1.356  0.00  0.00     0.062 H 
ATOM     45  C   LIG d   1       5.254  -1.727  -2.776  0.00  0.00    -0.061 A 
ATOM     46  H   LIG d   1       3.521  -1.627  -1.530  0.00  0.00     0.062 H 
ATOM     47  C   LIG d   1       6.241  -1.014  -3.427  0.00  0.00    -0.051 A 
ATOM     48  H   LIG d   1       5.231  -2.804  -2.849  0.00  0.00     0.062 H 
ATOM     49  H   LIG d   1       6.988  -1.533  -4.009  0.00  0.00     0.062 H 
ENDBRANCH   1  39
TORSDOF 9
ENDMDL
MODEL 2
REMARK VINA RESULT:      -7.8      0.628      1.057
REMARK  9 active torsions:
REMARK  status: ('A' for Active; 'I' for Inactive)
REMARK    1  A    between atoms: C_4  and  C_7 
REMARK    2  A    between atoms: C_15  and  O_20 
REMARK    3  A    between atoms: C_16  and  O_19 
REMARK    4  A    between atoms: C_17  and  O_18 
REMARK    5  A    between atoms: O_20  and  C_21 
REMARK    6  A    between atoms: C_23  and  O_36 
REMARK    7  A    between atoms: C_25  and  O_35 
REMARK    8  A    between atoms: C_27  and  O_34 
REMARK    9  A    between atoms: C_29  and  C_32 
ROOT
ATOM      1  C   LIG d   1       7.491   0.757  -3.847  0.00  0.00     0.139 A 
ATOM      2  C   LIG d   1       7.984   0.259  -5.012  0.00  0.00     0.029 A 
ATOM      3  C   LIG d   1       9.103   0.879  -5.618  0.00  0.00     0.197 A 
ATOM      4  O   LIG d   1       9.572   0.460  -6.663  0.00  0.00    -0.287 OA
ATOM      5  C   LIG d   1       9.686   2.045  -4.932  0.00  0.00     0.109 A 
ATOM      6  C   LIG d   1       9.099   2.478  -3.730  0.00  0.00     0.146 A 
ATOM      7  O   LIG d   1       8.028   1.823  -3.233  0.00  0.00    -0.454 OA
ATOM      8  C   LIG d   1       9.627   3.576  -3.069  0.00  0.00     0.027 A 
ATOM      9  C   LIG d   1      10.726   4.239  -3.592  0.00  0.00     0.172 A 
ATOM     10  C   LIG d   1      11.311   3.813  -4.783  0.00  0.00     0.202 A 
ATOM     11  C   LIG d   1      10.797   2.716  -5.456  0.00  0.00     0.177 A 
ATOM     12  H   LIG d   1       7.522  -0.601  -5.474  0.00  0.00     0.069 H 
ATOM     13  H   LIG d   1       9.181   3.916  -2.146  0.00  0.00     0.069 H 
ENDROOT
BRANCH   9  14
ATOM     14  O   LIG d   1      11.236   5.315  -2.938  0.00  0.00    -0.457 OA
BRANCH  14  15
ATOM     15  C   LIG d   1      10.350   6.412  -2.703  0.00  0.00     0.231 C 
ATOM     16  H   LIG d   1       9.319   6.078  -2.819  0.00  0.00     0.108 H 
ATOM     17  O   LIG d   1      10.624   7.454  -3.643  0.00  0.00    -0.328 OA
ATOM     18  C   LIG d   1       9.772   8.594  -3.511  0.00  0.00     0.130 C 
ATOM     19  C   LIG d   1       9.959   9.210  -2.122  0.00  0.00     0.115 C 
ATOM     20  H   LIG d   1       8.735   8.290  -3.638  0.00  0.00     0.069 H 
ATOM     21  C   LIG d   1       9.651   8.153  -1.057  0.00  0.00     0.116 C 
ATOM     22  H   LIG d   1      10.988   9.552  -2.010  0.00  0.00     0.065 H 
ATOM     23  C   LIG d   1      10.559   6.940  -1.281  0.00  0.00     0.145 C 
ATOM     24  H   LIG d   1       9.836   8.569  -0.067  0.00  0.00     0.065 H 
ATOM     25  H   LIG d   1      11.601   7.236  -1.152  0.00  0.00     0.068 H 
BRANCH  18  26
ATOM     26  C   LIG d   1      10.130   9.612  -4.565  0.00  0.00     0.073 C 
ATOM     27  O   LIG d   1      11.214   9.575  -5.096  0.00  0.00    -0.547 OA
ATOM     28  O   LIG d   1       9.244  10.558  -4.912  0.00  0.00    -0.547 OA
ENDBRANCH  18  26
BRANCH  19  29
ATOM     29  O   LIG d   1       9.067  10.317  -1.968  0.00  0.00    -0.386 OA
ATOM     30  H   LIG d   1       8.131  10.077  -2.002  0.00  0.00     0.210 HD
ENDBRANCH  19  29
BRANCH  21  31
ATOM     31  O   LIG d   1       8.283   7.753  -1.162  0.00  0.00    -0.386 OA
ATOM     32  H   LIG d   1       8.154   6.911  -1.620  0.00  0.00     0.210 HD
ENDBRANCH  21  31
BRANCH  23  33
ATOM     33  O   LIG d   1      10.232   5.917  -0.338  0.00  0.00    -0.383 OA
ATOM     34  H   LIG d   1       9.575   6.185   0.320  0.00  0.00     0.210 HD
ENDBRANCH  23  33
ENDBRANCH  14  15
ENDBRANCH   9  14
BRANCH  10  35
ATOM     35  O   LIG d   1      12.390   4.475  -5.285  0.00  0.00    -0.501 OA
ATOM     36  H   LIG d   1      13.153   4.490  -4.691  0.00  0.00     0.292 HD
ENDBRANCH  10  35
BRANCH  11  37
ATOM     37  O   LIG d   1      11.364   2.298  -6.617  0.00  0.00    -0.503 OA
ATOM     38  H   LIG d   1      11.170   2.865  -7.376  0.00  0.00     0.292 HD
ENDBRANCH  11  37
BRANCH   1  39
ATOM     39  C   LIG d   1       6.319   0.099  -3.234  0.00  0.00     0.017 A 
ATOM     40  C   LIG d   1       6.167  -1.286  -3.320  0.00  0.00    -0.051 A 
ATOM     41  C   LIG d   1       5.071  -1.893  -2.745  0.00  0.00    -0.061 A 
ATOM     42  H   LIG d   1       6.907  -1.881  -3.835  0.00  0.00     0.062 H 
ATOM     43  C   LIG d   1       4.122  -1.134  -2.084  0.00  0.00    -0.062 A 
ATOM     44  H   LIG d   1       4.951  -2.965  -2.810  0.00  0.00     0.062 H 
ATOM     45  C   LIG d   1       4.266   0.240  -1.995  0.00  0.00    -0.061 A 
ATOM     46  H   LIG d   1       3.265  -1.614  -1.635  0.00  0.00     0.062 H 
ATOM     47  C   LIG d   1       5.361   0.860  -2.562  0.00  0.00    -0.051 A 
ATOM     48  H   LIG d   1       3.522   0.827  -1.477  0.00  0.00     0.062 H 
ATOM     49  H   LIG d   1       5.474   1.931  -2.488  0.00  0.00     0.062 H 
ENDBRANCH   1  39
TORSDOF 9
ENDMDL
MODEL 3
REMARK VINA RESULT:      -7.7      1.569      2.435
REMARK  9 active torsions:
REMARK  status: ('A' for Active; 'I' for Inactive)
REMARK    1  A    between atoms: C_4  and  C_7 
REMARK    2  A    between atoms: C_15  and  O_20 
REMARK    3  A    between atoms: C_16  and  O_19 
REMARK    4  A    between atoms: C_17  and  O_18 
REMARK    5  A    between atoms: O_20  and  C_21 
REMARK    6  A    between atoms: C_23  and  O_36 
REMARK    7  A    between atoms: C_25  and  O_35 
REMARK    8  A    between atoms: C_27  and  O_34 
REMARK    9  A    between atoms: C_29  and  C_32 
ROOT
ATOM      1  C   LIG d   1       7.482   0.973  -3.921  0.00  0.00     0.139 A 
ATOM      2  C   LIG d   1       7.999   0.347  -5.011  0.00  0.00     0.029 A 
ATOM      3  C   LIG d   1       9.107   0.917  -5.683  0.00  0.00     0.197 A 
ATOM      4  O   LIG d   1       9.597   0.383  -6.665  0.00  0.00    -0.287 OA
ATOM      5  C   LIG d   1       9.652   2.176  -5.146  0.00  0.00     0.109 A 
ATOM      6  C   LIG d   1       9.041   2.740  -4.012  0.00  0.00     0.146 A 
ATOM      7  O   LIG d   1       7.984   2.122  -3.443  0.00  0.00    -0.454 OA
ATOM      8  C   LIG d   1       9.533   3.927  -3.492  0.00  0.00     0.027 A 
ATOM      9  C   LIG d   1      10.618   4.550  -4.088  0.00  0.00     0.172 A 
ATOM     10  C   LIG d   1      11.227   3.994  -5.213  0.00  0.00     0.202 A 
ATOM     11  C   LIG d   1      10.748   2.807  -5.745  0.00  0.00     0.177 A 
ATOM     12  H   LIG d   1       7.566  -0.577  -5.364  0.00  0.00     0.069 H 
ATOM     13  H   LIG d   1       9.070   4.367  -2.621  0.00  0.00     0.069 H 
ENDROOT
BRANCH   9  14
ATOM     14  O   LIG d   1      11.093   5.713  -3.572  0.00  0.00    -0.457 OA
BRANCH  14  15
ATOM     15  C   LIG d   1      10.943   5.908  -2.164  0.00  0.00     0.231 C 
ATOM     16  H   LIG d   1      10.216   5.196  -1.774  0.00  0.00     0.108 H 
ATOM     17  O   LIG d   1      10.489   7.240  -1.913  0.00  0.00    -0.328 OA
ATOM     18  C   LIG d   1      10.281   7.533  -0.530  0.00  0.00     0.130 C 
ATOM     19  C   LIG d   1      11.603   7.382   0.226  0.00  0.00     0.115 C 
ATOM     20  H   LIG d   1       9.545   6.844  -0.119  0.00  0.00     0.069 H 
ATOM     21  C   LIG d   1      12.137   5.960   0.027  0.00  0.00     0.116 C 
ATOM     22  H   LIG d   1      12.327   8.101  -0.158  0.00  0.00     0.065 H 
ATOM     23  C   LIG d   1      12.292   5.691  -1.473  0.00  0.00     0.145 C 
ATOM     24  H   LIG d   1      13.106   5.863   0.517  0.00  0.00     0.065 H 
ATOM     25  H   LIG d   1      13.031   6.375  -1.892  0.00  0.00     0.068 H 
BRANCH  18  26
ATOM     26  C   LIG d   1       9.779   8.948  -0.388  0.00  0.00     0.073 C 
ATOM     27  O   LIG d   1       8.665   9.233  -0.757  0.00  0.00    -0.547 OA
ATOM     28  O   LIG d   1      10.570   9.890   0.149  0.00  0.00    -0.547 OA
ENDBRANCH  18  26
BRANCH  19  29
ATOM     29  O   LIG d   1      11.385   7.620   1.619  0.00  0.00    -0.386 OA
ATOM     30  H   LIG d   1      11.881   7.029   2.202  0.00  0.00     0.210 HD
ENDBRANCH  19  29
BRANCH  21  31
ATOM     31  O   LIG d   1      11.219   5.021   0.591  0.00  0.00    -0.386 OA
ATOM     32  H   LIG d   1      11.321   4.121   0.254  0.00  0.00     0.210 HD
ENDBRANCH  21  31
BRANCH  23  33
ATOM     33  O   LIG d   1      12.721   4.342  -1.674  0.00  0.00    -0.383 OA
ATOM     34  H   LIG d   1      12.333   3.918  -2.452  0.00  0.00     0.210 HD
ENDBRANCH  23  33
ENDBRANCH  14  15
ENDBRANCH   9  14
BRANCH  10  35
ATOM     35  O   LIG d   1      12.291   4.617  -5.788  0.00  0.00    -0.501 OA
ATOM     36  H   LIG d   1      12.547   4.247  -6.645  0.00  0.00     0.292 HD
ENDBRANCH  10  35
BRANCH  11  37
ATOM     37  O   LIG d   1      11.338   2.262  -6.840  0.00  0.00    -0.503 OA
ATOM     38  H   LIG d   1      11.455   1.303  -6.788  0.00  0.00     0.292 HD
ENDBRANCH  11  37
BRANCH   1  39
ATOM     39  C   LIG d   1       6.323   0.365  -3.237  0.00  0.00     0.017 A 
ATOM     40  C   LIG d   1       6.148  -1.020  -3.249  0.00  0.00    -0.051 A 
ATOM     41  C   LIG d   1       5.064  -1.581  -2.608  0.00  0.00    -0.061 A 
ATOM     42  H   LIG d   1       6.861  -1.651  -3.760  0.00  0.00     0.062 H 
ATOM     43  C   LIG d   1       4.150  -0.775  -1.953  0.00  0.00    -0.062 A 
ATOM     44  H   LIG d   1       4.926  -2.652  -2.617  0.00  0.00     0.062 H 
ATOM     45  C   LIG d   1       4.317   0.599  -1.936  0.00  0.00    -0.061 A 
ATOM     46  H   LIG d   1       3.302  -1.218  -1.452  0.00  0.00     0.062 H 
ATOM     47  C   LIG d   1       5.400   1.173  -2.570  0.00  0.00    -0.051 A 
ATOM     48  H   LIG d   1       3.600   1.223  -1.423  0.00  0.00     0.062 H 
ATOM     49  H   LIG d   1       5.531   2.244  -2.553  0.00  0.00     0.062 H 
ENDBRANCH   1  39
TORSDOF 9
ENDMDL
MODEL 4
REMARK VINA RESULT:      -7.4      2.867      8.244
REMARK  9 active torsions:
REMARK  status: ('A' for Active; 'I' for Inactive)
REMARK    1  A    between atoms: C_4  and  C_7 
REMARK    2  A    between atoms: C_15  and  O_20 
REMARK    3  A    between atoms: C_16  and  O_19 
REMARK    4  A    between atoms: C_17  and  O_18 
REMARK    5  A    between atoms: O_20  and  C_21 
REMARK    6  A    between atoms: C_23  and  O_36 
REMARK    7  A    between atoms: C_25  and  O_35 
REMARK    8  A    between atoms: C_27  and  O_34 
REMARK    9  A    between atoms: C_29  and  C_32 
ROOT
ATOM      1  C   LIG d   1       9.781   4.784  -3.234  0.00  0.00     0.139 A 
ATOM      2  C   LIG d   1       9.915   5.306  -4.481  0.00  0.00     0.029 A 
ATOM      3  C   LIG d   1       9.589   4.515  -5.609  0.00  0.00     0.197 A 
ATOM      4  O   LIG d   1       9.698   4.951  -6.743  0.00  0.00    -0.287 OA
ATOM      5  C   LIG d   1       9.105   3.147  -5.360  0.00  0.00     0.109 A 
ATOM      6  C   LIG d   1       9.003   2.704  -4.029  0.00  0.00     0.146 A 
ATOM      7  O   LIG d   1       9.343   3.533  -3.019  0.00  0.00    -0.454 OA
ATOM      8  C   LIG d   1       8.555   1.418  -3.770  0.00  0.00     0.027 A 
ATOM      9  C   LIG d   1       8.211   0.578  -4.818  0.00  0.00     0.172 A 
ATOM     10  C   LIG d   1       8.310   1.013  -6.138  0.00  0.00     0.202 A 
ATOM     11  C   LIG d   1       8.756   2.296  -6.415  0.00  0.00     0.177 A 
ATOM     12  H   LIG d   1      10.271   6.318  -4.611  0.00  0.00     0.069 H 
ATOM     13  H   LIG d   1       8.474   1.070  -2.751  0.00  0.00     0.069 H 
ENDROOT
BRANCH   9  14
ATOM     14  O   LIG d   1       7.773  -0.681  -4.555  0.00  0.00    -0.457 OA
BRANCH  14  15
ATOM     15  C   LIG d   1       6.359  -0.873  -4.477  0.00  0.00     0.231 C 
ATOM     16  H   LIG d   1       5.942  -0.917  -5.483  0.00  0.00     0.108 H 
ATOM     17  O   LIG d   1       5.769   0.216  -3.762  0.00  0.00    -0.328 OA
ATOM     18  C   LIG d   1       4.347   0.135  -3.648  0.00  0.00     0.130 C 
ATOM     19  C   LIG d   1       3.970  -1.135  -2.881  0.00  0.00     0.115 C 
ATOM     20  H   LIG d   1       3.904   0.105  -4.643  0.00  0.00     0.069 H 
ATOM     21  C   LIG d   1       4.545  -2.352  -3.610  0.00  0.00     0.116 C 
ATOM     22  H   LIG d   1       4.379  -1.085  -1.872  0.00  0.00     0.065 H 
ATOM     23  C   LIG d   1       6.062  -2.183  -3.744  0.00  0.00     0.145 C 
ATOM     24  H   LIG d   1       4.328  -3.255  -3.039  0.00  0.00     0.065 H 
ATOM     25  H   LIG d   1       6.514  -2.157  -2.751  0.00  0.00     0.068 H 
BRANCH  18  26
ATOM     26  C   LIG d   1       3.834   1.343  -2.906  0.00  0.00     0.073 C 
ATOM     27  O   LIG d   1       3.772   1.330  -1.700  0.00  0.00    -0.547 OA
ATOM     28  O   LIG d   1       3.447   2.433  -3.586  0.00  0.00    -0.547 OA
ENDBRANCH  18  26
BRANCH  19  29
ATOM     29  O   LIG d   1       2.546  -1.246  -2.815  0.00  0.00    -0.386 OA
ATOM     30  H   LIG d   1       2.188  -1.194  -1.918  0.00  0.00     0.210 HD
ENDBRANCH  19  29
BRANCH  21  31
ATOM     31  O   LIG d   1       3.958  -2.454  -4.909  0.00  0.00    -0.386 OA
ATOM     32  H   LIG d   1       4.584  -2.324  -5.634  0.00  0.00     0.210 HD
ENDBRANCH  21  31
BRANCH  23  33
ATOM     33  O   LIG d   1       6.601  -3.279  -4.485  0.00  0.00    -0.383 OA
ATOM     34  H   LIG d   1       6.593  -3.147  -5.444  0.00  0.00     0.210 HD
ENDBRANCH  23  33
ENDBRANCH  14  15
ENDBRANCH   9  14
BRANCH  10  35
ATOM     35  O   LIG d   1       7.970   0.177  -7.157  0.00  0.00    -0.501 OA
ATOM     36  H   LIG d   1       7.152  -0.317  -7.003  0.00  0.00     0.292 HD
ENDBRANCH  10  35
BRANCH  11  37
ATOM     37  O   LIG d   1       8.854   2.723  -7.701  0.00  0.00    -0.503 OA
ATOM     38  H   LIG d   1       9.761   2.905  -7.986  0.00  0.00     0.292 HD
ENDBRANCH  11  37
BRANCH   1  39
ATOM     39  C   LIG d   1      10.131   5.623  -2.071  0.00  0.00     0.017 A 
ATOM     40  C   LIG d   1       9.554   6.885  -1.918  0.00  0.00    -0.051 A 
ATOM     41  C   LIG d   1       9.885   7.664  -0.829  0.00  0.00    -0.061 A 
ATOM     42  H   LIG d   1       8.848   7.251  -2.650  0.00  0.00     0.062 H 
ATOM     43  C   LIG d   1      10.787   7.198   0.111  0.00  0.00    -0.062 A 
ATOM     44  H   LIG d   1       9.440   8.641  -0.708  0.00  0.00     0.062 H 
ATOM     45  C   LIG d   1      11.363   5.948  -0.034  0.00  0.00    -0.061 A 
ATOM     46  H   LIG d   1      11.044   7.811   0.962  0.00  0.00     0.062 H 
ATOM     47  C   LIG d   1      11.037   5.156  -1.117  0.00  0.00    -0.051 A 
ATOM     48  H   LIG d   1      12.067   5.590   0.702  0.00  0.00     0.062 H 
ATOM     49  H   LIG d   1      11.484   4.180  -1.227  0.00  0.00     0.062 H 
ENDBRANCH   1  39
TORSDOF 9
ENDMDL
MODEL 5
REMARK VINA RESULT:      -7.3      2.474      3.493
REMARK  9 active torsions:
REMARK  status: ('A' for Active; 'I' for Inactive)
REMARK    1  A    between atoms: C_4  and  C_7 
REMARK    2  A    between atoms: C_15  and  O_20 
REMARK    3  A    between atoms: C_16  and  O_19 
REMARK    4  A    between atoms: C_17  and  O_18 
REMARK    5  A    between atoms: O_20  and  C_21 
REMARK    6  A    between atoms: C_23  and  O_36 
REMARK    7  A    between atoms: C_25  and  O_35 
REMARK    8  A    between atoms: C_27  and  O_34 
REMARK    9  A    between atoms: C_29  and  C_32 
ROOT
ATOM      1  C   LIG d   1       6.716   0.377  -4.557  0.00  0.00     0.139 A 
ATOM      2  C   LIG d   1       6.976  -0.056  -5.819  0.00  0.00     0.029 A 
ATOM      3  C   LIG d   1       7.878   0.670  -6.633  0.00  0.00     0.197 A 
ATOM      4  O   LIG d   1       8.135   0.311  -7.771  0.00  0.00    -0.287 OA
ATOM      5  C   LIG d   1       8.502   1.870  -6.052  0.00  0.00     0.109 A 
ATOM      6  C   LIG d   1       8.163   2.230  -4.735  0.00  0.00     0.146 A 
ATOM      7  O   LIG d   1       7.287   1.475  -4.038  0.00  0.00    -0.454 OA
ATOM      8  C   LIG d   1       8.734   3.360  -4.168  0.00  0.00     0.027 A 
ATOM      9  C   LIG d   1       9.631   4.125  -4.897  0.00  0.00     0.172 A 
ATOM     10  C   LIG d   1       9.969   3.771  -6.202  0.00  0.00     0.202 A 
ATOM     11  C   LIG d   1       9.409   2.645  -6.784  0.00  0.00     0.177 A 
ATOM     12  H   LIG d   1       6.495  -0.945  -6.198  0.00  0.00     0.069 H 
ATOM     13  H   LIG d   1       8.479   3.643  -3.158  0.00  0.00     0.069 H 
ENDROOT
BRANCH   9  14
ATOM     14  O   LIG d   1      10.185   5.230  -4.333  0.00  0.00    -0.457 OA
BRANCH  14  15
ATOM     15  C   LIG d   1      11.135   5.018  -3.287  0.00  0.00     0.231 C 
ATOM     16  H   LIG d   1      11.251   3.948  -3.113  0.00  0.00     0.108 H 
ATOM     17  O   LIG d   1      10.675   5.650  -2.090  0.00  0.00    -0.328 OA
ATOM     18  C   LIG d   1      11.544   5.477  -0.969  0.00  0.00     0.130 C 
ATOM     19  C   LIG d   1      12.909   6.096  -1.284  0.00  0.00     0.115 C 
ATOM     20  H   LIG d   1      11.665   4.414  -0.764  0.00  0.00     0.069 H 
ATOM     21  C   LIG d   1      13.480   5.442  -2.544  0.00  0.00     0.116 C 
ATOM     22  H   LIG d   1      12.793   7.168  -1.449  0.00  0.00     0.065 H 
ATOM     23  C   LIG d   1      12.483   5.618  -3.694  0.00  0.00     0.145 C 
ATOM     24  H   LIG d   1      14.426   5.917  -2.805  0.00  0.00     0.065 H 
ATOM     25  H   LIG d   1      12.360   6.680  -3.909  0.00  0.00     0.068 H 
BRANCH  18  26
ATOM     26  C   LIG d   1      10.948   6.157   0.237  0.00  0.00     0.073 C 
ATOM     27  O   LIG d   1      10.061   6.964   0.098  0.00  0.00    -0.547 OA
ATOM     28  O   LIG d   1      11.405   5.866   1.465  0.00  0.00    -0.547 OA
ENDBRANCH  18  26
BRANCH  19  29
ATOM     29  O   LIG d   1      13.797   5.875  -0.185  0.00  0.00    -0.386 OA
ATOM     30  H   LIG d   1      13.525   6.308   0.635  0.00  0.00     0.210 HD
ENDBRANCH  19  29
BRANCH  21  31
ATOM     31  O   LIG d   1      13.694   4.049  -2.305  0.00  0.00    -0.386 OA
ATOM     32  H   LIG d   1      14.534   3.850  -1.869  0.00  0.00     0.210 HD
ENDBRANCH  21  31
BRANCH  23  33
ATOM     33  O   LIG d   1      12.973   4.949  -4.858  0.00  0.00    -0.383 OA
ATOM     34  H   LIG d   1      13.511   5.508  -5.437  0.00  0.00     0.210 HD
ENDBRANCH  23  33
ENDBRANCH  14  15
ENDBRANCH   9  14
BRANCH  10  35
ATOM     35  O   LIG d   1      10.851   4.533  -6.906  0.00  0.00    -0.501 OA
ATOM     36  H   LIG d   1      10.432   5.175  -7.496  0.00  0.00     0.292 HD
ENDBRANCH  10  35
BRANCH  11  37
ATOM     37  O   LIG d   1       9.736   2.298  -8.056  0.00  0.00    -0.503 OA
ATOM     38  H   LIG d   1       9.632   1.355  -8.245  0.00  0.00     0.292 HD
ENDBRANCH  11  37
BRANCH   1  39
ATOM     39  C   LIG d   1       5.768  -0.391  -3.724  0.00  0.00     0.017 A 
ATOM     40  C   LIG d   1       5.270   0.158  -2.541  0.00  0.00    -0.051 A 
ATOM     41  C   LIG d   1       4.385  -0.564  -1.768  0.00  0.00    -0.061 A 
ATOM     42  H   LIG d   1       5.577   1.147  -2.231  0.00  0.00     0.062 H 
ATOM     43  C   LIG d   1       3.990  -1.829  -2.163  0.00  0.00    -0.062 A 
ATOM     44  H   LIG d   1       3.998  -0.141  -0.852  0.00  0.00     0.062 H 
ATOM     45  C   LIG d   1       4.479  -2.380  -3.334  0.00  0.00    -0.061 A 
ATOM     46  H   LIG d   1       3.296  -2.391  -1.554  0.00  0.00     0.062 H 
ATOM     47  C   LIG d   1       5.362  -1.667  -4.120  0.00  0.00    -0.051 A 
ATOM     48  H   LIG d   1       4.167  -3.368  -3.637  0.00  0.00     0.062 H 
ATOM     49  H   LIG d   1       5.740  -2.096  -5.035  0.00  0.00     0.062 H 
ENDBRANCH   1  39
TORSDOF 9
ENDMDL
MODEL 6
REMARK VINA RESULT:      -7.1      3.940      6.026
REMARK  9 active torsions:
REMARK  status: ('A' for Active; 'I' for Inactive)
REMARK    1  A    between atoms: C_4  and  C_7 
REMARK    2  A    between atoms: C_15  and  O_20 
REMARK    3  A    between atoms: C_16  and  O_19 
REMARK    4  A    between atoms: C_17  and  O_18 
REMARK    5  A    between atoms: O_20  and  C_21 
REMARK    6  A    between atoms: C_23  and  O_36 
REMARK    7  A    between atoms: C_25  and  O_35 
REMARK    8  A    between atoms: C_27  and  O_34 
REMARK    9  A    between atoms: C_29  and  C_32 
ROOT
ATOM      1  C   LIG d   1       9.954   5.315  -6.172  0.00  0.00     0.139 A 
ATOM      2  C   LIG d   1      10.620   4.181  -5.826  0.00  0.00     0.029 A 
ATOM      3  C   LIG d   1      10.900   3.924  -4.463  0.00  0.00     0.197 A 
ATOM      4  O   LIG d   1      11.495   2.917  -4.116  0.00  0.00    -0.287 OA
ATOM      5  C   LIG d   1      10.437   4.915  -3.477  0.00  0.00     0.109 A 
ATOM      6  C   LIG d   1       9.757   6.055  -3.942  0.00  0.00     0.146 A 
ATOM      7  O   LIG d   1       9.541   6.214  -5.265  0.00  0.00    -0.454 OA
ATOM      8  C   LIG d   1       9.316   7.005  -3.032  0.00  0.00     0.027 A 
ATOM      9  C   LIG d   1       9.546   6.828  -1.677  0.00  0.00     0.172 A 
ATOM     10  C   LIG d   1      10.220   5.700  -1.212  0.00  0.00     0.202 A 
ATOM     11  C   LIG d   1      10.666   4.740  -2.108  0.00  0.00     0.177 A 
ATOM     12  H   LIG d   1      10.935   3.482  -6.588  0.00  0.00     0.069 H 
ATOM     13  H   LIG d   1       8.793   7.883  -3.381  0.00  0.00     0.069 H 
ENDROOT
BRANCH   9  14
ATOM     14  O   LIG d   1       9.111   7.764  -0.794  0.00  0.00    -0.457 OA
BRANCH  14  15
ATOM     15  C   LIG d   1       9.978   8.873  -0.545  0.00  0.00     0.231 C 
ATOM     16  H   LIG d   1      10.661   8.997  -1.385  0.00  0.00     0.108 H 
ATOM     17  O   LIG d   1      10.728   8.632   0.648  0.00  0.00    -0.328 OA
ATOM     18  C   LIG d   1      11.649   9.674   0.978  0.00  0.00     0.130 C 
ATOM     19  C   LIG d   1      10.881  10.977   1.211  0.00  0.00     0.115 C 
ATOM     20  H   LIG d   1      12.353   9.808   0.158  0.00  0.00     0.069 H 
ATOM     21  C   LIG d   1      10.073  11.317  -0.045  0.00  0.00     0.116 C 
ATOM     22  H   LIG d   1      10.205  10.854   2.058  0.00  0.00     0.065 H 
ATOM     23  C   LIG d   1       9.143  10.144  -0.373  0.00  0.00     0.145 C 
ATOM     24  H   LIG d   1       9.480  12.213   0.134  0.00  0.00     0.065 H 
ATOM     25  H   LIG d   1       8.431  10.006   0.442  0.00  0.00     0.068 H 
BRANCH  18  26
ATOM     26  C   LIG d   1      12.401   9.301   2.231  0.00  0.00     0.073 C 
ATOM     27  O   LIG d   1      11.877   8.601   3.064  0.00  0.00    -0.547 OA
ATOM     28  O   LIG d   1      13.652   9.747   2.419  0.00  0.00    -0.547 OA
ENDBRANCH  18  26
BRANCH  19  29
ATOM     29  O   LIG d   1      11.805  12.033   1.485  0.00  0.00    -0.386 OA
ATOM     30  H   LIG d   1      12.125  12.049   2.397  0.00  0.00     0.210 HD
ENDBRANCH  19  29
BRANCH  21  31
ATOM     31  O   LIG d   1      10.964  11.542  -1.140  0.00  0.00    -0.386 OA
ATOM     32  H   LIG d   1      10.518  11.684  -1.986  0.00  0.00     0.210 HD
ENDBRANCH  21  31
BRANCH  23  33
ATOM     33  O   LIG d   1       8.436  10.419  -1.584  0.00  0.00    -0.383 OA
ATOM     34  H   LIG d   1       9.007  10.667  -2.325  0.00  0.00     0.210 HD
ENDBRANCH  23  33
ENDBRANCH  14  15
ENDBRANCH   9  14
BRANCH  10  35
ATOM     35  O   LIG d   1      10.439   5.540   0.121  0.00  0.00    -0.501 OA
ATOM     36  H   LIG d   1      10.009   4.760   0.500  0.00  0.00     0.292 HD
ENDBRANCH  10  35
BRANCH  11  37
ATOM     37  O   LIG d   1      11.323   3.639  -1.658  0.00  0.00    -0.503 OA
ATOM     38  H   LIG d   1      11.810   3.780  -0.835  0.00  0.00     0.292 HD
ENDBRANCH  11  37
BRANCH   1  39
ATOM     39  C   LIG d   1       9.677   5.568  -7.600  0.00  0.00     0.017 A 
ATOM     40  C   LIG d   1       9.667   6.874  -8.092  0.00  0.00    -0.051 A 
ATOM     41  C   LIG d   1       9.407   7.103  -9.427  0.00  0.00    -0.061 A 
ATOM     42  H   LIG d   1       9.863   7.704  -7.429  0.00  0.00     0.062 H 
ATOM     43  C   LIG d   1       9.155   6.042 -10.278  0.00  0.00    -0.062 A 
ATOM     44  H   LIG d   1       9.399   8.114  -9.810  0.00  0.00     0.062 H 
ATOM     45  C   LIG d   1       9.163   4.745  -9.798  0.00  0.00    -0.061 A 
ATOM     46  H   LIG d   1       8.952   6.227 -11.323  0.00  0.00     0.062 H 
ATOM     47  C   LIG d   1       9.427   4.501  -8.465  0.00  0.00    -0.051 A 
ATOM     48  H   LIG d   1       8.967   3.921 -10.468  0.00  0.00     0.062 H 
ATOM     49  H   LIG d   1       9.436   3.488  -8.093  0.00  0.00     0.062 H 
ENDBRANCH   1  39
TORSDOF 9
ENDMDL
MODEL 7
REMARK VINA RESULT:      -6.8      7.409     13.180
REMARK  9 active torsions:
REMARK  status: ('A' for Active; 'I' for Inactive)
REMARK    1  A    between atoms: C_4  and  C_7 
REMARK    2  A    between atoms: C_15  and  O_20 
REMARK    3  A    between atoms: C_16  and  O_19 
REMARK    4  A    between atoms: C_17  and  O_18 
REMARK    5  A    between atoms: O_20  and  C_21 
REMARK    6  A    between atoms: C_23  and  O_36 
REMARK    7  A    between atoms: C_25  and  O_35 
REMARK    8  A    between atoms: C_27  and  O_34 
REMARK    9  A    between atoms: C_29  and  C_32 
ROOT
ATOM      1  C   LIG d   1       6.360  -2.044  -4.071  0.00  0.00     0.139 A 
ATOM      2  C   LIG d   1       7.633  -1.628  -4.304  0.00  0.00     0.029 A 
ATOM      3  C   LIG d   1       8.565  -2.523  -4.883  0.00  0.00     0.197 A 
ATOM      4  O   LIG d   1       9.715  -2.184  -5.107  0.00  0.00    -0.287 OA
ATOM      5  C   LIG d   1       8.089  -3.877  -5.215  0.00  0.00     0.109 A 
ATOM      6  C   LIG d   1       6.751  -4.205  -4.932  0.00  0.00     0.146 A 
ATOM      7  O   LIG d   1       5.939  -3.283  -4.373  0.00  0.00    -0.454 OA
ATOM      8  C   LIG d   1       6.282  -5.475  -5.230  0.00  0.00     0.027 A 
ATOM      9  C   LIG d   1       7.128  -6.411  -5.802  0.00  0.00     0.172 A 
ATOM     10  C   LIG d   1       8.455  -6.090  -6.085  0.00  0.00     0.202 A 
ATOM     11  C   LIG d   1       8.941  -4.825  -5.794  0.00  0.00     0.177 A 
ATOM     12  H   LIG d   1       7.932  -0.623  -4.047  0.00  0.00     0.069 H 
ATOM     13  H   LIG d   1       5.256  -5.735  -5.015  0.00  0.00     0.069 H 
ENDROOT
BRANCH   9  14
ATOM     14  O   LIG d   1       6.661  -7.654  -6.091  0.00  0.00    -0.457 OA
BRANCH  14  15
ATOM     15  C   LIG d   1       5.961  -8.341  -5.051  0.00  0.00     0.231 C 
ATOM     16  H   LIG d   1       5.255  -7.659  -4.575  0.00  0.00     0.108 H 
ATOM     17  O   LIG d   1       6.897  -8.813  -4.079  0.00  0.00    -0.328 OA
ATOM     18  C   LIG d   1       6.297  -9.497  -2.977  0.00  0.00     0.130 C 
ATOM     19  C   LIG d   1       5.552 -10.732  -3.489  0.00  0.00     0.115 C 
ATOM     20  H   LIG d   1       5.597  -8.831  -2.474  0.00  0.00     0.069 H 
ATOM     21  C   LIG d   1       4.504 -10.296  -4.518  0.00  0.00     0.116 C 
ATOM     22  H   LIG d   1       6.260 -11.417  -3.956  0.00  0.00     0.065 H 
ATOM     23  C   LIG d   1       5.202  -9.529  -5.646  0.00  0.00     0.145 C 
ATOM     24  H   LIG d   1       4.008 -11.176  -4.928  0.00  0.00     0.065 H 
ATOM     25  H   LIG d   1       5.902 -10.190  -6.158  0.00  0.00     0.068 H 
BRANCH  18  26
ATOM     26  C   LIG d   1       7.370  -9.923  -2.007  0.00  0.00     0.073 C 
ATOM     27  O   LIG d   1       7.099 -10.092  -0.842  0.00  0.00    -0.547 OA
ATOM     28  O   LIG d   1       8.626 -10.113  -2.438  0.00  0.00    -0.547 OA
ENDBRANCH  18  26
BRANCH  19  29
ATOM     29  O   LIG d   1       4.904 -11.385  -2.395  0.00  0.00    -0.386 OA
ATOM     30  H   LIG d   1       5.420 -12.103  -2.003  0.00  0.00     0.210 HD
ENDBRANCH  19  29
BRANCH  21  31
ATOM     31  O   LIG d   1       3.538  -9.451  -3.890  0.00  0.00    -0.386 OA
ATOM     32  H   LIG d   1       3.378  -8.621  -4.359  0.00  0.00     0.210 HD
ENDBRANCH  21  31
BRANCH  23  33
ATOM     33  O   LIG d   1       4.225  -9.056  -6.576  0.00  0.00    -0.383 OA
ATOM     34  H   LIG d   1       3.539  -9.703  -6.791  0.00  0.00     0.210 HD
ENDBRANCH  23  33
ENDBRANCH  14  15
ENDBRANCH   9  14
BRANCH  10  35
ATOM     35  O   LIG d   1       9.275  -7.020  -6.646  0.00  0.00    -0.501 OA
ATOM     36  H   LIG d   1       9.379  -7.823  -6.117  0.00  0.00     0.292 HD
ENDBRANCH  10  35
BRANCH  11  37
ATOM     37  O   LIG d   1      10.233  -4.508  -6.067  0.00  0.00    -0.503 OA
ATOM     38  H   LIG d   1      10.431  -4.447  -7.012  0.00  0.00     0.292 HD
ENDBRANCH  11  37
BRANCH   1  39
ATOM     39  C   LIG d   1       5.404  -1.098  -3.461  0.00  0.00     0.017 A 
ATOM     40  C   LIG d   1       4.069  -1.465  -3.286  0.00  0.00    -0.051 A 
ATOM     41  C   LIG d   1       3.182  -0.577  -2.716  0.00  0.00    -0.061 A 
ATOM     42  H   LIG d   1       3.731  -2.444  -3.596  0.00  0.00     0.062 H 
ATOM     43  C   LIG d   1       3.612   0.676  -2.317  0.00  0.00    -0.062 A 
ATOM     44  H   LIG d   1       2.148  -0.859  -2.580  0.00  0.00     0.062 H 
ATOM     45  C   LIG d   1       4.934   1.047  -2.487  0.00  0.00    -0.061 A 
ATOM     46  H   LIG d   1       2.913   1.369  -1.871  0.00  0.00     0.062 H 
ATOM     47  C   LIG d   1       5.834   0.166  -3.053  0.00  0.00    -0.051 A 
ATOM     48  H   LIG d   1       5.264   2.026  -2.174  0.00  0.00     0.062 H 
ATOM     49  H   LIG d   1       6.865   0.455  -3.181  0.00  0.00     0.062 H 
ENDBRANCH   1  39
TORSDOF 9
ENDMDL
MODEL 8
REMARK VINA RESULT:      -6.8      8.632     13.990
REMARK  9 active torsions:
REMARK  status: ('A' for Active; 'I' for Inactive)
REMARK    1  A    between atoms: C_4  and  C_7 
REMARK    2  A    between atoms: C_15  and  O_20 
REMARK    3  A    between atoms: C_16  and  O_19 
REMARK    4  A    between atoms: C_17  and  O_18 
REMARK    5  A    between atoms: O_20  and  C_21 
REMARK    6  A    between atoms: C_23  and  O_36 
REMARK    7  A    between atoms: C_25  and  O_35 
REMARK    8  A    between atoms: C_27  and  O_34 
REMARK    9  A    between atoms: C_29  and  C_32 
ROOT
ATOM      1  C   LIG d   1       4.945  -2.412  -4.861  0.00  0.00     0.139 A 
ATOM      2  C   LIG d   1       5.821  -2.097  -5.850  0.00  0.00     0.029 A 
ATOM      3  C   LIG d   1       6.304  -3.116  -6.706  0.00  0.00     0.197 A 
ATOM      4  O   LIG d   1       7.091  -2.870  -7.605  0.00  0.00    -0.287 OA
ATOM      5  C   LIG d   1       5.811  -4.485  -6.476  0.00  0.00     0.109 A 
ATOM      6  C   LIG d   1       4.905  -4.702  -5.423  0.00  0.00     0.146 A 
ATOM      7  O   LIG d   1       4.506  -3.664  -4.656  0.00  0.00    -0.454 OA
ATOM      8  C   LIG d   1       4.432  -5.983  -5.183  0.00  0.00     0.027 A 
ATOM      9  C   LIG d   1       4.851  -7.038  -5.978  0.00  0.00     0.172 A 
ATOM     10  C   LIG d   1       5.749  -6.827  -7.023  0.00  0.00     0.202 A 
ATOM     11  C   LIG d   1       6.231  -5.553  -7.277  0.00  0.00     0.177 A 
ATOM     12  H   LIG d   1       6.150  -1.076  -5.981  0.00  0.00     0.069 H 
ATOM     13  H   LIG d   1       3.736  -6.158  -4.376  0.00  0.00     0.069 H 
ENDROOT
BRANCH   9  14
ATOM     14  O   LIG d   1       4.382  -8.290  -5.735  0.00  0.00    -0.457 OA
BRANCH  14  15
ATOM     15  C   LIG d   1       5.121  -9.091  -4.811  0.00  0.00     0.231 C 
ATOM     16  H   LIG d   1       5.542  -8.455  -4.033  0.00  0.00     0.108 H 
ATOM     17  O   LIG d   1       6.178  -9.762  -5.502  0.00  0.00    -0.328 OA
ATOM     18  C   LIG d   1       6.999 -10.576  -4.662  0.00  0.00     0.130 C 
ATOM     19  C   LIG d   1       6.143 -11.671  -4.022  0.00  0.00     0.115 C 
ATOM     20  H   LIG d   1       7.444  -9.959  -3.882  0.00  0.00     0.069 H 
ATOM     21  C   LIG d   1       5.001 -11.022  -3.234  0.00  0.00     0.116 C 
ATOM     22  H   LIG d   1       5.731 -12.313  -4.801  0.00  0.00     0.065 H 
ATOM     23  C   LIG d   1       4.190 -10.128  -4.177  0.00  0.00     0.145 C 
ATOM     24  H   LIG d   1       4.356 -11.798  -2.822  0.00  0.00     0.065 H 
ATOM     25  H   LIG d   1       3.737 -10.739  -4.959  0.00  0.00     0.068 H 
BRANCH  18  26
ATOM     26  C   LIG d   1       8.091 -11.207  -5.487  0.00  0.00     0.073 C 
ATOM     27  O   LIG d   1       9.083 -10.576  -5.761  0.00  0.00    -0.547 OA
ATOM     28  O   LIG d   1       7.960 -12.472  -5.918  0.00  0.00    -0.547 OA
ENDBRANCH  18  26
BRANCH  19  29
ATOM     29  O   LIG d   1       6.951 -12.451  -3.137  0.00  0.00    -0.386 OA
ATOM     30  H   LIG d   1       7.223 -11.983  -2.335  0.00  0.00     0.210 HD
ENDBRANCH  19  29
BRANCH  21  31
ATOM     31  O   LIG d   1       5.541 -10.234  -2.171  0.00  0.00    -0.386 OA
ATOM     32  H   LIG d   1       6.095 -10.731  -1.555  0.00  0.00     0.210 HD
ENDBRANCH  21  31
BRANCH  23  33
ATOM     33  O   LIG d   1       3.165  -9.460  -3.437  0.00  0.00    -0.383 OA
ATOM     34  H   LIG d   1       2.478 -10.051  -3.097  0.00  0.00     0.210 HD
ENDBRANCH  23  33
ENDBRANCH  14  15
ENDBRANCH   9  14
BRANCH  10  35
ATOM     35  O   LIG d   1       6.152  -7.873  -7.794  0.00  0.00    -0.501 OA
ATOM     36  H   LIG d   1       5.425  -8.365  -8.201  0.00  0.00     0.292 HD
ENDBRANCH  10  35
BRANCH  11  37
ATOM     37  O   LIG d   1       7.107  -5.343  -8.294  0.00  0.00    -0.503 OA
ATOM     38  H   LIG d   1       7.206  -6.099  -8.889  0.00  0.00     0.292 HD
ENDBRANCH  11  37
BRANCH   1  39
ATOM     39  C   LIG d   1       4.458  -1.336  -3.974  0.00  0.00     0.017 A 
ATOM     40  C   LIG d   1       3.620  -0.338  -4.478  0.00  0.00    -0.051 A 
ATOM     41  C   LIG d   1       3.168   0.663  -3.645  0.00  0.00    -0.061 A 
ATOM     42  H   LIG d   1       3.325  -0.352  -5.517  0.00  0.00     0.062 H 
ATOM     43  C   LIG d   1       3.543   0.683  -2.313  0.00  0.00    -0.062 A 
ATOM     44  H   LIG d   1       2.520   1.436  -4.032  0.00  0.00     0.062 H 
ATOM     45  C   LIG d   1       4.373  -0.302  -1.807  0.00  0.00    -0.061 A 
ATOM     46  H   LIG d   1       3.187   1.470  -1.664  0.00  0.00     0.062 H 
ATOM     47  C   LIG d   1       4.829  -1.314  -2.629  0.00  0.00    -0.051 A 
ATOM     48  H   LIG d   1       4.663  -0.282  -0.767  0.00  0.00     0.062 H 
ATOM     49  H   LIG d   1       5.473  -2.083  -2.232  0.00  0.00     0.062 H 
ENDBRANCH   1  39
TORSDOF 9
ENDMDL
MODEL 9
REMARK VINA RESULT:      -6.7      3.102      8.272
REMARK  9 active torsions:
REMARK  status: ('A' for Active; 'I' for Inactive)
REMARK    1  A    between atoms: C_4  and  C_7 
REMARK    2  A    between atoms: C_15  and  O_20 
REMARK    3  A    between atoms: C_16  and  O_19 
REMARK    4  A    between atoms: C_17  and  O_18 
REMARK    5  A    between atoms: O_20  and  C_21 
REMARK    6  A    between atoms: C_23  and  O_36 
REMARK    7  A    between atoms: C_25  and  O_35 
REMARK    8  A    between atoms: C_27  and  O_34 
REMARK    9  A    between atoms: C_29  and  C_32 
ROOT
ATOM      1  C   LIG d   1       9.608   4.358  -3.678  0.00  0.00     0.139 A 
ATOM      2  C   LIG d   1       9.863   4.772  -4.947  0.00  0.00     0.029 A 
ATOM      3  C   LIG d   1       9.553   3.921  -6.035  0.00  0.00     0.197 A 
ATOM      4  O   LIG d   1       9.769   4.259  -7.187  0.00  0.00    -0.287 OA
ATOM      5  C   LIG d   1       8.951   2.614  -5.723  0.00  0.00     0.109 A 
ATOM      6  C   LIG d   1       8.729   2.283  -4.374  0.00  0.00     0.146 A 
ATOM      7  O   LIG d   1       9.063   3.162  -3.405  0.00  0.00    -0.454 OA
ATOM      8  C   LIG d   1       8.168   1.056  -4.056  0.00  0.00     0.027 A 
ATOM      9  C   LIG d   1       7.831   0.164  -5.061  0.00  0.00     0.172 A 
ATOM     10  C   LIG d   1       8.050   0.487  -6.400  0.00  0.00     0.202 A 
ATOM     11  C   LIG d   1       8.609   1.711  -6.736  0.00  0.00     0.177 A 
ATOM     12  H   LIG d   1      10.303   5.743  -5.124  0.00  0.00     0.069 H 
ATOM     13  H   LIG d   1       7.994   0.795  -3.022  0.00  0.00     0.069 H 
ENDROOT
BRANCH   9  14
ATOM     14  O   LIG d   1       7.283  -1.037  -4.740  0.00  0.00    -0.457 OA
BRANCH  14  15
ATOM     15  C   LIG d   1       5.861  -1.146  -4.834  0.00  0.00     0.231 C 
ATOM     16  H   LIG d   1       5.584  -2.193  -4.959  0.00  0.00     0.108 H 
ATOM     17  O   LIG d   1       5.398  -0.392  -5.958  0.00  0.00    -0.328 OA
ATOM     18  C   LIG d   1       3.985  -0.455  -6.159  0.00  0.00     0.130 C 
ATOM     19  C   LIG d   1       3.271   0.121  -4.934  0.00  0.00     0.115 C 
ATOM     20  H   LIG d   1       3.684  -1.492  -6.302  0.00  0.00     0.069 H 
ATOM     21  C   LIG d   1       3.697  -0.662  -3.688  0.00  0.00     0.116 C 
ATOM     22  H   LIG d   1       3.541   1.171  -4.815  0.00  0.00     0.065 H 
ATOM     23  C   LIG d   1       5.222  -0.598  -3.555  0.00  0.00     0.145 C 
ATOM     24  H   LIG d   1       3.235  -0.221  -2.805  0.00  0.00     0.065 H 
ATOM     25  H   LIG d   1       5.531   0.437  -3.408  0.00  0.00     0.068 H 
BRANCH  18  26
ATOM     26  C   LIG d   1       3.617   0.348  -7.380  0.00  0.00     0.073 C 
ATOM     27  O   LIG d   1       3.891  -0.066  -8.481  0.00  0.00    -0.547 OA
ATOM     28  O   LIG d   1       2.984   1.524  -7.244  0.00  0.00    -0.547 OA
ENDBRANCH  18  26
BRANCH  19  29
ATOM     29  O   LIG d   1       1.857   0.008  -5.109  0.00  0.00    -0.386 OA
ATOM     30  H   LIG d   1       1.362  -0.074  -4.282  0.00  0.00     0.210 HD
ENDBRANCH  19  29
BRANCH  21  31
ATOM     31  O   LIG d   1       3.283  -2.025  -3.816  0.00  0.00    -0.386 OA
ATOM     32  H   LIG d   1       2.373  -2.132  -4.123  0.00  0.00     0.210 HD
ENDBRANCH  21  31
BRANCH  23  33
ATOM     33  O   LIG d   1       5.637  -1.386  -2.438  0.00  0.00    -0.383 OA
ATOM     34  H   LIG d   1       5.296  -1.073  -1.588  0.00  0.00     0.210 HD
ENDBRANCH  23  33
ENDBRANCH  14  15
ENDBRANCH   9  14
BRANCH  10  35
ATOM     35  O   LIG d   1       7.715  -0.399  -7.377  0.00  0.00    -0.501 OA
ATOM     36  H   LIG d   1       7.038  -1.038  -7.112  0.00  0.00     0.292 HD
ENDBRANCH  10  35
BRANCH  11  37
ATOM     37  O   LIG d   1       8.824   2.029  -8.039  0.00  0.00    -0.503 OA
ATOM     38  H   LIG d   1       9.137   1.290  -8.578  0.00  0.00     0.292 HD
ENDBRANCH  11  37
BRANCH   1  39
ATOM     39  C   LIG d   1       9.943   5.258  -2.557  0.00  0.00     0.017 A 
ATOM     40  C   LIG d   1       9.387   6.537  -2.493  0.00  0.00    -0.051 A 
ATOM     41  C   LIG d   1       9.705   7.372  -1.443  0.00  0.00    -0.061 A 
ATOM     42  H   LIG d   1       8.709   6.872  -3.265  0.00  0.00     0.062 H 
ATOM     43  C   LIG d   1      10.573   6.946  -0.453  0.00  0.00    -0.062 A 
ATOM     44  H   LIG d   1       9.275   8.363  -1.392  0.00  0.00     0.062 H 
ATOM     45  C   LIG d   1      11.128   5.680  -0.509  0.00  0.00    -0.061 A 
ATOM     46  H   LIG d   1      10.818   7.604   0.368  0.00  0.00     0.062 H 
ATOM     47  C   LIG d   1      10.815   4.832  -1.553  0.00  0.00    -0.051 A 
ATOM     48  H   LIG d   1      11.804   5.353   0.266  0.00  0.00     0.062 H 
ATOM     49  H   LIG d   1      11.246   3.843  -1.593  0.00  0.00     0.062 H 
ENDBRANCH   1  39
TORSDOF 9
ENDMDL
