MODEL 1
REMARK VINA RESULT:      -7.8      0.000      0.000
REMARK  7 active torsions:
REMARK  status: ('A' for Active; 'I' for Inactive)
REMARK    1  A    between atoms: C_1  and  C_2 
REMARK    2  A    between atoms: C_16  and  C_19 
REMARK    3  A    between atoms: C_19  and  C_20 
REMARK    4  A    between atoms: C_20  and  C_21 
REMARK       I    between atoms: C_21  and  N_23 
REMARK    5  A    between atoms: N_26  and  C_29 
REMARK    6  A    between atoms: C_29  and  C_30 
REMARK    7  A    between atoms: C_30  and  C_31 
ROOT
ATOM      1  C   LIG d   1      10.502  -2.389  -4.869  0.00  0.00    -0.028 A 
ATOM      2  C   LIG d   1      10.530  -3.609  -4.225  0.00  0.00    -0.039 A 
ATOM      3  C   LIG d   1       9.385  -4.115  -3.638  0.00  0.00     0.042 A 
ATOM      4  C   LIG d   1       8.204  -3.394  -3.698  0.00  0.00    -0.036 A 
ATOM      5  C   LIG d   1       8.172  -2.176  -4.339  0.00  0.00     0.005 A 
ATOM      6  C   LIG d   1       9.321  -1.655  -4.929  0.00  0.00     0.042 A 
ATOM      7  N   LIG d   1       9.044  -0.415  -5.509  0.00  0.00    -0.283 N 
ATOM      8  C   LIG d   1       7.757  -0.051  -5.344  0.00  0.00     0.243 A 
ATOM      9  O   LIG d   1       7.236   0.969  -5.741  0.00  0.00    -0.273 OA
ATOM     10  C   LIG d   1       7.090  -1.162  -4.580  0.00  0.00     0.136 A 
ATOM     11  C   LIG d   1       5.915  -1.767  -5.358  0.00  0.00     0.080 A 
ATOM     12  H   LIG d   1       6.209  -2.629  -5.958  0.00  0.00     0.043 H 
ATOM     13  C   LIG d   1       4.866  -2.121  -4.267  0.00  0.00     0.065 A 
ATOM     14  H   LIG d   1       4.574  -3.171  -4.287  0.00  0.00     0.042 H 
ATOM     15  C   LIG d   1       5.526  -1.712  -2.934  0.00  0.00     0.021 C 
ATOM     16  H   LIG d   1       6.011  -2.573  -2.472  0.00  0.00     0.047 H 
ATOM     17  N   LIG d   1       6.522  -0.667  -3.312  0.00  0.00    -0.295 N 
ATOM     18  C   LIG d   1       3.715  -1.191  -4.577  0.00  0.00     0.227 A 
ATOM     19  O   LIG d   1       2.676  -1.131  -3.954  0.00  0.00    -0.275 OA
ATOM     20  N   LIG d   1       4.020  -0.444  -5.644  0.00  0.00    -0.241 N 
ATOM     21  C   LIG d   1       5.239  -0.690  -6.177  0.00  0.00     0.228 A 
ATOM     22  O   LIG d   1       5.720  -0.141  -7.145  0.00  0.00    -0.275 OA
ATOM     23 CL   LIG d   1       9.426  -5.652  -2.831  0.00  0.00    -0.084 Cl
ATOM     24  H   LIG d   1      11.451  -4.171  -4.178  0.00  0.00     0.064 H 
ATOM     25  H   LIG d   1       7.307  -3.787  -3.241  0.00  0.00     0.064 H 
ATOM     26  H   LIG d   1       9.701   0.123  -5.978  0.00  0.00     0.155 HD
ATOM     27  H   LIG d   1       7.237  -0.581  -2.604  0.00  0.00     0.123 HD
ENDROOT
BRANCH  15  28
ATOM     28  C   LIG d   1       4.484  -1.118  -1.984  0.00  0.00    -0.029 C 
ATOM     29  H   LIG d   1       3.530  -1.025  -2.504  0.00  0.00     0.029 H 
ATOM     30  H   LIG d   1       4.366  -1.771  -1.120  0.00  0.00     0.029 H 
BRANCH  28  31
ATOM     31  C   LIG d   1       4.948   0.265  -1.520  0.00  0.00     0.025 C 
ATOM     32  H   LIG d   1       4.549   0.466  -0.525  0.00  0.00     0.036 H 
ATOM     33  H   LIG d   1       6.037   0.291  -1.486  0.00  0.00     0.036 H 
BRANCH  31  34
ATOM     34  C   LIG d   1       4.450   1.310  -2.484  0.00  0.00     0.210 C 
ATOM     35  O   LIG d   1       5.224   1.857  -3.240  0.00  0.00    -0.276 OA
ATOM     36  N   LIG d   1       3.143   1.638  -2.507  0.00  0.00    -0.329 N 
ATOM     37  H   LIG d   1       2.523   1.200  -1.902  0.00  0.00     0.145 HD
ATOM     38  H   LIG d   1       2.821   2.310  -3.127  0.00  0.00     0.145 HD
ENDBRANCH  31  34
ENDBRANCH  28  31
ENDBRANCH  15  28
BRANCH   1  39
ATOM     39  C   LIG d   1      11.756  -1.847  -5.505  0.00  0.00    -0.038 C 
ATOM     40  H   LIG d   1      12.580  -1.907  -4.794  0.00  0.00     0.028 H 
ATOM     41  H   LIG d   1      11.997  -2.433  -6.392  0.00  0.00     0.028 H 
ATOM     42  H   LIG d   1      11.598  -0.806  -5.790  0.00  0.00     0.028 H 
ENDBRANCH   1  39
BRANCH  20  43
ATOM     43  C   LIG d   1       3.106   0.556  -6.199  0.00  0.00     0.026 C 
ATOM     44  H   LIG d   1       2.420   0.894  -5.422  0.00  0.00     0.047 H 
ATOM     45  H   LIG d   1       3.679   1.405  -6.572  0.00  0.00     0.047 H 
BRANCH  43  46
ATOM     46  C   LIG d   1       2.308  -0.064  -7.348  0.00  0.00    -0.011 C 
ATOM     47  H   LIG d   1       2.388  -1.150  -7.302  0.00  0.00     0.033 H 
ATOM     48  H   LIG d   1       1.261   0.228  -7.262  0.00  0.00     0.033 H 
BRANCH  46  49
ATOM     49  C   LIG d   1       2.858   0.425  -8.663  0.00  0.00    -0.046 A 
ATOM     50  C   LIG d   1       3.022  -0.459  -9.714  0.00  0.00    -0.059 A 
ATOM     51  C   LIG d   1       3.523  -0.010 -10.922  0.00  0.00    -0.061 A 
ATOM     52  H   LIG d   1       2.755  -1.498  -9.593  0.00  0.00     0.062 H 
ATOM     53  C   LIG d   1       3.870   1.319 -11.076  0.00  0.00    -0.062 A 
ATOM     54  H   LIG d   1       3.647  -0.700 -11.744  0.00  0.00     0.062 H 
ATOM     55  C   LIG d   1       3.711   2.201 -10.024  0.00  0.00    -0.061 A 
ATOM     56  H   LIG d   1       4.264   1.669 -12.019  0.00  0.00     0.062 H 
ATOM     57  C   LIG d   1       3.206   1.754  -8.817  0.00  0.00    -0.059 A 
ATOM     58  H   LIG d   1       3.981   3.240 -10.144  0.00  0.00     0.062 H 
ATOM     59  H   LIG d   1       3.082   2.443  -7.995  0.00  0.00     0.062 H 
ENDBRANCH  46  49
ENDBRANCH  43  46
ENDBRANCH  20  43
TORSDOF 7
ENDMDL
MODEL 2
REMARK VINA RESULT:      -7.7      3.801      7.344
REMARK  7 active torsions:
REMARK  status: ('A' for Active; 'I' for Inactive)
REMARK    1  A    between atoms: C_1  and  C_2 
REMARK    2  A    between atoms: C_16  and  C_19 
REMARK    3  A    between atoms: C_19  and  C_20 
REMARK    4  A    between atoms: C_20  and  C_21 
REMARK       I    between atoms: C_21  and  N_23 
REMARK    5  A    between atoms: N_26  and  C_29 
REMARK    6  A    between atoms: C_29  and  C_30 
REMARK    7  A    between atoms: C_30  and  C_31 
ROOT
ATOM      1  C   LIG d   1       2.396  -5.493 -10.360  0.00  0.00    -0.028 A 
ATOM      2  C   LIG d   1       2.151  -4.862 -11.562  0.00  0.00    -0.039 A 
ATOM      3  C   LIG d   1       2.520  -3.541 -11.745  0.00  0.00     0.042 A 
ATOM      4  C   LIG d   1       3.137  -2.850 -10.715  0.00  0.00    -0.036 A 
ATOM      5  C   LIG d   1       3.381  -3.476  -9.514  0.00  0.00     0.005 A 
ATOM      6  C   LIG d   1       3.010  -4.804  -9.318  0.00  0.00     0.042 A 
ATOM      7  N   LIG d   1       3.355  -5.215  -8.029  0.00  0.00    -0.283 N 
ATOM      8  C   LIG d   1       3.943  -4.231  -7.321  0.00  0.00     0.243 A 
ATOM      9  O   LIG d   1       4.346  -4.302  -6.179  0.00  0.00    -0.273 OA
ATOM     10  C   LIG d   1       4.012  -3.032  -8.225  0.00  0.00     0.136 A 
ATOM     11  C   LIG d   1       5.455  -2.559  -8.439  0.00  0.00     0.080 A 
ATOM     12  H   LIG d   1       5.915  -3.000  -9.324  0.00  0.00     0.043 H 
ATOM     13  C   LIG d   1       5.349  -1.010  -8.523  0.00  0.00     0.065 A 
ATOM     14  H   LIG d   1       5.769  -0.607  -9.445  0.00  0.00     0.042 H 
ATOM     15  C   LIG d   1       3.844  -0.706  -8.372  0.00  0.00     0.021 C 
ATOM     16  H   LIG d   1       3.380  -0.598  -9.354  0.00  0.00     0.047 H 
ATOM     17  N   LIG d   1       3.294  -1.884  -7.640  0.00  0.00    -0.295 N 
ATOM     18  C   LIG d   1       6.093  -0.543  -7.292  0.00  0.00     0.227 A 
ATOM     19  O   LIG d   1       6.247   0.614  -6.964  0.00  0.00    -0.275 OA
ATOM     20  N   LIG d   1       6.555  -1.604  -6.621  0.00  0.00    -0.241 N 
ATOM     21  C   LIG d   1       6.261  -2.800  -7.182  0.00  0.00     0.228 A 
ATOM     22  O   LIG d   1       6.582  -3.888  -6.754  0.00  0.00    -0.275 OA
ATOM     23 CL   LIG d   1       2.212  -2.753 -13.260  0.00  0.00    -0.084 Cl
ATOM     24  H   LIG d   1       1.670  -5.401 -12.365  0.00  0.00     0.064 H 
ATOM     25  H   LIG d   1       3.426  -1.819 -10.855  0.00  0.00     0.064 H 
ATOM     26  H   LIG d   1       3.190  -6.106  -7.682  0.00  0.00     0.155 HD
ATOM     27  H   LIG d   1       2.299  -1.966  -7.789  0.00  0.00     0.123 HD
ENDROOT
BRANCH  15  28
ATOM     28  C   LIG d   1       3.637   0.564  -7.545  0.00  0.00    -0.029 C 
ATOM     29  H   LIG d   1       3.000   0.340  -6.689  0.00  0.00     0.029 H 
ATOM     30  H   LIG d   1       4.602   0.930  -7.194  0.00  0.00     0.029 H 
BRANCH  28  31
ATOM     31  C   LIG d   1       2.970   1.634  -8.412  0.00  0.00     0.025 C 
ATOM     32  H   LIG d   1       2.097   1.209  -8.907  0.00  0.00     0.036 H 
ATOM     33  H   LIG d   1       2.660   2.470  -7.784  0.00  0.00     0.036 H 
BRANCH  31  34
ATOM     34  C   LIG d   1       3.949   2.122  -9.448  0.00  0.00     0.210 C 
ATOM     35  O   LIG d   1       3.668   2.058 -10.626  0.00  0.00    -0.276 OA
ATOM     36  N   LIG d   1       5.137   2.631  -9.067  0.00  0.00    -0.329 N 
ATOM     37  H   LIG d   1       5.362   2.682  -8.124  0.00  0.00     0.145 HD
ATOM     38  H   LIG d   1       5.768   2.945  -9.733  0.00  0.00     0.145 HD
ENDBRANCH  31  34
ENDBRANCH  28  31
ENDBRANCH  15  28
BRANCH   1  39
ATOM     39  C   LIG d   1       1.990  -6.933 -10.172  0.00  0.00    -0.038 C 
ATOM     40  H   LIG d   1       1.032  -7.107 -10.659  0.00  0.00     0.028 H 
ATOM     41  H   LIG d   1       2.745  -7.584 -10.612  0.00  0.00     0.028 H 
ATOM     42  H   LIG d   1       1.900  -7.148  -9.107  0.00  0.00     0.028 H 
ENDBRANCH   1  39
BRANCH  20  43
ATOM     43  C   LIG d   1       7.324  -1.484  -5.381  0.00  0.00     0.026 C 
ATOM     44  H   LIG d   1       8.294  -1.965  -5.507  0.00  0.00     0.047 H 
ATOM     45  H   LIG d   1       7.470  -0.430  -5.144  0.00  0.00     0.047 H 
BRANCH  43  46
ATOM     46  C   LIG d   1       6.563  -2.162  -4.241  0.00  0.00    -0.011 C 
ATOM     47  H   LIG d   1       5.822  -2.847  -4.654  0.00  0.00     0.033 H 
ATOM     48  H   LIG d   1       7.263  -2.717  -3.616  0.00  0.00     0.033 H 
BRANCH  46  49
ATOM     49  C   LIG d   1       5.869  -1.116  -3.407  0.00  0.00    -0.046 A 
ATOM     50  C   LIG d   1       4.864  -1.485  -2.533  0.00  0.00    -0.059 A 
ATOM     51  C   LIG d   1       4.230  -0.526  -1.765  0.00  0.00    -0.061 A 
ATOM     52  H   LIG d   1       4.577  -2.522  -2.446  0.00  0.00     0.062 H 
ATOM     53  C   LIG d   1       4.593   0.803  -1.879  0.00  0.00    -0.062 A 
ATOM     54  H   LIG d   1       3.448  -0.815  -1.078  0.00  0.00     0.062 H 
ATOM     55  C   LIG d   1       5.595   1.172  -2.757  0.00  0.00    -0.061 A 
ATOM     56  H   LIG d   1       4.096   1.553  -1.281  0.00  0.00     0.062 H 
ATOM     57  C   LIG d   1       6.232   0.213  -3.522  0.00  0.00    -0.059 A 
ATOM     58  H   LIG d   1       5.879   2.210  -2.846  0.00  0.00     0.062 H 
ATOM     59  H   LIG d   1       7.015   0.502  -4.208  0.00  0.00     0.062 H 
ENDBRANCH  46  49
ENDBRANCH  43  46
ENDBRANCH  20  43
TORSDOF 7
ENDMDL
MODEL 3
REMARK VINA RESULT:      -7.5      2.841      5.349
REMARK  7 active torsions:
REMARK  status: ('A' for Active; 'I' for Inactive)
REMARK    1  A    between atoms: C_1  and  C_2 
REMARK    2  A    between atoms: C_16  and  C_19 
REMARK    3  A    between atoms: C_19  and  C_20 
REMARK    4  A    between atoms: C_20  and  C_21 
REMARK       I    between atoms: C_21  and  N_23 
REMARK    5  A    between atoms: N_26  and  C_29 
REMARK    6  A    between atoms: C_29  and  C_30 
REMARK    7  A    between atoms: C_30  and  C_31 
ROOT
ATOM      1  C   LIG d   1       5.050  -0.467  -2.992  0.00  0.00    -0.028 A 
ATOM      2  C   LIG d   1       6.112  -1.263  -2.614  0.00  0.00    -0.039 A 
ATOM      3  C   LIG d   1       6.774  -2.035  -3.552  0.00  0.00     0.042 A 
ATOM      4  C   LIG d   1       6.367  -2.009  -4.876  0.00  0.00    -0.036 A 
ATOM      5  C   LIG d   1       5.307  -1.217  -5.256  0.00  0.00     0.005 A 
ATOM      6  C   LIG d   1       4.632  -0.440  -4.319  0.00  0.00     0.042 A 
ATOM      7  N   LIG d   1       3.598   0.269  -4.937  0.00  0.00    -0.283 N 
ATOM      8  C   LIG d   1       3.524   0.013  -6.257  0.00  0.00     0.243 A 
ATOM      9  O   LIG d   1       2.729   0.484  -7.043  0.00  0.00    -0.273 OA
ATOM     10  C   LIG d   1       4.625  -0.963  -6.570  0.00  0.00     0.136 A 
ATOM     11  C   LIG d   1       5.603  -0.408  -7.613  0.00  0.00     0.080 A 
ATOM     12  H   LIG d   1       6.455   0.100  -7.160  0.00  0.00     0.043 H 
ATOM     13  C   LIG d   1       6.015  -1.645  -8.458  0.00  0.00     0.065 A 
ATOM     14  H   LIG d   1       7.095  -1.800  -8.482  0.00  0.00     0.042 H 
ATOM     15  C   LIG d   1       5.259  -2.831  -7.823  0.00  0.00     0.021 C 
ATOM     16  H   LIG d   1       5.899  -3.347  -7.106  0.00  0.00     0.047 H 
ATOM     17  N   LIG d   1       4.083  -2.207  -7.147  0.00  0.00    -0.295 N 
ATOM     18  C   LIG d   1       5.441  -1.342  -9.824  0.00  0.00     0.227 A 
ATOM     19  O   LIG d   1       5.529  -2.062 -10.795  0.00  0.00    -0.275 OA
ATOM     20  N   LIG d   1       4.822  -0.157  -9.793  0.00  0.00    -0.241 N 
ATOM     21  C   LIG d   1       4.856   0.469  -8.594  0.00  0.00     0.228 A 
ATOM     22  O   LIG d   1       4.370   1.550  -8.337  0.00  0.00    -0.275 OA
ATOM     23 CL   LIG d   1       8.111  -3.032  -3.072  0.00  0.00    -0.084 Cl
ATOM     24  H   LIG d   1       6.429  -1.283  -1.582  0.00  0.00     0.064 H 
ATOM     25  H   LIG d   1       6.882  -2.611  -5.611  0.00  0.00     0.064 H 
ATOM     26  H   LIG d   1       3.002   0.875  -4.470  0.00  0.00     0.155 HD
ATOM     27  H   LIG d   1       3.722  -2.814  -6.426  0.00  0.00     0.123 HD
ENDROOT
BRANCH  15  28
ATOM     28  C   LIG d   1       4.783  -3.800  -8.905  0.00  0.00    -0.029 C 
ATOM     29  H   LIG d   1       4.536  -3.243  -9.809  0.00  0.00     0.029 H 
ATOM     30  H   LIG d   1       5.574  -4.517  -9.125  0.00  0.00     0.029 H 
BRANCH  28  31
ATOM     31  C   LIG d   1       3.541  -4.546  -8.411  0.00  0.00     0.025 C 
ATOM     32  H   LIG d   1       2.796  -3.826  -8.074  0.00  0.00     0.036 H 
ATOM     33  H   LIG d   1       3.128  -5.143  -9.224  0.00  0.00     0.036 H 
BRANCH  31  34
ATOM     34  C   LIG d   1       3.921  -5.451  -7.268  0.00  0.00     0.210 C 
ATOM     35  O   LIG d   1       3.436  -5.279  -6.170  0.00  0.00    -0.276 OA
ATOM     36  N   LIG d   1       4.801  -6.453  -7.465  0.00  0.00    -0.329 N 
ATOM     37  H   LIG d   1       5.189  -6.591  -8.344  0.00  0.00     0.145 HD
ATOM     38  H   LIG d   1       5.046  -7.036  -6.730  0.00  0.00     0.145 HD
ENDBRANCH  31  34
ENDBRANCH  28  31
ENDBRANCH  15  28
BRANCH   1  39
ATOM     39  C   LIG d   1       4.337   0.371  -1.962  0.00  0.00    -0.038 C 
ATOM     40  H   LIG d   1       3.323  -0.005  -1.826  0.00  0.00     0.028 H 
ATOM     41  H   LIG d   1       4.874   0.319  -1.015  0.00  0.00     0.028 H 
ATOM     42  H   LIG d   1       4.298   1.407  -2.301  0.00  0.00     0.028 H 
ENDBRANCH   1  39
BRANCH  20  43
ATOM     43  C   LIG d   1       4.164   0.424 -10.965  0.00  0.00     0.026 C 
ATOM     44  H   LIG d   1       4.478   1.462 -11.082  0.00  0.00     0.047 H 
ATOM     45  H   LIG d   1       4.442  -0.141 -11.855  0.00  0.00     0.047 H 
BRANCH  43  46
ATOM     46  C   LIG d   1       2.647   0.367 -10.779  0.00  0.00    -0.011 C 
ATOM     47  H   LIG d   1       2.398   0.609  -9.746  0.00  0.00     0.033 H 
ATOM     48  H   LIG d   1       2.173   1.088 -11.445  0.00  0.00     0.033 H 
BRANCH  46  49
ATOM     49  C   LIG d   1       2.151  -1.018 -11.104  0.00  0.00    -0.046 A 
ATOM     50  C   LIG d   1       2.305  -1.524 -12.381  0.00  0.00    -0.059 A 
ATOM     51  C   LIG d   1       1.853  -2.797 -12.679  0.00  0.00    -0.061 A 
ATOM     52  H   LIG d   1       2.781  -0.928 -13.145  0.00  0.00     0.062 H 
ATOM     53  C   LIG d   1       1.239  -3.558 -11.703  0.00  0.00    -0.062 A 
ATOM     54  H   LIG d   1       1.977  -3.194 -13.676  0.00  0.00     0.062 H 
ATOM     55  C   LIG d   1       1.081  -3.050 -10.427  0.00  0.00    -0.061 A 
ATOM     56  H   LIG d   1       0.884  -4.552 -11.936  0.00  0.00     0.062 H 
ATOM     57  C   LIG d   1       1.536  -1.779 -10.128  0.00  0.00    -0.059 A 
ATOM     58  H   LIG d   1       0.601  -3.645  -9.664  0.00  0.00     0.062 H 
ATOM     59  H   LIG d   1       1.413  -1.382  -9.131  0.00  0.00     0.062 H 
ENDBRANCH  46  49
ENDBRANCH  43  46
ENDBRANCH  20  43
TORSDOF 7
ENDMDL
MODEL 4
REMARK VINA RESULT:      -7.2      3.057      7.645
REMARK  7 active torsions:
REMARK  status: ('A' for Active; 'I' for Inactive)
REMARK    1  A    between atoms: C_1  and  C_2 
REMARK    2  A    between atoms: C_16  and  C_19 
REMARK    3  A    between atoms: C_19  and  C_20 
REMARK    4  A    between atoms: C_20  and  C_21 
REMARK       I    between atoms: C_21  and  N_23 
REMARK    5  A    between atoms: N_26  and  C_29 
REMARK    6  A    between atoms: C_29  and  C_30 
REMARK    7  A    between atoms: C_30  and  C_31 
ROOT
ATOM      1  C   LIG d   1       2.576  -1.303  -9.484  0.00  0.00    -0.028 A 
ATOM      2  C   LIG d   1       2.432   0.067  -9.407  0.00  0.00    -0.039 A 
ATOM      3  C   LIG d   1       2.983   0.769  -8.350  0.00  0.00     0.042 A 
ATOM      4  C   LIG d   1       3.681   0.092  -7.363  0.00  0.00    -0.036 A 
ATOM      5  C   LIG d   1       3.825  -1.275  -7.435  0.00  0.00     0.005 A 
ATOM      6  C   LIG d   1       3.271  -1.991  -8.493  0.00  0.00     0.042 A 
ATOM      7  N   LIG d   1       3.544  -3.353  -8.347  0.00  0.00    -0.283 N 
ATOM      8  C   LIG d   1       4.256  -3.613  -7.234  0.00  0.00     0.243 A 
ATOM      9  O   LIG d   1       4.636  -4.701  -6.854  0.00  0.00    -0.273 OA
ATOM     10  C   LIG d   1       4.499  -2.291  -6.559  0.00  0.00     0.136 A 
ATOM     11  C   LIG d   1       5.996  -1.995  -6.404  0.00  0.00     0.080 A 
ATOM     12  H   LIG d   1       6.398  -1.415  -7.236  0.00  0.00     0.043 H 
ATOM     13  C   LIG d   1       6.107  -1.253  -5.042  0.00  0.00     0.065 A 
ATOM     14  H   LIG d   1       6.587  -0.278  -5.130  0.00  0.00     0.042 H 
ATOM     15  C   LIG d   1       4.658  -1.157  -4.522  0.00  0.00     0.021 C 
ATOM     16  H   LIG d   1       4.222  -0.194  -4.793  0.00  0.00     0.047 H 
ATOM     17  N   LIG d   1       3.942  -2.282  -5.194  0.00  0.00    -0.295 N 
ATOM     18  C   LIG d   1       6.897  -2.215  -4.184  0.00  0.00     0.227 A 
ATOM     19  O   LIG d   1       7.207  -2.029  -3.027  0.00  0.00    -0.275 OA
ATOM     20  N   LIG d   1       7.201  -3.303  -4.900  0.00  0.00    -0.241 N 
ATOM     21  C   LIG d   1       6.749  -3.287  -6.176  0.00  0.00     0.228 A 
ATOM     22  O   LIG d   1       6.912  -4.157  -7.003  0.00  0.00    -0.275 OA
ATOM     23 CL   LIG d   1       2.801   2.493  -8.261  0.00  0.00    -0.084 Cl
ATOM     24  H   LIG d   1       1.888   0.595 -10.177  0.00  0.00     0.064 H 
ATOM     25  H   LIG d   1       4.112   0.638  -6.537  0.00  0.00     0.064 H 
ATOM     26  H   LIG d   1       3.254  -4.034  -8.974  0.00  0.00     0.155 HD
ATOM     27  H   LIG d   1       2.947  -2.114  -5.210  0.00  0.00     0.123 HD
ENDROOT
BRANCH  15  28
ATOM     28  C   LIG d   1       4.622  -1.349  -3.005  0.00  0.00    -0.029 C 
ATOM     29  H   LIG d   1       4.191  -2.323  -2.773  0.00  0.00     0.029 H 
ATOM     30  H   LIG d   1       5.635  -1.295  -2.608  0.00  0.00     0.029 H 
BRANCH  28  31
ATOM     31  C   LIG d   1       3.766  -0.249  -2.372  0.00  0.00     0.025 C 
ATOM     32  H   LIG d   1       2.767  -0.270  -2.807  0.00  0.00     0.036 H 
ATOM     33  H   LIG d   1       3.698  -0.415  -1.297  0.00  0.00     0.036 H 
BRANCH  31  34
ATOM     34  C   LIG d   1       4.401   1.093  -2.634  0.00  0.00     0.210 C 
ATOM     35  O   LIG d   1       5.523   1.322  -2.236  0.00  0.00    -0.276 OA
ATOM     36  N   LIG d   1       3.721   2.039  -3.312  0.00  0.00    -0.329 N 
ATOM     37  H   LIG d   1       2.823   1.856  -3.631  0.00  0.00     0.145 HD
ATOM     38  H   LIG d   1       4.129   2.903  -3.481  0.00  0.00     0.145 HD
ENDBRANCH  31  34
ENDBRANCH  28  31
ENDBRANCH  15  28
BRANCH   1  39
ATOM     39  C   LIG d   1       1.973  -2.058 -10.640  0.00  0.00    -0.038 C 
ATOM     40  H   LIG d   1       0.896  -1.893 -10.659  0.00  0.00     0.028 H 
ATOM     41  H   LIG d   1       2.411  -1.704 -11.573  0.00  0.00     0.028 H 
ATOM     42  H   LIG d   1       2.176  -3.122 -10.524  0.00  0.00     0.028 H 
ENDBRANCH   1  39
BRANCH  20  43
ATOM     43  C   LIG d   1       7.968  -4.424  -4.352  0.00  0.00     0.026 C 
ATOM     44  H   LIG d   1       7.542  -4.723  -3.395  0.00  0.00     0.047 H 
ATOM     45  H   LIG d   1       7.929  -5.265  -5.046  0.00  0.00     0.047 H 
BRANCH  43  46
ATOM     46  C   LIG d   1       9.423  -3.997  -4.152  0.00  0.00    -0.011 C 
ATOM     47  H   LIG d   1       9.892  -3.835  -5.122  0.00  0.00     0.033 H 
ATOM     48  H   LIG d   1       9.454  -3.072  -3.575  0.00  0.00     0.033 H 
BRANCH  46  49
ATOM     49  C   LIG d   1      10.167  -5.076  -3.409  0.00  0.00    -0.046 A 
ATOM     50  C   LIG d   1       9.627  -5.620  -2.257  0.00  0.00    -0.059 A 
ATOM     51  C   LIG d   1      10.308  -6.613  -1.577  0.00  0.00    -0.061 A 
ATOM     52  H   LIG d   1       8.673  -5.271  -1.892  0.00  0.00     0.062 H 
ATOM     53  C   LIG d   1      11.532  -7.055  -2.042  0.00  0.00    -0.062 A 
ATOM     54  H   LIG d   1       9.884  -7.040  -0.680  0.00  0.00     0.062 H 
ATOM     55  C   LIG d   1      12.073  -6.508  -3.190  0.00  0.00    -0.061 A 
ATOM     56  H   LIG d   1      12.065  -7.830  -1.510  0.00  0.00     0.062 H 
ATOM     57  C   LIG d   1      11.391  -5.518  -3.873  0.00  0.00    -0.059 A 
ATOM     58  H   LIG d   1      13.029  -6.855  -3.554  0.00  0.00     0.062 H 
ATOM     59  H   LIG d   1      11.814  -5.091  -4.771  0.00  0.00     0.062 H 
ENDBRANCH  46  49
ENDBRANCH  43  46
ENDBRANCH  20  43
TORSDOF 7
ENDMDL
MODEL 5
REMARK VINA RESULT:      -7.1      3.196      5.704
REMARK  7 active torsions:
REMARK  status: ('A' for Active; 'I' for Inactive)
REMARK    1  A    between atoms: C_1  and  C_2 
REMARK    2  A    between atoms: C_16  and  C_19 
REMARK    3  A    between atoms: C_19  and  C_20 
REMARK    4  A    between atoms: C_20  and  C_21 
REMARK       I    between atoms: C_21  and  N_23 
REMARK    5  A    between atoms: N_26  and  C_29 
REMARK    6  A    between atoms: C_29  and  C_30 
REMARK    7  A    between atoms: C_30  and  C_31 
ROOT
ATOM      1  C   LIG d   1      10.363   2.743  -6.476  0.00  0.00    -0.028 A 
ATOM      2  C   LIG d   1      11.524   2.231  -7.019  0.00  0.00    -0.039 A 
ATOM      3  C   LIG d   1      11.719   0.863  -7.087  0.00  0.00     0.042 A 
ATOM      4  C   LIG d   1      10.743   0.004  -6.607  0.00  0.00    -0.036 A 
ATOM      5  C   LIG d   1       9.585   0.512  -6.063  0.00  0.00     0.005 A 
ATOM      6  C   LIG d   1       9.381   1.887  -5.987  0.00  0.00     0.042 A 
ATOM      7  N   LIG d   1       8.144   2.158  -5.398  0.00  0.00    -0.283 N 
ATOM      8  C   LIG d   1       7.484   1.034  -5.058  0.00  0.00     0.243 A 
ATOM      9  O   LIG d   1       6.393   0.964  -4.534  0.00  0.00    -0.273 OA
ATOM     10  C   LIG d   1       8.360  -0.119  -5.466  0.00  0.00     0.136 A 
ATOM     11  C   LIG d   1       7.658  -1.044  -6.469  0.00  0.00     0.080 A 
ATOM     12  H   LIG d   1       7.870  -0.778  -7.505  0.00  0.00     0.043 H 
ATOM     13  C   LIG d   1       8.154  -2.469  -6.098  0.00  0.00     0.065 A 
ATOM     14  H   LIG d   1       8.619  -2.987  -6.937  0.00  0.00     0.042 H 
ATOM     15  C   LIG d   1       9.126  -2.258  -4.918  0.00  0.00     0.021 C 
ATOM     16  H   LIG d   1      10.153  -2.203  -5.280  0.00  0.00     0.047 H 
ATOM     17  N   LIG d   1       8.698  -0.965  -4.307  0.00  0.00    -0.295 N 
ATOM     18  C   LIG d   1       6.899  -3.159  -5.612  0.00  0.00     0.227 A 
ATOM     19  O   LIG d   1       6.838  -4.303  -5.212  0.00  0.00    -0.275 OA
ATOM     20  N   LIG d   1       5.867  -2.313  -5.690  0.00  0.00    -0.241 N 
ATOM     21  C   LIG d   1       6.175  -1.086  -6.170  0.00  0.00     0.228 A 
ATOM     22  O   LIG d   1       5.402  -0.167  -6.334  0.00  0.00    -0.275 OA
ATOM     23 CL   LIG d   1      13.180   0.225  -7.773  0.00  0.00    -0.084 Cl
ATOM     24  H   LIG d   1      12.284   2.901  -7.393  0.00  0.00     0.064 H 
ATOM     25  H   LIG d   1      10.892  -1.064  -6.659  0.00  0.00     0.064 H 
ATOM     26  H   LIG d   1       7.799   3.053  -5.249  0.00  0.00     0.155 HD
ATOM     27  H   LIG d   1       9.449  -0.558  -3.769  0.00  0.00     0.123 HD
ENDROOT
BRANCH  15  28
ATOM     28  C   LIG d   1       8.980  -3.389  -3.899  0.00  0.00    -0.029 C 
ATOM     29  H   LIG d   1       8.691  -2.972  -2.934  0.00  0.00     0.029 H 
ATOM     30  H   LIG d   1       8.216  -4.088  -4.238  0.00  0.00     0.029 H 
BRANCH  28  31
ATOM     31  C   LIG d   1      10.316  -4.122  -3.757  0.00  0.00     0.025 C 
ATOM     32  H   LIG d   1      10.455  -4.791  -4.607  0.00  0.00     0.036 H 
ATOM     33  H   LIG d   1      11.129  -3.396  -3.731  0.00  0.00     0.036 H 
BRANCH  31  34
ATOM     34  C   LIG d   1      10.316  -4.922  -2.481  0.00  0.00     0.210 C 
ATOM     35  O   LIG d   1       9.536  -4.650  -1.594  0.00  0.00    -0.276 OA
ATOM     36  N   LIG d   1      11.183  -5.942  -2.324  0.00  0.00    -0.329 N 
ATOM     37  H   LIG d   1      11.808  -6.160  -3.034  0.00  0.00     0.145 HD
ATOM     38  H   LIG d   1      11.184  -6.458  -1.503  0.00  0.00     0.145 HD
ENDBRANCH  31  34
ENDBRANCH  28  31
ENDBRANCH  15  28
BRANCH   1  39
ATOM     39  C   LIG d   1      10.162   4.235  -6.407  0.00  0.00    -0.038 C 
ATOM     40  H   LIG d   1      10.874   4.729  -7.067  0.00  0.00     0.028 H 
ATOM     41  H   LIG d   1       9.147   4.479  -6.720  0.00  0.00     0.028 H 
ATOM     42  H   LIG d   1      10.319   4.576  -5.383  0.00  0.00     0.028 H 
ENDBRANCH   1  39
BRANCH  20  43
ATOM     43  C   LIG d   1       4.506  -2.683  -5.295  0.00  0.00     0.026 C 
ATOM     44  H   LIG d   1       3.802  -1.942  -5.676  0.00  0.00     0.047 H 
ATOM     45  H   LIG d   1       4.261  -3.662  -5.709  0.00  0.00     0.047 H 
BRANCH  43  46
ATOM     46  C   LIG d   1       4.414  -2.738  -3.770  0.00  0.00    -0.011 C 
ATOM     47  H   LIG d   1       3.603  -3.405  -3.478  0.00  0.00     0.033 H 
ATOM     48  H   LIG d   1       5.355  -3.109  -3.363  0.00  0.00     0.033 H 
BRANCH  46  49
ATOM     49  C   LIG d   1       4.146  -1.356  -3.232  0.00  0.00    -0.046 A 
ATOM     50  C   LIG d   1       4.806  -0.916  -2.100  0.00  0.00    -0.059 A 
ATOM     51  C   LIG d   1       4.563   0.354  -1.608  0.00  0.00    -0.061 A 
ATOM     52  H   LIG d   1       5.514  -1.561  -1.602  0.00  0.00     0.062 H 
ATOM     53  C   LIG d   1       3.653   1.178  -2.242  0.00  0.00    -0.062 A 
ATOM     54  H   LIG d   1       5.082   0.699  -0.726  0.00  0.00     0.062 H 
ATOM     55  C   LIG d   1       2.989   0.736  -3.371  0.00  0.00    -0.061 A 
ATOM     56  H   LIG d   1       3.461   2.169  -1.857  0.00  0.00     0.062 H 
ATOM     57  C   LIG d   1       3.235  -0.532  -3.865  0.00  0.00    -0.059 A 
ATOM     58  H   LIG d   1       2.278   1.380  -3.866  0.00  0.00     0.062 H 
ATOM     59  H   LIG d   1       2.716  -0.877  -4.748  0.00  0.00     0.062 H 
ENDBRANCH  46  49
ENDBRANCH  43  46
ENDBRANCH  20  43
TORSDOF 7
ENDMDL
MODEL 6
REMARK VINA RESULT:      -6.9      2.733      3.509
REMARK  7 active torsions:
REMARK  status: ('A' for Active; 'I' for Inactive)
REMARK    1  A    between atoms: C_1  and  C_2 
REMARK    2  A    between atoms: C_16  and  C_19 
REMARK    3  A    between atoms: C_19  and  C_20 
REMARK    4  A    between atoms: C_20  and  C_21 
REMARK       I    between atoms: C_21  and  N_23 
REMARK    5  A    between atoms: N_26  and  C_29 
REMARK    6  A    between atoms: C_29  and  C_30 
REMARK    7  A    between atoms: C_30  and  C_31 
ROOT
ATOM      1  C   LIG d   1      11.115   2.880  -6.655  0.00  0.00    -0.028 A 
ATOM      2  C   LIG d   1      11.979   2.482  -5.656  0.00  0.00    -0.039 A 
ATOM      3  C   LIG d   1      11.603   1.501  -4.756  0.00  0.00     0.042 A 
ATOM      4  C   LIG d   1      10.352   0.916  -4.860  0.00  0.00    -0.036 A 
ATOM      5  C   LIG d   1       9.486   1.311  -5.854  0.00  0.00     0.005 A 
ATOM      6  C   LIG d   1       9.853   2.300  -6.762  0.00  0.00     0.042 A 
ATOM      7  N   LIG d   1       8.816   2.532  -7.668  0.00  0.00    -0.283 N 
ATOM      8  C   LIG d   1       7.745   1.751  -7.426  0.00  0.00     0.243 A 
ATOM      9  O   LIG d   1       6.705   1.734  -8.050  0.00  0.00    -0.273 OA
ATOM     10  C   LIG d   1       8.094   0.896  -6.239  0.00  0.00     0.136 A 
ATOM     11  C   LIG d   1       8.024  -0.600  -6.570  0.00  0.00     0.080 A 
ATOM     12  H   LIG d   1       8.985  -1.004  -6.889  0.00  0.00     0.043 H 
ATOM     13  C   LIG d   1       7.493  -1.262  -5.269  0.00  0.00     0.065 A 
ATOM     14  H   LIG d   1       8.155  -2.042  -4.890  0.00  0.00     0.042 H 
ATOM     15  C   LIG d   1       7.316  -0.098  -4.272  0.00  0.00     0.021 C 
ATOM     16  H   LIG d   1       8.198  -0.006  -3.637  0.00  0.00     0.047 H 
ATOM     17  N   LIG d   1       7.142   1.110  -5.133  0.00  0.00    -0.295 N 
ATOM     18  C   LIG d   1       6.139  -1.798  -5.677  0.00  0.00     0.227 A 
ATOM     19  O   LIG d   1       5.371  -2.391  -4.950  0.00  0.00    -0.275 OA
ATOM     20  N   LIG d   1       5.920  -1.516  -6.967  0.00  0.00    -0.241 N 
ATOM     21  C   LIG d   1       6.924  -0.846  -7.579  0.00  0.00     0.228 A 
ATOM     22  O   LIG d   1       6.946  -0.495  -8.739  0.00  0.00    -0.275 OA
ATOM     23 CL   LIG d   1      12.696   1.004  -3.503  0.00  0.00    -0.084 Cl
ATOM     24  H   LIG d   1      12.955   2.939  -5.576  0.00  0.00     0.064 H 
ATOM     25  H   LIG d   1      10.055   0.149  -4.159  0.00  0.00     0.064 H 
ATOM     26  H   LIG d   1       8.860   3.179  -8.389  0.00  0.00     0.155 HD
ATOM     27  H   LIG d   1       7.365   1.950  -4.620  0.00  0.00     0.123 HD
ENDROOT
BRANCH  15  28
ATOM     28  C   LIG d   1       6.066  -0.312  -3.418  0.00  0.00    -0.029 C 
ATOM     29  H   LIG d   1       5.279  -0.752  -4.031  0.00  0.00     0.029 H 
ATOM     30  H   LIG d   1       6.301  -0.982  -2.591  0.00  0.00     0.029 H 
BRANCH  28  31
ATOM     31  C   LIG d   1       5.589   1.033  -2.865  0.00  0.00     0.025 C 
ATOM     32  H   LIG d   1       5.881   1.120  -1.819  0.00  0.00     0.036 H 
ATOM     33  H   LIG d   1       6.043   1.843  -3.437  0.00  0.00     0.036 H 
BRANCH  31  34
ATOM     34  C   LIG d   1       4.089   1.119  -2.979  0.00  0.00     0.210 C 
ATOM     35  O   LIG d   1       3.419   1.355  -1.996  0.00  0.00    -0.276 OA
ATOM     36  N   LIG d   1       3.492   0.935  -4.173  0.00  0.00    -0.329 N 
ATOM     37  H   LIG d   1       4.029   0.747  -4.959  0.00  0.00     0.145 HD
ATOM     38  H   LIG d   1       2.526   0.991  -4.247  0.00  0.00     0.145 HD
ENDBRANCH  31  34
ENDBRANCH  28  31
ENDBRANCH  15  28
BRANCH   1  39
ATOM     39  C   LIG d   1      11.535   3.950  -7.630  0.00  0.00    -0.038 C 
ATOM     40  H   LIG d   1      10.677   4.573  -7.877  0.00  0.00     0.028 H 
ATOM     41  H   LIG d   1      12.314   4.565  -7.181  0.00  0.00     0.028 H 
ATOM     42  H   LIG d   1      11.919   3.483  -8.538  0.00  0.00     0.028 H 
ENDBRANCH   1  39
BRANCH  20  43
ATOM     43  C   LIG d   1       4.694  -1.907  -7.666  0.00  0.00     0.026 C 
ATOM     44  H   LIG d   1       4.866  -1.881  -8.743  0.00  0.00     0.047 H 
ATOM     45  H   LIG d   1       4.411  -2.917  -7.368  0.00  0.00     0.047 H 
BRANCH  43  46
ATOM     46  C   LIG d   1       3.570  -0.936  -7.305  0.00  0.00    -0.011 C 
ATOM     47  H   LIG d   1       2.615  -1.462  -7.321  0.00  0.00     0.033 H 
ATOM     48  H   LIG d   1       3.745  -0.531  -6.308  0.00  0.00     0.033 H 
BRANCH  46  49
ATOM     49  C   LIG d   1       3.537   0.192  -8.305  0.00  0.00    -0.046 A 
ATOM     50  C   LIG d   1       3.175   1.463  -7.901  0.00  0.00    -0.059 A 
ATOM     51  C   LIG d   1       3.150   2.499  -8.817  0.00  0.00    -0.061 A 
ATOM     52  H   LIG d   1       2.917   1.649  -6.869  0.00  0.00     0.062 H 
ATOM     53  C   LIG d   1       3.475   2.260 -10.138  0.00  0.00    -0.062 A 
ATOM     54  H   LIG d   1       2.871   3.493  -8.499  0.00  0.00     0.062 H 
ATOM     55  C   LIG d   1       3.832   0.988 -10.544  0.00  0.00    -0.061 A 
ATOM     56  H   LIG d   1       3.453   3.069 -10.855  0.00  0.00     0.062 H 
ATOM     57  C   LIG d   1       3.862  -0.047  -9.627  0.00  0.00    -0.059 A 
ATOM     58  H   LIG d   1       4.088   0.802 -11.576  0.00  0.00     0.062 H 
ATOM     59  H   LIG d   1       4.142  -1.041  -9.944  0.00  0.00     0.062 H 
ENDBRANCH  46  49
ENDBRANCH  43  46
ENDBRANCH  20  43
TORSDOF 7
ENDMDL
MODEL 7
REMARK VINA RESULT:      -6.9      3.453      4.897
REMARK  7 active torsions:
REMARK  status: ('A' for Active; 'I' for Inactive)
REMARK    1  A    between atoms: C_1  and  C_2 
REMARK    2  A    between atoms: C_16  and  C_19 
REMARK    3  A    between atoms: C_19  and  C_20 
REMARK    4  A    between atoms: C_20  and  C_21 
REMARK       I    between atoms: C_21  and  N_23 
REMARK    5  A    between atoms: N_26  and  C_29 
REMARK    6  A    between atoms: C_29  and  C_30 
REMARK    7  A    between atoms: C_30  and  C_31 
ROOT
ATOM      1  C   LIG d   1       9.560   2.981  -6.169  0.00  0.00    -0.028 A 
ATOM      2  C   LIG d   1      10.271   3.325  -5.038  0.00  0.00    -0.039 A 
ATOM      3  C   LIG d   1       9.934   2.786  -3.810  0.00  0.00     0.042 A 
ATOM      4  C   LIG d   1       8.877   1.895  -3.716  0.00  0.00    -0.036 A 
ATOM      5  C   LIG d   1       8.164   1.551  -4.842  0.00  0.00     0.005 A 
ATOM      6  C   LIG d   1       8.492   2.092  -6.082  0.00  0.00     0.042 A 
ATOM      7  N   LIG d   1       7.631   1.599  -7.066  0.00  0.00    -0.283 N 
ATOM      8  C   LIG d   1       6.718   0.746  -6.562  0.00  0.00     0.243 A 
ATOM      9  O   LIG d   1       5.849   0.167  -7.179  0.00  0.00    -0.273 OA
ATOM     10  C   LIG d   1       6.993   0.642  -5.087  0.00  0.00     0.136 A 
ATOM     11  C   LIG d   1       7.301  -0.799  -4.662  0.00  0.00     0.080 A 
ATOM     12  H   LIG d   1       8.368  -1.020  -4.671  0.00  0.00     0.043 H 
ATOM     13  C   LIG d   1       6.669  -0.932  -3.248  0.00  0.00     0.065 A 
ATOM     14  H   LIG d   1       7.389  -1.244  -2.491  0.00  0.00     0.042 H 
ATOM     15  C   LIG d   1       6.061   0.455  -2.952  0.00  0.00     0.021 C 
ATOM     16  H   LIG d   1       6.760   1.059  -2.372  0.00  0.00     0.047 H 
ATOM     17  N   LIG d   1       5.817   1.053  -4.298  0.00  0.00    -0.295 N 
ATOM     18  C   LIG d   1       5.564  -1.943  -3.453  0.00  0.00     0.227 A 
ATOM     19  O   LIG d   1       4.806  -2.337  -2.592  0.00  0.00    -0.275 OA
ATOM     20  N   LIG d   1       5.553  -2.337  -4.731  0.00  0.00    -0.241 N 
ATOM     21  C   LIG d   1       6.498  -1.761  -5.509  0.00  0.00     0.228 A 
ATOM     22  O   LIG d   1       6.678  -1.972  -6.690  0.00  0.00    -0.275 OA
ATOM     23 CL   LIG d   1      10.834   3.221  -2.391  0.00  0.00    -0.084 Cl
ATOM     24  H   LIG d   1      11.095   4.019  -5.112  0.00  0.00     0.064 H 
ATOM     25  H   LIG d   1       8.611   1.472  -2.758  0.00  0.00     0.064 H 
ATOM     26  H   LIG d   1       7.683   1.842  -8.003  0.00  0.00     0.155 HD
ATOM     27  H   LIG d   1       5.755   2.059  -4.237  0.00  0.00     0.123 HD
ENDROOT
BRANCH  15  28
ATOM     28  C   LIG d   1       4.737   0.307  -2.200  0.00  0.00    -0.029 C 
ATOM     29  H   LIG d   1       4.387  -0.722  -2.281  0.00  0.00     0.029 H 
ATOM     30  H   LIG d   1       4.885   0.561  -1.151  0.00  0.00     0.029 H 
BRANCH  28  31
ATOM     31  C   LIG d   1       3.696   1.249  -2.811  0.00  0.00     0.025 C 
ATOM     32  H   LIG d   1       3.010   1.585  -2.034  0.00  0.00     0.036 H 
ATOM     33  H   LIG d   1       4.199   2.111  -3.250  0.00  0.00     0.036 H 
BRANCH  31  34
ATOM     34  C   LIG d   1       2.927   0.519  -3.881  0.00  0.00     0.210 C 
ATOM     35  O   LIG d   1       2.827   0.997  -4.991  0.00  0.00    -0.276 OA
ATOM     36  N   LIG d   1       2.350  -0.668  -3.606  0.00  0.00    -0.329 N 
ATOM     37  H   LIG d   1       2.430  -1.051  -2.717  0.00  0.00     0.145 HD
ATOM     38  H   LIG d   1       1.854  -1.139  -4.294  0.00  0.00     0.145 HD
ENDBRANCH  31  34
ENDBRANCH  28  31
ENDBRANCH  15  28
BRANCH   1  39
ATOM     39  C   LIG d   1       9.936   3.575  -7.503  0.00  0.00    -0.038 C 
ATOM     40  H   LIG d   1      10.989   3.382  -7.702  0.00  0.00     0.028 H 
ATOM     41  H   LIG d   1       9.328   3.122  -8.286  0.00  0.00     0.028 H 
ATOM     42  H   LIG d   1       9.760   4.651  -7.483  0.00  0.00     0.028 H 
ENDBRANCH   1  39
BRANCH  20  43
ATOM     43  C   LIG d   1       4.598  -3.319  -5.249  0.00  0.00     0.026 C 
ATOM     44  H   LIG d   1       3.692  -3.300  -4.645  0.00  0.00     0.047 H 
ATOM     45  H   LIG d   1       4.351  -3.075  -6.283  0.00  0.00     0.047 H 
BRANCH  43  46
ATOM     46  C   LIG d   1       5.220  -4.715  -5.192  0.00  0.00    -0.011 C 
ATOM     47  H   LIG d   1       6.306  -4.628  -5.151  0.00  0.00     0.033 H 
ATOM     48  H   LIG d   1       4.864  -5.235  -4.303  0.00  0.00     0.033 H 
BRANCH  46  49
ATOM     49  C   LIG d   1       4.825  -5.493  -6.421  0.00  0.00    -0.046 A 
ATOM     50  C   LIG d   1       3.914  -4.960  -7.312  0.00  0.00    -0.059 A 
ATOM     51  C   LIG d   1       3.554  -5.672  -8.442  0.00  0.00    -0.061 A 
ATOM     52  H   LIG d   1       3.486  -3.986  -7.130  0.00  0.00     0.062 H 
ATOM     53  C   LIG d   1       4.097  -6.922  -8.673  0.00  0.00    -0.062 A 
ATOM     54  H   LIG d   1       2.845  -5.253  -9.141  0.00  0.00     0.062 H 
ATOM     55  C   LIG d   1       5.004  -7.457  -7.778  0.00  0.00    -0.061 A 
ATOM     56  H   LIG d   1       3.814  -7.480  -9.554  0.00  0.00     0.062 H 
ATOM     57  C   LIG d   1       5.368  -6.743  -6.651  0.00  0.00    -0.059 A 
ATOM     58  H   LIG d   1       5.430  -8.433  -7.960  0.00  0.00     0.062 H 
ATOM     59  H   LIG d   1       6.077  -7.162  -5.953  0.00  0.00     0.062 H 
ENDBRANCH  46  49
ENDBRANCH  43  46
ENDBRANCH  20  43
TORSDOF 7
ENDMDL
MODEL 8
REMARK VINA RESULT:      -6.9      3.634      7.779
REMARK  7 active torsions:
REMARK  status: ('A' for Active; 'I' for Inactive)
REMARK    1  A    between atoms: C_1  and  C_2 
REMARK    2  A    between atoms: C_16  and  C_19 
REMARK    3  A    between atoms: C_19  and  C_20 
REMARK    4  A    between atoms: C_20  and  C_21 
REMARK       I    between atoms: C_21  and  N_23 
REMARK    5  A    between atoms: N_26  and  C_29 
REMARK    6  A    between atoms: C_29  and  C_30 
REMARK    7  A    between atoms: C_30  and  C_31 
ROOT
ATOM      1  C   LIG d   1       2.100  -1.449  -9.676  0.00  0.00    -0.028 A 
ATOM      2  C   LIG d   1       2.060  -0.090  -9.444  0.00  0.00    -0.039 A 
ATOM      3  C   LIG d   1       2.865   0.477  -8.472  0.00  0.00     0.042 A 
ATOM      4  C   LIG d   1       3.714  -0.326  -7.728  0.00  0.00    -0.036 A 
ATOM      5  C   LIG d   1       3.755  -1.683  -7.956  0.00  0.00     0.005 A 
ATOM      6  C   LIG d   1       2.946  -2.263  -8.929  0.00  0.00     0.042 A 
ATOM      7  N   LIG d   1       3.159  -3.643  -8.972  0.00  0.00    -0.283 N 
ATOM      8  C   LIG d   1       4.075  -4.046  -8.070  0.00  0.00     0.243 A 
ATOM      9  O   LIG d   1       4.458  -5.181  -7.883  0.00  0.00    -0.273 OA
ATOM     10  C   LIG d   1       4.537  -2.811  -7.345  0.00  0.00     0.136 A 
ATOM     11  C   LIG d   1       6.048  -2.593  -7.493  0.00  0.00     0.080 A 
ATOM     12  H   LIG d   1       6.298  -1.947  -8.335  0.00  0.00     0.043 H 
ATOM     13  C   LIG d   1       6.491  -2.001  -6.126  0.00  0.00     0.065 A 
ATOM     14  H   LIG d   1       7.001  -1.042  -6.226  0.00  0.00     0.042 H 
ATOM     15  C   LIG d   1       5.195  -1.901  -5.296  0.00  0.00     0.021 C 
ATOM     16  H   LIG d   1       4.772  -0.898  -5.375  0.00  0.00     0.047 H 
ATOM     17  N   LIG d   1       4.285  -2.921  -5.896  0.00  0.00    -0.295 N 
ATOM     18  C   LIG d   1       7.386  -3.078  -5.553  0.00  0.00     0.227 A 
ATOM     19  O   LIG d   1       7.946  -3.025  -4.480  0.00  0.00    -0.275 OA
ATOM     20  N   LIG d   1       7.462  -4.097  -6.416  0.00  0.00    -0.241 N 
ATOM     21  C   LIG d   1       6.751  -3.931  -7.555  0.00  0.00     0.228 A 
ATOM     22  O   LIG d   1       6.680  -4.717  -8.475  0.00  0.00    -0.275 OA
ATOM     23 CL   LIG d   1       2.813   2.188  -8.187  0.00  0.00    -0.084 Cl
ATOM     24  H   LIG d   1       1.398   0.536 -10.025  0.00  0.00     0.064 H 
ATOM     25  H   LIG d   1       4.344   0.113  -6.968  0.00  0.00     0.064 H 
ATOM     26  H   LIG d   1       2.700  -4.243  -9.581  0.00  0.00     0.155 HD
ATOM     27  H   LIG d   1       3.321  -2.712  -5.679  0.00  0.00     0.123 HD
ENDROOT
BRANCH  15  28
ATOM     28  C   LIG d   1       5.471  -2.247  -3.832  0.00  0.00    -0.029 C 
ATOM     29  H   LIG d   1       6.062  -3.162  -3.781  0.00  0.00     0.029 H 
ATOM     30  H   LIG d   1       6.021  -1.431  -3.363  0.00  0.00     0.029 H 
BRANCH  28  31
ATOM     31  C   LIG d   1       4.144  -2.456  -3.099  0.00  0.00     0.025 C 
ATOM     32  H   LIG d   1       3.490  -3.084  -3.703  0.00  0.00     0.036 H 
ATOM     33  H   LIG d   1       4.330  -2.942  -2.141  0.00  0.00     0.036 H 
BRANCH  31  34
ATOM     34  C   LIG d   1       3.485  -1.121  -2.865  0.00  0.00     0.210 C 
ATOM     35  O   LIG d   1       3.944  -0.352  -2.048  0.00  0.00    -0.276 OA
ATOM     36  N   LIG d   1       2.384  -0.781  -3.565  0.00  0.00    -0.329 N 
ATOM     37  H   LIG d   1       2.017  -1.397  -4.219  0.00  0.00     0.145 HD
ATOM     38  H   LIG d   1       1.960   0.078  -3.415  0.00  0.00     0.145 HD
ENDBRANCH  31  34
ENDBRANCH  28  31
ENDBRANCH  15  28
BRANCH   1  39
ATOM     39  C   LIG d   1       1.218  -2.055 -10.738  0.00  0.00    -0.038 C 
ATOM     40  H   LIG d   1       1.266  -1.447 -11.641  0.00  0.00     0.028 H 
ATOM     41  H   LIG d   1       1.561  -3.066 -10.961  0.00  0.00     0.028 H 
ATOM     42  H   LIG d   1       0.190  -2.092 -10.378  0.00  0.00     0.028 H 
ENDBRANCH   1  39
BRANCH  20  43
ATOM     43  C   LIG d   1       8.258  -5.298  -6.154  0.00  0.00     0.026 C 
ATOM     44  H   LIG d   1       8.777  -5.597  -7.065  0.00  0.00     0.047 H 
ATOM     45  H   LIG d   1       8.989  -5.087  -5.373  0.00  0.00     0.047 H 
BRANCH  43  46
ATOM     46  C   LIG d   1       7.338  -6.431  -5.697  0.00  0.00    -0.011 C 
ATOM     47  H   LIG d   1       6.373  -6.019  -5.401  0.00  0.00     0.033 H 
ATOM     48  H   LIG d   1       7.196  -7.137  -6.516  0.00  0.00     0.033 H 
BRANCH  46  49
ATOM     49  C   LIG d   1       7.960  -7.143  -4.524  0.00  0.00    -0.046 A 
ATOM     50  C   LIG d   1       7.507  -8.397  -4.158  0.00  0.00    -0.059 A 
ATOM     51  C   LIG d   1       8.081  -9.052  -3.083  0.00  0.00    -0.061 A 
ATOM     52  H   LIG d   1       6.710  -8.866  -4.713  0.00  0.00     0.062 H 
ATOM     53  C   LIG d   1       9.099  -8.449  -2.369  0.00  0.00    -0.062 A 
ATOM     54  H   LIG d   1       7.730 -10.034  -2.801  0.00  0.00     0.062 H 
ATOM     55  C   LIG d   1       9.547  -7.193  -2.732  0.00  0.00    -0.061 A 
ATOM     56  H   LIG d   1       9.545  -8.960  -1.528  0.00  0.00     0.062 H 
ATOM     57  C   LIG d   1       8.977  -6.539  -3.809  0.00  0.00    -0.059 A 
ATOM     58  H   LIG d   1      10.343  -6.722  -2.174  0.00  0.00     0.062 H 
ATOM     59  H   LIG d   1       9.328  -5.558  -4.092  0.00  0.00     0.062 H 
ENDBRANCH  46  49
ENDBRANCH  43  46
ENDBRANCH  20  43
TORSDOF 7
ENDMDL
MODEL 9
REMARK VINA RESULT:      -6.8      4.351      7.228
REMARK  7 active torsions:
REMARK  status: ('A' for Active; 'I' for Inactive)
REMARK    1  A    between atoms: C_1  and  C_2 
REMARK    2  A    between atoms: C_16  and  C_19 
REMARK    3  A    between atoms: C_19  and  C_20 
REMARK    4  A    between atoms: C_20  and  C_21 
REMARK       I    between atoms: C_21  and  N_23 
REMARK    5  A    between atoms: N_26  and  C_29 
REMARK    6  A    between atoms: C_29  and  C_30 
REMARK    7  A    between atoms: C_30  and  C_31 
ROOT
ATOM      1  C   LIG d   1       9.732   6.272  -6.064  0.00  0.00    -0.028 A 
ATOM      2  C   LIG d   1      10.129   6.449  -7.373  0.00  0.00    -0.039 A 
ATOM      3  C   LIG d   1      10.371   5.355  -8.184  0.00  0.00     0.042 A 
ATOM      4  C   LIG d   1      10.213   4.075  -7.678  0.00  0.00    -0.036 A 
ATOM      5  C   LIG d   1       9.819   3.894  -6.372  0.00  0.00     0.005 A 
ATOM      6  C   LIG d   1       9.578   4.989  -5.546  0.00  0.00     0.042 A 
ATOM      7  N   LIG d   1       9.196   4.557  -4.274  0.00  0.00    -0.283 N 
ATOM      8  C   LIG d   1       9.168   3.214  -4.179  0.00  0.00     0.243 A 
ATOM      9  O   LIG d   1       8.873   2.562  -3.199  0.00  0.00    -0.273 OA
ATOM     10  C   LIG d   1       9.562   2.678  -5.528  0.00  0.00     0.136 A 
ATOM     11  C   LIG d   1       8.466   1.794  -6.136  0.00  0.00     0.080 A 
ATOM     12  H   LIG d   1       7.786   2.351  -6.780  0.00  0.00     0.043 H 
ATOM     13  C   LIG d   1       9.241   0.680  -6.895  0.00  0.00     0.065 A 
ATOM     14  H   LIG d   1       8.967   0.619  -7.949  0.00  0.00     0.042 H 
ATOM     15  C   LIG d   1      10.731   1.020  -6.687  0.00  0.00     0.021 C 
ATOM     16  H   LIG d   1      11.110   1.594  -7.534  0.00  0.00     0.047 H 
ATOM     17  N   LIG d   1      10.761   1.826  -5.430  0.00  0.00    -0.295 N 
ATOM     18  C   LIG d   1       8.888  -0.575  -6.129  0.00  0.00     0.227 A 
ATOM     19  O   LIG d   1       9.292  -1.689  -6.385  0.00  0.00    -0.275 OA
ATOM     20  N   LIG d   1       8.062  -0.265  -5.123  0.00  0.00    -0.241 N 
ATOM     21  C   LIG d   1       7.746   1.048  -5.034  0.00  0.00     0.228 A 
ATOM     22  O   LIG d   1       7.013   1.552  -4.211  0.00  0.00    -0.275 OA
ATOM     23 CL   LIG d   1      10.868   5.585  -9.831  0.00  0.00    -0.084 Cl
ATOM     24  H   LIG d   1      10.252   7.447  -7.767  0.00  0.00     0.064 H 
ATOM     25  H   LIG d   1      10.401   3.219  -8.309  0.00  0.00     0.064 H 
ATOM     26  H   LIG d   1       8.977   5.155  -3.542  0.00  0.00     0.155 HD
ATOM     27  H   LIG d   1      11.600   2.385  -5.384  0.00  0.00     0.123 HD
ENDROOT
BRANCH  15  28
ATOM     28  C   LIG d   1      11.549  -0.260  -6.504  0.00  0.00    -0.029 C 
ATOM     29  H   LIG d   1      10.900  -1.056  -6.138  0.00  0.00     0.029 H 
ATOM     30  H   LIG d   1      11.982  -0.554  -7.460  0.00  0.00     0.029 H 
BRANCH  28  31
ATOM     31  C   LIG d   1      12.669  -0.009  -5.491  0.00  0.00     0.025 C 
ATOM     32  H   LIG d   1      13.635  -0.100  -5.988  0.00  0.00     0.036 H 
ATOM     33  H   LIG d   1      12.566   0.995  -5.077  0.00  0.00     0.036 H 
BRANCH  31  34
ATOM     34  C   LIG d   1      12.577  -1.022  -4.380  0.00  0.00     0.210 C 
ATOM     35  O   LIG d   1      13.511  -1.180  -3.623  0.00  0.00    -0.276 OA
ATOM     36  N   LIG d   1      11.454  -1.753  -4.225  0.00  0.00    -0.329 N 
ATOM     37  H   LIG d   1      10.706  -1.626  -4.831  0.00  0.00     0.145 HD
ATOM     38  H   LIG d   1      11.394  -2.405  -3.510  0.00  0.00     0.145 HD
ENDBRANCH  31  34
ENDBRANCH  28  31
ENDBRANCH  15  28
BRANCH   1  39
ATOM     39  C   LIG d   1       9.472   7.471  -5.189  0.00  0.00    -0.038 C 
ATOM     40  H   LIG d   1       9.288   8.344  -5.814  0.00  0.00     0.028 H 
ATOM     41  H   LIG d   1       8.599   7.282  -4.563  0.00  0.00     0.028 H 
ATOM     42  H   LIG d   1      10.340   7.654  -4.556  0.00  0.00     0.028 H 
ENDBRANCH   1  39
BRANCH  20  43
ATOM     43  C   LIG d   1       7.533  -1.266  -4.195  0.00  0.00     0.026 C 
ATOM     44  H   LIG d   1       8.319  -1.979  -3.942  0.00  0.00     0.047 H 
ATOM     45  H   LIG d   1       7.185  -0.772  -3.287  0.00  0.00     0.047 H 
BRANCH  43  46
ATOM     46  C   LIG d   1       6.367  -2.005  -4.851  0.00  0.00    -0.011 C 
ATOM     47  H   LIG d   1       6.356  -1.792  -5.920  0.00  0.00     0.033 H 
ATOM     48  H   LIG d   1       6.483  -3.078  -4.696  0.00  0.00     0.033 H 
BRANCH  46  49
ATOM     49  C   LIG d   1       5.070  -1.547  -4.236  0.00  0.00    -0.046 A 
ATOM     50  C   LIG d   1       4.616  -2.129  -3.067  0.00  0.00    -0.059 A 
ATOM     51  C   LIG d   1       3.429  -1.706  -2.499  0.00  0.00    -0.061 A 
ATOM     52  H   LIG d   1       5.192  -2.911  -2.594  0.00  0.00     0.062 H 
ATOM     53  C   LIG d   1       2.689  -0.709  -3.107  0.00  0.00    -0.062 A 
ATOM     54  H   LIG d   1       3.077  -2.158  -1.583  0.00  0.00     0.062 H 
ATOM     55  C   LIG d   1       3.140  -0.131  -4.278  0.00  0.00    -0.061 A 
ATOM     56  H   LIG d   1       1.760  -0.380  -2.665  0.00  0.00     0.062 H 
ATOM     57  C   LIG d   1       4.330  -0.550  -4.844  0.00  0.00    -0.059 A 
ATOM     58  H   LIG d   1       2.562   0.649  -4.752  0.00  0.00     0.062 H 
ATOM     59  H   LIG d   1       4.682  -0.098  -5.759  0.00  0.00     0.062 H 
ENDBRANCH  46  49
ENDBRANCH  43  46
ENDBRANCH  20  43
TORSDOF 7
ENDMDL
