MODEL 1
REMARK VINA RESULT:      -6.6      0.000      0.000
REMARK  7 active torsions:
REMARK  status: ('A' for Active; 'I' for Inactive)
REMARK    1  A    between atoms: C_1  and  C_2 
REMARK    2  A    between atoms: C_3  and  C_15 
REMARK    3  A    between atoms: C_5  and  C_7 
REMARK    4  A    between atoms: C_11  and  O_13 
REMARK    5  A    between atoms: O_13  and  C_14 
REMARK       I    between atoms: C_15  and  N_17 
REMARK    6  A    between atoms: N_17  and  C_18 
REMARK    7  A    between atoms: C_18  and  C_19 
ROOT
ATOM      1  C   LIG d   1       7.311  -0.304  -4.450  0.00  0.00     0.020 C 
ATOM      2  H   LIG d   1       6.510   0.397  -4.686  0.00  0.00     0.047 H 
ATOM      3  H   LIG d   1       7.586  -0.857  -5.349  0.00  0.00     0.047 H 
ENDROOT
BRANCH   1   4
ATOM      4  N   LIG d   1       8.476   0.434  -3.956  0.00  0.00    -0.310 N 
ATOM      5  C   LIG d   1       8.735   1.673  -4.421  0.00  0.00     0.253 C 
ATOM      6  O   LIG d   1       8.002   2.178  -5.250  0.00  0.00    -0.270 OA
ATOM      7  H   LIG d   1       9.061   0.032  -3.295  0.00  0.00     0.149 HD
BRANCH   5   8
ATOM      8  C   LIG d   1       9.901   2.412  -3.926  0.00  0.00     0.097 A 
ATOM      9  C   LIG d   1      11.255   2.137  -4.076  0.00  0.00     0.058 A 
ATOM     10  N   LIG d   1      12.107   2.964  -3.536  0.00  0.00    -0.243 NA
ATOM     11  C   LIG d   1      11.706   4.029  -2.855  0.00  0.00     0.109 A 
ATOM     12  S   LIG d   1       9.977   3.914  -2.961  0.00  0.00    -0.062 SA
BRANCH   9  13
ATOM     13  C   LIG d   1      11.723   0.927  -4.843  0.00  0.00    -0.021 C 
ATOM     14  H   LIG d   1      10.908   0.549  -5.459  0.00  0.00     0.029 H 
ATOM     15  H   LIG d   1      12.562   1.205  -5.481  0.00  0.00     0.029 H 
ATOM     16  H   LIG d   1      12.040   0.153  -4.143  0.00  0.00     0.029 H 
ENDBRANCH   9  13
BRANCH  11  17
ATOM     17  C   LIG d   1      12.526   5.058  -2.180  0.00  0.00     0.011 A 
ATOM     18  C   LIG d   1      12.060   5.674  -1.019  0.00  0.00    -0.010 A 
ATOM     19  C   LIG d   1      12.833   6.637  -0.393  0.00  0.00     0.121 A 
ATOM     20  H   LIG d   1      11.099   5.401  -0.609  0.00  0.00     0.066 H 
ATOM     21  C   LIG d   1      14.070   6.986  -0.922  0.00  0.00    -0.020 A 
ATOM     22  C   LIG d   1      14.530   6.381  -2.076  0.00  0.00    -0.058 A 
ATOM     23  H   LIG d   1      14.671   7.737  -0.431  0.00  0.00     0.065 H 
ATOM     24  C   LIG d   1      13.769   5.416  -2.705  0.00  0.00    -0.052 A 
ATOM     25  H   LIG d   1      15.490   6.660  -2.485  0.00  0.00     0.062 H 
ATOM     26  H   LIG d   1      14.134   4.942  -3.604  0.00  0.00     0.062 H 
BRANCH  19  27
ATOM     27  O   LIG d   1      12.384   7.240   0.739  0.00  0.00    -0.495 OA
BRANCH  27  28
ATOM     28  C   LIG d   1      11.204   6.701   1.336  0.00  0.00     0.079 C 
ATOM     29  H   LIG d   1      10.837   5.870   0.732  0.00  0.00     0.066 H 
ATOM     30  H   LIG d   1      11.434   6.347   2.340  0.00  0.00     0.066 H 
ATOM     31  H   LIG d   1      10.438   7.476   1.391  0.00  0.00     0.066 H 
ENDBRANCH  27  28
ENDBRANCH  19  27
ENDBRANCH  11  17
ENDBRANCH   5   8
ENDBRANCH   1   4
BRANCH   1  32
ATOM     32  C   LIG d   1       6.833  -1.282  -3.375  0.00  0.00     0.018 C 
ATOM     33  H   LIG d   1       7.492  -1.218  -2.509  0.00  0.00     0.037 H 
ATOM     34  C   LIG d   1       5.405  -0.921  -2.957  0.00  0.00    -0.017 C 
ATOM     35  H   LIG d   1       5.079  -1.588  -2.157  0.00  0.00     0.085 H 
ATOM     36  C   LIG d   1       5.409   0.524  -2.447  0.00  0.00    -0.009 C 
ATOM     37  N   LIG d   1       4.497  -1.039  -4.126  0.00  0.00     0.238 N 
ATOM     38  C   LIG d   1       3.990   0.944  -2.062  0.00  0.00    -0.043 C 
ATOM     39  H   LIG d   1       6.060   0.599  -1.576  0.00  0.00     0.032 H 
ATOM     40  H   LIG d   1       5.780   1.184  -3.232  0.00  0.00     0.032 H 
ATOM     41  C   LIG d   1       3.080   0.786  -3.285  0.00  0.00    -0.012 C 
ATOM     42  H   LIG d   1       3.991   1.985  -1.739  0.00  0.00     0.027 H 
ATOM     43  H   LIG d   1       3.628   0.310  -1.252  0.00  0.00     0.027 H 
ATOM     44  C   LIG d   1       3.120  -0.671  -3.745  0.00  0.00    -0.032 C 
ATOM     45  H   LIG d   1       3.432   1.433  -4.088  0.00  0.00     0.032 H 
ATOM     46  H   LIG d   1       2.059   1.056  -3.016  0.00  0.00     0.032 H 
ATOM     47  H   LIG d   1       2.476  -0.793  -4.615  0.00  0.00     0.081 H 
ATOM     48  H   LIG d   1       2.766  -1.313  -2.940  0.00  0.00     0.081 H 
ATOM     49  C   LIG d   1       4.499  -2.421  -4.640  0.00  0.00    -0.032 C 
ATOM     50  H   LIG d   1       4.823  -0.405  -4.864  0.00  0.00     0.204 HD
ATOM     51  C   LIG d   1       5.902  -2.795  -5.117  0.00  0.00    -0.012 C 
ATOM     52  H   LIG d   1       4.184  -3.115  -3.861  0.00  0.00     0.081 H 
ATOM     53  H   LIG d   1       3.806  -2.479  -5.479  0.00  0.00     0.081 H 
ATOM     54  C   LIG d   1       6.867  -2.706  -3.934  0.00  0.00    -0.039 C 
ATOM     55  H   LIG d   1       5.895  -3.812  -5.507  0.00  0.00     0.032 H 
ATOM     56  H   LIG d   1       6.218  -2.106  -5.900  0.00  0.00     0.032 H 
ATOM     57  H   LIG d   1       7.877  -2.945  -4.266  0.00  0.00     0.027 H 
ATOM     58  H   LIG d   1       6.558  -3.409  -3.161  0.00  0.00     0.027 H 
ENDBRANCH   1  32
TORSDOF 7
ENDMDL
MODEL 2
REMARK VINA RESULT:      -6.5      6.851     12.244
REMARK  7 active torsions:
REMARK  status: ('A' for Active; 'I' for Inactive)
REMARK    1  A    between atoms: C_1  and  C_2 
REMARK    2  A    between atoms: C_3  and  C_15 
REMARK    3  A    between atoms: C_5  and  C_7 
REMARK    4  A    between atoms: C_11  and  O_13 
REMARK    5  A    between atoms: O_13  and  C_14 
REMARK       I    between atoms: C_15  and  N_17 
REMARK    6  A    between atoms: N_17  and  C_18 
REMARK    7  A    between atoms: C_18  and  C_19 
ROOT
ATOM      1  C   LIG d   1       3.121   0.303  -5.252  0.00  0.00     0.020 C 
ATOM      2  H   LIG d   1       3.741   1.199  -5.241  0.00  0.00     0.047 H 
ATOM      3  H   LIG d   1       2.132   0.540  -4.859  0.00  0.00     0.047 H 
ENDROOT
BRANCH   1   4
ATOM      4  N   LIG d   1       2.995  -0.189  -6.625  0.00  0.00    -0.310 N 
ATOM      5  C   LIG d   1       2.921   0.685  -7.650  0.00  0.00     0.253 C 
ATOM      6  O   LIG d   1       2.959   1.882  -7.433  0.00  0.00    -0.270 OA
ATOM      7  H   LIG d   1       2.965  -1.143  -6.799  0.00  0.00     0.149 HD
BRANCH   5   8
ATOM      8  C   LIG d   1       2.796   0.192  -9.025  0.00  0.00     0.097 A 
ATOM      9  C   LIG d   1       3.626   0.398 -10.120  0.00  0.00     0.058 A 
ATOM     10  N   LIG d   1       3.292  -0.163 -11.250  0.00  0.00    -0.243 NA
ATOM     11  C   LIG d   1       2.192  -0.895 -11.364  0.00  0.00     0.109 A 
ATOM     12  S   LIG d   1       1.533  -0.837  -9.759  0.00  0.00    -0.062 SA
BRANCH   9  13
ATOM     13  C   LIG d   1       4.875   1.233 -10.005  0.00  0.00    -0.021 C 
ATOM     14  H   LIG d   1       5.450   1.156 -10.927  0.00  0.00     0.029 H 
ATOM     15  H   LIG d   1       4.601   2.273  -9.831  0.00  0.00     0.029 H 
ATOM     16  H   LIG d   1       5.477   0.872  -9.170  0.00  0.00     0.029 H 
ENDBRANCH   9  13
BRANCH  11  17
ATOM     17  C   LIG d   1       1.665  -1.591 -12.557  0.00  0.00     0.011 A 
ATOM     18  C   LIG d   1       0.308  -1.902 -12.643  0.00  0.00    -0.010 A 
ATOM     19  C   LIG d   1      -0.179  -2.554 -13.764  0.00  0.00     0.121 A 
ATOM     20  H   LIG d   1      -0.361  -1.634 -11.839  0.00  0.00     0.066 H 
ATOM     21  C   LIG d   1       0.683  -2.896 -14.797  0.00  0.00    -0.020 A 
ATOM     22  C   LIG d   1       2.030  -2.595 -14.711  0.00  0.00    -0.058 A 
ATOM     23  H   LIG d   1       0.301  -3.404 -15.670  0.00  0.00     0.065 H 
ATOM     24  C   LIG d   1       2.524  -1.940 -13.601  0.00  0.00    -0.052 A 
ATOM     25  H   LIG d   1       2.696  -2.868 -15.516  0.00  0.00     0.062 H 
ATOM     26  H   LIG d   1       3.576  -1.701 -13.538  0.00  0.00     0.062 H 
BRANCH  19  27
ATOM     27  O   LIG d   1      -1.500  -2.859 -13.853  0.00  0.00    -0.495 OA
BRANCH  27  28
ATOM     28  C   LIG d   1      -2.427  -1.852 -13.443  0.00  0.00     0.079 C 
ATOM     29  H   LIG d   1      -2.302  -1.653 -12.378  0.00  0.00     0.066 H 
ATOM     30  H   LIG d   1      -2.244  -0.938 -14.007  0.00  0.00     0.066 H 
ATOM     31  H   LIG d   1      -3.445  -2.197 -13.631  0.00  0.00     0.066 H 
ENDBRANCH  27  28
ENDBRANCH  19  27
ENDBRANCH  11  17
ENDBRANCH   5   8
ENDBRANCH   1   4
BRANCH   1  32
ATOM     32  C   LIG d   1       3.769  -0.776  -4.381  0.00  0.00     0.018 C 
ATOM     33  H   LIG d   1       3.601  -1.754  -4.831  0.00  0.00     0.037 H 
ATOM     34  C   LIG d   1       5.275  -0.513  -4.282  0.00  0.00    -0.017 C 
ATOM     35  H   LIG d   1       5.746  -1.306  -3.701  0.00  0.00     0.085 H 
ATOM     36  C   LIG d   1       5.852  -0.508  -5.702  0.00  0.00    -0.009 C 
ATOM     37  N   LIG d   1       5.510   0.804  -3.638  0.00  0.00     0.238 N 
ATOM     38  C   LIG d   1       7.349  -0.200  -5.653  0.00  0.00    -0.043 C 
ATOM     39  H   LIG d   1       5.694  -1.484  -6.160  0.00  0.00     0.032 H 
ATOM     40  H   LIG d   1       5.346   0.255  -6.295  0.00  0.00     0.032 H 
ATOM     41  C   LIG d   1       7.553   1.152  -4.962  0.00  0.00    -0.012 C 
ATOM     42  H   LIG d   1       7.746  -0.157  -6.668  0.00  0.00     0.027 H 
ATOM     43  H   LIG d   1       7.864  -0.979  -5.091  0.00  0.00     0.027 H 
ATOM     44  C   LIG d   1       6.956   1.084  -3.557  0.00  0.00    -0.032 C 
ATOM     45  H   LIG d   1       7.052   1.934  -5.534  0.00  0.00     0.032 H 
ATOM     46  H   LIG d   1       8.618   1.371  -4.897  0.00  0.00     0.032 H 
ATOM     47  H   LIG d   1       7.097   2.042  -3.058  0.00  0.00     0.081 H 
ATOM     48  H   LIG d   1       7.462   0.303  -2.990  0.00  0.00     0.081 H 
ATOM     49  C   LIG d   1       4.942   0.820  -2.278  0.00  0.00    -0.032 C 
ATOM     50  H   LIG d   1       5.057   1.534  -4.200  0.00  0.00     0.204 HD
ATOM     51  C   LIG d   1       3.429   0.614  -2.345  0.00  0.00    -0.012 C 
ATOM     52  H   LIG d   1       5.388   0.032  -1.672  0.00  0.00     0.081 H 
ATOM     53  H   LIG d   1       5.153   1.789  -1.825  0.00  0.00     0.081 H 
ATOM     54  C   LIG d   1       3.143  -0.746  -2.986  0.00  0.00    -0.039 C 
ATOM     55  H   LIG d   1       3.013   0.639  -1.339  0.00  0.00     0.032 H 
ATOM     56  H   LIG d   1       2.979   1.403  -2.947  0.00  0.00     0.032 H 
ATOM     57  H   LIG d   1       2.066  -0.895  -3.064  0.00  0.00     0.027 H 
ATOM     58  H   LIG d   1       3.580  -1.534  -2.372  0.00  0.00     0.027 H 
ENDBRANCH   1  32
TORSDOF 7
ENDMDL
MODEL 3
REMARK VINA RESULT:      -6.5      2.142      2.234
REMARK  7 active torsions:
REMARK  status: ('A' for Active; 'I' for Inactive)
REMARK    1  A    between atoms: C_1  and  C_2 
REMARK    2  A    between atoms: C_3  and  C_15 
REMARK    3  A    between atoms: C_5  and  C_7 
REMARK    4  A    between atoms: C_11  and  O_13 
REMARK    5  A    between atoms: O_13  and  C_14 
REMARK       I    between atoms: C_15  and  N_17 
REMARK    6  A    between atoms: N_17  and  C_18 
REMARK    7  A    between atoms: C_18  and  C_19 
ROOT
ATOM      1  C   LIG d   1       6.947  -0.120  -4.964  0.00  0.00     0.020 C 
ATOM      2  H   LIG d   1       5.904  -0.075  -5.275  0.00  0.00     0.047 H 
ATOM      3  H   LIG d   1       7.534  -0.624  -5.733  0.00  0.00     0.047 H 
ENDROOT
BRANCH   1   4
ATOM      4  N   LIG d   1       7.459   1.239  -4.773  0.00  0.00    -0.310 N 
ATOM      5  C   LIG d   1       8.759   1.510  -5.010  0.00  0.00     0.253 C 
ATOM      6  O   LIG d   1       9.506   0.625  -5.383  0.00  0.00    -0.270 OA
ATOM      7  H   LIG d   1       6.864   1.945  -4.475  0.00  0.00     0.149 HD
BRANCH   5   8
ATOM      8  C   LIG d   1       9.271   2.870  -4.819  0.00  0.00     0.097 A 
ATOM      9  C   LIG d   1       9.625   3.826  -5.763  0.00  0.00     0.058 A 
ATOM     10  N   LIG d   1      10.054   4.979  -5.328  0.00  0.00    -0.243 NA
ATOM     11  C   LIG d   1      10.165   5.237  -4.033  0.00  0.00     0.109 A 
ATOM     12  S   LIG d   1       9.614   3.759  -3.307  0.00  0.00    -0.062 SA
BRANCH   9  13
ATOM     13  C   LIG d   1       9.509   3.543  -7.238  0.00  0.00    -0.021 C 
ATOM     14  H   LIG d   1       8.638   4.058  -7.640  0.00  0.00     0.029 H 
ATOM     15  H   LIG d   1      10.407   3.896  -7.747  0.00  0.00     0.029 H 
ATOM     16  H   LIG d   1       9.402   2.469  -7.395  0.00  0.00     0.029 H 
ENDBRANCH   9  13
BRANCH  11  17
ATOM     17  C   LIG d   1      10.633   6.474  -3.373  0.00  0.00     0.011 A 
ATOM     18  C   LIG d   1       9.965   6.965  -2.251  0.00  0.00    -0.010 A 
ATOM     19  C   LIG d   1      10.409   8.124  -1.638  0.00  0.00     0.121 A 
ATOM     20  H   LIG d   1       9.104   6.442  -1.861  0.00  0.00     0.066 H 
ATOM     21  C   LIG d   1      11.518   8.794  -2.140  0.00  0.00    -0.020 A 
ATOM     22  C   LIG d   1      12.177   8.313  -3.255  0.00  0.00    -0.058 A 
ATOM     23  H   LIG d   1      11.862   9.698  -1.659  0.00  0.00     0.065 H 
ATOM     24  C   LIG d   1      11.745   7.155  -3.870  0.00  0.00    -0.052 A 
ATOM     25  H   LIG d   1      13.035   8.841  -3.644  0.00  0.00     0.062 H 
ATOM     26  H   LIG d   1      12.266   6.779  -4.739  0.00  0.00     0.062 H 
BRANCH  19  27
ATOM     27  O   LIG d   1       9.762   8.606  -0.545  0.00  0.00    -0.495 OA
BRANCH  27  28
ATOM     28  C   LIG d   1       8.762   9.601  -0.769  0.00  0.00     0.079 C 
ATOM     29  H   LIG d   1       8.598  10.165   0.150  0.00  0.00     0.066 H 
ATOM     30  H   LIG d   1       9.092  10.277  -1.556  0.00  0.00     0.066 H 
ATOM     31  H   LIG d   1       7.831   9.119  -1.069  0.00  0.00     0.066 H 
ENDBRANCH  27  28
ENDBRANCH  19  27
ENDBRANCH  11  17
ENDBRANCH   5   8
ENDBRANCH   1   4
BRANCH   1  32
ATOM     32  C   LIG d   1       7.055  -0.895  -3.650  0.00  0.00     0.018 C 
ATOM     33  H   LIG d   1       7.857  -0.473  -3.045  0.00  0.00     0.037 H 
ATOM     34  C   LIG d   1       5.731  -0.789  -2.886  0.00  0.00    -0.017 C 
ATOM     35  H   LIG d   1       5.821  -1.301  -1.928  0.00  0.00     0.085 H 
ATOM     36  C   LIG d   1       5.439   0.697  -2.646  0.00  0.00    -0.009 C 
ATOM     37  N   LIG d   1       4.640  -1.392  -3.692  0.00  0.00     0.238 N 
ATOM     38  C   LIG d   1       4.098   0.853  -1.927  0.00  0.00    -0.043 C 
ATOM     39  H   LIG d   1       6.232   1.128  -2.037  0.00  0.00     0.032 H 
ATOM     40  H   LIG d   1       5.397   1.216  -3.604  0.00  0.00     0.032 H 
ATOM     41  C   LIG d   1       3.003   0.198  -2.776  0.00  0.00    -0.012 C 
ATOM     42  H   LIG d   1       3.875   1.912  -1.795  0.00  0.00     0.027 H 
ATOM     43  H   LIG d   1       4.147   0.365  -0.953  0.00  0.00     0.027 H 
ATOM     44  C   LIG d   1       3.353  -1.275  -2.981  0.00  0.00    -0.032 C 
ATOM     45  H   LIG d   1       2.943   0.697  -3.743  0.00  0.00     0.032 H 
ATOM     46  H   LIG d   1       2.046   0.278  -2.261  0.00  0.00     0.032 H 
ATOM     47  H   LIG d   1       2.579  -1.750  -3.584  0.00  0.00     0.081 H 
ATOM     48  H   LIG d   1       3.409  -1.770  -2.012  0.00  0.00     0.081 H 
ATOM     49  C   LIG d   1       4.919  -2.817  -3.948  0.00  0.00    -0.032 C 
ATOM     50  H   LIG d   1       4.576  -0.896  -4.588  0.00  0.00     0.204 HD
ATOM     51  C   LIG d   1       6.208  -2.956  -4.757  0.00  0.00    -0.012 C 
ATOM     52  H   LIG d   1       5.021  -3.358  -3.008  0.00  0.00     0.081 H 
ATOM     53  H   LIG d   1       4.089  -3.236  -4.518  0.00  0.00     0.081 H 
ATOM     54  C   LIG d   1       7.364  -2.363  -3.950  0.00  0.00    -0.039 C 
ATOM     55  H   LIG d   1       6.403  -4.010  -4.953  0.00  0.00     0.032 H 
ATOM     56  H   LIG d   1       6.107  -2.421  -5.701  0.00  0.00     0.032 H 
ATOM     57  H   LIG d   1       8.287  -2.432  -4.527  0.00  0.00     0.027 H 
ATOM     58  H   LIG d   1       7.473  -2.912  -3.015  0.00  0.00     0.027 H 
ENDBRANCH   1  32
TORSDOF 7
ENDMDL
MODEL 4
REMARK VINA RESULT:      -6.5      5.883     12.213
REMARK  7 active torsions:
REMARK  status: ('A' for Active; 'I' for Inactive)
REMARK    1  A    between atoms: C_1  and  C_2 
REMARK    2  A    between atoms: C_3  and  C_15 
REMARK    3  A    between atoms: C_5  and  C_7 
REMARK    4  A    between atoms: C_11  and  O_13 
REMARK    5  A    between atoms: O_13  and  C_14 
REMARK       I    between atoms: C_15  and  N_17 
REMARK    6  A    between atoms: N_17  and  C_18 
REMARK    7  A    between atoms: C_18  and  C_19 
ROOT
ATOM      1  C   LIG d   1       4.365  -1.679  -4.377  0.00  0.00     0.020 C 
ATOM      2  H   LIG d   1       4.878  -1.108  -5.150  0.00  0.00     0.047 H 
ATOM      3  H   LIG d   1       3.377  -1.250  -4.205  0.00  0.00     0.047 H 
ENDROOT
BRANCH   1   4
ATOM      4  N   LIG d   1       4.224  -3.071  -4.809  0.00  0.00    -0.310 N 
ATOM      5  C   LIG d   1       4.667  -3.447  -6.026  0.00  0.00     0.253 C 
ATOM      6  O   LIG d   1       5.184  -2.630  -6.765  0.00  0.00    -0.270 OA
ATOM      7  H   LIG d   1       3.812  -3.723  -4.221  0.00  0.00     0.149 HD
BRANCH   5   8
ATOM      8  C   LIG d   1       4.526  -4.841  -6.458  0.00  0.00     0.097 A 
ATOM      9  C   LIG d   1       3.941  -5.358  -7.607  0.00  0.00     0.058 A 
ATOM     10  N   LIG d   1       3.949  -6.654  -7.762  0.00  0.00    -0.243 NA
ATOM     11  C   LIG d   1       4.484  -7.460  -6.856  0.00  0.00     0.109 A 
ATOM     12  S   LIG d   1       5.058  -6.346  -5.654  0.00  0.00    -0.062 SA
BRANCH   9  13
ATOM     13  C   LIG d   1       3.324  -4.454  -8.642  0.00  0.00    -0.021 C 
ATOM     14  H   LIG d   1       3.708  -3.442  -8.516  0.00  0.00     0.029 H 
ATOM     15  H   LIG d   1       3.576  -4.817  -9.638  0.00  0.00     0.029 H 
ATOM     16  H   LIG d   1       2.240  -4.450  -8.520  0.00  0.00     0.029 H 
ENDBRANCH   9  13
BRANCH  11  17
ATOM     17  C   LIG d   1       4.575  -8.935  -6.868  0.00  0.00     0.011 A 
ATOM     18  C   LIG d   1       4.589  -9.647  -5.668  0.00  0.00    -0.010 A 
ATOM     19  C   LIG d   1       4.674 -11.028  -5.688  0.00  0.00     0.121 A 
ATOM     20  H   LIG d   1       4.532  -9.121  -4.727  0.00  0.00     0.066 H 
ATOM     21  C   LIG d   1       4.745 -11.702  -6.900  0.00  0.00    -0.020 A 
ATOM     22  C   LIG d   1       4.739 -10.999  -8.090  0.00  0.00    -0.058 A 
ATOM     23  H   LIG d   1       4.811 -12.780  -6.913  0.00  0.00     0.065 H 
ATOM     24  C   LIG d   1       4.648  -9.622  -8.082  0.00  0.00    -0.052 A 
ATOM     25  H   LIG d   1       4.799 -11.528  -9.030  0.00  0.00     0.062 H 
ATOM     26  H   LIG d   1       4.638  -9.075  -9.014  0.00  0.00     0.062 H 
BRANCH  19  27
ATOM     27  O   LIG d   1       4.687 -11.725  -4.522  0.00  0.00    -0.495 OA
BRANCH  27  28
ATOM     28  C   LIG d   1       4.438 -10.990  -3.323  0.00  0.00     0.079 C 
ATOM     29  H   LIG d   1       4.768 -11.574  -2.463  0.00  0.00     0.066 H 
ATOM     30  H   LIG d   1       4.985 -10.048  -3.354  0.00  0.00     0.066 H 
ATOM     31  H   LIG d   1       3.370 -10.787  -3.236  0.00  0.00     0.066 H 
ENDBRANCH  27  28
ENDBRANCH  19  27
ENDBRANCH  11  17
ENDBRANCH   5   8
ENDBRANCH   1   4
BRANCH   1  32
ATOM     32  C   LIG d   1       5.176  -1.626  -3.081  0.00  0.00     0.018 C 
ATOM     33  H   LIG d   1       5.525  -2.628  -2.832  0.00  0.00     0.037 H 
ATOM     34  C   LIG d   1       6.381  -0.700  -3.272  0.00  0.00    -0.017 C 
ATOM     35  H   LIG d   1       6.987  -0.698  -2.365  0.00  0.00     0.085 H 
ATOM     36  C   LIG d   1       7.214  -1.237  -4.441  0.00  0.00    -0.009 C 
ATOM     37  N   LIG d   1       5.911   0.675  -3.579  0.00  0.00     0.238 N 
ATOM     38  C   LIG d   1       8.405  -0.313  -4.699  0.00  0.00    -0.043 C 
ATOM     39  H   LIG d   1       7.573  -2.237  -4.200  0.00  0.00     0.032 H 
ATOM     40  H   LIG d   1       6.593  -1.283  -5.336  0.00  0.00     0.032 H 
ATOM     41  C   LIG d   1       7.881   1.098  -4.988  0.00  0.00    -0.012 C 
ATOM     42  H   LIG d   1       8.971  -0.677  -5.557  0.00  0.00     0.027 H 
ATOM     43  H   LIG d   1       9.048  -0.292  -3.819  0.00  0.00     0.027 H 
ATOM     44  C   LIG d   1       7.061   1.574  -3.791  0.00  0.00    -0.032 C 
ATOM     45  H   LIG d   1       7.253   1.079  -5.878  0.00  0.00     0.032 H 
ATOM     46  H   LIG d   1       8.722   1.773  -5.147  0.00  0.00     0.032 H 
ATOM     47  H   LIG d   1       6.684   2.578  -3.987  0.00  0.00     0.081 H 
ATOM     48  H   LIG d   1       7.694   1.593  -2.905  0.00  0.00     0.081 H 
ATOM     49  C   LIG d   1       5.091   1.196  -2.471  0.00  0.00    -0.032 C 
ATOM     50  H   LIG d   1       5.343   0.647  -4.434  0.00  0.00     0.204 HD
ATOM     51  C   LIG d   1       3.850   0.324  -2.288  0.00  0.00    -0.012 C 
ATOM     52  H   LIG d   1       5.667   1.205  -1.546  0.00  0.00     0.081 H 
ATOM     53  H   LIG d   1       4.783   2.213  -2.716  0.00  0.00     0.081 H 
ATOM     54  C   LIG d   1       4.292  -1.101  -1.949  0.00  0.00    -0.039 C 
ATOM     55  H   LIG d   1       3.241   0.721  -1.476  0.00  0.00     0.032 H 
ATOM     56  H   LIG d   1       3.269   0.317  -3.210  0.00  0.00     0.032 H 
ATOM     57  H   LIG d   1       3.416  -1.741  -1.842  0.00  0.00     0.027 H 
ATOM     58  H   LIG d   1       4.857  -1.092  -1.017  0.00  0.00     0.027 H 
ENDBRANCH   1  32
TORSDOF 7
ENDMDL
MODEL 5
REMARK VINA RESULT:      -6.4      1.089      1.500
REMARK  7 active torsions:
REMARK  status: ('A' for Active; 'I' for Inactive)
REMARK    1  A    between atoms: C_1  and  C_2 
REMARK    2  A    between atoms: C_3  and  C_15 
REMARK    3  A    between atoms: C_5  and  C_7 
REMARK    4  A    between atoms: C_11  and  O_13 
REMARK    5  A    between atoms: O_13  and  C_14 
REMARK       I    between atoms: C_15  and  N_17 
REMARK    6  A    between atoms: N_17  and  C_18 
REMARK    7  A    between atoms: C_18  and  C_19 
ROOT
ATOM      1  C   LIG d   1       7.424   0.004  -4.338  0.00  0.00     0.020 C 
ATOM      2  H   LIG d   1       6.623   0.684  -4.627  0.00  0.00     0.047 H 
ATOM      3  H   LIG d   1       7.758  -0.556  -5.212  0.00  0.00     0.047 H 
ENDROOT
BRANCH   1   4
ATOM      4  N   LIG d   1       8.544   0.772  -3.792  0.00  0.00    -0.310 N 
ATOM      5  C   LIG d   1       8.754   2.041  -4.198  0.00  0.00     0.253 C 
ATOM      6  O   LIG d   1       8.012   2.547  -5.019  0.00  0.00    -0.270 OA
ATOM      7  H   LIG d   1       9.137   0.369  -3.138  0.00  0.00     0.149 HD
BRANCH   5   8
ATOM      8  C   LIG d   1       9.876   2.810  -3.651  0.00  0.00     0.097 A 
ATOM      9  C   LIG d   1      11.231   2.505  -3.625  0.00  0.00     0.058 A 
ATOM     10  N   LIG d   1      12.039   3.371  -3.077  0.00  0.00    -0.243 NA
ATOM     11  C   LIG d   1      11.591   4.501  -2.547  0.00  0.00     0.109 A 
ATOM     12  S   LIG d   1       9.881   4.397  -2.831  0.00  0.00    -0.062 SA
BRANCH   9  13
ATOM     13  C   LIG d   1      11.752   1.221  -4.218  0.00  0.00    -0.021 C 
ATOM     14  H   LIG d   1      12.526   0.809  -3.571  0.00  0.00     0.029 H 
ATOM     15  H   LIG d   1      10.935   0.505  -4.308  0.00  0.00     0.029 H 
ATOM     16  H   LIG d   1      12.171   1.421  -5.205  0.00  0.00     0.029 H 
ENDBRANCH   9  13
BRANCH  11  17
ATOM     17  C   LIG d   1      12.356   5.580  -1.888  0.00  0.00     0.011 A 
ATOM     18  C   LIG d   1      13.564   5.295  -1.251  0.00  0.00    -0.010 A 
ATOM     19  C   LIG d   1      14.274   6.311  -0.636  0.00  0.00     0.121 A 
ATOM     20  H   LIG d   1      13.943   4.284  -1.238  0.00  0.00     0.066 H 
ATOM     21  C   LIG d   1      13.785   7.611  -0.655  0.00  0.00    -0.020 A 
ATOM     22  C   LIG d   1      12.586   7.895  -1.281  0.00  0.00    -0.058 A 
ATOM     23  H   LIG d   1      14.342   8.402  -0.175  0.00  0.00     0.065 H 
ATOM     24  C   LIG d   1      11.872   6.890  -1.901  0.00  0.00    -0.052 A 
ATOM     25  H   LIG d   1      12.208   8.907  -1.288  0.00  0.00     0.062 H 
ATOM     26  H   LIG d   1      10.937   7.116  -2.394  0.00  0.00     0.062 H 
BRANCH  19  27
ATOM     27  O   LIG d   1      15.452   6.038  -0.014  0.00  0.00    -0.495 OA
BRANCH  27  28
ATOM     28  C   LIG d   1      16.431   7.077   0.007  0.00  0.00     0.079 C 
ATOM     29  H   LIG d   1      17.307   6.763  -0.562  0.00  0.00     0.066 H 
ATOM     30  H   LIG d   1      16.013   7.979  -0.439  0.00  0.00     0.066 H 
ATOM     31  H   LIG d   1      16.722   7.282   1.037  0.00  0.00     0.066 H 
ENDBRANCH  27  28
ENDBRANCH  19  27
ENDBRANCH  11  17
ENDBRANCH   5   8
ENDBRANCH   1   4
BRANCH   1  32
ATOM     32  C   LIG d   1       6.907  -0.969  -3.276  0.00  0.00     0.018 C 
ATOM     33  H   LIG d   1       7.494  -0.857  -2.366  0.00  0.00     0.037 H 
ATOM     34  C   LIG d   1       5.436  -0.661  -2.976  0.00  0.00    -0.017 C 
ATOM     35  H   LIG d   1       5.079  -1.322  -2.186  0.00  0.00     0.085 H 
ATOM     36  C   LIG d   1       5.343   0.795  -2.505  0.00  0.00    -0.009 C 
ATOM     37  N   LIG d   1       4.626  -0.845  -4.206  0.00  0.00     0.238 N 
ATOM     38  C   LIG d   1       3.882   1.162  -2.239  0.00  0.00    -0.043 C 
ATOM     39  H   LIG d   1       5.922   0.918  -1.590  0.00  0.00     0.032 H 
ATOM     40  H   LIG d   1       5.744   1.451  -3.277  0.00  0.00     0.032 H 
ATOM     41  C   LIG d   1       3.075   0.936  -3.522  0.00  0.00    -0.012 C 
ATOM     42  H   LIG d   1       3.816   2.209  -1.944  0.00  0.00     0.027 H 
ATOM     43  H   LIG d   1       3.486   0.531  -1.442  0.00  0.00     0.027 H 
ATOM     44  C   LIG d   1       3.210  -0.527  -3.939  0.00  0.00    -0.032 C 
ATOM     45  H   LIG d   1       3.459   1.580  -4.313  0.00  0.00     0.032 H 
ATOM     46  H   LIG d   1       2.026   1.168  -3.338  0.00  0.00     0.032 H 
ATOM     47  H   LIG d   1       2.639  -0.697  -4.851  0.00  0.00     0.081 H 
ATOM     48  H   LIG d   1       2.822  -1.165  -3.146  0.00  0.00     0.081 H 
ATOM     49  C   LIG d   1       4.724  -2.236  -4.682  0.00  0.00    -0.032 C 
ATOM     50  H   LIG d   1       4.981  -0.215  -4.934  0.00  0.00     0.204 HD
ATOM     51  C   LIG d   1       6.173  -2.561  -5.043  0.00  0.00    -0.012 C 
ATOM     52  H   LIG d   1       4.380  -2.926  -3.911  0.00  0.00     0.081 H 
ATOM     53  H   LIG d   1       4.100  -2.344  -5.569  0.00  0.00     0.081 H 
ATOM     54  C   LIG d   1       7.041  -2.402  -3.793  0.00  0.00    -0.039 C 
ATOM     55  H   LIG d   1       6.238  -3.586  -5.405  0.00  0.00     0.032 H 
ATOM     56  H   LIG d   1       6.519  -1.877  -5.817  0.00  0.00     0.032 H 
ATOM     57  H   LIG d   1       8.083  -2.605  -4.042  0.00  0.00     0.027 H 
ATOM     58  H   LIG d   1       6.704  -3.101  -3.027  0.00  0.00     0.027 H 
ENDBRANCH   1  32
TORSDOF 7
ENDMDL
MODEL 6
REMARK VINA RESULT:      -6.3      3.225      9.640
REMARK  7 active torsions:
REMARK  status: ('A' for Active; 'I' for Inactive)
REMARK    1  A    between atoms: C_1  and  C_2 
REMARK    2  A    between atoms: C_3  and  C_15 
REMARK    3  A    between atoms: C_5  and  C_7 
REMARK    4  A    between atoms: C_11  and  O_13 
REMARK    5  A    between atoms: O_13  and  C_14 
REMARK       I    between atoms: C_15  and  N_17 
REMARK    6  A    between atoms: N_17  and  C_18 
REMARK    7  A    between atoms: C_18  and  C_19 
ROOT
ATOM      1  C   LIG d   1      10.158   5.588  -5.120  0.00  0.00     0.020 C 
ATOM      2  H   LIG d   1      10.938   5.504  -4.364  0.00  0.00     0.047 H 
ATOM      3  H   LIG d   1      10.602   5.500  -6.112  0.00  0.00     0.047 H 
ENDROOT
BRANCH   1   4
ATOM      4  N   LIG d   1       9.174   4.520  -4.929  0.00  0.00    -0.310 N 
ATOM      5  C   LIG d   1       9.407   3.291  -5.433  0.00  0.00     0.253 C 
ATOM      6  O   LIG d   1      10.434   3.070  -6.047  0.00  0.00    -0.270 OA
ATOM      7  H   LIG d   1       8.355   4.696  -4.440  0.00  0.00     0.149 HD
BRANCH   5   8
ATOM      8  C   LIG d   1       8.422   2.222  -5.241  0.00  0.00     0.097 A 
ATOM      9  C   LIG d   1       7.806   1.405  -6.181  0.00  0.00     0.058 A 
ATOM     10  N   LIG d   1       6.957   0.514  -5.747  0.00  0.00    -0.243 NA
ATOM     11  C   LIG d   1       6.676   0.391  -4.457  0.00  0.00     0.109 A 
ATOM     12  S   LIG d   1       7.680   1.609  -3.736  0.00  0.00    -0.062 SA
BRANCH   9  13
ATOM     13  C   LIG d   1       8.112   1.539  -7.650  0.00  0.00    -0.021 C 
ATOM     14  H   LIG d   1       9.177   1.378  -7.815  0.00  0.00     0.029 H 
ATOM     15  H   LIG d   1       7.541   0.797  -8.209  0.00  0.00     0.029 H 
ATOM     16  H   LIG d   1       7.838   2.539  -7.988  0.00  0.00     0.029 H 
ENDBRANCH   9  13
BRANCH  11  17
ATOM     17  C   LIG d   1       5.746  -0.552  -3.799  0.00  0.00     0.011 A 
ATOM     18  C   LIG d   1       5.465  -1.785  -4.388  0.00  0.00    -0.010 A 
ATOM     19  C   LIG d   1       4.594  -2.662  -3.765  0.00  0.00     0.121 A 
ATOM     20  H   LIG d   1       5.927  -2.054  -5.326  0.00  0.00     0.066 H 
ATOM     21  C   LIG d   1       4.002  -2.313  -2.558  0.00  0.00    -0.020 A 
ATOM     22  C   LIG d   1       4.274  -1.089  -1.976  0.00  0.00    -0.058 A 
ATOM     23  H   LIG d   1       3.323  -3.000  -2.074  0.00  0.00     0.065 H 
ATOM     24  C   LIG d   1       5.146  -0.210  -2.586  0.00  0.00    -0.052 A 
ATOM     25  H   LIG d   1       3.807  -0.822  -1.040  0.00  0.00     0.062 H 
ATOM     26  H   LIG d   1       5.360   0.744  -2.126  0.00  0.00     0.062 H 
BRANCH  19  27
ATOM     27  O   LIG d   1       4.317  -3.864  -4.335  0.00  0.00    -0.495 OA
BRANCH  27  28
ATOM     28  C   LIG d   1       4.714  -4.045  -5.695  0.00  0.00     0.079 C 
ATOM     29  H   LIG d   1       4.232  -3.290  -6.318  0.00  0.00     0.066 H 
ATOM     30  H   LIG d   1       5.796  -3.945  -5.774  0.00  0.00     0.066 H 
ATOM     31  H   LIG d   1       4.415  -5.038  -6.032  0.00  0.00     0.066 H 
ENDBRANCH  27  28
ENDBRANCH  19  27
ENDBRANCH  11  17
ENDBRANCH   5   8
ENDBRANCH   1   4
BRANCH   1  32
ATOM     32  C   LIG d   1       9.467   6.947  -4.990  0.00  0.00     0.018 C 
ATOM     33  H   LIG d   1       8.387   6.804  -4.975  0.00  0.00     0.037 H 
ATOM     34  C   LIG d   1       9.910   7.620  -3.687  0.00  0.00    -0.017 C 
ATOM     35  H   LIG d   1       9.383   8.568  -3.569  0.00  0.00     0.085 H 
ATOM     36  C   LIG d   1       9.552   6.688  -2.524  0.00  0.00    -0.009 C 
ATOM     37  N   LIG d   1      11.377   7.848  -3.716  0.00  0.00     0.238 N 
ATOM     38  C   LIG d   1      10.021   7.301  -1.204  0.00  0.00    -0.043 C 
ATOM     39  H   LIG d   1       8.472   6.543  -2.496  0.00  0.00     0.032 H 
ATOM     40  H   LIG d   1      10.042   5.725  -2.669  0.00  0.00     0.032 H 
ATOM     41  C   LIG d   1      11.532   7.543  -1.281  0.00  0.00    -0.012 C 
ATOM     42  H   LIG d   1       9.801   6.616  -0.385  0.00  0.00     0.027 H 
ATOM     43  H   LIG d   1       9.507   8.248  -1.037  0.00  0.00     0.027 H 
ATOM     44  C   LIG d   1      11.823   8.474  -2.457  0.00  0.00    -0.032 C 
ATOM     45  H   LIG d   1      12.047   6.593  -1.430  0.00  0.00     0.032 H 
ATOM     46  H   LIG d   1      11.875   8.004  -0.355  0.00  0.00     0.032 H 
ATOM     47  H   LIG d   1      12.896   8.652  -2.520  0.00  0.00     0.081 H 
ATOM     48  H   LIG d   1      11.308   9.421  -2.302  0.00  0.00     0.081 H 
ATOM     49  C   LIG d   1      11.738   8.727  -4.843  0.00  0.00    -0.032 C 
ATOM     50  H   LIG d   1      11.850   6.944  -3.829  0.00  0.00     0.204 HD
ATOM     51  C   LIG d   1      11.358   8.060  -6.164  0.00  0.00    -0.012 C 
ATOM     52  H   LIG d   1      11.221   9.683  -4.758  0.00  0.00     0.081 H 
ATOM     53  H   LIG d   1      12.815   8.894  -4.821  0.00  0.00     0.081 H 
ATOM     54  C   LIG d   1       9.846   7.826  -6.183  0.00  0.00    -0.039 C 
ATOM     55  H   LIG d   1      11.637   8.708  -6.994  0.00  0.00     0.032 H 
ATOM     56  H   LIG d   1      11.877   7.106  -6.255  0.00  0.00     0.032 H 
ATOM     57  H   LIG d   1       9.564   7.326  -7.110  0.00  0.00     0.027 H 
ATOM     58  H   LIG d   1       9.331   8.784  -6.110  0.00  0.00     0.027 H 
ENDBRANCH   1  32
TORSDOF 7
ENDMDL
MODEL 7
REMARK VINA RESULT:      -6.3      4.820      9.620
REMARK  7 active torsions:
REMARK  status: ('A' for Active; 'I' for Inactive)
REMARK    1  A    between atoms: C_1  and  C_2 
REMARK    2  A    between atoms: C_3  and  C_15 
REMARK    3  A    between atoms: C_5  and  C_7 
REMARK    4  A    between atoms: C_11  and  O_13 
REMARK    5  A    between atoms: O_13  and  C_14 
REMARK       I    between atoms: C_15  and  N_17 
REMARK    6  A    between atoms: N_17  and  C_18 
REMARK    7  A    between atoms: C_18  and  C_19 
ROOT
ATOM      1  C   LIG d   1      10.263   4.380  -8.021  0.00  0.00     0.020 C 
ATOM      2  H   LIG d   1      10.727   5.267  -7.589  0.00  0.00     0.047 H 
ATOM      3  H   LIG d   1      11.037   3.660  -8.289  0.00  0.00     0.047 H 
ENDROOT
BRANCH   1   4
ATOM      4  N   LIG d   1       9.356   3.778  -7.042  0.00  0.00    -0.310 N 
ATOM      5  C   LIG d   1       9.672   2.602  -6.463  0.00  0.00     0.253 C 
ATOM      6  O   LIG d   1      10.712   2.041  -6.753  0.00  0.00    -0.270 OA
ATOM      7  H   LIG d   1       8.526   4.224  -6.810  0.00  0.00     0.149 HD
BRANCH   5   8
ATOM      8  C   LIG d   1       8.763   2.000  -5.483  0.00  0.00     0.097 A 
ATOM      9  C   LIG d   1       8.606   2.277  -4.130  0.00  0.00     0.058 A 
ATOM     10  N   LIG d   1       7.711   1.595  -3.470  0.00  0.00    -0.243 NA
ATOM     11  C   LIG d   1       6.979   0.658  -4.055  0.00  0.00     0.109 A 
ATOM     12  S   LIG d   1       7.549   0.705  -5.695  0.00  0.00    -0.062 SA
BRANCH   9  13
ATOM     13  C   LIG d   1       9.436   3.336  -3.451  0.00  0.00    -0.021 C 
ATOM     14  H   LIG d   1       8.780   4.085  -3.010  0.00  0.00     0.029 H 
ATOM     15  H   LIG d   1      10.041   2.876  -2.669  0.00  0.00     0.029 H 
ATOM     16  H   LIG d   1      10.089   3.810  -4.184  0.00  0.00     0.029 H 
ENDBRANCH   9  13
BRANCH  11  17
ATOM     17  C   LIG d   1       5.935  -0.205  -3.463  0.00  0.00     0.011 A 
ATOM     18  C   LIG d   1       5.661  -1.455  -4.019  0.00  0.00    -0.010 A 
ATOM     19  C   LIG d   1       4.682  -2.257  -3.459  0.00  0.00     0.121 A 
ATOM     20  H   LIG d   1       6.211  -1.796  -4.883  0.00  0.00     0.066 H 
ATOM     21  C   LIG d   1       3.976  -1.817  -2.346  0.00  0.00    -0.020 A 
ATOM     22  C   LIG d   1       4.241  -0.576  -1.798  0.00  0.00    -0.058 A 
ATOM     23  H   LIG d   1       3.212  -2.446  -1.911  0.00  0.00     0.065 H 
ATOM     24  C   LIG d   1       5.219   0.229  -2.346  0.00  0.00    -0.052 A 
ATOM     25  H   LIG d   1       3.685  -0.238  -0.936  0.00  0.00     0.062 H 
ATOM     26  H   LIG d   1       5.428   1.196  -1.912  0.00  0.00     0.062 H 
BRANCH  19  27
ATOM     27  O   LIG d   1       4.411  -3.476  -3.996  0.00  0.00    -0.495 OA
BRANCH  27  28
ATOM     28  C   LIG d   1       5.181  -3.869  -5.133  0.00  0.00     0.079 C 
ATOM     29  H   LIG d   1       6.186  -4.149  -4.813  0.00  0.00     0.066 H 
ATOM     30  H   LIG d   1       4.704  -4.720  -5.618  0.00  0.00     0.066 H 
ATOM     31  H   LIG d   1       5.243  -3.037  -5.836  0.00  0.00     0.066 H 
ENDBRANCH  27  28
ENDBRANCH  19  27
ENDBRANCH  11  17
ENDBRANCH   5   8
ENDBRANCH   1   4
BRANCH   1  32
ATOM     32  C   LIG d   1       9.476   4.774  -9.272  0.00  0.00     0.018 C 
ATOM     33  H   LIG d   1       8.416   4.585  -9.106  0.00  0.00     0.037 H 
ATOM     34  C   LIG d   1       9.690   6.263  -9.560  0.00  0.00    -0.017 C 
ATOM     35  H   LIG d   1       9.093   6.556 -10.424  0.00  0.00     0.085 H 
ATOM     36  C   LIG d   1       9.234   7.056  -8.330  0.00  0.00    -0.009 C 
ATOM     37  N   LIG d   1      11.129   6.520  -9.819  0.00  0.00     0.238 N 
ATOM     38  C   LIG d   1       9.475   8.549  -8.556  0.00  0.00    -0.043 C 
ATOM     39  H   LIG d   1       8.172   6.879  -8.159  0.00  0.00     0.032 H 
ATOM     40  H   LIG d   1       9.800   6.727  -7.458  0.00  0.00     0.032 H 
ATOM     41  C   LIG d   1      10.964   8.771  -8.843  0.00  0.00    -0.012 C 
ATOM     42  H   LIG d   1       9.188   9.105  -7.663  0.00  0.00     0.027 H 
ATOM     43  H   LIG d   1       8.884   8.890  -9.406  0.00  0.00     0.027 H 
ATOM     44  C   LIG d   1      11.356   7.955 -10.074  0.00  0.00    -0.032 C 
ATOM     45  H   LIG d   1      11.554   8.446  -7.986  0.00  0.00     0.032 H 
ATOM     46  H   LIG d   1      11.145   9.828  -9.033  0.00  0.00     0.032 H 
ATOM     47  H   LIG d   1      12.414   8.106 -10.287  0.00  0.00     0.081 H 
ATOM     48  H   LIG d   1      10.765   8.285 -10.928  0.00  0.00     0.081 H 
ATOM     49  C   LIG d   1      11.586   5.747 -10.988  0.00  0.00    -0.032 C 
ATOM     50  H   LIG d   1      11.670   6.235  -8.995  0.00  0.00     0.204 HD
ATOM     51  C   LIG d   1      11.437   4.251 -10.712  0.00  0.00    -0.012 C 
ATOM     52  H   LIG d   1      11.003   6.012 -11.870  0.00  0.00     0.081 H 
ATOM     53  H   LIG d   1      12.637   5.976 -11.166  0.00  0.00     0.081 H 
ATOM     54  C   LIG d   1       9.960   3.940 -10.459  0.00  0.00    -0.039 C 
ATOM     55  H   LIG d   1      11.787   3.684 -11.574  0.00  0.00     0.032 H 
ATOM     56  H   LIG d   1      12.023   3.981  -9.834  0.00  0.00     0.032 H 
ATOM     57  H   LIG d   1       9.842   2.880 -10.235  0.00  0.00     0.027 H 
ATOM     58  H   LIG d   1       9.380   4.195 -11.346  0.00  0.00     0.027 H 
ENDBRANCH   1  32
TORSDOF 7
ENDMDL
MODEL 8
REMARK VINA RESULT:      -6.2      3.937      4.774
REMARK  7 active torsions:
REMARK  status: ('A' for Active; 'I' for Inactive)
REMARK    1  A    between atoms: C_1  and  C_2 
REMARK    2  A    between atoms: C_3  and  C_15 
REMARK    3  A    between atoms: C_5  and  C_7 
REMARK    4  A    between atoms: C_11  and  O_13 
REMARK    5  A    between atoms: O_13  and  C_14 
REMARK       I    between atoms: C_15  and  N_17 
REMARK    6  A    between atoms: N_17  and  C_18 
REMARK    7  A    between atoms: C_18  and  C_19 
ROOT
ATOM      1  C   LIG d   1       6.762  -0.005  -5.245  0.00  0.00     0.020 C 
ATOM      2  H   LIG d   1       5.682   0.056  -5.376  0.00  0.00     0.047 H 
ATOM      3  H   LIG d   1       7.188  -0.631  -6.029  0.00  0.00     0.047 H 
ENDROOT
BRANCH   1   4
ATOM      4  N   LIG d   1       7.340   1.338  -5.324  0.00  0.00    -0.310 N 
ATOM      5  C   LIG d   1       8.588   1.508  -5.806  0.00  0.00     0.253 C 
ATOM      6  O   LIG d   1       9.234   0.545  -6.175  0.00  0.00    -0.270 OA
ATOM      7  H   LIG d   1       6.826   2.107  -5.029  0.00  0.00     0.149 HD
BRANCH   5   8
ATOM      8  C   LIG d   1       9.166   2.853  -5.884  0.00  0.00     0.097 A 
ATOM      9  C   LIG d   1       9.594   3.695  -4.866  0.00  0.00     0.058 A 
ATOM     10  N   LIG d   1      10.083   4.857  -5.203  0.00  0.00    -0.243 NA
ATOM     11  C   LIG d   1      10.163   5.237  -6.471  0.00  0.00     0.109 A 
ATOM     12  S   LIG d   1       9.516   3.865  -7.315  0.00  0.00    -0.062 SA
BRANCH   9  13
ATOM     13  C   LIG d   1       9.504   3.279  -3.420  0.00  0.00    -0.021 C 
ATOM     14  H   LIG d   1      10.253   3.816  -2.839  0.00  0.00     0.029 H 
ATOM     15  H   LIG d   1       8.510   3.510  -3.037  0.00  0.00     0.029 H 
ATOM     16  H   LIG d   1       9.683   2.206  -3.340  0.00  0.00     0.029 H 
ENDBRANCH   9  13
BRANCH  11  17
ATOM     17  C   LIG d   1      10.679   6.506  -7.026  0.00  0.00     0.011 A 
ATOM     18  C   LIG d   1      10.084   7.070  -8.155  0.00  0.00    -0.010 A 
ATOM     19  C   LIG d   1      10.573   8.259  -8.668  0.00  0.00     0.121 A 
ATOM     20  H   LIG d   1       9.245   6.581  -8.626  0.00  0.00     0.066 H 
ATOM     21  C   LIG d   1      11.653   8.887  -8.060  0.00  0.00    -0.020 A 
ATOM     22  C   LIG d   1      12.247   8.326  -6.945  0.00  0.00    -0.058 A 
ATOM     23  H   LIG d   1      12.032   9.815  -8.463  0.00  0.00     0.065 H 
ATOM     24  C   LIG d   1      11.764   7.144  -6.422  0.00  0.00    -0.052 A 
ATOM     25  H   LIG d   1      13.090   8.816  -6.480  0.00  0.00     0.062 H 
ATOM     26  H   LIG d   1      12.228   6.711  -5.547  0.00  0.00     0.062 H 
BRANCH  19  27
ATOM     27  O   LIG d   1       9.997   8.813  -9.768  0.00  0.00    -0.495 OA
BRANCH  27  28
ATOM     28  C   LIG d   1      10.242   8.173 -11.021  0.00  0.00     0.079 C 
ATOM     29  H   LIG d   1       9.915   8.825 -11.832  0.00  0.00     0.066 H 
ATOM     30  H   LIG d   1      11.307   7.971 -11.124  0.00  0.00     0.066 H 
ATOM     31  H   LIG d   1       9.688   7.234 -11.064  0.00  0.00     0.066 H 
ENDBRANCH  27  28
ENDBRANCH  19  27
ENDBRANCH  11  17
ENDBRANCH   5   8
ENDBRANCH   1   4
BRANCH   1  32
ATOM     32  C   LIG d   1       7.076  -0.616  -3.878  0.00  0.00     0.018 C 
ATOM     33  H   LIG d   1       7.884  -0.056  -3.408  0.00  0.00     0.037 H 
ATOM     34  C   LIG d   1       5.828  -0.552  -2.992  0.00  0.00    -0.017 C 
ATOM     35  H   LIG d   1       6.063  -0.944  -2.002  0.00  0.00     0.085 H 
ATOM     36  C   LIG d   1       5.405   0.917  -2.873  0.00  0.00    -0.009 C 
ATOM     37  N   LIG d   1       4.734  -1.341  -3.612  0.00  0.00     0.238 N 
ATOM     38  C   LIG d   1       4.131   1.024  -2.034  0.00  0.00    -0.043 C 
ATOM     39  H   LIG d   1       6.204   1.487  -2.398  0.00  0.00     0.032 H 
ATOM     40  H   LIG d   1       5.217   1.321  -3.868  0.00  0.00     0.032 H 
ATOM     41  C   LIG d   1       3.035   0.179  -2.691  0.00  0.00    -0.012 C 
ATOM     42  H   LIG d   1       3.811   2.065  -1.987  0.00  0.00     0.027 H 
ATOM     43  H   LIG d   1       4.324   0.654  -1.027  0.00  0.00     0.027 H 
ATOM     44  C   LIG d   1       3.516  -1.269  -2.783  0.00  0.00    -0.032 C 
ATOM     45  H   LIG d   1       2.829   0.560  -3.691  0.00  0.00     0.032 H 
ATOM     46  H   LIG d   1       2.128   0.224  -2.088  0.00  0.00     0.032 H 
ATOM     47  H   LIG d   1       2.743  -1.878  -3.249  0.00  0.00     0.081 H 
ATOM     48  H   LIG d   1       3.718  -1.645  -1.781  0.00  0.00     0.081 H 
ATOM     49  C   LIG d   1       5.136  -2.753  -3.752  0.00  0.00    -0.032 C 
ATOM     50  H   LIG d   1       4.532  -0.956  -4.541  0.00  0.00     0.204 HD
ATOM     51  C   LIG d   1       6.349  -2.858  -4.675  0.00  0.00    -0.012 C 
ATOM     52  H   LIG d   1       5.384  -3.174  -2.778  0.00  0.00     0.081 H 
ATOM     53  H   LIG d   1       4.304  -3.309  -4.185  0.00  0.00     0.081 H 
ATOM     54  C   LIG d   1       7.508  -2.072  -4.060  0.00  0.00    -0.039 C 
ATOM     55  H   LIG d   1       6.634  -3.904  -4.784  0.00  0.00     0.032 H 
ATOM     56  H   LIG d   1       6.102  -2.443  -5.652  0.00  0.00     0.032 H 
ATOM     57  H   LIG d   1       8.373  -2.117  -4.722  0.00  0.00     0.027 H 
ATOM     58  H   LIG d   1       7.764  -2.502  -3.092  0.00  0.00     0.027 H 
ENDBRANCH   1  32
TORSDOF 7
ENDMDL
MODEL 9
REMARK VINA RESULT:      -6.1      6.965     12.356
REMARK  7 active torsions:
REMARK  status: ('A' for Active; 'I' for Inactive)
REMARK    1  A    between atoms: C_1  and  C_2 
REMARK    2  A    between atoms: C_3  and  C_15 
REMARK    3  A    between atoms: C_5  and  C_7 
REMARK    4  A    between atoms: C_11  and  O_13 
REMARK    5  A    between atoms: O_13  and  C_14 
REMARK       I    between atoms: C_15  and  N_17 
REMARK    6  A    between atoms: N_17  and  C_18 
REMARK    7  A    between atoms: C_18  and  C_19 
ROOT
ATOM      1  C   LIG d   1       3.570   0.005  -5.306  0.00  0.00     0.020 C 
ATOM      2  H   LIG d   1       4.623   0.255  -5.175  0.00  0.00     0.047 H 
ATOM      3  H   LIG d   1       2.958   0.879  -5.081  0.00  0.00     0.047 H 
ENDROOT
BRANCH   1   4
ATOM      4  N   LIG d   1       3.334  -0.412  -6.690  0.00  0.00    -0.310 N 
ATOM      5  C   LIG d   1       3.035   0.507  -7.630  0.00  0.00     0.253 C 
ATOM      6  O   LIG d   1       2.961   1.684  -7.328  0.00  0.00    -0.270 OA
ATOM      7  H   LIG d   1       3.393  -1.350  -6.931  0.00  0.00     0.149 HD
BRANCH   5   8
ATOM      8  C   LIG d   1       2.800   0.089  -9.015  0.00  0.00     0.097 A 
ATOM      9  C   LIG d   1       3.441   0.485 -10.182  0.00  0.00     0.058 A 
ATOM     10  N   LIG d   1       3.042  -0.047 -11.305  0.00  0.00    -0.243 NA
ATOM     11  C   LIG d   1       2.051  -0.927 -11.344  0.00  0.00     0.109 A 
ATOM     12  S   LIG d   1       1.609  -1.070  -9.671  0.00  0.00    -0.062 SA
BRANCH   9  13
ATOM     13  C   LIG d   1       4.563   1.490 -10.152  0.00  0.00    -0.021 C 
ATOM     14  H   LIG d   1       4.283   2.330  -9.518  0.00  0.00     0.029 H 
ATOM     15  H   LIG d   1       5.462   1.018  -9.754  0.00  0.00     0.029 H 
ATOM     16  H   LIG d   1       4.758   1.847 -11.164  0.00  0.00     0.029 H 
ENDBRANCH   9  13
BRANCH  11  17
ATOM     17  C   LIG d   1       1.474  -1.618 -12.517  0.00  0.00     0.011 A 
ATOM     18  C   LIG d   1       2.309  -2.119 -13.516  0.00  0.00    -0.010 A 
ATOM     19  C   LIG d   1       1.761  -2.765 -14.610  0.00  0.00     0.121 A 
ATOM     20  H   LIG d   1       3.379  -2.004 -13.435  0.00  0.00     0.066 H 
ATOM     21  C   LIG d   1       0.383  -2.914 -14.712  0.00  0.00    -0.020 A 
ATOM     22  C   LIG d   1      -0.446  -2.412 -13.726  0.00  0.00    -0.058 A 
ATOM     23  H   LIG d   1      -0.041  -3.419 -15.567  0.00  0.00     0.065 H 
ATOM     24  C   LIG d   1       0.091  -1.772 -12.627  0.00  0.00    -0.052 A 
ATOM     25  H   LIG d   1      -1.517  -2.527 -13.813  0.00  0.00     0.062 H 
ATOM     26  H   LIG d   1      -0.560  -1.385 -11.856  0.00  0.00     0.062 H 
BRANCH  19  27
ATOM     27  O   LIG d   1       2.570  -3.255 -15.586  0.00  0.00    -0.495 OA
BRANCH  27  28
ATOM     28  C   LIG d   1       2.031  -4.281 -16.422  0.00  0.00     0.079 C 
ATOM     29  H   LIG d   1       1.301  -4.863 -15.858  0.00  0.00     0.066 H 
ATOM     30  H   LIG d   1       1.545  -3.827 -17.285  0.00  0.00     0.066 H 
ATOM     31  H   LIG d   1       2.835  -4.935 -16.759  0.00  0.00     0.066 H 
ENDBRANCH  27  28
ENDBRANCH  19  27
ENDBRANCH  11  17
ENDBRANCH   5   8
ENDBRANCH   1   4
BRANCH   1  32
ATOM     32  C   LIG d   1       3.196  -1.137  -4.358  0.00  0.00     0.018 C 
ATOM     33  H   LIG d   1       2.508  -1.815  -4.862  0.00  0.00     0.037 H 
ATOM     34  C   LIG d   1       4.462  -1.900  -3.956  0.00  0.00    -0.017 C 
ATOM     35  H   LIG d   1       4.192  -2.743  -3.319  0.00  0.00     0.085 H 
ATOM     36  C   LIG d   1       5.130  -2.420  -5.234  0.00  0.00    -0.009 C 
ATOM     37  N   LIG d   1       5.388  -0.989  -3.239  0.00  0.00     0.238 N 
ATOM     38  C   LIG d   1       6.427  -3.149  -4.883  0.00  0.00    -0.043 C 
ATOM     39  H   LIG d   1       4.452  -3.104  -5.744  0.00  0.00     0.032 H 
ATOM     40  H   LIG d   1       5.355  -1.580  -5.892  0.00  0.00     0.032 H 
ATOM     41  C   LIG d   1       7.345  -2.186  -4.125  0.00  0.00    -0.012 C 
ATOM     42  H   LIG d   1       6.919  -3.481  -5.797  0.00  0.00     0.027 H 
ATOM     43  H   LIG d   1       6.203  -4.011  -4.255  0.00  0.00     0.027 H 
ATOM     44  C   LIG d   1       6.624  -1.703  -2.867  0.00  0.00    -0.032 C 
ATOM     45  H   LIG d   1       7.584  -1.332  -4.760  0.00  0.00     0.032 H 
ATOM     46  H   LIG d   1       8.263  -2.702  -3.844  0.00  0.00     0.032 H 
ATOM     47  H   LIG d   1       7.270  -1.017  -2.321  0.00  0.00     0.081 H 
ATOM     48  H   LIG d   1       6.391  -2.559  -2.235  0.00  0.00     0.081 H 
ATOM     49  C   LIG d   1       4.751  -0.465  -2.018  0.00  0.00    -0.032 C 
ATOM     50  H   LIG d   1       5.626  -0.204  -3.857  0.00  0.00     0.204 HD
ATOM     51  C   LIG d   1       3.511   0.349  -2.388  0.00  0.00    -0.012 C 
ATOM     52  H   LIG d   1       4.462  -1.284  -1.360  0.00  0.00     0.081 H 
ATOM     53  H   LIG d   1       5.464   0.179  -1.503  0.00  0.00     0.081 H 
ATOM     54  C   LIG d   1       2.519  -0.561  -3.113  0.00  0.00    -0.039 C 
ATOM     55  H   LIG d   1       3.051   0.744  -1.483  0.00  0.00     0.032 H 
ATOM     56  H   LIG d   1       3.797   1.173  -3.042  0.00  0.00     0.032 H 
ATOM     57  H   LIG d   1       1.641   0.013  -3.406  0.00  0.00     0.027 H 
ATOM     58  H   LIG d   1       2.223  -1.374  -2.450  0.00  0.00     0.027 H 
ENDBRANCH   1  32
TORSDOF 7
ENDMDL
