MODEL 1
REMARK VINA RESULT:      -7.1      0.000      0.000
REMARK  7 active torsions:
REMARK  status: ('A' for Active; 'I' for Inactive)
REMARK    1  A    between atoms: C_1  and  N_2 
REMARK       I    between atoms: N_5  and  C_8 
REMARK    2  A    between atoms: C_8  and  C_10 
REMARK    3  A    between atoms: C_10  and  C_11 
REMARK    4  A    between atoms: C_11  and  C_12 
REMARK    5  A    between atoms: C_22  and  N_25 
REMARK    6  A    between atoms: N_25  and  C_26 
REMARK    7  A    between atoms: C_26  and  C_27 
ROOT
ATOM      1  C   LIG d   1       4.868  -1.801  -9.424  0.00  0.00     0.027 C 
ATOM      2  H   LIG d   1       4.038  -2.268  -9.954  0.00  0.00     0.048 H 
ATOM      3  C   LIG d   1       5.856  -1.193 -10.430  0.00  0.00     0.027 C 
ATOM      4  N   LIG d   1       5.389   0.086 -10.949  0.00  0.00    -0.312 N 
ATOM      5  C   LIG d   1       4.340   0.775 -10.463  0.00  0.00     0.231 C 
ATOM      6  O   LIG d   1       4.087   1.884 -10.883  0.00  0.00    -0.274 OA
ATOM      7  C   LIG d   1       3.491   0.157  -9.400  0.00  0.00     0.093 C 
ATOM      8  H   LIG d   1       2.682  -0.422  -9.846  0.00  0.00     0.056 H 
ATOM      9  N   LIG d   1       4.375  -0.721  -8.588  0.00  0.00    -0.281 N 
ATOM     10  C   LIG d   1       3.610  -1.040  -7.388  0.00  0.00     0.043 C 
ATOM     11  C   LIG d   1       2.701   0.190  -7.133  0.00  0.00    -0.007 C 
ATOM     12  H   LIG d   1       1.654  -0.110  -7.102  0.00  0.00     0.086 H 
ATOM     13  C   LIG d   1       2.938   1.141  -8.357  0.00  0.00     0.016 C 
ATOM     14  H   LIG d   1       6.817  -1.047  -9.939  0.00  0.00     0.048 H 
ATOM     15  H   LIG d   1       5.986  -1.886 -11.261  0.00  0.00     0.048 H 
ATOM     16  H   LIG d   1       5.871   0.469 -11.700  0.00  0.00     0.149 HD
ATOM     17  H   LIG d   1       3.002  -1.929  -7.555  0.00  0.00     0.048 H 
ATOM     18  H   LIG d   1       4.281  -1.194  -6.544  0.00  0.00     0.048 H 
ATOM     19  H   LIG d   1       3.675   1.907  -8.116  0.00  0.00     0.034 H 
ATOM     20  H   LIG d   1       2.007   1.592  -8.701  0.00  0.00     0.034 H 
ENDROOT
BRANCH   1  21
ATOM     21  C   LIG d   1       5.582  -2.843  -8.560  0.00  0.00    -0.028 C 
ATOM     22  H   LIG d   1       5.779  -3.735  -9.155  0.00  0.00     0.029 H 
ATOM     23  H   LIG d   1       4.950  -3.104  -7.710  0.00  0.00     0.029 H 
BRANCH  21  24
ATOM     24  C   LIG d   1       6.904  -2.265  -8.053  0.00  0.00     0.026 C 
ATOM     25  H   LIG d   1       7.029  -1.252  -8.434  0.00  0.00     0.036 H 
ATOM     26  H   LIG d   1       7.729  -2.888  -8.399  0.00  0.00     0.036 H 
BRANCH  24  27
ATOM     27  C   LIG d   1       6.895  -2.237  -6.545  0.00  0.00     0.216 C 
ATOM     28  N   LIG d   1       7.662  -1.348  -5.884  0.00  0.00    -0.299 N 
ATOM     29  C   LIG d   1       7.668  -1.304  -4.414  0.00  0.00     0.028 C 
ATOM     30  C   LIG d   1       8.516  -0.398  -6.612  0.00  0.00     0.028 C 
ATOM     31  C   LIG d   1       7.423   0.143  -3.969  0.00  0.00     0.015 C 
ATOM     32  H   LIG d   1       8.635  -1.642  -4.040  0.00  0.00     0.048 H 
ATOM     33  H   LIG d   1       6.876  -1.945  -4.024  0.00  0.00     0.048 H 
ATOM     34  N   LIG d   1       8.400   1.024  -4.622  0.00  0.00    -0.302 N 
ATOM     35  H   LIG d   1       7.533   0.215  -2.887  0.00  0.00     0.044 H 
ATOM     36  H   LIG d   1       6.414   0.444  -4.254  0.00  0.00     0.044 H 
ATOM     37  C   LIG d   1       8.238   1.012  -6.082  0.00  0.00     0.015 C 
ATOM     38  H   LIG d   1       7.217   1.302  -6.336  0.00  0.00     0.044 H 
ATOM     39  H   LIG d   1       8.939   1.715  -6.532  0.00  0.00     0.044 H 
ATOM     40  H   LIG d   1       9.564  -0.649  -6.451  0.00  0.00     0.048 H 
ATOM     41  H   LIG d   1       8.286  -0.441  -7.676  0.00  0.00     0.048 H 
ATOM     42  O   LIG d   1       6.196  -3.014  -5.929  0.00  0.00    -0.276 OA
BRANCH  34  43
ATOM     43  C   LIG d   1       8.311   2.392  -4.093  0.00  0.00    -0.013 C 
ATOM     44  H   LIG d   1       8.820   3.077  -4.770  0.00  0.00     0.039 H 
ATOM     45  H   LIG d   1       7.262   2.680  -4.007  0.00  0.00     0.039 H 
ATOM     46  H   LIG d   1       8.781   2.433  -3.111  0.00  0.00     0.039 H 
ENDBRANCH  34  43
ENDBRANCH  24  27
ENDBRANCH  21  24
ENDBRANCH   1  21
BRANCH  11  47
ATOM     47  N   LIG d   1       3.079   0.853  -5.878  0.00  0.00     0.233 N 
ATOM     48  H   LIG d   1       4.042   0.643  -5.662  0.00  0.00     0.202 HD
ATOM     49  H   LIG d   1       2.966   1.850  -5.977  0.00  0.00     0.202 HD
BRANCH  47  50
ATOM     50  C   LIG d   1       2.217   0.368  -4.790  0.00  0.00    -0.007 C 
ATOM     51  H   LIG d   1       1.552   1.169  -4.469  0.00  0.00     0.087 H 
ATOM     52  H   LIG d   1       1.625  -0.476  -5.145  0.00  0.00     0.087 H 
BRANCH  50  53
ATOM     53  C   LIG d   1       3.071  -0.071  -3.630  0.00  0.00    -0.003 A 
ATOM     54  C   LIG d   1       3.256  -1.418  -3.378  0.00  0.00    -0.053 A 
ATOM     55  C   LIG d   1       4.044  -1.822  -2.317  0.00  0.00    -0.061 A 
ATOM     56  H   LIG d   1       2.787  -2.155  -4.014  0.00  0.00     0.062 H 
ATOM     57  C   LIG d   1       4.639  -0.878  -1.500  0.00  0.00    -0.062 A 
ATOM     58  H   LIG d   1       4.191  -2.874  -2.123  0.00  0.00     0.062 H 
ATOM     59  C   LIG d   1       4.451   0.468  -1.748  0.00  0.00    -0.061 A 
ATOM     60  H   LIG d   1       5.253  -1.194  -0.669  0.00  0.00     0.062 H 
ATOM     61  C   LIG d   1       3.667   0.872  -2.812  0.00  0.00    -0.053 A 
ATOM     62  H   LIG d   1       4.916   1.205  -1.110  0.00  0.00     0.062 H 
ATOM     63  H   LIG d   1       3.520   1.924  -3.006  0.00  0.00     0.062 H 
ENDBRANCH  50  53
ENDBRANCH  47  50
ENDBRANCH  11  47
TORSDOF 7
ENDMDL
MODEL 2
REMARK VINA RESULT:      -7.0      2.215      3.301
REMARK  7 active torsions:
REMARK  status: ('A' for Active; 'I' for Inactive)
REMARK    1  A    between atoms: C_1  and  N_2 
REMARK       I    between atoms: N_5  and  C_8 
REMARK    2  A    between atoms: C_8  and  C_10 
REMARK    3  A    between atoms: C_10  and  C_11 
REMARK    4  A    between atoms: C_11  and  C_12 
REMARK    5  A    between atoms: C_22  and  N_25 
REMARK    6  A    between atoms: N_25  and  C_26 
REMARK    7  A    between atoms: C_26  and  C_27 
ROOT
ATOM      1  C   LIG d   1       2.890  -0.639 -10.901  0.00  0.00     0.027 C 
ATOM      2  H   LIG d   1       2.185   0.086 -11.308  0.00  0.00     0.048 H 
ATOM      3  C   LIG d   1       4.224  -0.552 -11.656  0.00  0.00     0.027 C 
ATOM      4  N   LIG d   1       5.031   0.576 -11.211  0.00  0.00    -0.312 N 
ATOM      5  C   LIG d   1       4.766   1.330 -10.128  0.00  0.00     0.231 C 
ATOM      6  O   LIG d   1       5.550   2.181  -9.765  0.00  0.00    -0.274 OA
ATOM      7  C   LIG d   1       3.493   1.107  -9.377  0.00  0.00     0.093 C 
ATOM      8  H   LIG d   1       2.694   1.725  -9.788  0.00  0.00     0.056 H 
ATOM      9  N   LIG d   1       3.156  -0.336  -9.506  0.00  0.00    -0.281 N 
ATOM     10  C   LIG d   1       2.118  -0.583  -8.511  0.00  0.00     0.043 C 
ATOM     11  C   LIG d   1       2.404   0.409  -7.354  0.00  0.00    -0.007 C 
ATOM     12  H   LIG d   1       1.533   1.037  -7.168  0.00  0.00     0.086 H 
ATOM     13  C   LIG d   1       3.594   1.298  -7.856  0.00  0.00     0.016 C 
ATOM     14  H   LIG d   1       4.782  -1.473 -11.495  0.00  0.00     0.048 H 
ATOM     15  H   LIG d   1       4.021  -0.444 -12.721  0.00  0.00     0.048 H 
ATOM     16  H   LIG d   1       5.818   0.799 -11.732  0.00  0.00     0.149 HD
ATOM     17  H   LIG d   1       1.134  -0.389  -8.938  0.00  0.00     0.048 H 
ATOM     18  H   LIG d   1       2.178  -1.609  -8.151  0.00  0.00     0.048 H 
ATOM     19  H   LIG d   1       4.545   0.921  -7.479  0.00  0.00     0.034 H 
ATOM     20  H   LIG d   1       3.456   2.345  -7.584  0.00  0.00     0.034 H 
ENDROOT
BRANCH   1  21
ATOM     21  C   LIG d   1       2.312  -2.051 -11.025  0.00  0.00    -0.028 C 
ATOM     22  H   LIG d   1       1.762  -2.137 -11.963  0.00  0.00     0.029 H 
ATOM     23  H   LIG d   1       1.639  -2.242 -10.189  0.00  0.00     0.029 H 
BRANCH  21  24
ATOM     24  C   LIG d   1       3.452  -3.071 -11.006  0.00  0.00     0.026 C 
ATOM     25  H   LIG d   1       4.407  -2.550 -11.069  0.00  0.00     0.036 H 
ATOM     26  H   LIG d   1       3.349  -3.746 -11.855  0.00  0.00     0.036 H 
BRANCH  24  27
ATOM     27  C   LIG d   1       3.395  -3.863  -9.725  0.00  0.00     0.216 C 
ATOM     28  N   LIG d   1       4.389  -3.754  -8.821  0.00  0.00    -0.299 N 
ATOM     29  C   LIG d   1       4.354  -4.518  -7.565  0.00  0.00     0.028 C 
ATOM     30  C   LIG d   1       5.539  -2.870  -9.066  0.00  0.00     0.028 C 
ATOM     31  C   LIG d   1       4.590  -3.551  -6.400  0.00  0.00     0.015 C 
ATOM     32  H   LIG d   1       5.137  -5.277  -7.574  0.00  0.00     0.048 H 
ATOM     33  H   LIG d   1       3.380  -4.995  -7.453  0.00  0.00     0.048 H 
ATOM     34  N   LIG d   1       5.829  -2.799  -6.636  0.00  0.00    -0.302 N 
ATOM     35  H   LIG d   1       4.677  -4.114  -5.470  0.00  0.00     0.044 H 
ATOM     36  H   LIG d   1       3.751  -2.857  -6.329  0.00  0.00     0.044 H 
ATOM     37  C   LIG d   1       5.728  -1.968  -7.842  0.00  0.00     0.015 C 
ATOM     38  H   LIG d   1       4.873  -1.296  -7.750  0.00  0.00     0.044 H 
ATOM     39  H   LIG d   1       6.640  -1.383  -7.959  0.00  0.00     0.044 H 
ATOM     40  H   LIG d   1       6.436  -3.469  -9.220  0.00  0.00     0.048 H 
ATOM     41  H   LIG d   1       5.348  -2.258  -9.947  0.00  0.00     0.048 H 
ATOM     42  O   LIG d   1       2.455  -4.597  -9.507  0.00  0.00    -0.276 OA
BRANCH  34  43
ATOM     43  C   LIG d   1       6.182  -1.985  -5.464  0.00  0.00    -0.013 C 
ATOM     44  H   LIG d   1       5.693  -1.014  -5.535  0.00  0.00     0.039 H 
ATOM     45  H   LIG d   1       5.851  -2.492  -4.557  0.00  0.00     0.039 H 
ATOM     46  H   LIG d   1       7.262  -1.847  -5.430  0.00  0.00     0.039 H 
ENDBRANCH  34  43
ENDBRANCH  24  27
ENDBRANCH  21  24
ENDBRANCH   1  21
BRANCH  11  47
ATOM     47  N   LIG d   1       2.776  -0.321  -6.135  0.00  0.00     0.233 N 
ATOM     48  H   LIG d   1       2.306  -1.214  -6.120  0.00  0.00     0.202 HD
ATOM     49  H   LIG d   1       3.775  -0.467  -6.122  0.00  0.00     0.202 HD
BRANCH  47  50
ATOM     50  C   LIG d   1       2.380   0.461  -4.956  0.00  0.00    -0.007 C 
ATOM     51  H   LIG d   1       2.592   1.515  -5.131  0.00  0.00     0.087 H 
ATOM     52  H   LIG d   1       1.313   0.329  -4.774  0.00  0.00     0.087 H 
BRANCH  50  53
ATOM     53  C   LIG d   1       3.155  -0.014  -3.755  0.00  0.00    -0.003 A 
ATOM     54  C   LIG d   1       3.848   0.893  -2.976  0.00  0.00    -0.053 A 
ATOM     55  C   LIG d   1       4.556   0.459  -1.870  0.00  0.00    -0.061 A 
ATOM     56  H   LIG d   1       3.834   1.944  -3.229  0.00  0.00     0.062 H 
ATOM     57  C   LIG d   1       4.579  -0.886  -1.550  0.00  0.00    -0.062 A 
ATOM     58  H   LIG d   1       5.093   1.168  -1.259  0.00  0.00     0.062 H 
ATOM     59  C   LIG d   1       3.890  -1.795  -2.332  0.00  0.00    -0.061 A 
ATOM     60  H   LIG d   1       5.133  -1.227  -0.688  0.00  0.00     0.062 H 
ATOM     61  C   LIG d   1       3.179  -1.359  -3.434  0.00  0.00    -0.053 A 
ATOM     62  H   LIG d   1       3.907  -2.845  -2.081  0.00  0.00     0.062 H 
ATOM     63  H   LIG d   1       2.641  -2.069  -4.045  0.00  0.00     0.062 H 
ENDBRANCH  50  53
ENDBRANCH  47  50
ENDBRANCH  11  47
TORSDOF 7
ENDMDL
MODEL 3
REMARK VINA RESULT:      -7.0      1.841      2.417
REMARK  7 active torsions:
REMARK  status: ('A' for Active; 'I' for Inactive)
REMARK    1  A    between atoms: C_1  and  N_2 
REMARK       I    between atoms: N_5  and  C_8 
REMARK    2  A    between atoms: C_8  and  C_10 
REMARK    3  A    between atoms: C_10  and  C_11 
REMARK    4  A    between atoms: C_11  and  C_12 
REMARK    5  A    between atoms: C_22  and  N_25 
REMARK    6  A    between atoms: N_25  and  C_26 
REMARK    7  A    between atoms: C_26  and  C_27 
ROOT
ATOM      1  C   LIG d   1       6.273  -0.869  -8.566  0.00  0.00     0.027 C 
ATOM      2  H   LIG d   1       5.896  -1.807  -8.973  0.00  0.00     0.048 H 
ATOM      3  C   LIG d   1       6.923  -0.040  -9.683  0.00  0.00     0.027 C 
ATOM      4  N   LIG d   1       5.933   0.643 -10.505  0.00  0.00    -0.312 N 
ATOM      5  C   LIG d   1       4.622   0.732 -10.212  0.00  0.00     0.231 C 
ATOM      6  O   LIG d   1       3.885   1.413 -10.894  0.00  0.00    -0.274 OA
ATOM      7  C   LIG d   1       4.084  -0.018  -9.036  0.00  0.00     0.093 C 
ATOM      8  H   LIG d   1       3.772  -1.020  -9.333  0.00  0.00     0.056 H 
ATOM      9  N   LIG d   1       5.174  -0.088  -8.026  0.00  0.00    -0.281 N 
ATOM     10  C   LIG d   1       4.530  -0.522  -6.790  0.00  0.00     0.043 C 
ATOM     11  C   LIG d   1       3.086   0.038  -6.854  0.00  0.00    -0.007 C 
ATOM     12  H   LIG d   1       2.361  -0.770  -6.758  0.00  0.00     0.086 H 
ATOM     13  C   LIG d   1       2.957   0.693  -8.272  0.00  0.00     0.016 C 
ATOM     14  H   LIG d   1       7.584   0.701  -9.235  0.00  0.00     0.048 H 
ATOM     15  H   LIG d   1       7.513  -0.701 -10.317  0.00  0.00     0.048 H 
ATOM     16  H   LIG d   1       6.241   1.066 -11.322  0.00  0.00     0.149 HD
ATOM     17  H   LIG d   1       4.511  -1.610  -6.738  0.00  0.00     0.048 H 
ATOM     18  H   LIG d   1       5.056  -0.112  -5.929  0.00  0.00     0.048 H 
ATOM     19  H   LIG d   1       3.140   1.767  -8.221  0.00  0.00     0.034 H 
ATOM     20  H   LIG d   1       1.987   0.485  -8.724  0.00  0.00     0.034 H 
ENDROOT
BRANCH   1  21
ATOM     21  C   LIG d   1       7.297  -1.154  -7.467  0.00  0.00    -0.028 C 
ATOM     22  H   LIG d   1       7.692  -2.163  -7.591  0.00  0.00     0.029 H 
ATOM     23  H   LIG d   1       6.817  -1.070  -6.492  0.00  0.00     0.029 H 
BRANCH  21  24
ATOM     24  C   LIG d   1       8.442  -0.144  -7.561  0.00  0.00     0.026 C 
ATOM     25  H   LIG d   1       8.335   0.442  -8.474  0.00  0.00     0.036 H 
ATOM     26  H   LIG d   1       9.394  -0.674  -7.577  0.00  0.00     0.036 H 
BRANCH  24  27
ATOM     27  C   LIG d   1       8.399   0.776  -6.367  0.00  0.00     0.216 C 
ATOM     28  N   LIG d   1       9.347   0.685  -5.413  0.00  0.00    -0.299 N 
ATOM     29  C   LIG d   1       9.324   1.573  -4.241  0.00  0.00     0.028 C 
ATOM     30  C   LIG d   1      10.431  -0.303  -5.517  0.00  0.00     0.028 C 
ATOM     31  C   LIG d   1      10.706   2.221  -4.093  0.00  0.00     0.015 C 
ATOM     32  H   LIG d   1       9.095   0.993  -3.346  0.00  0.00     0.048 H 
ATOM     33  H   LIG d   1       8.570   2.348  -4.382  0.00  0.00     0.048 H 
ATOM     34  N   LIG d   1      11.733   1.172  -4.059  0.00  0.00    -0.302 N 
ATOM     35  H   LIG d   1      10.742   2.795  -3.167  0.00  0.00     0.044 H 
ATOM     36  H   LIG d   1      10.889   2.882  -4.940  0.00  0.00     0.044 H 
ATOM     37  C   LIG d   1      11.768   0.418  -5.319  0.00  0.00     0.015 C 
ATOM     38  H   LIG d   1      11.937   1.106  -6.150  0.00  0.00     0.044 H 
ATOM     39  H   LIG d   1      12.575  -0.314  -5.284  0.00  0.00     0.044 H 
ATOM     40  H   LIG d   1      10.308  -1.064  -4.746  0.00  0.00     0.048 H 
ATOM     41  H   LIG d   1      10.408  -0.769  -6.502  0.00  0.00     0.048 H 
ATOM     42  O   LIG d   1       7.512   1.597  -6.266  0.00  0.00    -0.276 OA
BRANCH  34  43
ATOM     43  C   LIG d   1      13.053   1.738  -3.748  0.00  0.00    -0.013 C 
ATOM     44  H   LIG d   1      13.215   2.633  -4.347  0.00  0.00     0.039 H 
ATOM     45  H   LIG d   1      13.097   1.997  -2.689  0.00  0.00     0.039 H 
ATOM     46  H   LIG d   1      13.825   1.003  -3.974  0.00  0.00     0.039 H 
ENDBRANCH  34  43
ENDBRANCH  24  27
ENDBRANCH  21  24
ENDBRANCH   1  21
BRANCH  11  47
ATOM     47  N   LIG d   1       2.879   1.036  -5.797  0.00  0.00     0.233 N 
ATOM     48  H   LIG d   1       3.772   1.325  -5.425  0.00  0.00     0.202 HD
ATOM     49  H   LIG d   1       2.400   1.838  -6.180  0.00  0.00     0.202 HD
BRANCH  47  50
ATOM     50  C   LIG d   1       2.066   0.450  -4.722  0.00  0.00    -0.007 C 
ATOM     51  H   LIG d   1       1.356   1.191  -4.357  0.00  0.00     0.087 H 
ATOM     52  H   LIG d   1       1.525  -0.415  -5.106  0.00  0.00     0.087 H 
BRANCH  50  53
ATOM     53  C   LIG d   1       2.964   0.017  -3.592  0.00  0.00    -0.003 A 
ATOM     54  C   LIG d   1       3.624   0.965  -2.832  0.00  0.00    -0.053 A 
ATOM     55  C   LIG d   1       4.445   0.570  -1.792  0.00  0.00    -0.061 A 
ATOM     56  H   LIG d   1       3.495   2.016  -3.048  0.00  0.00     0.062 H 
ATOM     57  C   LIG d   1       4.614  -0.776  -1.520  0.00  0.00    -0.062 A 
ATOM     58  H   LIG d   1       4.956   1.310  -1.196  0.00  0.00     0.062 H 
ATOM     59  C   LIG d   1       3.959  -1.724  -2.283  0.00  0.00    -0.061 A 
ATOM     60  H   LIG d   1       5.257  -1.086  -0.709  0.00  0.00     0.062 H 
ATOM     61  C   LIG d   1       3.135  -1.327  -3.319  0.00  0.00    -0.053 A 
ATOM     62  H   LIG d   1       4.091  -2.774  -2.070  0.00  0.00     0.062 H 
ATOM     63  H   LIG d   1       2.622  -2.068  -3.916  0.00  0.00     0.062 H 
ENDBRANCH  50  53
ENDBRANCH  47  50
ENDBRANCH  11  47
TORSDOF 7
ENDMDL
MODEL 4
REMARK VINA RESULT:      -7.0      6.001      8.853
REMARK  7 active torsions:
REMARK  status: ('A' for Active; 'I' for Inactive)
REMARK    1  A    between atoms: C_1  and  N_2 
REMARK       I    between atoms: N_5  and  C_8 
REMARK    2  A    between atoms: C_8  and  C_10 
REMARK    3  A    between atoms: C_10  and  C_11 
REMARK    4  A    between atoms: C_11  and  C_12 
REMARK    5  A    between atoms: C_22  and  N_25 
REMARK    6  A    between atoms: N_25  and  C_26 
REMARK    7  A    between atoms: C_26  and  C_27 
ROOT
ATOM      1  C   LIG d   1      10.395   5.264  -3.783  0.00  0.00     0.027 C 
ATOM      2  H   LIG d   1      11.428   4.941  -3.914  0.00  0.00     0.048 H 
ATOM      3  C   LIG d   1      10.184   6.625  -4.461  0.00  0.00     0.027 C 
ATOM      4  N   LIG d   1      10.026   6.499  -5.904  0.00  0.00    -0.312 N 
ATOM      5  C   LIG d   1       9.862   5.335  -6.559  0.00  0.00     0.231 C 
ATOM      6  O   LIG d   1       9.627   5.328  -7.749  0.00  0.00    -0.274 OA
ATOM      7  C   LIG d   1       9.971   4.050  -5.803  0.00  0.00     0.093 C 
ATOM      8  H   LIG d   1      11.003   3.699  -5.794  0.00  0.00     0.056 H 
ATOM      9  N   LIG d   1       9.498   4.316  -4.418  0.00  0.00    -0.281 N 
ATOM     10  C   LIG d   1       9.305   3.001  -3.815  0.00  0.00     0.043 C 
ATOM     11  C   LIG d   1       8.907   2.061  -4.982  0.00  0.00    -0.007 C 
ATOM     12  H   LIG d   1       9.598   1.220  -5.044  0.00  0.00     0.086 H 
ATOM     13  C   LIG d   1       9.026   2.935  -6.277  0.00  0.00     0.016 C 
ATOM     14  H   LIG d   1       9.292   7.093  -4.046  0.00  0.00     0.048 H 
ATOM     15  H   LIG d   1      11.044   7.261  -4.253  0.00  0.00     0.048 H 
ATOM     16  H   LIG d   1      10.040   7.314  -6.430  0.00  0.00     0.149 HD
ATOM     17  H   LIG d   1      10.232   2.659  -3.355  0.00  0.00     0.048 H 
ATOM     18  H   LIG d   1       8.508   3.040  -3.074  0.00  0.00     0.048 H 
ATOM     19  H   LIG d   1       8.056   3.342  -6.560  0.00  0.00     0.034 H 
ATOM     20  H   LIG d   1       9.468   2.374  -7.102  0.00  0.00     0.034 H 
ENDROOT
BRANCH   1  21
ATOM     21  C   LIG d   1      10.070   5.369  -2.292  0.00  0.00    -0.028 C 
ATOM     22  H   LIG d   1      10.976   5.197  -1.709  0.00  0.00     0.029 H 
ATOM     23  H   LIG d   1       9.321   4.621  -2.030  0.00  0.00     0.029 H 
BRANCH  21  24
ATOM     24  C   LIG d   1       9.525   6.765  -1.986  0.00  0.00     0.026 C 
ATOM     25  H   LIG d   1       8.450   6.707  -1.816  0.00  0.00     0.036 H 
ATOM     26  H   LIG d   1       9.725   7.426  -2.830  0.00  0.00     0.036 H 
BRANCH  24  27
ATOM     27  C   LIG d   1      10.199   7.309  -0.752  0.00  0.00     0.216 C 
ATOM     28  N   LIG d   1      10.739   8.543  -0.767  0.00  0.00    -0.299 N 
ATOM     29  C   LIG d   1      11.401   9.092   0.426  0.00  0.00     0.028 C 
ATOM     30  C   LIG d   1      10.683   9.377  -1.978  0.00  0.00     0.028 C 
ATOM     31  C   LIG d   1      10.816  10.479   0.713  0.00  0.00     0.015 C 
ATOM     32  H   LIG d   1      12.473   9.178   0.244  0.00  0.00     0.048 H 
ATOM     33  H   LIG d   1      11.224   8.436   1.278  0.00  0.00     0.048 H 
ATOM     34  N   LIG d   1      10.920  11.310  -0.493  0.00  0.00    -0.302 N 
ATOM     35  H   LIG d   1      11.370  10.947   1.527  0.00  0.00     0.044 H 
ATOM     36  H   LIG d   1       9.768  10.379   0.997  0.00  0.00     0.044 H 
ATOM     37  C   LIG d   1      10.126  10.752  -1.596  0.00  0.00     0.015 C 
ATOM     38  H   LIG d   1       9.087  10.648  -1.279  0.00  0.00     0.044 H 
ATOM     39  H   LIG d   1      10.179  11.418  -2.457  0.00  0.00     0.044 H 
ATOM     40  H   LIG d   1      11.685   9.490  -2.392  0.00  0.00     0.048 H 
ATOM     41  H   LIG d   1      10.031   8.909  -2.714  0.00  0.00     0.048 H 
ATOM     42  O   LIG d   1      10.255   6.634   0.255  0.00  0.00    -0.276 OA
BRANCH  34  43
ATOM     43  C   LIG d   1      10.527  12.698  -0.212  0.00  0.00    -0.013 C 
ATOM     44  H   LIG d   1       9.775  13.016  -0.933  0.00  0.00     0.039 H 
ATOM     45  H   LIG d   1      10.114  12.762   0.795  0.00  0.00     0.039 H 
ATOM     46  H   LIG d   1      11.401  13.344  -0.287  0.00  0.00     0.039 H 
ENDBRANCH  34  43
ENDBRANCH  24  27
ENDBRANCH  21  24
ENDBRANCH   1  21
BRANCH  11  47
ATOM     47  N   LIG d   1       7.532   1.579  -4.802  0.00  0.00     0.233 N 
ATOM     48  H   LIG d   1       7.044   2.182  -4.156  0.00  0.00     0.202 HD
ATOM     49  H   LIG d   1       7.055   1.583  -5.691  0.00  0.00     0.202 HD
BRANCH  47  50
ATOM     50  C   LIG d   1       7.559   0.209  -4.268  0.00  0.00    -0.007 C 
ATOM     51  H   LIG d   1       7.548  -0.502  -5.092  0.00  0.00     0.087 H 
ATOM     52  H   LIG d   1       8.464   0.068  -3.677  0.00  0.00     0.087 H 
BRANCH  50  53
ATOM     53  C   LIG d   1       6.351  -0.013  -3.396  0.00  0.00    -0.003 A 
ATOM     54  C   LIG d   1       5.696   1.067  -2.834  0.00  0.00    -0.053 A 
ATOM     55  C   LIG d   1       4.585   0.864  -2.036  0.00  0.00    -0.061 A 
ATOM     56  H   LIG d   1       6.051   2.070  -3.020  0.00  0.00     0.062 H 
ATOM     57  C   LIG d   1       4.135  -0.421  -1.793  0.00  0.00    -0.062 A 
ATOM     58  H   LIG d   1       4.070   1.708  -1.601  0.00  0.00     0.062 H 
ATOM     59  C   LIG d   1       4.792  -1.501  -2.351  0.00  0.00    -0.061 A 
ATOM     60  H   LIG d   1       3.268  -0.580  -1.169  0.00  0.00     0.062 H 
ATOM     61  C   LIG d   1       5.901  -1.297  -3.151  0.00  0.00    -0.053 A 
ATOM     62  H   LIG d   1       4.441  -2.504  -2.161  0.00  0.00     0.062 H 
ATOM     63  H   LIG d   1       6.414  -2.142  -3.588  0.00  0.00     0.062 H 
ENDBRANCH  50  53
ENDBRANCH  47  50
ENDBRANCH  11  47
TORSDOF 7
ENDMDL
MODEL 5
REMARK VINA RESULT:      -6.8      4.297      7.138
REMARK  7 active torsions:
REMARK  status: ('A' for Active; 'I' for Inactive)
REMARK    1  A    between atoms: C_1  and  N_2 
REMARK       I    between atoms: N_5  and  C_8 
REMARK    2  A    between atoms: C_8  and  C_10 
REMARK    3  A    between atoms: C_10  and  C_11 
REMARK    4  A    between atoms: C_11  and  C_12 
REMARK    5  A    between atoms: C_22  and  N_25 
REMARK    6  A    between atoms: N_25  and  C_26 
REMARK    7  A    between atoms: C_26  and  C_27 
ROOT
ATOM      1  C   LIG d   1       2.535  -0.460 -11.041  0.00  0.00     0.027 C 
ATOM      2  H   LIG d   1       2.330   0.549 -11.400  0.00  0.00     0.048 H 
ATOM      3  C   LIG d   1       3.619  -1.113 -11.911  0.00  0.00     0.027 C 
ATOM      4  N   LIG d   1       4.955  -0.651 -11.559  0.00  0.00    -0.312 N 
ATOM      5  C   LIG d   1       5.250   0.086 -10.472  0.00  0.00     0.231 C 
ATOM      6  O   LIG d   1       6.405   0.336 -10.195  0.00  0.00    -0.274 OA
ATOM      7  C   LIG d   1       4.140   0.593  -9.609  0.00  0.00     0.093 C 
ATOM      8  H   LIG d   1       3.797   1.566  -9.961  0.00  0.00     0.056 H 
ATOM      9  N   LIG d   1       3.040  -0.406  -9.681  0.00  0.00    -0.281 N 
ATOM     10  C   LIG d   1       2.129  -0.058  -8.595  0.00  0.00     0.043 C 
ATOM     11  C   LIG d   1       3.018   0.562  -7.486  0.00  0.00    -0.007 C 
ATOM     12  H   LIG d   1       2.671   1.564  -7.238  0.00  0.00     0.086 H 
ATOM     13  C   LIG d   1       4.456   0.643  -8.106  0.00  0.00     0.016 C 
ATOM     14  H   LIG d   1       3.572  -2.194 -11.781  0.00  0.00     0.048 H 
ATOM     15  H   LIG d   1       3.426  -0.874 -12.956  0.00  0.00     0.048 H 
ATOM     16  H   LIG d   1       5.685  -0.892 -12.151  0.00  0.00     0.149 HD
ATOM     17  H   LIG d   1       1.394   0.669  -8.939  0.00  0.00     0.048 H 
ATOM     18  H   LIG d   1       1.630  -0.952  -8.222  0.00  0.00     0.048 H 
ATOM     19  H   LIG d   1       5.057  -0.216  -7.806  0.00  0.00     0.034 H 
ATOM     20  H   LIG d   1       4.955   1.577  -7.844  0.00  0.00     0.034 H 
ENDROOT
BRANCH   1  21
ATOM     21  C   LIG d   1       1.255  -1.297 -11.088  0.00  0.00    -0.028 C 
ATOM     22  H   LIG d   1       0.406  -0.650 -11.310  0.00  0.00     0.029 H 
ATOM     23  H   LIG d   1       1.102  -1.780 -10.123  0.00  0.00     0.029 H 
BRANCH  21  24
ATOM     24  C   LIG d   1       1.383  -2.363 -12.178  0.00  0.00     0.026 C 
ATOM     25  H   LIG d   1       1.835  -3.261 -11.757  0.00  0.00     0.036 H 
ATOM     26  H   LIG d   1       2.011  -1.984 -12.985  0.00  0.00     0.036 H 
BRANCH  24  27
ATOM     27  C   LIG d   1       0.016  -2.695 -12.718  0.00  0.00     0.216 C 
ATOM     28  N   LIG d   1      -0.622  -3.806 -12.300  0.00  0.00    -0.299 N 
ATOM     29  C   LIG d   1      -1.956  -4.149 -12.815  0.00  0.00     0.028 C 
ATOM     30  C   LIG d   1      -0.002  -4.709 -11.318  0.00  0.00     0.028 C 
ATOM     31  C   LIG d   1      -2.882  -4.423 -11.624  0.00  0.00     0.015 C 
ATOM     32  H   LIG d   1      -1.891  -5.040 -13.440  0.00  0.00     0.048 H 
ATOM     33  H   LIG d   1      -2.349  -3.317 -13.400  0.00  0.00     0.048 H 
ATOM     34  N   LIG d   1      -2.270  -5.438 -10.756  0.00  0.00    -0.302 N 
ATOM     35  H   LIG d   1      -3.844  -4.785 -11.987  0.00  0.00     0.044 H 
ATOM     36  H   LIG d   1      -3.028  -3.502 -11.059  0.00  0.00     0.044 H 
ATOM     37  C   LIG d   1      -1.004  -4.960 -10.187  0.00  0.00     0.015 C 
ATOM     38  H   LIG d   1      -1.177  -4.031  -9.642  0.00  0.00     0.044 H 
ATOM     39  H   LIG d   1      -0.604  -5.712  -9.507  0.00  0.00     0.044 H 
ATOM     40  H   LIG d   1       0.253  -5.654 -11.799  0.00  0.00     0.048 H 
ATOM     41  H   LIG d   1       0.899  -4.247 -10.915  0.00  0.00     0.048 H 
ATOM     42  O   LIG d   1      -0.510  -1.962 -13.528  0.00  0.00    -0.276 OA
BRANCH  34  43
ATOM     43  C   LIG d   1      -3.200  -5.853  -9.697  0.00  0.00    -0.013 C 
ATOM     44  H   LIG d   1      -3.316  -5.044  -8.977  0.00  0.00     0.039 H 
ATOM     45  H   LIG d   1      -4.170  -6.090 -10.136  0.00  0.00     0.039 H 
ATOM     46  H   LIG d   1      -2.805  -6.735  -9.193  0.00  0.00     0.039 H 
ENDBRANCH  34  43
ENDBRANCH  24  27
ENDBRANCH  21  24
ENDBRANCH   1  21
BRANCH  11  47
ATOM     47  N   LIG d   1       3.013  -0.291  -6.291  0.00  0.00     0.233 N 
ATOM     48  H   LIG d   1       2.472  -1.123  -6.473  0.00  0.00     0.202 HD
ATOM     49  H   LIG d   1       3.960  -0.550  -6.059  0.00  0.00     0.202 HD
BRANCH  47  50
ATOM     50  C   LIG d   1       2.418   0.445  -5.167  0.00  0.00    -0.007 C 
ATOM     51  H   LIG d   1       2.499   1.516  -5.350  0.00  0.00     0.087 H 
ATOM     52  H   LIG d   1       1.367   0.171  -5.070  0.00  0.00     0.087 H 
BRANCH  50  53
ATOM     53  C   LIG d   1       3.146   0.096  -3.896  0.00  0.00    -0.003 A 
ATOM     54  C   LIG d   1       3.682   1.098  -3.109  0.00  0.00    -0.053 A 
ATOM     55  C   LIG d   1       4.347   0.779  -1.939  0.00  0.00    -0.061 A 
ATOM     56  H   LIG d   1       3.579   2.131  -3.405  0.00  0.00     0.062 H 
ATOM     57  C   LIG d   1       4.484  -0.545  -1.562  0.00  0.00    -0.062 A 
ATOM     58  H   LIG d   1       4.761   1.562  -1.322  0.00  0.00     0.062 H 
ATOM     59  C   LIG d   1       3.953  -1.547  -2.351  0.00  0.00    -0.061 A 
ATOM     60  H   LIG d   1       5.005  -0.795  -0.649  0.00  0.00     0.062 H 
ATOM     61  C   LIG d   1       3.284  -1.227  -3.518  0.00  0.00    -0.053 A 
ATOM     62  H   LIG d   1       4.059  -2.580  -2.057  0.00  0.00     0.062 H 
ATOM     63  H   LIG d   1       2.869  -2.011  -4.135  0.00  0.00     0.062 H 
ENDBRANCH  50  53
ENDBRANCH  47  50
ENDBRANCH  11  47
TORSDOF 7
ENDMDL
MODEL 6
REMARK VINA RESULT:      -6.8      5.949      7.785
REMARK  7 active torsions:
REMARK  status: ('A' for Active; 'I' for Inactive)
REMARK    1  A    between atoms: C_1  and  N_2 
REMARK       I    between atoms: N_5  and  C_8 
REMARK    2  A    between atoms: C_8  and  C_10 
REMARK    3  A    between atoms: C_10  and  C_11 
REMARK    4  A    between atoms: C_11  and  C_12 
REMARK    5  A    between atoms: C_22  and  N_25 
REMARK    6  A    between atoms: N_25  and  C_26 
REMARK    7  A    between atoms: C_26  and  C_27 
ROOT
ATOM      1  C   LIG d   1       6.302  -6.799  -6.066  0.00  0.00     0.027 C 
ATOM      2  H   LIG d   1       6.690  -6.628  -7.071  0.00  0.00     0.048 H 
ATOM      3  C   LIG d   1       7.408  -7.376  -5.171  0.00  0.00     0.027 C 
ATOM      4  N   LIG d   1       8.327  -6.346  -4.705  0.00  0.00    -0.312 N 
ATOM      5  C   LIG d   1       8.131  -5.022  -4.846  0.00  0.00     0.231 C 
ATOM      6  O   LIG d   1       8.894  -4.231  -4.332  0.00  0.00    -0.274 OA
ATOM      7  C   LIG d   1       6.963  -4.537  -5.642  0.00  0.00     0.093 C 
ATOM      8  H   LIG d   1       7.234  -4.432  -6.693  0.00  0.00     0.056 H 
ATOM      9  N   LIG d   1       5.877  -5.541  -5.481  0.00  0.00    -0.281 N 
ATOM     10  C   LIG d   1       4.671  -4.891  -5.982  0.00  0.00     0.043 C 
ATOM     11  C   LIG d   1       4.861  -3.379  -5.696  0.00  0.00    -0.007 C 
ATOM     12  H   LIG d   1       4.779  -2.805  -6.618  0.00  0.00     0.086 H 
ATOM     13  C   LIG d   1       6.313  -3.246  -5.121  0.00  0.00     0.016 C 
ATOM     14  H   LIG d   1       6.949  -7.858  -4.308  0.00  0.00     0.048 H 
ATOM     15  H   LIG d   1       7.967  -8.121  -5.735  0.00  0.00     0.048 H 
ATOM     16  H   LIG d   1       9.140  -6.636  -4.262  0.00  0.00     0.149 HD
ATOM     17  H   LIG d   1       4.570  -5.061  -7.054  0.00  0.00     0.048 H 
ATOM     18  H   LIG d   1       3.794  -5.267  -5.456  0.00  0.00     0.048 H 
ATOM     19  H   LIG d   1       6.299  -3.230  -4.031  0.00  0.00     0.034 H 
ATOM     20  H   LIG d   1       6.823  -2.366  -5.516  0.00  0.00     0.034 H 
ENDROOT
BRANCH   1  21
ATOM     21  C   LIG d   1       5.121  -7.770  -6.126  0.00  0.00    -0.028 C 
ATOM     22  H   LIG d   1       4.660  -7.722  -7.113  0.00  0.00     0.029 H 
ATOM     23  H   LIG d   1       4.387  -7.496  -5.368  0.00  0.00     0.029 H 
BRANCH  21  24
ATOM     24  C   LIG d   1       5.618  -9.193  -5.864  0.00  0.00     0.026 C 
ATOM     25  H   LIG d   1       6.702  -9.186  -5.755  0.00  0.00     0.036 H 
ATOM     26  H   LIG d   1       5.341  -9.834  -6.702  0.00  0.00     0.036 H 
BRANCH  24  27
ATOM     27  C   LIG d   1       4.989  -9.720  -4.600  0.00  0.00     0.216 C 
ATOM     28  N   LIG d   1       5.677 -10.564  -3.806  0.00  0.00    -0.299 N 
ATOM     29  C   LIG d   1       5.082 -11.089  -2.568  0.00  0.00     0.028 C 
ATOM     30  C   LIG d   1       7.042 -10.985  -4.155  0.00  0.00     0.028 C 
ATOM     31  C   LIG d   1       6.066 -10.853  -1.416  0.00  0.00     0.015 C 
ATOM     32  H   LIG d   1       4.895 -12.158  -2.675  0.00  0.00     0.048 H 
ATOM     33  H   LIG d   1       4.146 -10.570  -2.362  0.00  0.00     0.048 H 
ATOM     34  N   LIG d   1       7.372 -11.423  -1.769  0.00  0.00    -0.302 N 
ATOM     35  H   LIG d   1       5.691 -11.334  -0.512  0.00  0.00     0.044 H 
ATOM     36  H   LIG d   1       6.171  -9.782  -1.243  0.00  0.00     0.044 H 
ATOM     37  C   LIG d   1       7.948 -10.752  -2.941  0.00  0.00     0.015 C 
ATOM     38  H   LIG d   1       8.027  -9.682  -2.746  0.00  0.00     0.044 H 
ATOM     39  H   LIG d   1       8.939 -11.160  -3.144  0.00  0.00     0.044 H 
ATOM     40  H   LIG d   1       7.044 -12.043  -4.416  0.00  0.00     0.048 H 
ATOM     41  H   LIG d   1       7.402 -10.396  -4.999  0.00  0.00     0.048 H 
ATOM     42  O   LIG d   1       3.863  -9.383  -4.297  0.00  0.00    -0.276 OA
BRANCH  34  43
ATOM     43  C   LIG d   1       8.295 -11.370  -0.626  0.00  0.00    -0.013 C 
ATOM     44  H   LIG d   1       8.499 -10.331  -0.371  0.00  0.00     0.039 H 
ATOM     45  H   LIG d   1       7.843 -11.872   0.230  0.00  0.00     0.039 H 
ATOM     46  H   LIG d   1       9.227 -11.870  -0.889  0.00  0.00     0.039 H 
ENDBRANCH  34  43
ENDBRANCH  24  27
ENDBRANCH  21  24
ENDBRANCH   1  21
BRANCH  11  47
ATOM     47  N   LIG d   1       3.868  -2.917  -4.717  0.00  0.00     0.233 N 
ATOM     48  H   LIG d   1       3.381  -2.112  -5.084  0.00  0.00     0.202 HD
ATOM     49  H   LIG d   1       3.206  -3.656  -4.534  0.00  0.00     0.202 HD
BRANCH  47  50
ATOM     50  C   LIG d   1       4.548  -2.549  -3.467  0.00  0.00    -0.007 C 
ATOM     51  H   LIG d   1       4.210  -3.201  -2.664  0.00  0.00     0.087 H 
ATOM     52  H   LIG d   1       5.626  -2.657  -3.595  0.00  0.00     0.087 H 
BRANCH  50  53
ATOM     53  C   LIG d   1       4.226  -1.118  -3.122  0.00  0.00    -0.003 A 
ATOM     54  C   LIG d   1       3.424  -0.369  -3.963  0.00  0.00    -0.053 A 
ATOM     55  C   LIG d   1       3.123   0.943  -3.645  0.00  0.00    -0.061 A 
ATOM     56  H   LIG d   1       3.029  -0.809  -4.867  0.00  0.00     0.062 H 
ATOM     57  C   LIG d   1       3.634   1.508  -2.491  0.00  0.00    -0.062 A 
ATOM     58  H   LIG d   1       2.493   1.527  -4.299  0.00  0.00     0.062 H 
ATOM     59  C   LIG d   1       4.440   0.761  -1.653  0.00  0.00    -0.061 A 
ATOM     60  H   LIG d   1       3.401   2.534  -2.243  0.00  0.00     0.062 H 
ATOM     61  C   LIG d   1       4.736  -0.552  -1.969  0.00  0.00    -0.053 A 
ATOM     62  H   LIG d   1       4.838   1.202  -0.751  0.00  0.00     0.062 H 
ATOM     63  H   LIG d   1       5.366  -1.136  -1.314  0.00  0.00     0.062 H 
ENDBRANCH  50  53
ENDBRANCH  47  50
ENDBRANCH  11  47
TORSDOF 7
ENDMDL
MODEL 7
REMARK VINA RESULT:      -6.7      2.165      3.057
REMARK  7 active torsions:
REMARK  status: ('A' for Active; 'I' for Inactive)
REMARK    1  A    between atoms: C_1  and  N_2 
REMARK       I    between atoms: N_5  and  C_8 
REMARK    2  A    between atoms: C_8  and  C_10 
REMARK    3  A    between atoms: C_10  and  C_11 
REMARK    4  A    between atoms: C_11  and  C_12 
REMARK    5  A    between atoms: C_22  and  N_25 
REMARK    6  A    between atoms: N_25  and  C_26 
REMARK    7  A    between atoms: C_26  and  C_27 
ROOT
ATOM      1  C   LIG d   1       6.280   0.907  -9.088  0.00  0.00     0.027 C 
ATOM      2  H   LIG d   1       6.156   0.494 -10.089  0.00  0.00     0.048 H 
ATOM      3  C   LIG d   1       5.960   2.409  -9.100  0.00  0.00     0.027 C 
ATOM      4  N   LIG d   1       4.525   2.662  -9.092  0.00  0.00    -0.312 N 
ATOM      5  C   LIG d   1       3.582   1.726  -8.880  0.00  0.00     0.231 C 
ATOM      6  O   LIG d   1       2.415   2.041  -8.781  0.00  0.00    -0.274 OA
ATOM      7  C   LIG d   1       3.989   0.292  -8.766  0.00  0.00     0.093 C 
ATOM      8  H   LIG d   1       3.991  -0.183  -9.748  0.00  0.00     0.056 H 
ATOM      9  N   LIG d   1       5.352   0.270  -8.172  0.00  0.00    -0.281 N 
ATOM     10  C   LIG d   1       5.579  -1.116  -7.775  0.00  0.00     0.043 C 
ATOM     11  C   LIG d   1       4.182  -1.681  -7.412  0.00  0.00    -0.007 C 
ATOM     12  H   LIG d   1       3.962  -2.564  -8.012  0.00  0.00     0.086 H 
ATOM     13  C   LIG d   1       3.168  -0.539  -7.768  0.00  0.00     0.016 C 
ATOM     14  H   LIG d   1       6.407   2.873  -8.221  0.00  0.00     0.048 H 
ATOM     15  H   LIG d   1       6.393   2.856  -9.994  0.00  0.00     0.048 H 
ATOM     16  H   LIG d   1       4.228   3.572  -9.251  0.00  0.00     0.149 HD
ATOM     17  H   LIG d   1       6.010  -1.679  -8.603  0.00  0.00     0.048 H 
ATOM     18  H   LIG d   1       6.238  -1.155  -6.908  0.00  0.00     0.048 H 
ATOM     19  H   LIG d   1       2.921   0.049  -6.884  0.00  0.00     0.034 H 
ATOM     20  H   LIG d   1       2.267  -0.934  -8.237  0.00  0.00     0.034 H 
ENDROOT
BRANCH   1  21
ATOM     21  C   LIG d   1       7.717   0.686  -8.610  0.00  0.00    -0.028 C 
ATOM     22  H   LIG d   1       8.377   0.598  -9.474  0.00  0.00     0.029 H 
ATOM     23  H   LIG d   1       7.766  -0.230  -8.021  0.00  0.00     0.029 H 
BRANCH  21  24
ATOM     24  C   LIG d   1       8.157   1.871  -7.750  0.00  0.00     0.026 C 
ATOM     25  H   LIG d   1       7.310   2.540  -7.592  0.00  0.00     0.036 H 
ATOM     26  H   LIG d   1       8.957   2.411  -8.256  0.00  0.00     0.036 H 
BRANCH  24  27
ATOM     27  C   LIG d   1       8.654   1.368  -6.419  0.00  0.00     0.216 C 
ATOM     28  N   LIG d   1       9.434   2.154  -5.651  0.00  0.00    -0.299 N 
ATOM     29  C   LIG d   1       9.931   1.682  -4.349  0.00  0.00     0.028 C 
ATOM     30  C   LIG d   1       9.813   3.505  -6.092  0.00  0.00     0.028 C 
ATOM     31  C   LIG d   1       9.605   2.743  -3.290  0.00  0.00     0.015 C 
ATOM     32  H   LIG d   1      11.010   1.535  -4.399  0.00  0.00     0.048 H 
ATOM     33  H   LIG d   1       9.442   0.743  -4.088  0.00  0.00     0.048 H 
ATOM     34  N   LIG d   1      10.135   4.042  -3.725  0.00  0.00    -0.302 N 
ATOM     35  H   LIG d   1      10.062   2.462  -2.341  0.00  0.00     0.044 H 
ATOM     36  H   LIG d   1       8.524   2.813  -3.168  0.00  0.00     0.044 H 
ATOM     37  C   LIG d   1       9.492   4.493  -4.965  0.00  0.00     0.015 C 
ATOM     38  H   LIG d   1       8.412   4.539  -4.819  0.00  0.00     0.044 H 
ATOM     39  H   LIG d   1       9.866   5.481  -5.231  0.00  0.00     0.044 H 
ATOM     40  H   LIG d   1      10.880   3.534  -6.310  0.00  0.00     0.048 H 
ATOM     41  H   LIG d   1       9.247   3.770  -6.984  0.00  0.00     0.048 H 
ATOM     42  O   LIG d   1       8.352   0.256  -6.040  0.00  0.00    -0.276 OA
BRANCH  34  43
ATOM     43  C   LIG d   1       9.995   5.048  -2.663  0.00  0.00    -0.013 C 
ATOM     44  H   LIG d   1      10.983   5.366  -2.331  0.00  0.00     0.039 H 
ATOM     45  H   LIG d   1       9.447   5.909  -3.048  0.00  0.00     0.039 H 
ATOM     46  H   LIG d   1       9.450   4.617  -1.824  0.00  0.00     0.039 H 
ENDBRANCH  34  43
ENDBRANCH  24  27
ENDBRANCH  21  24
ENDBRANCH   1  21
BRANCH  11  47
ATOM     47  N   LIG d   1       4.118  -2.008  -5.982  0.00  0.00     0.233 N 
ATOM     48  H   LIG d   1       3.285  -1.606  -5.580  0.00  0.00     0.202 HD
ATOM     49  H   LIG d   1       4.098  -3.010  -5.867  0.00  0.00     0.202 HD
BRANCH  47  50
ATOM     50  C   LIG d   1       5.302  -1.462  -5.303  0.00  0.00    -0.007 C 
ATOM     51  H   LIG d   1       5.909  -2.280  -4.917  0.00  0.00     0.087 H 
ATOM     52  H   LIG d   1       5.888  -0.875  -6.010  0.00  0.00     0.087 H 
BRANCH  50  53
ATOM     53  C   LIG d   1       4.864  -0.581  -4.162  0.00  0.00    -0.003 A 
ATOM     54  C   LIG d   1       3.564  -0.646  -3.699  0.00  0.00    -0.053 A 
ATOM     55  C   LIG d   1       3.162   0.160  -2.649  0.00  0.00    -0.061 A 
ATOM     56  H   LIG d   1       2.861  -1.328  -4.154  0.00  0.00     0.062 H 
ATOM     57  C   LIG d   1       4.060   1.037  -2.069  0.00  0.00    -0.062 A 
ATOM     58  H   LIG d   1       2.147   0.106  -2.283  0.00  0.00     0.062 H 
ATOM     59  C   LIG d   1       5.359   1.106  -2.536  0.00  0.00    -0.061 A 
ATOM     60  H   LIG d   1       3.746   1.668  -1.250  0.00  0.00     0.062 H 
ATOM     61  C   LIG d   1       5.761   0.298  -3.582  0.00  0.00    -0.053 A 
ATOM     62  H   LIG d   1       6.060   1.791  -2.083  0.00  0.00     0.062 H 
ATOM     63  H   LIG d   1       6.776   0.351  -3.947  0.00  0.00     0.062 H 
ENDBRANCH  50  53
ENDBRANCH  47  50
ENDBRANCH  11  47
TORSDOF 7
ENDMDL
MODEL 8
REMARK VINA RESULT:      -6.5      4.620      6.950
REMARK  7 active torsions:
REMARK  status: ('A' for Active; 'I' for Inactive)
REMARK    1  A    between atoms: C_1  and  N_2 
REMARK       I    between atoms: N_5  and  C_8 
REMARK    2  A    between atoms: C_8  and  C_10 
REMARK    3  A    between atoms: C_10  and  C_11 
REMARK    4  A    between atoms: C_11  and  C_12 
REMARK    5  A    between atoms: C_22  and  N_25 
REMARK    6  A    between atoms: N_25  and  C_26 
REMARK    7  A    between atoms: C_26  and  C_27 
ROOT
ATOM      1  C   LIG d   1      10.784   3.727  -6.521  0.00  0.00     0.027 C 
ATOM      2  H   LIG d   1      11.515   3.105  -7.038  0.00  0.00     0.048 H 
ATOM      3  C   LIG d   1      10.629   5.068  -7.252  0.00  0.00     0.027 C 
ATOM      4  N   LIG d   1       9.784   4.952  -8.434  0.00  0.00    -0.312 N 
ATOM      5  C   LIG d   1       9.044   3.872  -8.745  0.00  0.00     0.231 C 
ATOM      6  O   LIG d   1       8.284   3.900  -9.691  0.00  0.00    -0.274 OA
ATOM      7  C   LIG d   1       9.169   2.637  -7.913  0.00  0.00     0.093 C 
ATOM      8  H   LIG d   1       9.958   1.993  -8.302  0.00  0.00     0.056 H 
ATOM      9  N   LIG d   1       9.487   3.073  -6.527  0.00  0.00    -0.281 N 
ATOM     10  C   LIG d   1       9.278   1.896  -5.692  0.00  0.00     0.043 C 
ATOM     11  C   LIG d   1       8.156   1.083  -6.389  0.00  0.00    -0.007 C 
ATOM     12  H   LIG d   1       8.499   0.073  -6.608  0.00  0.00     0.086 H 
ATOM     13  C   LIG d   1       7.867   1.843  -7.730  0.00  0.00     0.016 C 
ATOM     14  H   LIG d   1      10.186   5.794  -6.571  0.00  0.00     0.048 H 
ATOM     15  H   LIG d   1      11.613   5.423  -7.554  0.00  0.00     0.048 H 
ATOM     16  H   LIG d   1       9.753   5.709  -9.040  0.00  0.00     0.149 HD
ATOM     17  H   LIG d   1      10.192   1.305  -5.638  0.00  0.00     0.048 H 
ATOM     18  H   LIG d   1       8.962   2.195  -4.693  0.00  0.00     0.048 H 
ATOM     19  H   LIG d   1       7.015   2.514  -7.619  0.00  0.00     0.034 H 
ATOM     20  H   LIG d   1       7.711   1.151  -8.558  0.00  0.00     0.034 H 
ENDROOT
BRANCH   1  21
ATOM     21  C   LIG d   1      11.237   3.970  -5.080  0.00  0.00    -0.028 C 
ATOM     22  H   LIG d   1      12.300   3.748  -4.991  0.00  0.00     0.029 H 
ATOM     23  H   LIG d   1      10.672   3.322  -4.408  0.00  0.00     0.029 H 
BRANCH  21  24
ATOM     24  C   LIG d   1      10.988   5.432  -4.707  0.00  0.00     0.026 C 
ATOM     25  H   LIG d   1      10.286   5.874  -5.415  0.00  0.00     0.036 H 
ATOM     26  H   LIG d   1      11.930   5.981  -4.738  0.00  0.00     0.036 H 
BRANCH  24  27
ATOM     27  C   LIG d   1      10.410   5.505  -3.316  0.00  0.00     0.216 C 
ATOM     28  N   LIG d   1      10.607   6.604  -2.561  0.00  0.00    -0.299 N 
ATOM     29  C   LIG d   1      10.053   6.695  -1.202  0.00  0.00     0.028 C 
ATOM     30  C   LIG d   1      11.383   7.743  -3.074  0.00  0.00     0.028 C 
ATOM     31  C   LIG d   1       9.282   8.014  -1.078  0.00  0.00     0.015 C 
ATOM     32  H   LIG d   1      10.863   6.674  -0.473  0.00  0.00     0.048 H 
ATOM     33  H   LIG d   1       9.376   5.858  -1.025  0.00  0.00     0.048 H 
ATOM     34  N   LIG d   1      10.158   9.127  -1.468  0.00  0.00    -0.302 N 
ATOM     35  H   LIG d   1       8.958   8.150  -0.046  0.00  0.00     0.044 H 
ATOM     36  H   LIG d   1       8.412   7.989  -1.734  0.00  0.00     0.044 H 
ATOM     37  C   LIG d   1      10.561   9.020  -2.876  0.00  0.00     0.015 C 
ATOM     38  H   LIG d   1       9.671   8.982  -3.507  0.00  0.00     0.044 H 
ATOM     39  H   LIG d   1      11.163   9.887  -3.149  0.00  0.00     0.044 H 
ATOM     40  H   LIG d   1      12.322   7.824  -2.526  0.00  0.00     0.048 H 
ATOM     41  H   LIG d   1      11.587   7.599  -4.135  0.00  0.00     0.048 H 
ATOM     42  O   LIG d   1       9.768   4.574  -2.878  0.00  0.00    -0.276 OA
BRANCH  34  43
ATOM     43  C   LIG d   1       9.515  10.421  -1.201  0.00  0.00    -0.013 C 
ATOM     44  H   LIG d   1       9.875  10.816  -0.251  0.00  0.00     0.039 H 
ATOM     45  H   LIG d   1       9.760  11.120  -2.001  0.00  0.00     0.039 H 
ATOM     46  H   LIG d   1       8.435  10.286  -1.153  0.00  0.00     0.039 H 
ENDBRANCH  34  43
ENDBRANCH  24  27
ENDBRANCH  21  24
ENDBRANCH   1  21
BRANCH  11  47
ATOM     47  N   LIG d   1       6.956   1.042  -5.543  0.00  0.00     0.233 N 
ATOM     48  H   LIG d   1       6.394   1.863  -5.713  0.00  0.00     0.202 HD
ATOM     49  H   LIG d   1       6.419   0.216  -5.762  0.00  0.00     0.202 HD
BRANCH  47  50
ATOM     50  C   LIG d   1       7.354   1.005  -4.129  0.00  0.00    -0.007 C 
ATOM     51  H   LIG d   1       8.267   0.421  -4.024  0.00  0.00     0.087 H 
ATOM     52  H   LIG d   1       7.529   2.022  -3.775  0.00  0.00     0.087 H 
BRANCH  50  53
ATOM     53  C   LIG d   1       6.256   0.373  -3.314  0.00  0.00    -0.003 A 
ATOM     54  C   LIG d   1       6.111  -1.001  -3.299  0.00  0.00    -0.053 A 
ATOM     55  C   LIG d   1       5.107  -1.583  -2.547  0.00  0.00    -0.061 A 
ATOM     56  H   LIG d   1       6.785  -1.622  -3.871  0.00  0.00     0.062 H 
ATOM     57  C   LIG d   1       4.241  -0.788  -1.819  0.00  0.00    -0.062 A 
ATOM     58  H   LIG d   1       4.997  -2.657  -2.531  0.00  0.00     0.062 H 
ATOM     59  C   LIG d   1       4.382   0.586  -1.839  0.00  0.00    -0.061 A 
ATOM     60  H   LIG d   1       3.455  -1.242  -1.234  0.00  0.00     0.062 H 
ATOM     61  C   LIG d   1       5.389   1.167  -2.586  0.00  0.00    -0.053 A 
ATOM     62  H   LIG d   1       3.706   1.207  -1.270  0.00  0.00     0.062 H 
ATOM     63  H   LIG d   1       5.500   2.241  -2.601  0.00  0.00     0.062 H 
ENDBRANCH  50  53
ENDBRANCH  47  50
ENDBRANCH  11  47
TORSDOF 7
ENDMDL
MODEL 9
REMARK VINA RESULT:      -6.3      5.513      8.215
REMARK  7 active torsions:
REMARK  status: ('A' for Active; 'I' for Inactive)
REMARK    1  A    between atoms: C_1  and  N_2 
REMARK       I    between atoms: N_5  and  C_8 
REMARK    2  A    between atoms: C_8  and  C_10 
REMARK    3  A    between atoms: C_10  and  C_11 
REMARK    4  A    between atoms: C_11  and  C_12 
REMARK    5  A    between atoms: C_22  and  N_25 
REMARK    6  A    between atoms: N_25  and  C_26 
REMARK    7  A    between atoms: C_26  and  C_27 
ROOT
ATOM      1  C   LIG d   1      10.122   5.183  -5.202  0.00  0.00     0.027 C 
ATOM      2  H   LIG d   1      11.167   4.882  -5.265  0.00  0.00     0.048 H 
ATOM      3  C   LIG d   1       9.831   6.278  -6.239  0.00  0.00     0.027 C 
ATOM      4  N   LIG d   1       9.655   5.730  -7.578  0.00  0.00    -0.312 N 
ATOM      5  C   LIG d   1       9.540   4.419  -7.861  0.00  0.00     0.231 C 
ATOM      6  O   LIG d   1       9.286   4.056  -8.991  0.00  0.00    -0.274 OA
ATOM      7  C   LIG d   1       9.726   3.416  -6.769  0.00  0.00     0.093 C 
ATOM      8  H   LIG d   1      10.775   3.129  -6.690  0.00  0.00     0.056 H 
ATOM      9  N   LIG d   1       9.263   4.053  -5.507  0.00  0.00    -0.281 N 
ATOM     10  C   LIG d   1       9.148   2.964  -4.543  0.00  0.00     0.043 C 
ATOM     11  C   LIG d   1       8.779   1.707  -5.374  0.00  0.00    -0.007 C 
ATOM     12  H   LIG d   1       9.510   0.916  -5.211  0.00  0.00     0.086 H 
ATOM     13  C   LIG d   1       8.832   2.171  -6.871  0.00  0.00     0.016 C 
ATOM     14  H   LIG d   1       8.923   6.806  -5.950  0.00  0.00     0.048 H 
ATOM     15  H   LIG d   1      10.660   6.983  -6.251  0.00  0.00     0.048 H 
ATOM     16  H   LIG d   1       9.619   6.356  -8.318  0.00  0.00     0.149 HD
ATOM     17  H   LIG d   1      10.099   2.811  -4.032  0.00  0.00     0.048 H 
ATOM     18  H   LIG d   1       8.362   3.182  -3.821  0.00  0.00     0.048 H 
ATOM     19  H   LIG d   1       7.837   2.435  -7.230  0.00  0.00     0.034 H 
ATOM     20  H   LIG d   1       9.288   1.414  -7.510  0.00  0.00     0.034 H 
ENDROOT
BRANCH   1  21
ATOM     21  C   LIG d   1       9.816   5.704  -3.796  0.00  0.00    -0.028 C 
ATOM     22  H   LIG d   1       9.687   4.861  -3.117  0.00  0.00     0.029 H 
ATOM     23  H   LIG d   1       8.901   6.296  -3.819  0.00  0.00     0.029 H 
BRANCH  21  24
ATOM     24  C   LIG d   1      10.976   6.576  -3.312  0.00  0.00     0.026 C 
ATOM     25  H   LIG d   1      11.652   6.776  -4.144  0.00  0.00     0.036 H 
ATOM     26  H   LIG d   1      11.516   6.056  -2.521  0.00  0.00     0.036 H 
BRANCH  24  27
ATOM     27  C   LIG d   1      10.436   7.879  -2.780  0.00  0.00     0.216 C 
ATOM     28  N   LIG d   1      10.387   8.095  -1.450  0.00  0.00    -0.299 N 
ATOM     29  C   LIG d   1       9.865   9.358  -0.910  0.00  0.00     0.028 C 
ATOM     30  C   LIG d   1      10.855   7.072  -0.502  0.00  0.00     0.028 C 
ATOM     31  C   LIG d   1      10.887   9.924   0.083  0.00  0.00     0.015 C 
ATOM     32  H   LIG d   1       8.920   9.176  -0.397  0.00  0.00     0.048 H 
ATOM     33  H   LIG d   1       9.712  10.070  -1.722  0.00  0.00     0.048 H 
ATOM     34  N   LIG d   1      11.204   8.901   1.088  0.00  0.00    -0.302 N 
ATOM     35  H   LIG d   1      10.469  10.802   0.576  0.00  0.00     0.044 H 
ATOM     36  H   LIG d   1      11.796  10.203  -0.451  0.00  0.00     0.044 H 
ATOM     37  C   LIG d   1      11.838   7.727   0.474  0.00  0.00     0.015 C 
ATOM     38  H   LIG d   1      12.733   8.038  -0.065  0.00  0.00     0.044 H 
ATOM     39  H   LIG d   1      12.110   7.012   1.251  0.00  0.00     0.044 H 
ATOM     40  H   LIG d   1      10.006   6.669   0.050  0.00  0.00     0.048 H 
ATOM     41  H   LIG d   1      11.356   6.272  -1.045  0.00  0.00     0.048 H 
ATOM     42  O   LIG d   1      10.047   8.733  -3.548  0.00  0.00    -0.276 OA
BRANCH  34  43
ATOM     43  C   LIG d   1      12.048   9.457   2.155  0.00  0.00    -0.013 C 
ATOM     44  H   LIG d   1      13.073   9.110   2.026  0.00  0.00     0.039 H 
ATOM     45  H   LIG d   1      12.025  10.546   2.107  0.00  0.00     0.039 H 
ATOM     46  H   LIG d   1      11.672   9.128   3.124  0.00  0.00     0.039 H 
ENDBRANCH  34  43
ENDBRANCH  24  27
ENDBRANCH  21  24
ENDBRANCH   1  21
BRANCH  11  47
ATOM     47  N   LIG d   1       7.433   1.239  -5.020  0.00  0.00     0.233 N 
ATOM     48  H   LIG d   1       6.749   1.716  -5.589  0.00  0.00     0.202 HD
ATOM     49  H   LIG d   1       7.370   0.245  -5.182  0.00  0.00     0.202 HD
BRANCH  47  50
ATOM     50  C   LIG d   1       7.174   1.521  -3.601  0.00  0.00    -0.007 C 
ATOM     51  H   LIG d   1       8.071   1.316  -3.020  0.00  0.00     0.087 H 
ATOM     52  H   LIG d   1       6.897   2.569  -3.485  0.00  0.00     0.087 H 
BRANCH  50  53
ATOM     53  C   LIG d   1       6.048   0.648  -3.113  0.00  0.00    -0.003 A 
ATOM     54  C   LIG d   1       4.890   1.223  -2.624  0.00  0.00    -0.053 A 
ATOM     55  C   LIG d   1       3.853   0.422  -2.180  0.00  0.00    -0.061 A 
ATOM     56  H   LIG d   1       4.793   2.298  -2.592  0.00  0.00     0.062 H 
ATOM     57  C   LIG d   1       3.980  -0.954  -2.216  0.00  0.00    -0.062 A 
ATOM     58  H   LIG d   1       2.947   0.871  -1.802  0.00  0.00     0.062 H 
ATOM     59  C   LIG d   1       5.140  -1.529  -2.700  0.00  0.00    -0.061 A 
ATOM     60  H   LIG d   1       3.172  -1.580  -1.867  0.00  0.00     0.062 H 
ATOM     61  C   LIG d   1       6.173  -0.728  -3.148  0.00  0.00    -0.053 A 
ATOM     62  H   LIG d   1       5.239  -2.604  -2.729  0.00  0.00     0.062 H 
ATOM     63  H   LIG d   1       7.080  -1.178  -3.527  0.00  0.00     0.062 H 
ENDBRANCH  50  53
ENDBRANCH  47  50
ENDBRANCH  11  47
TORSDOF 7
ENDMDL
