MODEL 1
REMARK VINA RESULT:      -6.6      0.000      0.000
REMARK  9 active torsions:
REMARK  status: ('A' for Active; 'I' for Inactive)
REMARK    1  A    between atoms: C_1  and  C_2 
REMARK    2  A    between atoms: C_3  and  C_24 
REMARK    3  A    between atoms: N_14  and  C_17 
REMARK    4  A    between atoms: C_17  and  C_18 
REMARK    5  A    between atoms: C_18  and  C_19 
REMARK    6  A    between atoms: C_27  and  O_32 
REMARK    7  A    between atoms: C_28  and  O_30 
REMARK    8  A    between atoms: O_30  and  C_31 
REMARK    9  A    between atoms: O_32  and  C_33 
ROOT
ATOM      1  C   LIG d   1      10.752   6.602  -0.868  0.00  0.00     0.114 A 
ATOM      2  C   LIG d   1      11.096   7.856  -1.260  0.00  0.00     0.067 A 
ATOM      3  C   LIG d   1      11.011   8.197  -2.691  0.00  0.00     0.200 A 
ATOM      4  O   LIG d   1      11.307   9.306  -3.102  0.00  0.00    -0.286 OA
ATOM      5  C   LIG d   1      10.551   7.133  -3.601  0.00  0.00     0.065 A 
ATOM      6  C   LIG d   1      10.436   7.354  -4.974  0.00  0.00    -0.044 A 
ATOM      7  C   LIG d   1      10.006   6.346  -5.787  0.00  0.00    -0.019 A 
ATOM      8  C   LIG d   1       9.682   5.096  -5.256  0.00  0.00     0.130 A 
ATOM      9  C   LIG d   1       9.792   4.863  -3.898  0.00  0.00     0.051 A 
ATOM     10  C   LIG d   1      10.227   5.880  -3.054  0.00  0.00     0.147 A 
ATOM     11  O   LIG d   1      10.344   5.666  -1.728  0.00  0.00    -0.459 OA
ATOM     12  C   LIG d   1       9.448   3.518  -3.312  0.00  0.00     0.034 C 
ATOM     13  N   LIG d   1       8.642   2.753  -4.275  0.00  0.00    -0.266 N 
ATOM     14  C   LIG d   1       9.281   2.776  -5.601  0.00  0.00     0.144 C 
ATOM     15  O   LIG d   1       9.255   4.116  -6.096  0.00  0.00    -0.476 OA
ATOM     16  H   LIG d   1      10.686   8.318  -5.391  0.00  0.00     0.063 H 
ATOM     17  H   LIG d   1       9.916   6.516  -6.850  0.00  0.00     0.065 H 
ATOM     18  H   LIG d   1      10.374   2.966  -3.092  0.00  0.00     0.048 H 
ATOM     19  H   LIG d   1       8.874   3.657  -2.384  0.00  0.00     0.048 H 
ATOM     20  H   LIG d   1      10.321   2.428  -5.513  0.00  0.00     0.087 H 
ATOM     21  H   LIG d   1       8.730   2.113  -6.284  0.00  0.00     0.087 H 
ENDROOT
BRANCH   2  22
ATOM     22  C   LIG d   1      11.550   8.861  -0.269  0.00  0.00    -0.007 A 
ATOM     23  C   LIG d   1      10.718   9.923   0.080  0.00  0.00    -0.008 A 
ATOM     24  C   LIG d   1      11.146  10.859   1.005  0.00  0.00     0.162 A 
ATOM     25  H   LIG d   1       9.741  10.016  -0.372  0.00  0.00     0.066 H 
ATOM     26  C   LIG d   1      12.405  10.737   1.586  0.00  0.00     0.162 A 
ATOM     27  C   LIG d   1      13.232   9.680   1.239  0.00  0.00    -0.016 A 
ATOM     28  C   LIG d   1      12.808   8.742   0.320  0.00  0.00    -0.050 A 
ATOM     29  H   LIG d   1      14.208   9.588   1.691  0.00  0.00     0.066 H 
ATOM     30  H   LIG d   1      13.452   7.916   0.054  0.00  0.00     0.062 H 
BRANCH  24  31
ATOM     31  O   LIG d   1      10.336  11.896   1.347  0.00  0.00    -0.491 OA
BRANCH  31  32
ATOM     32  C   LIG d   1      10.409  13.071   0.536  0.00  0.00     0.079 C 
ATOM     33  H   LIG d   1       9.427  13.262   0.079  0.00  0.00     0.066 H 
ATOM     34  H   LIG d   1      11.159  12.923  -0.256  0.00  0.00     0.066 H 
ATOM     35  H   LIG d   1      10.697  13.930   1.159  0.00  0.00     0.066 H 
ENDBRANCH  31  32
ENDBRANCH  24  31
BRANCH  26  36
ATOM     36  O   LIG d   1      12.824  11.657   2.497  0.00  0.00    -0.491 OA
BRANCH  36  37
ATOM     37  C   LIG d   1      13.039  11.196   3.832  0.00  0.00     0.079 C 
ATOM     38  H   LIG d   1      12.174  10.597   4.157  0.00  0.00     0.066 H 
ATOM     39  H   LIG d   1      13.159  12.058   4.503  0.00  0.00     0.066 H 
ATOM     40  H   LIG d   1      13.946  10.576   3.865  0.00  0.00     0.066 H 
ENDBRANCH  36  37
ENDBRANCH  26  36
ENDBRANCH   2  22
BRANCH   1  41
ATOM     41  C   LIG d   1      10.838   6.252   0.595  0.00  0.00    -0.006 C 
ATOM     42  H   LIG d   1      10.113   5.457   0.825  0.00  0.00     0.031 H 
ATOM     43  H   LIG d   1      10.610   7.143   1.200  0.00  0.00     0.031 H 
ATOM     44  H   LIG d   1      11.854   5.900   0.829  0.00  0.00     0.031 H 
ENDBRANCH   1  41
BRANCH  13  45
ATOM     45  C   LIG d   1       8.438   1.373  -3.812  0.00  0.00     0.007 C 
ATOM     46  H   LIG d   1       9.334   0.776  -4.038  0.00  0.00     0.043 H 
ATOM     47  H   LIG d   1       8.262   1.373  -2.726  0.00  0.00     0.043 H 
BRANCH  45  48
ATOM     48  C   LIG d   1       7.227   0.769  -4.526  0.00  0.00    -0.009 C 
ATOM     49  H   LIG d   1       6.817   1.502  -5.236  0.00  0.00     0.033 H 
ATOM     50  H   LIG d   1       7.537  -0.135  -5.070  0.00  0.00     0.033 H 
BRANCH  48  51
ATOM     51  C   LIG d   1       6.175   0.408  -3.510  0.00  0.00    -0.009 A 
ATOM     52  S   LIG d   1       5.518  -1.199  -3.093  0.00  0.00    -0.102 SA
ATOM     53  C   LIG d   1       4.362  -0.680  -1.835  0.00  0.00    -0.024 A 
ATOM     54  C   LIG d   1       4.546   0.663  -1.823  0.00  0.00    -0.054 A 
ATOM     55  H   LIG d   1       3.689  -1.280  -1.242  0.00  0.00     0.069 H 
ATOM     56  C   LIG d   1       5.474   1.221  -2.681  0.00  0.00    -0.051 A 
ATOM     57  H   LIG d   1       3.975   1.288  -1.152  0.00  0.00     0.062 H 
ATOM     58  H   LIG d   1       5.640   2.288  -2.692  0.00  0.00     0.063 H 
ENDBRANCH  48  51
ENDBRANCH  45  48
ENDBRANCH  13  45
TORSDOF 9
ENDMDL
MODEL 2
REMARK VINA RESULT:      -6.3      5.017      8.843
REMARK  9 active torsions:
REMARK  status: ('A' for Active; 'I' for Inactive)
REMARK    1  A    between atoms: C_1  and  C_2 
REMARK    2  A    between atoms: C_3  and  C_24 
REMARK    3  A    between atoms: N_14  and  C_17 
REMARK    4  A    between atoms: C_17  and  C_18 
REMARK    5  A    between atoms: C_18  and  C_19 
REMARK    6  A    between atoms: C_27  and  O_32 
REMARK    7  A    between atoms: C_28  and  O_30 
REMARK    8  A    between atoms: O_30  and  C_31 
REMARK    9  A    between atoms: O_32  and  C_33 
ROOT
ATOM      1  C   LIG d   1       8.713  -0.010  -4.997  0.00  0.00     0.114 A 
ATOM      2  C   LIG d   1       8.206   1.052  -4.319  0.00  0.00     0.067 A 
ATOM      3  C   LIG d   1       6.871   0.927  -3.707  0.00  0.00     0.200 A 
ATOM      4  O   LIG d   1       6.365   1.846  -3.087  0.00  0.00    -0.286 OA
ATOM      5  C   LIG d   1       6.178  -0.361  -3.883  0.00  0.00     0.065 A 
ATOM      6  C   LIG d   1       4.910  -0.581  -3.344  0.00  0.00    -0.044 A 
ATOM      7  C   LIG d   1       4.298  -1.787  -3.526  0.00  0.00    -0.019 A 
ATOM      8  C   LIG d   1       4.930  -2.801  -4.247  0.00  0.00     0.130 A 
ATOM      9  C   LIG d   1       6.186  -2.597  -4.788  0.00  0.00     0.051 A 
ATOM     10  C   LIG d   1       6.826  -1.375  -4.611  0.00  0.00     0.147 A 
ATOM     11  O   LIG d   1       8.048  -1.159  -5.136  0.00  0.00    -0.459 OA
ATOM     12  C   LIG d   1       6.878  -3.683  -5.572  0.00  0.00     0.034 C 
ATOM     13  N   LIG d   1       6.241  -4.977  -5.290  0.00  0.00    -0.266 N 
ATOM     14  C   LIG d   1       4.779  -4.862  -5.429  0.00  0.00     0.144 C 
ATOM     15  O   LIG d   1       4.291  -3.991  -4.406  0.00  0.00    -0.476 OA
ATOM     16  H   LIG d   1       4.416   0.199  -2.786  0.00  0.00     0.063 H 
ATOM     17  H   LIG d   1       3.317  -1.959  -3.108  0.00  0.00     0.065 H 
ATOM     18  H   LIG d   1       6.802  -3.464  -6.647  0.00  0.00     0.048 H 
ATOM     19  H   LIG d   1       7.939  -3.727  -5.281  0.00  0.00     0.048 H 
ATOM     20  H   LIG d   1       4.537  -4.449  -6.420  0.00  0.00     0.087 H 
ATOM     21  H   LIG d   1       4.322  -5.857  -5.325  0.00  0.00     0.087 H 
ENDROOT
BRANCH   2  22
ATOM     22  C   LIG d   1       8.979   2.311  -4.196  0.00  0.00    -0.007 A 
ATOM     23  C   LIG d   1       8.879   3.290  -5.183  0.00  0.00    -0.008 A 
ATOM     24  C   LIG d   1       9.603   4.463  -5.065  0.00  0.00     0.162 A 
ATOM     25  H   LIG d   1       8.239   3.133  -6.039  0.00  0.00     0.066 H 
ATOM     26  C   LIG d   1      10.429   4.664  -3.962  0.00  0.00     0.162 A 
ATOM     27  C   LIG d   1      10.528   3.689  -2.981  0.00  0.00    -0.016 A 
ATOM     28  C   LIG d   1       9.804   2.520  -3.091  0.00  0.00    -0.050 A 
ATOM     29  H   LIG d   1      11.169   3.847  -2.127  0.00  0.00     0.066 H 
ATOM     30  H   LIG d   1       9.878   1.763  -2.324  0.00  0.00     0.062 H 
BRANCH  24  31
ATOM     31  O   LIG d   1       9.508   5.421  -6.027  0.00  0.00    -0.491 OA
BRANCH  31  32
ATOM     32  C   LIG d   1       9.877   5.044  -7.355  0.00  0.00     0.079 C 
ATOM     33  H   LIG d   1      10.485   4.128  -7.321  0.00  0.00     0.066 H 
ATOM     34  H   LIG d   1      10.460   5.854  -7.818  0.00  0.00     0.066 H 
ATOM     35  H   LIG d   1       8.970   4.859  -7.949  0.00  0.00     0.066 H 
ENDBRANCH  31  32
ENDBRANCH  24  31
BRANCH  26  36
ATOM     36  O   LIG d   1      11.139   5.818  -3.847  0.00  0.00    -0.491 OA
BRANCH  36  37
ATOM     37  C   LIG d   1      10.650   6.790  -2.921  0.00  0.00     0.079 C 
ATOM     38  H   LIG d   1      10.750   7.796  -3.358  0.00  0.00     0.066 H 
ATOM     39  H   LIG d   1      11.233   6.737  -1.990  0.00  0.00     0.066 H 
ATOM     40  H   LIG d   1       9.591   6.590  -2.703  0.00  0.00     0.066 H 
ENDBRANCH  36  37
ENDBRANCH  26  36
ENDBRANCH   2  22
BRANCH   1  41
ATOM     41  C   LIG d   1      10.078   0.116  -5.623  0.00  0.00    -0.006 C 
ATOM     42  H   LIG d   1      10.411  -0.870  -5.979  0.00  0.00     0.031 H 
ATOM     43  H   LIG d   1      10.791   0.495  -4.875  0.00  0.00     0.031 H 
ATOM     44  H   LIG d   1      10.031   0.815  -6.471  0.00  0.00     0.031 H 
ENDBRANCH   1  41
BRANCH  13  45
ATOM     45  C   LIG d   1       6.772  -6.028  -6.169  0.00  0.00     0.007 C 
ATOM     46  H   LIG d   1       5.940  -6.533  -6.680  0.00  0.00     0.043 H 
ATOM     47  H   LIG d   1       7.442  -5.577  -6.916  0.00  0.00     0.043 H 
BRANCH  45  48
ATOM     48  C   LIG d   1       7.551  -7.045  -5.333  0.00  0.00    -0.009 C 
ATOM     49  H   LIG d   1       8.359  -7.477  -5.940  0.00  0.00     0.033 H 
ATOM     50  H   LIG d   1       7.981  -6.544  -4.453  0.00  0.00     0.033 H 
BRANCH  48  51
ATOM     51  C   LIG d   1       6.620  -8.141  -4.881  0.00  0.00    -0.009 A 
ATOM     52  S   LIG d   1       6.911  -9.449  -3.701  0.00  0.00    -0.102 SA
ATOM     53  C   LIG d   1       5.312 -10.238  -3.801  0.00  0.00    -0.024 A 
ATOM     54  C   LIG d   1       4.677  -9.468  -4.719  0.00  0.00    -0.054 A 
ATOM     55  H   LIG d   1       4.948 -11.105  -3.272  0.00  0.00     0.069 H 
ATOM     56  C   LIG d   1       5.347  -8.394  -5.272  0.00  0.00    -0.051 A 
ATOM     57  H   LIG d   1       3.662  -9.692  -5.013  0.00  0.00     0.062 H 
ATOM     58  H   LIG d   1       4.864  -7.765  -6.006  0.00  0.00     0.063 H 
ENDBRANCH  48  51
ENDBRANCH  45  48
ENDBRANCH  13  45
TORSDOF 9
ENDMDL
MODEL 3
REMARK VINA RESULT:      -6.3      1.852      2.490
REMARK  9 active torsions:
REMARK  status: ('A' for Active; 'I' for Inactive)
REMARK    1  A    between atoms: C_1  and  C_2 
REMARK    2  A    between atoms: C_3  and  C_24 
REMARK    3  A    between atoms: N_14  and  C_17 
REMARK    4  A    between atoms: C_17  and  C_18 
REMARK    5  A    between atoms: C_18  and  C_19 
REMARK    6  A    between atoms: C_27  and  O_32 
REMARK    7  A    between atoms: C_28  and  O_30 
REMARK    8  A    between atoms: O_30  and  C_31 
REMARK    9  A    between atoms: O_32  and  C_33 
ROOT
ATOM      1  C   LIG d   1       9.897   6.649  -2.658  0.00  0.00     0.114 A 
ATOM      2  C   LIG d   1      10.409   7.650  -3.418  0.00  0.00     0.067 A 
ATOM      3  C   LIG d   1      10.580   7.422  -4.863  0.00  0.00     0.200 A 
ATOM      4  O   LIG d   1      11.035   8.284  -5.597  0.00  0.00    -0.286 OA
ATOM      5  C   LIG d   1      10.177   6.102  -5.380  0.00  0.00     0.065 A 
ATOM      6  C   LIG d   1      10.300   5.786  -6.734  0.00  0.00    -0.044 A 
ATOM      7  C   LIG d   1       9.916   4.554  -7.178  0.00  0.00    -0.019 A 
ATOM      8  C   LIG d   1       9.402   3.609  -6.288  0.00  0.00     0.130 A 
ATOM      9  C   LIG d   1       9.276   3.908  -4.944  0.00  0.00     0.051 A 
ATOM     10  C   LIG d   1       9.661   5.160  -4.475  0.00  0.00     0.147 A 
ATOM     11  O   LIG d   1       9.549   5.464  -3.167  0.00  0.00    -0.459 OA
ATOM     12  C   LIG d   1       8.727   2.895  -3.973  0.00  0.00     0.034 C 
ATOM     13  N   LIG d   1       8.017   1.840  -4.710  0.00  0.00    -0.266 N 
ATOM     14  C   LIG d   1       8.856   1.342  -5.813  0.00  0.00     0.144 C 
ATOM     15  O   LIG d   1       9.028   2.392  -6.766  0.00  0.00    -0.476 OA
ATOM     16  H   LIG d   1      10.697   6.513  -7.427  0.00  0.00     0.063 H 
ATOM     17  H   LIG d   1      10.010   4.309  -8.225  0.00  0.00     0.065 H 
ATOM     18  H   LIG d   1       9.554   2.448  -3.402  0.00  0.00     0.048 H 
ATOM     19  H   LIG d   1       8.028   3.390  -3.281  0.00  0.00     0.048 H 
ATOM     20  H   LIG d   1       9.835   1.031  -5.417  0.00  0.00     0.087 H 
ATOM     21  H   LIG d   1       8.363   0.480  -6.288  0.00  0.00     0.087 H 
ENDROOT
BRANCH   2  22
ATOM     22  C   LIG d   1      10.788   8.947  -2.806  0.00  0.00    -0.007 A 
ATOM     23  C   LIG d   1       9.882  10.005  -2.797  0.00  0.00    -0.008 A 
ATOM     24  C   LIG d   1      10.241  11.214  -2.225  0.00  0.00     0.162 A 
ATOM     25  H   LIG d   1       8.903   9.884  -3.235  0.00  0.00     0.066 H 
ATOM     26  C   LIG d   1      11.504  11.369  -1.661  0.00  0.00     0.162 A 
ATOM     27  C   LIG d   1      12.404  10.315  -1.671  0.00  0.00    -0.016 A 
ATOM     28  C   LIG d   1      12.050   9.106  -2.235  0.00  0.00    -0.050 A 
ATOM     29  H   LIG d   1      13.384  10.438  -1.233  0.00  0.00     0.066 H 
ATOM     30  H   LIG d   1      12.751   8.284  -2.238  0.00  0.00     0.062 H 
BRANCH  24  31
ATOM     31  O   LIG d   1       9.359  12.249  -2.214  0.00  0.00    -0.491 OA
BRANCH  31  32
ATOM     32  C   LIG d   1       8.857  12.687  -3.479  0.00  0.00     0.079 C 
ATOM     33  H   LIG d   1       9.264  13.682  -3.710  0.00  0.00     0.066 H 
ATOM     34  H   LIG d   1       7.759  12.740  -3.439  0.00  0.00     0.066 H 
ATOM     35  H   LIG d   1       9.162  11.976  -4.260  0.00  0.00     0.066 H 
ENDBRANCH  31  32
ENDBRANCH  24  31
BRANCH  26  36
ATOM     36  O   LIG d   1      11.855  12.556  -1.098  0.00  0.00    -0.491 OA
BRANCH  36  37
ATOM     37  C   LIG d   1      11.797  12.641   0.327  0.00  0.00     0.079 C 
ATOM     38  H   LIG d   1      11.326  11.731   0.729  0.00  0.00     0.066 H 
ATOM     39  H   LIG d   1      11.204  13.520   0.618  0.00  0.00     0.066 H 
ATOM     40  H   LIG d   1      12.815  12.736   0.731  0.00  0.00     0.066 H 
ENDBRANCH  36  37
ENDBRANCH  26  36
ENDBRANCH   2  22
BRANCH   1  41
ATOM     41  C   LIG d   1       9.721   6.880  -1.179  0.00  0.00    -0.006 C 
ATOM     42  H   LIG d   1       9.057   6.108  -0.763  0.00  0.00     0.031 H 
ATOM     43  H   LIG d   1       9.276   7.873  -1.014  0.00  0.00     0.031 H 
ATOM     44  H   LIG d   1      10.700   6.829  -0.679  0.00  0.00     0.031 H 
ENDBRANCH   1  41
BRANCH  13  45
ATOM     45  C   LIG d   1       7.622   0.745  -3.813  0.00  0.00     0.007 C 
ATOM     46  H   LIG d   1       7.594  -0.199  -4.377  0.00  0.00     0.043 H 
ATOM     47  H   LIG d   1       8.351   0.662  -2.994  0.00  0.00     0.043 H 
BRANCH  45  48
ATOM     48  C   LIG d   1       6.236   1.036  -3.235  0.00  0.00    -0.009 C 
ATOM     49  H   LIG d   1       6.341   1.483  -2.236  0.00  0.00     0.033 H 
ATOM     50  H   LIG d   1       5.702   1.735  -3.896  0.00  0.00     0.033 H 
BRANCH  48  51
ATOM     51  C   LIG d   1       5.456  -0.250  -3.131  0.00  0.00    -0.009 A 
ATOM     52  S   LIG d   1       5.499  -1.681  -4.199  0.00  0.00    -0.102 SA
ATOM     53  C   LIG d   1       4.292  -2.675  -3.336  0.00  0.00    -0.024 A 
ATOM     54  C   LIG d   1       3.938  -1.859  -2.312  0.00  0.00    -0.054 A 
ATOM     55  H   LIG d   1       3.935  -3.666  -3.570  0.00  0.00     0.069 H 
ATOM     56  C   LIG d   1       4.534  -0.617  -2.207  0.00  0.00    -0.051 A 
ATOM     57  H   LIG d   1       3.201  -2.176  -1.589  0.00  0.00     0.062 H 
ATOM     58  H   LIG d   1       4.270   0.052  -1.402  0.00  0.00     0.063 H 
ENDBRANCH  48  51
ENDBRANCH  45  48
ENDBRANCH  13  45
TORSDOF 9
ENDMDL
MODEL 4
REMARK VINA RESULT:      -6.2      8.101     12.594
REMARK  9 active torsions:
REMARK  status: ('A' for Active; 'I' for Inactive)
REMARK    1  A    between atoms: C_1  and  C_2 
REMARK    2  A    between atoms: C_3  and  C_24 
REMARK    3  A    between atoms: N_14  and  C_17 
REMARK    4  A    between atoms: C_17  and  C_18 
REMARK    5  A    between atoms: C_18  and  C_19 
REMARK    6  A    between atoms: C_27  and  O_32 
REMARK    7  A    between atoms: C_28  and  O_30 
REMARK    8  A    between atoms: O_30  and  C_31 
REMARK    9  A    between atoms: O_32  and  C_33 
ROOT
ATOM      1  C   LIG d   1       4.678  -2.356  -7.403  0.00  0.00     0.114 A 
ATOM      2  C   LIG d   1       4.668  -1.017  -7.179  0.00  0.00     0.067 A 
ATOM      3  C   LIG d   1       3.738  -0.178  -7.955  0.00  0.00     0.200 A 
ATOM      4  O   LIG d   1       3.684   1.030  -7.798  0.00  0.00    -0.286 OA
ATOM      5  C   LIG d   1       2.877  -0.869  -8.931  0.00  0.00     0.065 A 
ATOM      6  C   LIG d   1       1.962  -0.166  -9.716  0.00  0.00    -0.044 A 
ATOM      7  C   LIG d   1       1.179  -0.839 -10.609  0.00  0.00    -0.019 A 
ATOM      8  C   LIG d   1       1.288  -2.224 -10.743  0.00  0.00     0.130 A 
ATOM      9  C   LIG d   1       2.190  -2.934  -9.973  0.00  0.00     0.051 A 
ATOM     10  C   LIG d   1       2.994  -2.264  -9.056  0.00  0.00     0.147 A 
ATOM     11  O   LIG d   1       3.882  -2.942  -8.302  0.00  0.00    -0.459 OA
ATOM     12  C   LIG d   1       2.319  -4.429 -10.111  0.00  0.00     0.034 C 
ATOM     13  N   LIG d   1       1.135  -4.965 -10.797  0.00  0.00    -0.266 N 
ATOM     14  C   LIG d   1       0.863  -4.188 -12.018  0.00  0.00     0.144 C 
ATOM     15  O   LIG d   1       0.490  -2.861 -11.641  0.00  0.00    -0.476 OA
ATOM     16  H   LIG d   1       1.874   0.905  -9.617  0.00  0.00     0.063 H 
ATOM     17  H   LIG d   1       0.471  -0.295 -11.216  0.00  0.00     0.065 H 
ATOM     18  H   LIG d   1       3.219  -4.667 -10.697  0.00  0.00     0.048 H 
ATOM     19  H   LIG d   1       2.400  -4.884  -9.112  0.00  0.00     0.048 H 
ATOM     20  H   LIG d   1       1.768  -4.161 -12.643  0.00  0.00     0.087 H 
ATOM     21  H   LIG d   1       0.045  -4.663 -12.579  0.00  0.00     0.087 H 
ENDROOT
BRANCH   2  22
ATOM     22  C   LIG d   1       5.575  -0.411  -6.176  0.00  0.00    -0.007 A 
ATOM     23  C   LIG d   1       5.215  -0.394  -4.830  0.00  0.00    -0.008 A 
ATOM     24  C   LIG d   1       6.065   0.173  -3.896  0.00  0.00     0.162 A 
ATOM     25  H   LIG d   1       4.275  -0.821  -4.515  0.00  0.00     0.066 H 
ATOM     26  C   LIG d   1       7.277   0.724  -4.303  0.00  0.00     0.162 A 
ATOM     27  C   LIG d   1       7.634   0.707  -5.642  0.00  0.00    -0.016 A 
ATOM     28  C   LIG d   1       6.793   0.138  -6.576  0.00  0.00    -0.050 A 
ATOM     29  H   LIG d   1       8.575   1.135  -5.955  0.00  0.00     0.066 H 
ATOM     30  H   LIG d   1       7.075   0.121  -7.619  0.00  0.00     0.062 H 
BRANCH  24  31
ATOM     31  O   LIG d   1       5.717   0.192  -2.582  0.00  0.00    -0.491 OA
BRANCH  31  32
ATOM     32  C   LIG d   1       4.618   1.028  -2.214  0.00  0.00     0.079 C 
ATOM     33  H   LIG d   1       4.006   0.517  -1.456  0.00  0.00     0.066 H 
ATOM     34  H   LIG d   1       4.002   1.236  -3.102  0.00  0.00     0.066 H 
ATOM     35  H   LIG d   1       4.998   1.974  -1.801  0.00  0.00     0.066 H 
ENDBRANCH  31  32
ENDBRANCH  24  31
BRANCH  26  36
ATOM     36  O   LIG d   1       8.112   1.280  -3.384  0.00  0.00    -0.491 OA
BRANCH  36  37
ATOM     37  C   LIG d   1       9.131   2.151  -3.879  0.00  0.00     0.079 C 
ATOM     38  H   LIG d   1       9.759   2.494  -3.042  0.00  0.00     0.066 H 
ATOM     39  H   LIG d   1       8.666   3.020  -4.368  0.00  0.00     0.066 H 
ATOM     40  H   LIG d   1       9.755   1.611  -4.607  0.00  0.00     0.066 H 
ENDBRANCH  36  37
ENDBRANCH  26  36
ENDBRANCH   2  22
BRANCH   1  41
ATOM     41  C   LIG d   1       5.629  -3.216  -6.610  0.00  0.00    -0.006 C 
ATOM     42  H   LIG d   1       5.139  -4.169  -6.360  0.00  0.00     0.031 H 
ATOM     43  H   LIG d   1       5.910  -2.693  -5.684  0.00  0.00     0.031 H 
ATOM     44  H   LIG d   1       6.531  -3.414  -7.208  0.00  0.00     0.031 H 
ENDBRANCH   1  41
BRANCH  13  45
ATOM     45  C   LIG d   1       1.306  -6.391 -11.106  0.00  0.00     0.007 C 
ATOM     46  H   LIG d   1       0.901  -6.599 -12.107  0.00  0.00     0.043 H 
ATOM     47  H   LIG d   1       2.375  -6.645 -11.082  0.00  0.00     0.043 H 
BRANCH  45  48
ATOM     48  C   LIG d   1       0.558  -7.231 -10.068  0.00  0.00    -0.009 C 
ATOM     49  H   LIG d   1       0.691  -8.298 -10.295  0.00  0.00     0.033 H 
ATOM     50  H   LIG d   1       0.958  -7.016  -9.066  0.00  0.00     0.033 H 
BRANCH  48  51
ATOM     51  C   LIG d   1      -0.909  -6.887 -10.107  0.00  0.00    -0.009 A 
ATOM     52  S   LIG d   1      -2.025  -6.873 -11.501  0.00  0.00    -0.102 SA
ATOM     53  C   LIG d   1      -3.501  -6.363 -10.636  0.00  0.00    -0.024 A 
ATOM     54  C   LIG d   1      -3.050  -6.232  -9.365  0.00  0.00    -0.054 A 
ATOM     55  H   LIG d   1      -4.494  -6.197 -11.026  0.00  0.00     0.069 H 
ATOM     56  C   LIG d   1      -1.722  -6.501  -9.094  0.00  0.00    -0.051 A 
ATOM     57  H   LIG d   1      -3.719  -5.923  -8.575  0.00  0.00     0.062 H 
ATOM     58  H   LIG d   1      -1.337  -6.404  -8.089  0.00  0.00     0.063 H 
ENDBRANCH  48  51
ENDBRANCH  45  48
ENDBRANCH  13  45
TORSDOF 9
ENDMDL
MODEL 5
REMARK VINA RESULT:      -6.1      3.452      4.889
REMARK  9 active torsions:
REMARK  status: ('A' for Active; 'I' for Inactive)
REMARK    1  A    between atoms: C_1  and  C_2 
REMARK    2  A    between atoms: C_3  and  C_24 
REMARK    3  A    between atoms: N_14  and  C_17 
REMARK    4  A    between atoms: C_17  and  C_18 
REMARK    5  A    between atoms: C_18  and  C_19 
REMARK    6  A    between atoms: C_27  and  O_32 
REMARK    7  A    between atoms: C_28  and  O_30 
REMARK    8  A    between atoms: O_30  and  C_31 
REMARK    9  A    between atoms: O_32  and  C_33 
ROOT
ATOM      1  C   LIG d   1      10.101   4.672  -4.115  0.00  0.00     0.114 A 
ATOM      2  C   LIG d   1      10.475   5.948  -3.845  0.00  0.00     0.067 A 
ATOM      3  C   LIG d   1      10.608   6.897  -4.964  0.00  0.00     0.200 A 
ATOM      4  O   LIG d   1      10.941   8.056  -4.783  0.00  0.00    -0.286 OA
ATOM      5  C   LIG d   1      10.319   6.378  -6.313  0.00  0.00     0.065 A 
ATOM      6  C   LIG d   1      10.416   7.196  -7.440  0.00  0.00    -0.044 A 
ATOM      7  C   LIG d   1      10.141   6.682  -8.673  0.00  0.00    -0.019 A 
ATOM      8  C   LIG d   1       9.764   5.345  -8.816  0.00  0.00     0.130 A 
ATOM      9  C   LIG d   1       9.665   4.524  -7.709  0.00  0.00     0.051 A 
ATOM     10  C   LIG d   1       9.940   5.031  -6.443  0.00  0.00     0.147 A 
ATOM     11  O   LIG d   1       9.853   4.241  -5.355  0.00  0.00    -0.459 OA
ATOM     12  C   LIG d   1       9.262   3.078  -7.850  0.00  0.00     0.034 C 
ATOM     13  N   LIG d   1       8.633   2.867  -9.162  0.00  0.00    -0.266 N 
ATOM     14  C   LIG d   1       9.471   3.449 -10.224  0.00  0.00     0.144 C 
ATOM     15  O   LIG d   1       9.495   4.868 -10.061  0.00  0.00    -0.476 OA
ATOM     16  H   LIG d   1      10.708   8.230  -7.336  0.00  0.00     0.063 H 
ATOM     17  H   LIG d   1      10.214   7.314  -9.546  0.00  0.00     0.065 H 
ATOM     18  H   LIG d   1      10.154   2.439  -7.766  0.00  0.00     0.048 H 
ATOM     19  H   LIG d   1       8.547   2.816  -7.056  0.00  0.00     0.048 H 
ATOM     20  H   LIG d   1      10.492   3.045 -10.147  0.00  0.00     0.087 H 
ATOM     21  H   LIG d   1       9.048   3.191 -11.206  0.00  0.00     0.087 H 
ENDROOT
BRANCH   2  22
ATOM     22  C   LIG d   1      10.747   6.378  -2.452  0.00  0.00    -0.007 A 
ATOM     23  C   LIG d   1      11.998   6.150  -1.882  0.00  0.00    -0.008 A 
ATOM     24  C   LIG d   1      12.246   6.552  -0.582  0.00  0.00     0.162 A 
ATOM     25  H   LIG d   1      12.771   5.658  -2.454  0.00  0.00     0.066 H 
ATOM     26  C   LIG d   1      11.248   7.185   0.154  0.00  0.00     0.162 A 
ATOM     27  C   LIG d   1      10.004   7.411  -0.414  0.00  0.00    -0.016 A 
ATOM     28  C   LIG d   1       9.752   7.017  -1.712  0.00  0.00    -0.050 A 
ATOM     29  H   LIG d   1       9.231   7.902   0.159  0.00  0.00     0.066 H 
ATOM     30  H   LIG d   1       8.784   7.199  -2.155  0.00  0.00     0.062 H 
BRANCH  24  31
ATOM     31  O   LIG d   1      13.466   6.330  -0.023  0.00  0.00    -0.491 OA
BRANCH  31  32
ATOM     32  C   LIG d   1      14.571   7.055  -0.568  0.00  0.00     0.079 C 
ATOM     33  H   LIG d   1      15.308   7.249   0.225  0.00  0.00     0.066 H 
ATOM     34  H   LIG d   1      14.215   8.011  -0.980  0.00  0.00     0.066 H 
ATOM     35  H   LIG d   1      15.040   6.462  -1.367  0.00  0.00     0.066 H 
ENDBRANCH  31  32
ENDBRANCH  24  31
BRANCH  26  36
ATOM     36  O   LIG d   1      11.494   7.581   1.432  0.00  0.00    -0.491 OA
BRANCH  36  37
ATOM     37  C   LIG d   1      11.775   8.966   1.638  0.00  0.00     0.079 C 
ATOM     38  H   LIG d   1      10.986   9.574   1.168  0.00  0.00     0.066 H 
ATOM     39  H   LIG d   1      12.746   9.215   1.186  0.00  0.00     0.066 H 
ATOM     40  H   LIG d   1      11.807   9.178   2.716  0.00  0.00     0.066 H 
ENDBRANCH  36  37
ENDBRANCH  26  36
ENDBRANCH   2  22
BRANCH   1  41
ATOM     41  C   LIG d   1       9.964   3.700  -2.972  0.00  0.00    -0.006 C 
ATOM     42  H   LIG d   1      10.895   3.122  -2.868  0.00  0.00     0.031 H 
ATOM     43  H   LIG d   1       9.128   3.013  -3.171  0.00  0.00     0.031 H 
ATOM     44  H   LIG d   1       9.771   4.253  -2.040  0.00  0.00     0.031 H 
ENDBRANCH   1  41
BRANCH  13  45
ATOM     45  C   LIG d   1       8.390   1.439  -9.405  0.00  0.00     0.007 C 
ATOM     46  H   LIG d   1       8.153   1.284 -10.468  0.00  0.00     0.043 H 
ATOM     47  H   LIG d   1       9.289   0.864  -9.142  0.00  0.00     0.043 H 
BRANCH  45  48
ATOM     48  C   LIG d   1       7.213   0.969  -8.547  0.00  0.00    -0.009 C 
ATOM     49  H   LIG d   1       7.335  -0.097  -8.309  0.00  0.00     0.033 H 
ATOM     50  H   LIG d   1       7.184   1.552  -7.614  0.00  0.00     0.033 H 
BRANCH  48  51
ATOM     51  C   LIG d   1       5.926   1.172  -9.305  0.00  0.00    -0.009 A 
ATOM     52  S   LIG d   1       5.207   0.163 -10.590  0.00  0.00    -0.102 SA
ATOM     53  C   LIG d   1       3.740   1.138 -10.884  0.00  0.00    -0.024 A 
ATOM     54  C   LIG d   1       3.899   2.155 -10.002  0.00  0.00    -0.054 A 
ATOM     55  H   LIG d   1       2.938   0.964 -11.585  0.00  0.00     0.069 H 
ATOM     56  C   LIG d   1       5.019   2.173  -9.193  0.00  0.00    -0.051 A 
ATOM     57  H   LIG d   1       3.160   2.940  -9.933  0.00  0.00     0.062 H 
ATOM     58  H   LIG d   1       5.170   2.972  -8.483  0.00  0.00     0.063 H 
ENDBRANCH  48  51
ENDBRANCH  45  48
ENDBRANCH  13  45
TORSDOF 9
ENDMDL
MODEL 6
REMARK VINA RESULT:      -6.0      6.631     13.769
REMARK  9 active torsions:
REMARK  status: ('A' for Active; 'I' for Inactive)
REMARK    1  A    between atoms: C_1  and  C_2 
REMARK    2  A    between atoms: C_3  and  C_24 
REMARK    3  A    between atoms: N_14  and  C_17 
REMARK    4  A    between atoms: C_17  and  C_18 
REMARK    5  A    between atoms: C_18  and  C_19 
REMARK    6  A    between atoms: C_27  and  O_32 
REMARK    7  A    between atoms: C_28  and  O_30 
REMARK    8  A    between atoms: O_30  and  C_31 
REMARK    9  A    between atoms: O_32  and  C_33 
ROOT
ATOM      1  C   LIG d   1       6.930  -3.216  -6.303  0.00  0.00     0.114 A 
ATOM      2  C   LIG d   1       5.904  -3.835  -5.664  0.00  0.00     0.067 A 
ATOM      3  C   LIG d   1       5.241  -3.136  -4.550  0.00  0.00     0.200 A 
ATOM      4  O   LIG d   1       4.315  -3.641  -3.939  0.00  0.00    -0.286 OA
ATOM      5  C   LIG d   1       5.751  -1.796  -4.210  0.00  0.00     0.065 A 
ATOM      6  C   LIG d   1       5.192  -1.050  -3.170  0.00  0.00    -0.044 A 
ATOM      7  C   LIG d   1       5.690   0.188  -2.883  0.00  0.00    -0.019 A 
ATOM      8  C   LIG d   1       6.753   0.712  -3.620  0.00  0.00     0.130 A 
ATOM      9  C   LIG d   1       7.318  -0.016  -4.651  0.00  0.00     0.051 A 
ATOM     10  C   LIG d   1       6.822  -1.278  -4.959  0.00  0.00     0.147 A 
ATOM     11  O   LIG d   1       7.365  -2.002  -5.958  0.00  0.00    -0.459 OA
ATOM     12  C   LIG d   1       8.468   0.538  -5.451  0.00  0.00     0.034 C 
ATOM     13  N   LIG d   1       8.554   1.992  -5.250  0.00  0.00    -0.266 N 
ATOM     14  C   LIG d   1       8.510   2.307  -3.812  0.00  0.00     0.144 C 
ATOM     15  O   LIG d   1       7.222   1.950  -3.307  0.00  0.00    -0.476 OA
ATOM     16  H   LIG d   1       4.370  -1.451  -2.597  0.00  0.00     0.063 H 
ATOM     17  H   LIG d   1       5.258   0.765  -2.080  0.00  0.00     0.065 H 
ATOM     18  H   LIG d   1       9.406   0.068  -5.120  0.00  0.00     0.048 H 
ATOM     19  H   LIG d   1       8.309   0.327  -6.519  0.00  0.00     0.048 H 
ATOM     20  H   LIG d   1       9.290   1.735  -3.288  0.00  0.00     0.087 H 
ATOM     21  H   LIG d   1       8.685   3.383  -3.667  0.00  0.00     0.087 H 
ENDROOT
BRANCH   2  22
ATOM     22  C   LIG d   1       5.461  -5.188  -6.079  0.00  0.00    -0.007 A 
ATOM     23  C   LIG d   1       4.532  -5.334  -7.106  0.00  0.00    -0.008 A 
ATOM     24  C   LIG d   1       4.120  -6.599  -7.490  0.00  0.00     0.162 A 
ATOM     25  H   LIG d   1       4.132  -4.462  -7.602  0.00  0.00     0.066 H 
ATOM     26  C   LIG d   1       4.636  -7.722  -6.849  0.00  0.00     0.162 A 
ATOM     27  C   LIG d   1       5.561  -7.575  -5.826  0.00  0.00    -0.016 A 
ATOM     28  C   LIG d   1       5.978  -6.317  -5.444  0.00  0.00    -0.050 A 
ATOM     29  H   LIG d   1       5.960  -8.448  -5.331  0.00  0.00     0.066 H 
ATOM     30  H   LIG d   1       6.703  -6.205  -4.650  0.00  0.00     0.062 H 
BRANCH  24  31
ATOM     31  O   LIG d   1       3.213  -6.745  -8.492  0.00  0.00    -0.491 OA
BRANCH  31  32
ATOM     32  C   LIG d   1       2.990  -5.611  -9.334  0.00  0.00     0.079 C 
ATOM     33  H   LIG d   1       2.580  -4.785  -8.735  0.00  0.00     0.066 H 
ATOM     34  H   LIG d   1       2.275  -5.879 -10.127  0.00  0.00     0.066 H 
ATOM     35  H   LIG d   1       3.941  -5.299  -9.788  0.00  0.00     0.066 H 
ENDBRANCH  31  32
ENDBRANCH  24  31
BRANCH  26  36
ATOM     36  O   LIG d   1       4.233  -8.964  -7.227  0.00  0.00    -0.491 OA
BRANCH  36  37
ATOM     37  C   LIG d   1       4.630 -10.056  -6.395  0.00  0.00     0.079 C 
ATOM     38  H   LIG d   1       5.678  -9.919  -6.086  0.00  0.00     0.066 H 
ATOM     39  H   LIG d   1       4.534 -10.998  -6.954  0.00  0.00     0.066 H 
ATOM     40  H   LIG d   1       3.987 -10.091  -5.503  0.00  0.00     0.066 H 
ENDBRANCH  36  37
ENDBRANCH  26  36
ENDBRANCH   2  22
BRANCH   1  41
ATOM     41  C   LIG d   1       7.610  -3.931  -7.443  0.00  0.00    -0.006 C 
ATOM     42  H   LIG d   1       6.897  -4.062  -8.271  0.00  0.00     0.031 H 
ATOM     43  H   LIG d   1       7.960  -4.916  -7.101  0.00  0.00     0.031 H 
ATOM     44  H   LIG d   1       8.468  -3.336  -7.790  0.00  0.00     0.031 H 
ENDBRANCH   1  41
BRANCH  13  45
ATOM     45  C   LIG d   1       9.768   2.539  -5.871  0.00  0.00     0.007 C 
ATOM     46  H   LIG d   1      10.014   3.505  -5.407  0.00  0.00     0.043 H 
ATOM     47  H   LIG d   1      10.603   1.838  -5.724  0.00  0.00     0.043 H 
BRANCH  45  48
ATOM     48  C   LIG d   1       9.528   2.738  -7.369  0.00  0.00    -0.009 C 
ATOM     49  H   LIG d   1      10.313   2.221  -7.939  0.00  0.00     0.033 H 
ATOM     50  H   LIG d   1       8.545   2.325  -7.641  0.00  0.00     0.033 H 
BRANCH  48  51
ATOM     51  C   LIG d   1       9.560   4.210  -7.691  0.00  0.00    -0.009 A 
ATOM     52  S   LIG d   1       9.161   5.036  -9.222  0.00  0.00    -0.102 SA
ATOM     53  C   LIG d   1       9.474   6.713  -8.693  0.00  0.00    -0.024 A 
ATOM     54  C   LIG d   1       9.862   6.532  -7.406  0.00  0.00    -0.054 A 
ATOM     55  H   LIG d   1       9.382   7.631  -9.253  0.00  0.00     0.069 H 
ATOM     56  C   LIG d   1       9.906   5.251  -6.893  0.00  0.00    -0.051 A 
ATOM     57  H   LIG d   1      10.133   7.379  -6.792  0.00  0.00     0.062 H 
ATOM     58  H   LIG d   1      10.212   5.079  -5.871  0.00  0.00     0.063 H 
ENDBRANCH  48  51
ENDBRANCH  45  48
ENDBRANCH  13  45
TORSDOF 9
ENDMDL
MODEL 7
REMARK VINA RESULT:      -5.9      9.848     13.742
REMARK  9 active torsions:
REMARK  status: ('A' for Active; 'I' for Inactive)
REMARK    1  A    between atoms: C_1  and  C_2 
REMARK    2  A    between atoms: C_3  and  C_24 
REMARK    3  A    between atoms: N_14  and  C_17 
REMARK    4  A    between atoms: C_17  and  C_18 
REMARK    5  A    between atoms: C_18  and  C_19 
REMARK    6  A    between atoms: C_27  and  O_32 
REMARK    7  A    between atoms: C_28  and  O_30 
REMARK    8  A    between atoms: O_30  and  C_31 
REMARK    9  A    between atoms: O_32  and  C_33 
ROOT
ATOM      1  C   LIG d   1       6.812  -4.465  -4.964  0.00  0.00     0.114 A 
ATOM      2  C   LIG d   1       5.491  -4.234  -5.172  0.00  0.00     0.067 A 
ATOM      3  C   LIG d   1       4.653  -5.334  -5.681  0.00  0.00     0.200 A 
ATOM      4  O   LIG d   1       3.461  -5.186  -5.887  0.00  0.00    -0.286 OA
ATOM      5  C   LIG d   1       5.326  -6.621  -5.930  0.00  0.00     0.065 A 
ATOM      6  C   LIG d   1       4.622  -7.725  -6.413  0.00  0.00    -0.044 A 
ATOM      7  C   LIG d   1       5.278  -8.902  -6.631  0.00  0.00    -0.019 A 
ATOM      8  C   LIG d   1       6.646  -9.009  -6.376  0.00  0.00     0.130 A 
ATOM      9  C   LIG d   1       7.356  -7.923  -5.898  0.00  0.00     0.051 A 
ATOM     10  C   LIG d   1       6.704  -6.717  -5.668  0.00  0.00     0.147 A 
ATOM     11  O   LIG d   1       7.384  -5.648  -5.207  0.00  0.00    -0.459 OA
ATOM     12  C   LIG d   1       8.834  -8.025  -5.621  0.00  0.00     0.034 C 
ATOM     13  N   LIG d   1       9.223  -9.439  -5.531  0.00  0.00    -0.266 N 
ATOM     14  C   LIG d   1       8.692 -10.184  -6.685  0.00  0.00     0.144 C 
ATOM     15  O   LIG d   1       7.266 -10.198  -6.603  0.00  0.00    -0.476 OA
ATOM     16  H   LIG d   1       3.564  -7.649  -6.613  0.00  0.00     0.063 H 
ATOM     17  H   LIG d   1       4.734  -9.757  -7.004  0.00  0.00     0.065 H 
ATOM     18  H   LIG d   1       9.394  -7.544  -6.437  0.00  0.00     0.048 H 
ATOM     19  H   LIG d   1       9.066  -7.521  -4.671  0.00  0.00     0.048 H 
ATOM     20  H   LIG d   1       9.010  -9.692  -7.617  0.00  0.00     0.087 H 
ATOM     21  H   LIG d   1       9.080 -11.214  -6.666  0.00  0.00     0.087 H 
ENDROOT
BRANCH   2  22
ATOM     22  C   LIG d   1       4.903  -2.902  -4.893  0.00  0.00    -0.007 A 
ATOM     23  C   LIG d   1       4.848  -1.939  -5.899  0.00  0.00    -0.008 A 
ATOM     24  C   LIG d   1       4.299  -0.697  -5.635  0.00  0.00     0.162 A 
ATOM     25  H   LIG d   1       5.234  -2.162  -6.883  0.00  0.00     0.066 H 
ATOM     26  C   LIG d   1       3.802  -0.412  -4.366  0.00  0.00     0.162 A 
ATOM     27  C   LIG d   1       3.857  -1.370  -3.366  0.00  0.00    -0.016 A 
ATOM     28  C   LIG d   1       4.399  -2.612  -3.626  0.00  0.00    -0.050 A 
ATOM     29  H   LIG d   1       3.472  -1.146  -2.382  0.00  0.00     0.066 H 
ATOM     30  H   LIG d   1       4.437  -3.360  -2.847  0.00  0.00     0.062 H 
BRANCH  24  31
ATOM     31  O   LIG d   1       4.243   0.245  -6.614  0.00  0.00    -0.491 OA
BRANCH  31  32
ATOM     32  C   LIG d   1       5.072   0.038  -7.760  0.00  0.00     0.079 C 
ATOM     33  H   LIG d   1       6.125   0.194  -7.484  0.00  0.00     0.066 H 
ATOM     34  H   LIG d   1       4.791   0.751  -8.550  0.00  0.00     0.066 H 
ATOM     35  H   LIG d   1       4.938  -0.989  -8.129  0.00  0.00     0.066 H 
ENDBRANCH  31  32
ENDBRANCH  24  31
BRANCH  26  36
ATOM     36  O   LIG d   1       3.261   0.809  -4.107  0.00  0.00    -0.491 OA
BRANCH  36  37
ATOM     37  C   LIG d   1       3.633   1.435  -2.878  0.00  0.00     0.079 C 
ATOM     38  H   LIG d   1       4.444   0.861  -2.404  0.00  0.00     0.066 H 
ATOM     39  H   LIG d   1       2.765   1.466  -2.204  0.00  0.00     0.066 H 
ATOM     40  H   LIG d   1       3.979   2.460  -3.077  0.00  0.00     0.066 H 
ENDBRANCH  36  37
ENDBRANCH  26  36
ENDBRANCH   2  22
BRANCH   1  41
ATOM     41  C   LIG d   1       7.671  -3.341  -4.443  0.00  0.00    -0.006 C 
ATOM     42  H   LIG d   1       7.757  -2.559  -5.211  0.00  0.00     0.031 H 
ATOM     43  H   LIG d   1       8.672  -3.727  -4.198  0.00  0.00     0.031 H 
ATOM     44  H   LIG d   1       7.210  -2.917  -3.538  0.00  0.00     0.031 H 
ENDBRANCH   1  41
BRANCH  13  45
ATOM     45  C   LIG d   1      10.682  -9.580  -5.439  0.00  0.00     0.007 C 
ATOM     46  H   LIG d   1      11.052 -10.138  -6.312  0.00  0.00     0.043 H 
ATOM     47  H   LIG d   1      11.146  -8.582  -5.418  0.00  0.00     0.043 H 
BRANCH  45  48
ATOM     48  C   LIG d   1      11.042 -10.337  -4.159  0.00  0.00    -0.009 C 
ATOM     49  H   LIG d   1      10.276 -11.098  -3.956  0.00  0.00     0.033 H 
ATOM     50  H   LIG d   1      12.020 -10.825  -4.285  0.00  0.00     0.033 H 
BRANCH  48  51
ATOM     51  C   LIG d   1      11.110  -9.369  -3.006  0.00  0.00    -0.009 A 
ATOM     52  S   LIG d   1      10.708  -9.638  -1.287  0.00  0.00    -0.102 SA
ATOM     53  C   LIG d   1      11.075  -7.998  -0.684  0.00  0.00    -0.024 A 
ATOM     54  C   LIG d   1      11.466  -7.363  -1.817  0.00  0.00    -0.054 A 
ATOM     55  H   LIG d   1      11.001  -7.611   0.321  0.00  0.00     0.069 H 
ATOM     56  C   LIG d   1      11.483  -8.066  -3.006  0.00  0.00    -0.051 A 
ATOM     57  H   LIG d   1      11.759  -6.324  -1.789  0.00  0.00     0.062 H 
ATOM     58  H   LIG d   1      11.790  -7.584  -3.923  0.00  0.00     0.063 H 
ENDBRANCH  48  51
ENDBRANCH  45  48
ENDBRANCH  13  45
TORSDOF 9
ENDMDL
MODEL 8
REMARK VINA RESULT:      -5.8      4.396     10.218
REMARK  9 active torsions:
REMARK  status: ('A' for Active; 'I' for Inactive)
REMARK    1  A    between atoms: C_1  and  C_2 
REMARK    2  A    between atoms: C_3  and  C_24 
REMARK    3  A    between atoms: N_14  and  C_17 
REMARK    4  A    between atoms: C_17  and  C_18 
REMARK    5  A    between atoms: C_18  and  C_19 
REMARK    6  A    between atoms: C_27  and  O_32 
REMARK    7  A    between atoms: C_28  and  O_30 
REMARK    8  A    between atoms: O_30  and  C_31 
REMARK    9  A    between atoms: O_32  and  C_33 
ROOT
ATOM      1  C   LIG d   1       9.919   7.656  -6.494  0.00  0.00     0.114 A 
ATOM      2  C   LIG d   1       9.905   6.397  -7.003  0.00  0.00     0.067 A 
ATOM      3  C   LIG d   1       9.919   5.258  -6.070  0.00  0.00     0.200 A 
ATOM      4  O   LIG d   1       9.907   4.105  -6.468  0.00  0.00    -0.286 OA
ATOM      5  C   LIG d   1       9.949   5.578  -4.632  0.00  0.00     0.065 A 
ATOM      6  C   LIG d   1       9.965   4.570  -3.665  0.00  0.00    -0.044 A 
ATOM      7  C   LIG d   1       9.992   4.904  -2.342  0.00  0.00    -0.019 A 
ATOM      8  C   LIG d   1      10.005   6.243  -1.949  0.00  0.00     0.130 A 
ATOM      9  C   LIG d   1       9.990   7.251  -2.895  0.00  0.00     0.051 A 
ATOM     10  C   LIG d   1       9.961   6.930  -4.248  0.00  0.00     0.147 A 
ATOM     11  O   LIG d   1       9.951   7.901  -5.182  0.00  0.00    -0.459 OA
ATOM     12  C   LIG d   1      10.007   8.701  -2.483  0.00  0.00     0.034 C 
ATOM     13  N   LIG d   1       9.625   8.816  -1.068  0.00  0.00    -0.266 N 
ATOM     14  C   LIG d   1      10.404   7.867  -0.255  0.00  0.00     0.144 C 
ATOM     15  O   LIG d   1      10.029   6.537  -0.621  0.00  0.00    -0.476 OA
ATOM     16  H   LIG d   1       9.956   3.533  -3.963  0.00  0.00     0.063 H 
ATOM     17  H   LIG d   1      10.004   4.125  -1.594  0.00  0.00     0.065 H 
ATOM     18  H   LIG d   1      11.018   9.110  -2.622  0.00  0.00     0.048 H 
ATOM     19  H   LIG d   1       9.294   9.267  -3.101  0.00  0.00     0.048 H 
ATOM     20  H   LIG d   1      11.478   8.019  -0.443  0.00  0.00     0.087 H 
ATOM     21  H   LIG d   1      10.191   8.037   0.811  0.00  0.00     0.087 H 
ENDROOT
BRANCH   2  22
ATOM     22  C   LIG d   1       9.876   6.174  -8.469  0.00  0.00    -0.007 A 
ATOM     23  C   LIG d   1      11.067   6.014  -9.173  0.00  0.00    -0.008 A 
ATOM     24  C   LIG d   1      11.036   5.806 -10.541  0.00  0.00     0.162 A 
ATOM     25  H   LIG d   1      12.013   6.052  -8.654  0.00  0.00     0.066 H 
ATOM     26  C   LIG d   1       9.816   5.757 -11.210  0.00  0.00     0.162 A 
ATOM     27  C   LIG d   1       8.632   5.918 -10.508  0.00  0.00    -0.016 A 
ATOM     28  C   LIG d   1       8.657   6.120  -9.143  0.00  0.00    -0.050 A 
ATOM     29  H   LIG d   1       7.686   5.880 -11.029  0.00  0.00     0.066 H 
ATOM     30  H   LIG d   1       7.733   6.239  -8.597  0.00  0.00     0.062 H 
BRANCH  24  31
ATOM     31  O   LIG d   1      12.197   5.650 -11.232  0.00  0.00    -0.491 OA
BRANCH  31  32
ATOM     32  C   LIG d   1      13.349   5.252 -10.484  0.00  0.00     0.079 C 
ATOM     33  H   LIG d   1      13.868   6.146 -10.109  0.00  0.00     0.066 H 
ATOM     34  H   LIG d   1      14.028   4.679 -11.133  0.00  0.00     0.066 H 
ATOM     35  H   LIG d   1      13.036   4.626  -9.636  0.00  0.00     0.066 H 
ENDBRANCH  31  32
ENDBRANCH  24  31
BRANCH  26  36
ATOM     36  O   LIG d   1       9.787   5.553 -12.554  0.00  0.00    -0.491 OA
BRANCH  36  37
ATOM     37  C   LIG d   1       8.997   6.456 -13.330  0.00  0.00     0.079 C 
ATOM     38  H   LIG d   1       9.465   6.597 -14.317  0.00  0.00     0.066 H 
ATOM     39  H   LIG d   1       8.934   7.425 -12.814  0.00  0.00     0.066 H 
ATOM     40  H   LIG d   1       7.987   6.043 -13.460  0.00  0.00     0.066 H 
ENDBRANCH  36  37
ENDBRANCH  26  36
ENDBRANCH   2  22
BRANCH   1  41
ATOM     41  C   LIG d   1       9.904   8.823  -7.448  0.00  0.00    -0.006 C 
ATOM     42  H   LIG d   1       9.247   9.611  -7.053  0.00  0.00     0.031 H 
ATOM     43  H   LIG d   1       9.530   8.491  -8.428  0.00  0.00     0.031 H 
ATOM     44  H   LIG d   1      10.925   9.219  -7.560  0.00  0.00     0.031 H 
ENDBRANCH   1  41
BRANCH  13  45
ATOM     45  C   LIG d   1       9.802  10.192  -0.585  0.00  0.00     0.007 C 
ATOM     46  H   LIG d   1       8.819  10.680  -0.502  0.00  0.00     0.043 H 
ATOM     47  H   LIG d   1      10.288  10.175   0.401  0.00  0.00     0.043 H 
BRANCH  45  48
ATOM     48  C   LIG d   1      10.675  10.970  -1.572  0.00  0.00    -0.009 C 
ATOM     49  H   LIG d   1      11.619  11.252  -1.083  0.00  0.00     0.033 H 
ATOM     50  H   LIG d   1      10.890  10.340  -2.448  0.00  0.00     0.033 H 
BRANCH  48  51
ATOM     51  C   LIG d   1       9.947  12.213  -2.015  0.00  0.00    -0.009 A 
ATOM     52  S   LIG d   1       8.690  12.393  -3.270  0.00  0.00    -0.102 SA
ATOM     53  C   LIG d   1       8.423  14.151  -3.108  0.00  0.00    -0.024 A 
ATOM     54  C   LIG d   1       9.301  14.479  -2.128  0.00  0.00    -0.054 A 
ATOM     55  H   LIG d   1       7.742  14.788  -3.651  0.00  0.00     0.069 H 
ATOM     56  C   LIG d   1      10.082  13.486  -1.569  0.00  0.00    -0.051 A 
ATOM     57  H   LIG d   1       9.389  15.501  -1.791  0.00  0.00     0.062 H 
ATOM     58  H   LIG d   1      10.790  13.720  -0.787  0.00  0.00     0.063 H 
ENDBRANCH  48  51
ENDBRANCH  45  48
ENDBRANCH  13  45
TORSDOF 9
ENDMDL
MODEL 9
REMARK VINA RESULT:      -5.8     11.105     14.152
REMARK  9 active torsions:
REMARK  status: ('A' for Active; 'I' for Inactive)
REMARK    1  A    between atoms: C_1  and  C_2 
REMARK    2  A    between atoms: C_3  and  C_24 
REMARK    3  A    between atoms: N_14  and  C_17 
REMARK    4  A    between atoms: C_17  and  C_18 
REMARK    5  A    between atoms: C_18  and  C_19 
REMARK    6  A    between atoms: C_27  and  O_32 
REMARK    7  A    between atoms: C_28  and  O_30 
REMARK    8  A    between atoms: O_30  and  C_31 
REMARK    9  A    between atoms: O_32  and  C_33 
ROOT
ATOM      1  C   LIG d   1       6.923  -4.556  -5.254  0.00  0.00     0.114 A 
ATOM      2  C   LIG d   1       5.629  -4.402  -5.633  0.00  0.00     0.067 A 
ATOM      3  C   LIG d   1       4.787  -5.602  -5.779  0.00  0.00     0.200 A 
ATOM      4  O   LIG d   1       3.618  -5.525  -6.116  0.00  0.00    -0.286 OA
ATOM      5  C   LIG d   1       5.427  -6.899  -5.498  0.00  0.00     0.065 A 
ATOM      6  C   LIG d   1       4.716  -8.096  -5.608  0.00  0.00    -0.044 A 
ATOM      7  C   LIG d   1       5.341  -9.279  -5.339  0.00  0.00    -0.019 A 
ATOM      8  C   LIG d   1       6.683  -9.302  -4.957  0.00  0.00     0.130 A 
ATOM      9  C   LIG d   1       7.399  -8.124  -4.845  0.00  0.00     0.051 A 
ATOM     10  C   LIG d   1       6.778  -6.909  -5.113  0.00  0.00     0.147 A 
ATOM     11  O   LIG d   1       7.465  -5.753  -5.014  0.00  0.00    -0.459 OA
ATOM     12  C   LIG d   1       8.850  -8.135  -4.437  0.00  0.00     0.034 C 
ATOM     13  N   LIG d   1       9.178  -9.427  -3.817  0.00  0.00    -0.266 N 
ATOM     14  C   LIG d   1       8.700 -10.531  -4.666  0.00  0.00     0.144 C 
ATOM     15  O   LIG d   1       7.272 -10.499  -4.695  0.00  0.00    -0.476 OA
ATOM     16  H   LIG d   1       3.678  -8.085  -5.903  0.00  0.00     0.063 H 
ATOM     17  H   LIG d   1       4.792 -10.206  -5.423  0.00  0.00     0.065 H 
ATOM     18  H   LIG d   1       9.482  -7.986  -5.325  0.00  0.00     0.048 H 
ATOM     19  H   LIG d   1       9.035  -7.326  -3.715  0.00  0.00     0.048 H 
ATOM     20  H   LIG d   1       9.099 -10.410  -5.684  0.00  0.00     0.087 H 
ATOM     21  H   LIG d   1       9.046 -11.489  -4.249  0.00  0.00     0.087 H 
ENDROOT
BRANCH   2  22
ATOM     22  C   LIG d   1       5.074  -3.052  -5.895  0.00  0.00    -0.007 A 
ATOM     23  C   LIG d   1       4.637  -2.259  -4.836  0.00  0.00    -0.008 A 
ATOM     24  C   LIG d   1       4.119  -1.000  -5.086  0.00  0.00     0.162 A 
ATOM     25  H   LIG d   1       4.701  -2.625  -3.823  0.00  0.00     0.066 H 
ATOM     26  C   LIG d   1       4.036  -0.528  -6.393  0.00  0.00     0.162 A 
ATOM     27  C   LIG d   1       4.471  -1.319  -7.447  0.00  0.00    -0.016 A 
ATOM     28  C   LIG d   1       4.993  -2.572  -7.202  0.00  0.00    -0.050 A 
ATOM     29  H   LIG d   1       4.405  -0.951  -8.460  0.00  0.00     0.066 H 
ATOM     30  H   LIG d   1       5.335  -3.185  -8.024  0.00  0.00     0.062 H 
BRANCH  24  31
ATOM     31  O   LIG d   1       3.691  -0.223  -4.055  0.00  0.00    -0.491 OA
BRANCH  31  32
ATOM     32  C   LIG d   1       2.707  -0.785  -3.184  0.00  0.00     0.079 C 
ATOM     33  H   LIG d   1       2.294   0.004  -2.540  0.00  0.00     0.066 H 
ATOM     34  H   LIG d   1       3.171  -1.563  -2.560  0.00  0.00     0.066 H 
ATOM     35  H   LIG d   1       1.898  -1.229  -3.783  0.00  0.00     0.066 H 
ENDBRANCH  31  32
ENDBRANCH  24  31
BRANCH  26  36
ATOM     36  O   LIG d   1       3.528   0.709  -6.638  0.00  0.00    -0.491 OA
BRANCH  36  37
ATOM     37  C   LIG d   1       2.988   0.942  -7.940  0.00  0.00     0.079 C 
ATOM     38  H   LIG d   1       3.280   1.946  -8.284  0.00  0.00     0.066 H 
ATOM     39  H   LIG d   1       1.891   0.875  -7.900  0.00  0.00     0.066 H 
ATOM     40  H   LIG d   1       3.376   0.187  -8.639  0.00  0.00     0.066 H 
ENDBRANCH  36  37
ENDBRANCH  26  36
ENDBRANCH   2  22
BRANCH   1  41
ATOM     41  C   LIG d   1       7.786  -3.329  -5.104  0.00  0.00    -0.006 C 
ATOM     42  H   LIG d   1       8.650  -3.403  -5.781  0.00  0.00     0.031 H 
ATOM     43  H   LIG d   1       8.140  -3.255  -4.065  0.00  0.00     0.031 H 
ATOM     44  H   LIG d   1       7.198  -2.434  -5.357  0.00  0.00     0.031 H 
ENDBRANCH   1  41
BRANCH  13  45
ATOM     45  C   LIG d   1      10.621  -9.540  -3.568  0.00  0.00     0.007 C 
ATOM     46  H   LIG d   1      10.822 -10.453  -2.988  0.00  0.00     0.043 H 
ATOM     47  H   LIG d   1      11.156  -9.591  -4.528  0.00  0.00     0.043 H 
BRANCH  45  48
ATOM     48  C   LIG d   1      11.100  -8.319  -2.781  0.00  0.00    -0.009 C 
ATOM     49  H   LIG d   1      12.086  -8.006  -3.154  0.00  0.00     0.033 H 
ATOM     50  H   LIG d   1      10.381  -7.496  -2.909  0.00  0.00     0.033 H 
BRANCH  48  51
ATOM     51  C   LIG d   1      11.204  -8.673  -1.320  0.00  0.00    -0.009 A 
ATOM     52  S   LIG d   1      12.503  -8.286  -0.158  0.00  0.00    -0.102 SA
ATOM     53  C   LIG d   1      11.798  -9.077   1.280  0.00  0.00    -0.024 A 
ATOM     54  C   LIG d   1      10.642  -9.581   0.783  0.00  0.00    -0.054 A 
ATOM     55  H   LIG d   1      12.193  -9.140   2.282  0.00  0.00     0.069 H 
ATOM     56  C   LIG d   1      10.337  -9.374  -0.548  0.00  0.00    -0.051 A 
ATOM     57  H   LIG d   1       9.968 -10.137   1.420  0.00  0.00     0.062 H 
ATOM     58  H   LIG d   1       9.422  -9.766  -0.969  0.00  0.00     0.063 H 
ENDBRANCH  48  51
ENDBRANCH  45  48
ENDBRANCH  13  45
TORSDOF 9
ENDMDL
