MODEL 1
REMARK VINA RESULT:      -6.9      0.000      0.000
REMARK  6 active torsions:
REMARK  status: ('A' for Active; 'I' for Inactive)
REMARK    1  A    between atoms: C_1  and  O_2 
REMARK    2  A    between atoms: O_2  and  C_3 
REMARK    3  A    between atoms: C_3  and  C_5 
REMARK    4  A    between atoms: C_21  and  C_34 
REMARK    5  A    between atoms: C_24  and  N_27 
REMARK    6  A    between atoms: C_30  and  O_33 
ROOT
ATOM      1  C   LIG d   1       5.595  -0.457  -8.149  0.00  0.00     0.113 C 
ATOM      2  H   LIG d   1       4.563  -0.173  -8.357  0.00  0.00     0.058 H 
ATOM      3  C   LIG d   1       5.964  -0.032  -6.721  0.00  0.00     0.001 C 
ATOM      4  C   LIG d   1       5.236  -0.936  -5.758  0.00  0.00    -0.016 A 
ATOM      5  C   LIG d   1       5.003  -0.765  -4.341  0.00  0.00     0.003 A 
ATOM      6  C   LIG d   1       5.353   0.241  -3.434  0.00  0.00    -0.052 A 
ATOM      7  C   LIG d   1       4.956   0.068  -2.132  0.00  0.00    -0.061 A 
ATOM      8  C   LIG d   1       4.240  -1.044  -1.721  0.00  0.00    -0.060 A 
ATOM      9  C   LIG d   1       3.879  -2.054  -2.597  0.00  0.00    -0.038 A 
ATOM     10  C   LIG d   1       4.269  -1.907  -3.927  0.00  0.00     0.047 A 
ATOM     11  N   LIG d   1       4.084  -2.693  -5.027  0.00  0.00    -0.356 N 
ATOM     12  H   LIG d   1       3.612  -3.541  -5.034  0.00  0.00     0.166 HD
ATOM     13  C   LIG d   1       4.663  -2.107  -6.119  0.00  0.00     0.038 A 
ATOM     14  C   LIG d   1       4.691  -2.630  -7.534  0.00  0.00     0.057 C 
ATOM     15  H   LIG d   1       3.724  -2.459  -8.006  0.00  0.00     0.053 H 
ATOM     16  N   LIG d   1       5.736  -1.912  -8.279  0.00  0.00    -0.274 N 
ATOM     17  C   LIG d   1       5.760  -2.333  -9.685  0.00  0.00     0.042 C 
ATOM     18  H   LIG d   1       6.514  -1.758 -10.224  0.00  0.00     0.051 H 
ATOM     19  C   LIG d   1       6.102  -3.823  -9.760  0.00  0.00     0.010 C 
ATOM     20  C   LIG d   1       5.060  -4.627  -8.978  0.00  0.00    -0.017 C 
ATOM     21  H   LIG d   1       4.081  -4.499  -9.441  0.00  0.00     0.085 H 
ATOM     22  C   LIG d   1       5.003  -4.127  -7.531  0.00  0.00     0.012 C 
ATOM     23  H   LIG d   1       7.040  -0.131  -6.575  0.00  0.00     0.033 H 
ATOM     24  H   LIG d   1       5.663   1.002  -6.556  0.00  0.00     0.033 H 
ATOM     25  H   LIG d   1       5.912   1.111  -3.745  0.00  0.00     0.062 H 
ATOM     26  H   LIG d   1       5.209   0.825  -1.404  0.00  0.00     0.062 H 
ATOM     27  H   LIG d   1       3.954  -1.127  -0.683  0.00  0.00     0.062 H 
ATOM     28  H   LIG d   1       3.321  -2.917  -2.265  0.00  0.00     0.064 H 
ATOM     29  H   LIG d   1       6.102  -4.144 -10.802  0.00  0.00     0.034 H 
ATOM     30  H   LIG d   1       7.089  -3.991  -9.328  0.00  0.00     0.034 H 
ATOM     31  H   LIG d   1       5.967  -4.298  -7.053  0.00  0.00     0.034 H 
ATOM     32  H   LIG d   1       4.224  -4.661  -6.986  0.00  0.00     0.034 H 
ENDROOT
BRANCH  20  33
ATOM     33  N   LIG d   1       5.427  -6.049  -8.992  0.00  0.00     0.239 N 
ATOM     34  C   LIG d   1       4.961  -6.694  -7.750  0.00  0.00    -0.005 C 
ATOM     35  C   LIG d   1       3.999  -7.831  -8.159  0.00  0.00     0.100 C 
ATOM     36  H   LIG d   1       5.810  -7.104  -7.205  0.00  0.00     0.084 H 
ATOM     37  H   LIG d   1       4.434  -5.968  -7.132  0.00  0.00     0.084 H 
ATOM     38  C   LIG d   1       4.417  -8.132  -9.622  0.00  0.00     0.018 C 
ATOM     39  H   LIG d   1       2.965  -7.494  -8.115  0.00  0.00     0.065 H 
ATOM     40  C   LIG d   1       4.781  -6.718 -10.141  0.00  0.00    -0.029 C 
ATOM     41  H   LIG d   1       3.585  -8.552 -10.187  0.00  0.00     0.034 H 
ATOM     42  H   LIG d   1       5.282  -8.795  -9.654  0.00  0.00     0.034 H 
ATOM     43  H   LIG d   1       3.881  -6.179 -10.438  0.00  0.00     0.082 H 
ATOM     44  H   LIG d   1       5.475  -6.789 -10.979  0.00  0.00     0.082 H 
ATOM     45  H   LIG d   1       6.429  -6.141  -9.067  0.00  0.00     0.204 HD
BRANCH  35  46
ATOM     46  O   LIG d   1       4.191  -8.980  -7.332  0.00  0.00    -0.386 OA
ATOM     47  H   LIG d   1       3.755  -8.922  -6.471  0.00  0.00     0.210 HD
ENDBRANCH  35  46
ENDBRANCH  20  33
BRANCH  17  48
ATOM     48  C   LIG d   1       4.407  -2.094 -10.305  0.00  0.00    -0.027 A 
ATOM     49  C   LIG d   1       3.395  -1.526  -9.554  0.00  0.00    -0.020 A 
ATOM     50  C   LIG d   1       2.154  -1.300 -10.124  0.00  0.00     0.142 A 
ATOM     51  H   LIG d   1       3.574  -1.253  -8.524  0.00  0.00     0.065 H 
ATOM     52  C   LIG d   1       1.924  -1.655 -11.443  0.00  0.00     0.076 A 
ATOM     53  F   LIG d   1       1.165  -0.739  -9.393  0.00  0.00    -0.204 F 
ATOM     54  C   LIG d   1       2.937  -2.229 -12.191  0.00  0.00    -0.040 A 
ATOM     55 CL   LIG d   1       0.367  -1.379 -12.159  0.00  0.00    -0.081 Cl
ATOM     56  C   LIG d   1       4.177  -2.447 -11.621  0.00  0.00    -0.056 A 
ATOM     57  H   LIG d   1       2.760  -2.505 -13.219  0.00  0.00     0.063 H 
ATOM     58  H   LIG d   1       4.968  -2.896 -12.205  0.00  0.00     0.062 H 
ENDBRANCH  17  48
BRANCH   1  59
ATOM     59  C   LIG d   1       6.512   0.226  -9.130  0.00  0.00     0.325 C 
ATOM     60  O   LIG d   1       7.703   0.023  -9.086  0.00  0.00    -0.249 OA
BRANCH  59  61
ATOM     61  O   LIG d   1       6.007   1.060 -10.053  0.00  0.00    -0.467 OA
BRANCH  61  62
ATOM     62  C   LIG d   1       4.868   1.835  -9.673  0.00  0.00     0.082 C 
ATOM     63  H   LIG d   1       3.958   1.297  -9.940  0.00  0.00     0.066 H 
ATOM     64  H   LIG d   1       4.888   2.005  -8.596  0.00  0.00     0.066 H 
ATOM     65  H   LIG d   1       4.890   2.791 -10.194  0.00  0.00     0.066 H 
ENDBRANCH  61  62
ENDBRANCH  59  61
ENDBRANCH   1  59
TORSDOF 6
ENDMDL
MODEL 2
REMARK VINA RESULT:      -6.9      3.877      4.898
REMARK  6 active torsions:
REMARK  status: ('A' for Active; 'I' for Inactive)
REMARK    1  A    between atoms: C_1  and  O_2 
REMARK    2  A    between atoms: O_2  and  C_3 
REMARK    3  A    between atoms: C_3  and  C_5 
REMARK    4  A    between atoms: C_21  and  C_34 
REMARK    5  A    between atoms: C_24  and  N_27 
REMARK    6  A    between atoms: C_30  and  O_33 
ROOT
ATOM      1  C   LIG d   1       7.964  -3.287  -4.915  0.00  0.00     0.113 C 
ATOM      2  H   LIG d   1       7.936  -2.734  -5.854  0.00  0.00     0.058 H 
ATOM      3  C   LIG d   1       7.486  -2.380  -3.773  0.00  0.00     0.001 C 
ATOM      4  C   LIG d   1       6.000  -2.179  -3.923  0.00  0.00    -0.016 A 
ATOM      5  C   LIG d   1       5.144  -1.188  -3.308  0.00  0.00     0.003 A 
ATOM      6  C   LIG d   1       5.391  -0.139  -2.417  0.00  0.00    -0.052 A 
ATOM      7  C   LIG d   1       4.311   0.618  -2.035  0.00  0.00    -0.061 A 
ATOM      8  C   LIG d   1       3.033   0.367  -2.503  0.00  0.00    -0.060 A 
ATOM      9  C   LIG d   1       2.759  -0.663  -3.386  0.00  0.00    -0.038 A 
ATOM     10  C   LIG d   1       3.835  -1.451  -3.792  0.00  0.00     0.047 A 
ATOM     11  N   LIG d   1       3.919  -2.522  -4.634  0.00  0.00    -0.356 N 
ATOM     12  H   LIG d   1       3.171  -2.919  -5.109  0.00  0.00     0.166 HD
ATOM     13  C   LIG d   1       5.216  -2.952  -4.710  0.00  0.00     0.038 A 
ATOM     14  C   LIG d   1       5.755  -4.100  -5.526  0.00  0.00     0.057 C 
ATOM     15  H   LIG d   1       5.837  -3.799  -6.570  0.00  0.00     0.053 H 
ATOM     16  N   LIG d   1       7.085  -4.458  -5.011  0.00  0.00    -0.274 N 
ATOM     17  C   LIG d   1       7.688  -5.527  -5.816  0.00  0.00     0.042 C 
ATOM     18  H   LIG d   1       8.688  -5.746  -5.440  0.00  0.00     0.051 H 
ATOM     19  C   LIG d   1       6.819  -6.784  -5.719  0.00  0.00     0.010 C 
ATOM     20  C   LIG d   1       5.407  -6.468  -6.220  0.00  0.00    -0.017 C 
ATOM     21  H   LIG d   1       5.450  -6.188  -7.272  0.00  0.00     0.085 H 
ATOM     22  C   LIG d   1       4.822  -5.306  -5.411  0.00  0.00     0.012 C 
ATOM     23  H   LIG d   1       7.698  -2.854  -2.814  0.00  0.00     0.033 H 
ATOM     24  H   LIG d   1       7.996  -1.419  -3.830  0.00  0.00     0.033 H 
ATOM     25  H   LIG d   1       6.384   0.063  -2.046  0.00  0.00     0.062 H 
ATOM     26  H   LIG d   1       4.465   1.437  -1.348  0.00  0.00     0.062 H 
ATOM     27  H   LIG d   1       2.221   0.996  -2.168  0.00  0.00     0.062 H 
ATOM     28  H   LIG d   1       1.757  -0.850  -3.744  0.00  0.00     0.064 H 
ATOM     29  H   LIG d   1       7.254  -7.574  -6.331  0.00  0.00     0.034 H 
ATOM     30  H   LIG d   1       6.771  -7.113  -4.681  0.00  0.00     0.034 H 
ATOM     31  H   LIG d   1       4.735  -5.602  -4.366  0.00  0.00     0.034 H 
ATOM     32  H   LIG d   1       3.838  -5.044  -5.800  0.00  0.00     0.034 H 
ENDROOT
BRANCH  20  33
ATOM     33  N   LIG d   1       4.555  -7.654  -6.062  0.00  0.00     0.239 N 
ATOM     34  C   LIG d   1       4.485  -8.388  -7.339  0.00  0.00    -0.005 C 
ATOM     35  C   LIG d   1       5.024  -9.811  -7.078  0.00  0.00     0.100 C 
ATOM     36  H   LIG d   1       3.452  -8.440  -7.681  0.00  0.00     0.084 H 
ATOM     37  H   LIG d   1       5.102  -7.890  -8.086  0.00  0.00     0.084 H 
ATOM     38  C   LIG d   1       4.837  -9.981  -5.548  0.00  0.00     0.018 C 
ATOM     39  H   LIG d   1       6.077  -9.879  -7.348  0.00  0.00     0.065 H 
ATOM     40  C   LIG d   1       5.132  -8.549  -5.036  0.00  0.00    -0.029 C 
ATOM     41  H   LIG d   1       5.553 -10.695  -5.143  0.00  0.00     0.034 H 
ATOM     42  H   LIG d   1       3.815 -10.278  -5.309  0.00  0.00     0.034 H 
ATOM     43  H   LIG d   1       6.207  -8.389  -4.954  0.00  0.00     0.082 H 
ATOM     44  H   LIG d   1       4.649  -8.383  -4.072  0.00  0.00     0.082 H 
ATOM     45  H   LIG d   1       3.628  -7.372  -5.781  0.00  0.00     0.204 HD
BRANCH  35  46
ATOM     46  O   LIG d   1       4.257 -10.784  -7.792  0.00  0.00    -0.386 OA
ATOM     47  H   LIG d   1       4.712 -11.156  -8.560  0.00  0.00     0.210 HD
ENDBRANCH  35  46
ENDBRANCH  20  33
BRANCH  17  48
ATOM     48  C   LIG d   1       7.778  -5.085  -7.254  0.00  0.00    -0.027 A 
ATOM     49  C   LIG d   1       7.424  -3.795  -7.602  0.00  0.00    -0.020 A 
ATOM     50  C   LIG d   1       7.511  -3.386  -8.922  0.00  0.00     0.142 A 
ATOM     51  H   LIG d   1       7.084  -3.104  -6.844  0.00  0.00     0.065 H 
ATOM     52  C   LIG d   1       7.942  -4.273  -9.894  0.00  0.00     0.076 A 
ATOM     53  F   LIG d   1       7.171  -2.123  -9.262  0.00  0.00    -0.204 F 
ATOM     54  C   LIG d   1       8.290  -5.566  -9.543  0.00  0.00    -0.040 A 
ATOM     55 CL   LIG d   1       8.046  -3.765 -11.550  0.00  0.00    -0.081 Cl
ATOM     56  C   LIG d   1       8.207  -5.970  -8.224  0.00  0.00    -0.056 A 
ATOM     57  H   LIG d   1       8.626  -6.259 -10.300  0.00  0.00     0.063 H 
ATOM     58  H   LIG d   1       8.479  -6.980  -7.951  0.00  0.00     0.062 H 
ENDBRANCH  17  48
BRANCH   1  59
ATOM     59  C   LIG d   1       9.375  -3.740  -4.640  0.00  0.00     0.325 C 
ATOM     60  O   LIG d   1      10.255  -3.487  -5.429  0.00  0.00    -0.249 OA
BRANCH  59  61
ATOM     61  O   LIG d   1       9.655  -4.425  -3.520  0.00  0.00    -0.467 OA
BRANCH  61  62
ATOM     62  C   LIG d   1      10.975  -4.290  -2.990  0.00  0.00     0.082 C 
ATOM     63  H   LIG d   1      11.606  -5.089  -3.381  0.00  0.00     0.066 H 
ATOM     64  H   LIG d   1      11.387  -3.325  -3.284  0.00  0.00     0.066 H 
ATOM     65  H   LIG d   1      10.938  -4.356  -1.904  0.00  0.00     0.066 H 
ENDBRANCH  61  62
ENDBRANCH  59  61
ENDBRANCH   1  59
TORSDOF 6
ENDMDL
MODEL 3
REMARK VINA RESULT:      -6.8      5.715      8.327
REMARK  6 active torsions:
REMARK  status: ('A' for Active; 'I' for Inactive)
REMARK    1  A    between atoms: C_1  and  O_2 
REMARK    2  A    between atoms: O_2  and  C_3 
REMARK    3  A    between atoms: C_3  and  C_5 
REMARK    4  A    between atoms: C_21  and  C_34 
REMARK    5  A    between atoms: C_24  and  N_27 
REMARK    6  A    between atoms: C_30  and  O_33 
ROOT
ATOM      1  C   LIG d   1       6.604  -4.459  -4.936  0.00  0.00     0.113 C 
ATOM      2  H   LIG d   1       6.824  -4.872  -3.951  0.00  0.00     0.058 H 
ATOM      3  C   LIG d   1       5.356  -3.570  -4.851  0.00  0.00     0.001 C 
ATOM      4  C   LIG d   1       5.725  -2.312  -4.107  0.00  0.00    -0.016 A 
ATOM      5  C   LIG d   1       4.862  -1.319  -3.505  0.00  0.00     0.003 A 
ATOM      6  C   LIG d   1       3.472  -1.197  -3.412  0.00  0.00    -0.052 A 
ATOM      7  C   LIG d   1       2.988  -0.096  -2.751  0.00  0.00    -0.061 A 
ATOM      8  C   LIG d   1       3.826   0.857  -2.196  0.00  0.00    -0.060 A 
ATOM      9  C   LIG d   1       5.204   0.762  -2.271  0.00  0.00    -0.038 A 
ATOM     10  C   LIG d   1       5.726  -0.346  -2.937  0.00  0.00     0.047 A 
ATOM     11  N   LIG d   1       7.008  -0.742  -3.190  0.00  0.00    -0.356 N 
ATOM     12  H   LIG d   1       7.805  -0.262  -2.915  0.00  0.00     0.166 HD
ATOM     13  C   LIG d   1       7.001  -1.919  -3.888  0.00  0.00     0.038 A 
ATOM     14  C   LIG d   1       8.193  -2.709  -4.367  0.00  0.00     0.057 C 
ATOM     15  H   LIG d   1       8.629  -3.255  -3.530  0.00  0.00     0.053 H 
ATOM     16  N   LIG d   1       7.745  -3.659  -5.395  0.00  0.00    -0.274 N 
ATOM     17  C   LIG d   1       8.857  -4.505  -5.847  0.00  0.00     0.042 C 
ATOM     18  H   LIG d   1       8.491  -5.226  -6.578  0.00  0.00     0.051 H 
ATOM     19  C   LIG d   1       9.932  -3.625  -6.491  0.00  0.00     0.010 C 
ATOM     20  C   LIG d   1      10.424  -2.592  -5.473  0.00  0.00    -0.017 C 
ATOM     21  H   LIG d   1      10.890  -3.106  -4.632  0.00  0.00     0.085 H 
ATOM     22  C   LIG d   1       9.239  -1.766  -4.964  0.00  0.00     0.012 C 
ATOM     23  H   LIG d   1       5.016  -3.317  -5.856  0.00  0.00     0.033 H 
ATOM     24  H   LIG d   1       4.566  -4.097  -4.317  0.00  0.00     0.033 H 
ATOM     25  H   LIG d   1       2.811  -1.935  -3.843  0.00  0.00     0.062 H 
ATOM     26  H   LIG d   1       1.919   0.030  -2.660  0.00  0.00     0.062 H 
ATOM     27  H   LIG d   1       3.388   1.703  -1.687  0.00  0.00     0.062 H 
ATOM     28  H   LIG d   1       5.847   1.512  -1.835  0.00  0.00     0.064 H 
ATOM     29  H   LIG d   1      10.767  -4.247  -6.810  0.00  0.00     0.034 H 
ATOM     30  H   LIG d   1       9.510  -3.110  -7.354  0.00  0.00     0.034 H 
ATOM     31  H   LIG d   1       8.800  -1.214  -5.795  0.00  0.00     0.034 H 
ATOM     32  H   LIG d   1       9.577  -1.066  -4.199  0.00  0.00     0.034 H 
ENDROOT
BRANCH  20  33
ATOM     33  N   LIG d   1      11.404  -1.704  -6.111  0.00  0.00     0.239 N 
ATOM     34  C   LIG d   1      11.071  -0.300  -5.810  0.00  0.00    -0.005 C 
ATOM     35  C   LIG d   1      12.286   0.312  -5.081  0.00  0.00     0.100 C 
ATOM     36  H   LIG d   1      10.882   0.243  -6.736  0.00  0.00     0.084 H 
ATOM     37  H   LIG d   1      10.193  -0.257  -5.166  0.00  0.00     0.084 H 
ATOM     38  C   LIG d   1      13.454  -0.611  -5.514  0.00  0.00     0.018 C 
ATOM     39  H   LIG d   1      12.146   0.276  -4.001  0.00  0.00     0.065 H 
ATOM     40  C   LIG d   1      12.754  -1.991  -5.581  0.00  0.00    -0.029 C 
ATOM     41  H   LIG d   1      14.249  -0.613  -4.767  0.00  0.00     0.034 H 
ATOM     42  H   LIG d   1      13.841  -0.321  -6.491  0.00  0.00     0.034 H 
ATOM     43  H   LIG d   1      12.686  -2.432  -4.586  0.00  0.00     0.082 H 
ATOM     44  H   LIG d   1      13.293  -2.658  -6.256  0.00  0.00     0.082 H 
ATOM     45  H   LIG d   1      11.395  -1.849  -7.109  0.00  0.00     0.204 HD
BRANCH  35  46
ATOM     46  O   LIG d   1      12.516   1.655  -5.514  0.00  0.00    -0.386 OA
ATOM     47  H   LIG d   1      12.554   2.299  -4.794  0.00  0.00     0.210 HD
ENDBRANCH  35  46
ENDBRANCH  20  33
BRANCH  17  48
ATOM     48  C   LIG d   1       9.443  -5.237  -4.668  0.00  0.00    -0.027 A 
ATOM     49  C   LIG d   1       9.152  -4.820  -3.383  0.00  0.00    -0.020 A 
ATOM     50  C   LIG d   1       9.686  -5.496  -2.298  0.00  0.00     0.142 A 
ATOM     51  H   LIG d   1       8.504  -3.970  -3.224  0.00  0.00     0.065 H 
ATOM     52  C   LIG d   1      10.520  -6.582  -2.503  0.00  0.00     0.076 A 
ATOM     53  F   LIG d   1       9.397  -5.092  -1.041  0.00  0.00    -0.204 F 
ATOM     54  C   LIG d   1      10.815  -6.994  -3.791  0.00  0.00    -0.040 A 
ATOM     55 CL   LIG d   1      11.196  -7.427  -1.146  0.00  0.00    -0.081 Cl
ATOM     56  C   LIG d   1      10.276  -6.321  -4.871  0.00  0.00    -0.056 A 
ATOM     57  H   LIG d   1      11.465  -7.840  -3.952  0.00  0.00     0.063 H 
ATOM     58  H   LIG d   1      10.507  -6.643  -5.877  0.00  0.00     0.062 H 
ENDBRANCH  17  48
BRANCH   1  59
ATOM     59  C   LIG d   1       6.356  -5.583  -5.908  0.00  0.00     0.325 C 
ATOM     60  O   LIG d   1       6.085  -5.336  -7.060  0.00  0.00    -0.249 OA
BRANCH  59  61
ATOM     61  O   LIG d   1       6.435  -6.858  -5.496  0.00  0.00    -0.467 OA
BRANCH  61  62
ATOM     62  C   LIG d   1       5.211  -7.592  -5.421  0.00  0.00     0.082 C 
ATOM     63  H   LIG d   1       4.559  -7.295  -6.242  0.00  0.00     0.066 H 
ATOM     64  H   LIG d   1       5.423  -8.659  -5.493  0.00  0.00     0.066 H 
ATOM     65  H   LIG d   1       4.719  -7.381  -4.472  0.00  0.00     0.066 H 
ENDBRANCH  61  62
ENDBRANCH  59  61
ENDBRANCH   1  59
TORSDOF 6
ENDMDL
MODEL 4
REMARK VINA RESULT:      -6.8      4.189      6.892
REMARK  6 active torsions:
REMARK  status: ('A' for Active; 'I' for Inactive)
REMARK    1  A    between atoms: C_1  and  O_2 
REMARK    2  A    between atoms: O_2  and  C_3 
REMARK    3  A    between atoms: C_3  and  C_5 
REMARK    4  A    between atoms: C_21  and  C_34 
REMARK    5  A    between atoms: C_24  and  N_27 
REMARK    6  A    between atoms: C_30  and  O_33 
ROOT
ATOM      1  C   LIG d   1       3.983  -0.032  -5.825  0.00  0.00     0.113 C 
ATOM      2  H   LIG d   1       4.485   0.884  -6.142  0.00  0.00     0.058 H 
ATOM      3  C   LIG d   1       2.824  -0.337  -6.784  0.00  0.00     0.001 C 
ATOM      4  C   LIG d   1       3.407  -0.788  -8.099  0.00  0.00    -0.016 A 
ATOM      5  C   LIG d   1       2.771  -0.894  -9.394  0.00  0.00     0.003 A 
ATOM      6  C   LIG d   1       1.474  -0.625  -9.841  0.00  0.00    -0.052 A 
ATOM      7  C   LIG d   1       1.217  -0.846 -11.171  0.00  0.00    -0.061 A 
ATOM      8  C   LIG d   1       2.189  -1.311 -12.041  0.00  0.00    -0.060 A 
ATOM      9  C   LIG d   1       3.481  -1.583 -11.627  0.00  0.00    -0.038 A 
ATOM     10  C   LIG d   1       3.772  -1.370 -10.281  0.00  0.00     0.047 A 
ATOM     11  N   LIG d   1       4.917  -1.532  -9.555  0.00  0.00    -0.356 N 
ATOM     12  H   LIG d   1       5.763  -1.848  -9.910  0.00  0.00     0.166 HD
ATOM     13  C   LIG d   1       4.692  -1.181  -8.251  0.00  0.00     0.038 A 
ATOM     14  C   LIG d   1       5.682  -1.203  -7.113  0.00  0.00     0.057 C 
ATOM     15  H   LIG d   1       6.344  -0.341  -7.188  0.00  0.00     0.053 H 
ATOM     16  N   LIG d   1       4.940  -1.144  -5.845  0.00  0.00    -0.274 N 
ATOM     17  C   LIG d   1       5.859  -1.092  -4.701  0.00  0.00     0.042 C 
ATOM     18  H   LIG d   1       5.286  -1.008  -3.778  0.00  0.00     0.051 H 
ATOM     19  C   LIG d   1       6.698  -2.372  -4.669  0.00  0.00     0.010 C 
ATOM     20  C   LIG d   1       7.479  -2.505  -5.979  0.00  0.00    -0.017 C 
ATOM     21  H   LIG d   1       8.173  -1.669  -6.073  0.00  0.00     0.085 H 
ATOM     22  C   LIG d   1       6.507  -2.490  -7.162  0.00  0.00     0.012 C 
ATOM     23  H   LIG d   1       2.200  -1.128  -6.367  0.00  0.00     0.033 H 
ATOM     24  H   LIG d   1       2.226   0.562  -6.935  0.00  0.00     0.033 H 
ATOM     25  H   LIG d   1       0.709  -0.264  -9.169  0.00  0.00     0.062 H 
ATOM     26  H   LIG d   1       0.226  -0.649 -11.551  0.00  0.00     0.062 H 
ATOM     27  H   LIG d   1       1.930  -1.466 -13.078  0.00  0.00     0.062 H 
ATOM     28  H   LIG d   1       4.231  -1.946 -12.315  0.00  0.00     0.064 H 
ATOM     29  H   LIG d   1       7.395  -2.328  -3.833  0.00  0.00     0.034 H 
ATOM     30  H   LIG d   1       6.041  -3.233  -4.549  0.00  0.00     0.034 H 
ATOM     31  H   LIG d   1       5.843  -3.352  -7.094  0.00  0.00     0.034 H 
ATOM     32  H   LIG d   1       7.064  -2.530  -8.099  0.00  0.00     0.034 H 
ENDROOT
BRANCH  20  33
ATOM     33  N   LIG d   1       8.230  -3.767  -5.976  0.00  0.00     0.239 N 
ATOM     34  C   LIG d   1       9.552  -3.556  -5.358  0.00  0.00    -0.005 C 
ATOM     35  C   LIG d   1       9.645  -4.504  -4.143  0.00  0.00     0.100 C 
ATOM     36  H   LIG d   1      10.338  -3.794  -6.074  0.00  0.00     0.084 H 
ATOM     37  H   LIG d   1       9.646  -2.522  -5.029  0.00  0.00     0.084 H 
ATOM     38  C   LIG d   1       8.601  -5.602  -4.476  0.00  0.00     0.018 C 
ATOM     39  H   LIG d   1       9.375  -3.982  -3.226  0.00  0.00     0.065 H 
ATOM     40  C   LIG d   1       7.497  -4.780  -5.186  0.00  0.00    -0.029 C 
ATOM     41  H   LIG d   1       8.218  -6.066  -3.567  0.00  0.00     0.034 H 
ATOM     42  H   LIG d   1       9.023  -6.352  -5.147  0.00  0.00     0.034 H 
ATOM     43  H   LIG d   1       6.853  -4.296  -4.452  0.00  0.00     0.082 H 
ATOM     44  H   LIG d   1       6.910  -5.421  -5.844  0.00  0.00     0.082 H 
ATOM     45  H   LIG d   1       8.346  -4.096  -6.923  0.00  0.00     0.204 HD
BRANCH  35  46
ATOM     46  O   LIG d   1      10.954  -5.067  -4.036  0.00  0.00    -0.386 OA
ATOM     47  H   LIG d   1      11.474  -5.011  -4.849  0.00  0.00     0.210 HD
ENDBRANCH  35  46
ENDBRANCH  20  33
BRANCH  17  48
ATOM     48  C   LIG d   1       6.767   0.103  -4.841  0.00  0.00    -0.027 A 
ATOM     49  C   LIG d   1       7.186   0.509  -6.094  0.00  0.00    -0.020 A 
ATOM     50  C   LIG d   1       8.015   1.610  -6.223  0.00  0.00     0.142 A 
ATOM     51  H   LIG d   1       6.862  -0.030  -6.973  0.00  0.00     0.065 H 
ATOM     52  C   LIG d   1       8.433   2.297  -5.095  0.00  0.00     0.076 A 
ATOM     53  F   LIG d   1       8.420   2.011  -7.448  0.00  0.00    -0.204 F 
ATOM     54  C   LIG d   1       8.017   1.885  -3.842  0.00  0.00    -0.040 A 
ATOM     55 CL   LIG d   1       9.478   3.674  -5.254  0.00  0.00    -0.081 Cl
ATOM     56  C   LIG d   1       7.185   0.789  -3.716  0.00  0.00    -0.056 A 
ATOM     57  H   LIG d   1       8.342   2.419  -2.962  0.00  0.00     0.063 H 
ATOM     58  H   LIG d   1       6.860   0.467  -2.736  0.00  0.00     0.062 H 
ENDBRANCH  17  48
BRANCH   1  59
ATOM     59  C   LIG d   1       3.447   0.145  -4.428  0.00  0.00     0.325 C 
ATOM     60  O   LIG d   1       2.830  -0.750  -3.900  0.00  0.00    -0.249 OA
BRANCH  59  61
ATOM     61  O   LIG d   1       3.655   1.296  -3.770  0.00  0.00    -0.467 OA
BRANCH  61  62
ATOM     62  C   LIG d   1       3.726   1.225  -2.345  0.00  0.00     0.082 C 
ATOM     63  H   LIG d   1       3.565   0.195  -2.025  0.00  0.00     0.066 H 
ATOM     64  H   LIG d   1       4.709   1.558  -2.013  0.00  0.00     0.066 H 
ATOM     65  H   LIG d   1       2.958   1.863  -1.910  0.00  0.00     0.066 H 
ENDBRANCH  61  62
ENDBRANCH  59  61
ENDBRANCH   1  59
TORSDOF 6
ENDMDL
MODEL 5
REMARK VINA RESULT:      -6.8      4.166      6.659
REMARK  6 active torsions:
REMARK  status: ('A' for Active; 'I' for Inactive)
REMARK    1  A    between atoms: C_1  and  O_2 
REMARK    2  A    between atoms: O_2  and  C_3 
REMARK    3  A    between atoms: C_3  and  C_5 
REMARK    4  A    between atoms: C_21  and  C_34 
REMARK    5  A    between atoms: C_24  and  N_27 
REMARK    6  A    between atoms: C_30  and  O_33 
ROOT
ATOM      1  C   LIG d   1       6.189  -0.273  -3.740  0.00  0.00     0.113 C 
ATOM      2  H   LIG d   1       6.960  -1.043  -3.681  0.00  0.00     0.058 H 
ATOM      3  C   LIG d   1       6.811   1.097  -3.437  0.00  0.00     0.001 C 
ATOM      4  C   LIG d   1       7.676   1.490  -4.607  0.00  0.00    -0.016 A 
ATOM      5  C   LIG d   1       8.696   2.512  -4.688  0.00  0.00     0.003 A 
ATOM      6  C   LIG d   1       9.199   3.430  -3.760  0.00  0.00    -0.052 A 
ATOM      7  C   LIG d   1      10.191   4.273  -4.194  0.00  0.00    -0.061 A 
ATOM      8  C   LIG d   1      10.682   4.226  -5.488  0.00  0.00    -0.060 A 
ATOM      9  C   LIG d   1      10.205   3.328  -6.427  0.00  0.00    -0.038 A 
ATOM     10  C   LIG d   1       9.196   2.460  -6.015  0.00  0.00     0.047 A 
ATOM     11  N   LIG d   1       8.516   1.473  -6.668  0.00  0.00    -0.356 N 
ATOM     12  H   LIG d   1       8.654   1.218  -7.594  0.00  0.00     0.166 HD
ATOM     13  C   LIG d   1       7.609   0.896  -5.820  0.00  0.00     0.038 A 
ATOM     14  C   LIG d   1       6.656  -0.233  -6.127  0.00  0.00     0.057 C 
ATOM     15  H   LIG d   1       7.198  -1.179  -6.126  0.00  0.00     0.053 H 
ATOM     16  N   LIG d   1       5.614  -0.262  -5.090  0.00  0.00    -0.274 N 
ATOM     17  C   LIG d   1       4.697  -1.389  -5.301  0.00  0.00     0.042 C 
ATOM     18  H   LIG d   1       3.959  -1.412  -4.498  0.00  0.00     0.051 H 
ATOM     19  C   LIG d   1       3.985  -1.216  -6.645  0.00  0.00     0.010 C 
ATOM     20  C   LIG d   1       5.023  -1.153  -7.769  0.00  0.00    -0.017 C 
ATOM     21  H   LIG d   1       5.567  -2.096  -7.812  0.00  0.00     0.085 H 
ATOM     22  C   LIG d   1       6.010  -0.014  -7.495  0.00  0.00     0.012 C 
ATOM     23  H   LIG d   1       6.021   1.836  -3.299  0.00  0.00     0.033 H 
ATOM     24  H   LIG d   1       7.418   1.033  -2.534  0.00  0.00     0.033 H 
ATOM     25  H   LIG d   1       8.821   3.475  -2.749  0.00  0.00     0.062 H 
ATOM     26  H   LIG d   1      10.603   4.994  -3.504  0.00  0.00     0.062 H 
ATOM     27  H   LIG d   1      11.464   4.914  -5.775  0.00  0.00     0.062 H 
ATOM     28  H   LIG d   1      10.596   3.302  -7.434  0.00  0.00     0.064 H 
ATOM     29  H   LIG d   1       3.318  -2.061  -6.814  0.00  0.00     0.034 H 
ATOM     30  H   LIG d   1       3.407  -0.292  -6.633  0.00  0.00     0.034 H 
ATOM     31  H   LIG d   1       5.474   0.935  -7.498  0.00  0.00     0.034 H 
ATOM     32  H   LIG d   1       6.782  -0.000  -8.265  0.00  0.00     0.034 H 
ENDROOT
BRANCH  20  33
ATOM     33  N   LIG d   1       4.344  -0.918  -9.050  0.00  0.00     0.239 N 
ATOM     34  C   LIG d   1       3.016  -1.559  -9.033  0.00  0.00    -0.005 C 
ATOM     35  C   LIG d   1       1.970  -0.447  -9.266  0.00  0.00     0.100 C 
ATOM     36  H   LIG d   1       2.952  -2.301  -9.828  0.00  0.00     0.084 H 
ATOM     37  H   LIG d   1       2.846  -2.031  -8.066  0.00  0.00     0.084 H 
ATOM     38  C   LIG d   1       2.793   0.665  -9.967  0.00  0.00     0.018 C 
ATOM     39  H   LIG d   1       1.570  -0.091  -8.318  0.00  0.00     0.065 H 
ATOM     40  C   LIG d   1       4.164   0.534  -9.259  0.00  0.00    -0.029 C 
ATOM     41  H   LIG d   1       2.354   1.646  -9.789  0.00  0.00     0.034 H 
ATOM     42  H   LIG d   1       2.885   0.469 -11.036  0.00  0.00     0.034 H 
ATOM     43  H   LIG d   1       4.148   1.056  -8.302  0.00  0.00     0.082 H 
ATOM     44  H   LIG d   1       4.959   0.928  -9.893  0.00  0.00     0.082 H 
ATOM     45  H   LIG d   1       4.897  -1.301  -9.803  0.00  0.00     0.204 HD
BRANCH  35  46
ATOM     46  O   LIG d   1       0.918  -0.910 -10.116  0.00  0.00    -0.386 OA
ATOM     47  H   LIG d   1       0.495  -1.724  -9.810  0.00  0.00     0.210 HD
ENDBRANCH  35  46
ENDBRANCH  20  33
BRANCH  17  48
ATOM     48  C   LIG d   1       5.477  -2.678  -5.304  0.00  0.00    -0.027 A 
ATOM     49  C   LIG d   1       4.828  -3.876  -5.540  0.00  0.00    -0.020 A 
ATOM     50  C   LIG d   1       5.545  -5.060  -5.550  0.00  0.00     0.142 A 
ATOM     51  H   LIG d   1       3.763  -3.887  -5.722  0.00  0.00     0.065 H 
ATOM     52  C   LIG d   1       6.909  -5.045  -5.312  0.00  0.00     0.076 A 
ATOM     53  F   LIG d   1       4.912  -6.231  -5.786  0.00  0.00    -0.204 F 
ATOM     54  C   LIG d   1       7.555  -3.845  -5.070  0.00  0.00    -0.040 A 
ATOM     55 CL   LIG d   1       7.808  -6.530  -5.317  0.00  0.00    -0.081 Cl
ATOM     56  C   LIG d   1       6.838  -2.664  -5.067  0.00  0.00    -0.056 A 
ATOM     57  H   LIG d   1       8.618  -3.832  -4.884  0.00  0.00     0.063 H 
ATOM     58  H   LIG d   1       7.343  -1.727  -4.878  0.00  0.00     0.062 H 
ENDBRANCH  17  48
BRANCH   1  59
ATOM     59  C   LIG d   1       5.106  -0.568  -2.736  0.00  0.00     0.325 C 
ATOM     60  O   LIG d   1       5.102  -1.621  -2.142  0.00  0.00    -0.249 OA
BRANCH  59  61
ATOM     61  O   LIG d   1       4.144   0.339  -2.500  0.00  0.00    -0.467 OA
BRANCH  61  62
ATOM     62  C   LIG d   1       2.793  -0.086  -2.687  0.00  0.00     0.082 C 
ATOM     63  H   LIG d   1       2.140   0.787  -2.719  0.00  0.00     0.066 H 
ATOM     64  H   LIG d   1       2.712  -0.635  -3.625  0.00  0.00     0.066 H 
ATOM     65  H   LIG d   1       2.496  -0.730  -1.860  0.00  0.00     0.066 H 
ENDBRANCH  61  62
ENDBRANCH  59  61
ENDBRANCH   1  59
TORSDOF 6
ENDMDL
MODEL 6
REMARK VINA RESULT:      -6.6      4.296      5.493
REMARK  6 active torsions:
REMARK  status: ('A' for Active; 'I' for Inactive)
REMARK    1  A    between atoms: C_1  and  O_2 
REMARK    2  A    between atoms: O_2  and  C_3 
REMARK    3  A    between atoms: C_3  and  C_5 
REMARK    4  A    between atoms: C_21  and  C_34 
REMARK    5  A    between atoms: C_24  and  N_27 
REMARK    6  A    between atoms: C_30  and  O_33 
ROOT
ATOM      1  C   LIG d   1       7.812  -0.792  -6.474  0.00  0.00     0.113 C 
ATOM      2  H   LIG d   1       7.648  -0.202  -5.572  0.00  0.00     0.058 H 
ATOM      3  C   LIG d   1       9.290  -1.200  -6.555  0.00  0.00     0.001 C 
ATOM      4  C   LIG d   1       9.549  -2.243  -5.498  0.00  0.00    -0.016 A 
ATOM      5  C   LIG d   1      10.809  -2.713  -4.966  0.00  0.00     0.003 A 
ATOM      6  C   LIG d   1      12.140  -2.378  -5.236  0.00  0.00    -0.052 A 
ATOM      7  C   LIG d   1      13.105  -3.044  -4.523  0.00  0.00    -0.061 A 
ATOM      8  C   LIG d   1      12.790  -4.005  -3.577  0.00  0.00    -0.060 A 
ATOM      9  C   LIG d   1      11.483  -4.357  -3.289  0.00  0.00    -0.038 A 
ATOM     10  C   LIG d   1      10.480  -3.698  -3.998  0.00  0.00     0.047 A 
ATOM     11  N   LIG d   1       9.119  -3.796  -3.963  0.00  0.00    -0.356 N 
ATOM     12  H   LIG d   1       8.617  -4.395  -3.389  0.00  0.00     0.166 HD
ATOM     13  C   LIG d   1       8.568  -2.923  -4.862  0.00  0.00     0.038 A 
ATOM     14  C   LIG d   1       7.103  -2.702  -5.145  0.00  0.00     0.057 C 
ATOM     15  H   LIG d   1       6.665  -2.098  -4.351  0.00  0.00     0.053 H 
ATOM     16  N   LIG d   1       6.974  -1.996  -6.428  0.00  0.00    -0.274 N 
ATOM     17  C   LIG d   1       5.568  -1.692  -6.721  0.00  0.00     0.042 C 
ATOM     18  H   LIG d   1       5.503  -1.134  -7.655  0.00  0.00     0.051 H 
ATOM     19  C   LIG d   1       4.785  -3.001  -6.851  0.00  0.00     0.010 C 
ATOM     20  C   LIG d   1       4.901  -3.797  -5.548  0.00  0.00    -0.017 C 
ATOM     21  H   LIG d   1       4.447  -3.231  -4.735  0.00  0.00     0.085 H 
ATOM     22  C   LIG d   1       6.378  -4.046  -5.227  0.00  0.00     0.012 C 
ATOM     23  H   LIG d   1       9.503  -1.615  -7.541  0.00  0.00     0.033 H 
ATOM     24  H   LIG d   1       9.921  -0.330  -6.378  0.00  0.00     0.033 H 
ATOM     25  H   LIG d   1      12.395  -1.631  -5.973  0.00  0.00     0.062 H 
ATOM     26  H   LIG d   1      14.144  -2.810  -4.705  0.00  0.00     0.062 H 
ATOM     27  H   LIG d   1      13.591  -4.498  -3.047  0.00  0.00     0.062 H 
ATOM     28  H   LIG d   1      11.249  -5.108  -2.549  0.00  0.00     0.064 H 
ATOM     29  H   LIG d   1       3.736  -2.778  -7.048  0.00  0.00     0.034 H 
ATOM     30  H   LIG d   1       5.193  -3.588  -7.673  0.00  0.00     0.034 H 
ATOM     31  H   LIG d   1       6.821  -4.652  -6.016  0.00  0.00     0.034 H 
ATOM     32  H   LIG d   1       6.466  -4.566  -4.273  0.00  0.00     0.034 H 
ENDROOT
BRANCH  20  33
ATOM     33  N   LIG d   1       4.207  -5.083  -5.697  0.00  0.00     0.239 N 
ATOM     34  C   LIG d   1       3.689  -5.211  -7.072  0.00  0.00    -0.005 C 
ATOM     35  C   LIG d   1       4.331  -6.473  -7.687  0.00  0.00     0.100 C 
ATOM     36  H   LIG d   1       2.605  -5.319  -7.051  0.00  0.00     0.084 H 
ATOM     37  H   LIG d   1       3.966  -4.333  -7.655  0.00  0.00     0.084 H 
ATOM     38  C   LIG d   1       4.734  -7.303  -6.440  0.00  0.00     0.018 C 
ATOM     39  H   LIG d   1       5.209  -6.211  -8.275  0.00  0.00     0.065 H 
ATOM     40  C   LIG d   1       5.153  -6.191  -5.446  0.00  0.00    -0.029 C 
ATOM     41  H   LIG d   1       5.572  -7.963  -6.663  0.00  0.00     0.034 H 
ATOM     42  H   LIG d   1       3.885  -7.870  -6.056  0.00  0.00     0.034 H 
ATOM     43  H   LIG d   1       6.176  -5.870  -5.646  0.00  0.00     0.082 H 
ATOM     44  H   LIG d   1       5.060  -6.545  -4.419  0.00  0.00     0.082 H 
ATOM     45  H   LIG d   1       3.443  -5.136  -5.040  0.00  0.00     0.204 HD
BRANCH  35  46
ATOM     46  O   LIG d   1       3.385  -7.188  -8.485  0.00  0.00    -0.386 OA
ATOM     47  H   LIG d   1       3.088  -6.705  -9.269  0.00  0.00     0.210 HD
ENDBRANCH  35  46
ENDBRANCH  20  33
BRANCH  17  48
ATOM     48  C   LIG d   1       4.989  -0.866  -5.601  0.00  0.00    -0.027 A 
ATOM     49  C   LIG d   1       5.790  -0.482  -4.542  0.00  0.00    -0.020 A 
ATOM     50  C   LIG d   1       5.260   0.282  -3.515  0.00  0.00     0.142 A 
ATOM     51  H   LIG d   1       6.830  -0.773  -4.517  0.00  0.00     0.065 H 
ATOM     52  C   LIG d   1       3.926   0.650  -3.545  0.00  0.00     0.076 A 
ATOM     53  F   LIG d   1       6.044   0.663  -2.482  0.00  0.00    -0.204 F 
ATOM     54  C   LIG d   1       3.125   0.259  -4.604  0.00  0.00    -0.040 A 
ATOM     55 CL   LIG d   1       3.258   1.602  -2.257  0.00  0.00    -0.081 Cl
ATOM     56  C   LIG d   1       3.657  -0.498  -5.630  0.00  0.00    -0.056 A 
ATOM     57  H   LIG d   1       2.084   0.546  -4.629  0.00  0.00     0.063 H 
ATOM     58  H   LIG d   1       3.031  -0.803  -6.457  0.00  0.00     0.062 H 
ENDBRANCH  17  48
BRANCH   1  59
ATOM     59  C   LIG d   1       7.449   0.027  -7.685  0.00  0.00     0.325 C 
ATOM     60  O   LIG d   1       7.701  -0.388  -8.792  0.00  0.00    -0.249 OA
BRANCH  59  61
ATOM     61  O   LIG d   1       6.846   1.217  -7.535  0.00  0.00    -0.467 OA
BRANCH  61  62
ATOM     62  C   LIG d   1       6.244   1.790  -8.697  0.00  0.00     0.082 C 
ATOM     63  H   LIG d   1       5.558   1.070  -9.143  0.00  0.00     0.066 H 
ATOM     64  H   LIG d   1       5.696   2.689  -8.417  0.00  0.00     0.066 H 
ATOM     65  H   LIG d   1       7.020   2.045  -9.419  0.00  0.00     0.066 H 
ENDBRANCH  61  62
ENDBRANCH  59  61
ENDBRANCH   1  59
TORSDOF 6
ENDMDL
MODEL 7
REMARK VINA RESULT:      -6.4      5.707      6.871
REMARK  6 active torsions:
REMARK  status: ('A' for Active; 'I' for Inactive)
REMARK    1  A    between atoms: C_1  and  O_2 
REMARK    2  A    between atoms: O_2  and  C_3 
REMARK    3  A    between atoms: C_3  and  C_5 
REMARK    4  A    between atoms: C_21  and  C_34 
REMARK    5  A    between atoms: C_24  and  N_27 
REMARK    6  A    between atoms: C_30  and  O_33 
ROOT
ATOM      1  C   LIG d   1       8.625   1.955  -4.575  0.00  0.00     0.113 C 
ATOM      2  H   LIG d   1       8.232   2.209  -5.560  0.00  0.00     0.058 H 
ATOM      3  C   LIG d   1       7.466   1.841  -3.575  0.00  0.00     0.001 C 
ATOM      4  C   LIG d   1       6.694   0.585  -3.891  0.00  0.00    -0.016 A 
ATOM      5  C   LIG d   1       5.371   0.191  -3.459  0.00  0.00     0.003 A 
ATOM      6  C   LIG d   1       4.412   0.808  -2.649  0.00  0.00    -0.052 A 
ATOM      7  C   LIG d   1       3.237   0.127  -2.448  0.00  0.00    -0.061 A 
ATOM      8  C   LIG d   1       3.000  -1.114  -3.016  0.00  0.00    -0.060 A 
ATOM      9  C   LIG d   1       3.930  -1.747  -3.822  0.00  0.00    -0.038 A 
ATOM     10  C   LIG d   1       5.133  -1.080  -4.044  0.00  0.00     0.047 A 
ATOM     11  N   LIG d   1       6.241  -1.408  -4.770  0.00  0.00    -0.356 N 
ATOM     12  H   LIG d   1       6.353  -2.228  -5.277  0.00  0.00     0.166 HD
ATOM     13  C   LIG d   1       7.170  -0.408  -4.676  0.00  0.00     0.038 A 
ATOM     14  C   LIG d   1       8.532  -0.357  -5.324  0.00  0.00     0.057 C 
ATOM     15  H   LIG d   1       8.425  -0.103  -6.378  0.00  0.00     0.053 H 
ATOM     16  N   LIG d   1       9.335   0.672  -4.648  0.00  0.00    -0.274 N 
ATOM     17  C   LIG d   1      10.650   0.814  -5.286  0.00  0.00     0.042 C 
ATOM     18  H   LIG d   1      11.209   1.609  -4.794  0.00  0.00     0.051 H 
ATOM     19  C   LIG d   1      11.417  -0.505  -5.160  0.00  0.00     0.010 C 
ATOM     20  C   LIG d   1      10.616  -1.628  -5.825  0.00  0.00    -0.017 C 
ATOM     21  H   LIG d   1      10.513  -1.417  -6.890  0.00  0.00     0.085 H 
ATOM     22  C   LIG d   1       9.225  -1.714  -5.191  0.00  0.00     0.012 C 
ATOM     23  H   LIG d   1       7.860   1.786  -2.560  0.00  0.00     0.033 H 
ATOM     24  H   LIG d   1       6.813   2.709  -3.670  0.00  0.00     0.033 H 
ATOM     25  H   LIG d   1       4.589   1.775  -2.201  0.00  0.00     0.062 H 
ATOM     26  H   LIG d   1       2.474   0.573  -1.828  0.00  0.00     0.062 H 
ATOM     27  H   LIG d   1       2.057  -1.604  -2.823  0.00  0.00     0.062 H 
ATOM     28  H   LIG d   1       3.733  -2.715  -4.259  0.00  0.00     0.064 H 
ATOM     29  H   LIG d   1      12.385  -0.410  -5.650  0.00  0.00     0.034 H 
ATOM     30  H   LIG d   1      11.564  -0.740  -4.106  0.00  0.00     0.034 H 
ATOM     31  H   LIG d   1       9.324  -1.971  -4.136  0.00  0.00     0.034 H 
ATOM     32  H   LIG d   1       8.633  -2.477  -5.699  0.00  0.00     0.034 H 
ENDROOT
BRANCH  20  33
ATOM     33  N   LIG d   1      11.319  -2.905  -5.643  0.00  0.00     0.239 N 
ATOM     34  C   LIG d   1      12.193  -2.825  -4.458  0.00  0.00    -0.005 C 
ATOM     35  C   LIG d   1      11.738  -3.931  -3.481  0.00  0.00     0.100 C 
ATOM     36  H   LIG d   1      13.229  -2.992  -4.750  0.00  0.00     0.084 H 
ATOM     37  H   LIG d   1      12.089  -1.849  -3.986  0.00  0.00     0.084 H 
ATOM     38  C   LIG d   1      11.007  -4.937  -4.408  0.00  0.00     0.018 C 
ATOM     39  H   LIG d   1      11.055  -3.528  -2.735  0.00  0.00     0.065 H 
ATOM     40  C   LIG d   1      10.336  -3.988  -5.433  0.00  0.00    -0.029 C 
ATOM     41  H   LIG d   1      10.259  -5.505  -3.855  0.00  0.00     0.034 H 
ATOM     42  H   LIG d   1      11.716  -5.604  -4.899  0.00  0.00     0.034 H 
ATOM     43  H   LIG d   1       9.408  -3.586  -5.026  0.00  0.00     0.082 H 
ATOM     44  H   LIG d   1      10.144  -4.514  -6.368  0.00  0.00     0.082 H 
ATOM     45  H   LIG d   1      11.875  -3.107  -6.462  0.00  0.00     0.204 HD
BRANCH  35  46
ATOM     46  O   LIG d   1      12.863  -4.549  -2.853  0.00  0.00    -0.386 OA
ATOM     47  H   LIG d   1      12.643  -5.047  -2.054  0.00  0.00     0.210 HD
ENDBRANCH  35  46
ENDBRANCH  20  33
BRANCH  17  48
ATOM     48  C   LIG d   1      10.468   1.154  -6.743  0.00  0.00    -0.027 A 
ATOM     49  C   LIG d   1       9.209   1.455  -7.229  0.00  0.00    -0.020 A 
ATOM     50  C   LIG d   1       9.042   1.773  -8.566  0.00  0.00     0.142 A 
ATOM     51  H   LIG d   1       8.357   1.445  -6.565  0.00  0.00     0.065 H 
ATOM     52  C   LIG d   1      10.134   1.779  -9.417  0.00  0.00     0.076 A 
ATOM     53  F   LIG d   1       7.812   2.072  -9.041  0.00  0.00    -0.204 F 
ATOM     54  C   LIG d   1      11.392   1.472  -8.929  0.00  0.00    -0.040 A 
ATOM     55 CL   LIG d   1       9.926   2.172 -11.095  0.00  0.00    -0.081 Cl
ATOM     56  C   LIG d   1      11.557   1.160  -7.593  0.00  0.00    -0.056 A 
ATOM     57  H   LIG d   1      12.244   1.477  -9.592  0.00  0.00     0.063 H 
ATOM     58  H   LIG d   1      12.540   0.921  -7.212  0.00  0.00     0.062 H 
ENDBRANCH  17  48
BRANCH   1  59
ATOM     59  C   LIG d   1       9.578   3.030  -4.120  0.00  0.00     0.325 C 
ATOM     60  O   LIG d   1       9.791   3.986  -4.829  0.00  0.00    -0.249 OA
BRANCH  59  61
ATOM     61  O   LIG d   1      10.188   2.927  -2.930  0.00  0.00    -0.467 OA
BRANCH  61  62
ATOM     62  C   LIG d   1      10.882   4.083  -2.455  0.00  0.00     0.082 C 
ATOM     63  H   LIG d   1      10.169   4.891  -2.290  0.00  0.00     0.066 H 
ATOM     64  H   LIG d   1      11.384   3.845  -1.517  0.00  0.00     0.066 H 
ATOM     65  H   LIG d   1      11.618   4.394  -3.195  0.00  0.00     0.066 H 
ENDBRANCH  61  62
ENDBRANCH  59  61
ENDBRANCH   1  59
TORSDOF 6
ENDMDL
MODEL 8
REMARK VINA RESULT:      -6.3      4.333      5.878
REMARK  6 active torsions:
REMARK  status: ('A' for Active; 'I' for Inactive)
REMARK    1  A    between atoms: C_1  and  O_2 
REMARK    2  A    between atoms: O_2  and  C_3 
REMARK    3  A    between atoms: C_3  and  C_5 
REMARK    4  A    between atoms: C_21  and  C_34 
REMARK    5  A    between atoms: C_24  and  N_27 
REMARK    6  A    between atoms: C_30  and  O_33 
ROOT
ATOM      1  C   LIG d   1       8.061  -0.922  -6.648  0.00  0.00     0.113 C 
ATOM      2  H   LIG d   1       8.338   0.054  -6.248  0.00  0.00     0.058 H 
ATOM      3  C   LIG d   1       7.310  -1.720  -5.574  0.00  0.00     0.001 C 
ATOM      4  C   LIG d   1       5.946  -1.103  -5.397  0.00  0.00    -0.016 A 
ATOM      5  C   LIG d   1       4.994  -1.279  -4.322  0.00  0.00     0.003 A 
ATOM      6  C   LIG d   1       5.016  -2.038  -3.147  0.00  0.00    -0.052 A 
ATOM      7  C   LIG d   1       3.909  -1.962  -2.339  0.00  0.00    -0.061 A 
ATOM      8  C   LIG d   1       2.816  -1.175  -2.659  0.00  0.00    -0.060 A 
ATOM      9  C   LIG d   1       2.767  -0.413  -3.813  0.00  0.00    -0.038 A 
ATOM     10  C   LIG d   1       3.876  -0.470  -4.655  0.00  0.00     0.047 A 
ATOM     11  N   LIG d   1       4.155   0.140  -5.844  0.00  0.00    -0.356 N 
ATOM     12  H   LIG d   1       3.563   0.752  -6.310  0.00  0.00     0.166 HD
ATOM     13  C   LIG d   1       5.394  -0.242  -6.282  0.00  0.00     0.038 A 
ATOM     14  C   LIG d   1       6.096   0.195  -7.544  0.00  0.00     0.057 C 
ATOM     15  H   LIG d   1       6.497   1.200  -7.409  0.00  0.00     0.053 H 
ATOM     16  N   LIG d   1       7.195  -0.741  -7.818  0.00  0.00    -0.274 N 
ATOM     17  C   LIG d   1       7.958  -0.322  -9.001  0.00  0.00     0.042 C 
ATOM     18  H   LIG d   1       8.790  -1.009  -9.159  0.00  0.00     0.051 H 
ATOM     19  C   LIG d   1       7.040  -0.339 -10.226  0.00  0.00     0.010 C 
ATOM     20  C   LIG d   1       5.856   0.603  -9.991  0.00  0.00    -0.017 C 
ATOM     21  H   LIG d   1       6.222   1.623  -9.878  0.00  0.00     0.085 H 
ATOM     22  C   LIG d   1       5.114   0.189  -8.717  0.00  0.00     0.012 C 
ATOM     23  H   LIG d   1       7.206  -2.758  -5.892  0.00  0.00     0.033 H 
ATOM     24  H   LIG d   1       7.859  -1.677  -4.633  0.00  0.00     0.033 H 
ATOM     25  H   LIG d   1       5.863  -2.656  -2.890  0.00  0.00     0.062 H 
ATOM     26  H   LIG d   1       3.891  -2.534  -1.423  0.00  0.00     0.062 H 
ATOM     27  H   LIG d   1       1.972  -1.154  -1.985  0.00  0.00     0.062 H 
ATOM     28  H   LIG d   1       1.908   0.197  -4.052  0.00  0.00     0.064 H 
ATOM     29  H   LIG d   1       7.599  -0.009 -11.102  0.00  0.00     0.034 H 
ATOM     30  H   LIG d   1       6.672  -1.352 -10.389  0.00  0.00     0.034 H 
ATOM     31  H   LIG d   1       4.707  -0.814  -8.846  0.00  0.00     0.034 H 
ATOM     32  H   LIG d   1       4.303   0.889  -8.517  0.00  0.00     0.034 H 
ENDROOT
BRANCH  20  33
ATOM     33  N   LIG d   1       4.941   0.534 -11.137  0.00  0.00     0.239 N 
ATOM     34  C   LIG d   1       5.219  -0.684 -11.922  0.00  0.00    -0.005 C 
ATOM     35  C   LIG d   1       3.921  -1.520 -11.942  0.00  0.00     0.100 C 
ATOM     36  H   LIG d   1       5.502  -0.413 -12.938  0.00  0.00     0.084 H 
ATOM     37  H   LIG d   1       6.019  -1.254 -11.450  0.00  0.00     0.084 H 
ATOM     38  C   LIG d   1       2.821  -0.465 -11.652  0.00  0.00     0.018 C 
ATOM     39  H   LIG d   1       3.941  -2.280 -11.163  0.00  0.00     0.065 H 
ATOM     40  C   LIG d   1       3.544   0.475 -10.656  0.00  0.00    -0.029 C 
ATOM     41  H   LIG d   1       1.949  -0.927 -11.190  0.00  0.00     0.034 H 
ATOM     42  H   LIG d   1       2.542   0.069 -12.561  0.00  0.00     0.034 H 
ATOM     43  H   LIG d   1       3.507   0.061  -9.648  0.00  0.00     0.082 H 
ATOM     44  H   LIG d   1       3.094   1.468 -10.676  0.00  0.00     0.082 H 
ATOM     45  H   LIG d   1       5.063   1.348 -11.720  0.00  0.00     0.204 HD
BRANCH  35  46
ATOM     46  O   LIG d   1       3.722  -2.118 -13.225  0.00  0.00    -0.386 OA
ATOM     47  H   LIG d   1       4.242  -2.920 -13.370  0.00  0.00     0.210 HD
ENDBRANCH  35  46
ENDBRANCH  20  33
BRANCH  17  48
ATOM     48  C   LIG d   1       8.490   1.072  -8.787  0.00  0.00    -0.027 A 
ATOM     49  C   LIG d   1       8.475   1.630  -7.523  0.00  0.00    -0.020 A 
ATOM     50  C   LIG d   1       8.969   2.908  -7.325  0.00  0.00     0.142 A 
ATOM     51  H   LIG d   1       8.083   1.067  -6.688  0.00  0.00     0.065 H 
ATOM     52  C   LIG d   1       9.466   3.631  -8.397  0.00  0.00     0.076 A 
ATOM     53  F   LIG d   1       8.960   3.453  -6.088  0.00  0.00    -0.204 F 
ATOM     54  C   LIG d   1       9.474   3.072  -9.663  0.00  0.00    -0.040 A 
ATOM     55 CL   LIG d   1      10.080   5.236  -8.153  0.00  0.00    -0.081 Cl
ATOM     56  C   LIG d   1       8.986   1.793  -9.856  0.00  0.00    -0.056 A 
ATOM     57  H   LIG d   1       9.862   3.634 -10.499  0.00  0.00     0.063 H 
ATOM     58  H   LIG d   1       8.993   1.357 -10.845  0.00  0.00     0.062 H 
ENDBRANCH  17  48
BRANCH   1  59
ATOM     59  C   LIG d   1       9.304  -1.671  -7.054  0.00  0.00     0.325 C 
ATOM     60  O   LIG d   1      10.393  -1.179  -6.867  0.00  0.00    -0.249 OA
BRANCH  59  61
ATOM     61  O   LIG d   1       9.203  -2.882  -7.622  0.00  0.00    -0.467 OA
BRANCH  61  62
ATOM     62  C   LIG d   1      10.257  -3.275  -8.504  0.00  0.00     0.082 C 
ATOM     63  H   LIG d   1       9.834  -3.572  -9.464  0.00  0.00     0.066 H 
ATOM     64  H   LIG d   1      10.938  -2.437  -8.651  0.00  0.00     0.066 H 
ATOM     65  H   LIG d   1      10.798  -4.115  -8.071  0.00  0.00     0.066 H 
ENDBRANCH  61  62
ENDBRANCH  59  61
ENDBRANCH   1  59
TORSDOF 6
ENDMDL
MODEL 9
REMARK VINA RESULT:      -6.3      4.020      6.276
REMARK  6 active torsions:
REMARK  status: ('A' for Active; 'I' for Inactive)
REMARK    1  A    between atoms: C_1  and  O_2 
REMARK    2  A    between atoms: O_2  and  C_3 
REMARK    3  A    between atoms: C_3  and  C_5 
REMARK    4  A    between atoms: C_21  and  C_34 
REMARK    5  A    between atoms: C_24  and  N_27 
REMARK    6  A    between atoms: C_30  and  O_33 
ROOT
ATOM      1  C   LIG d   1       5.420  -1.426  -5.127  0.00  0.00     0.113 C 
ATOM      2  H   LIG d   1       6.406  -0.961  -5.136  0.00  0.00     0.058 H 
ATOM      3  C   LIG d   1       4.417  -0.513  -5.846  0.00  0.00     0.001 C 
ATOM      4  C   LIG d   1       4.719  -0.553  -7.322  0.00  0.00    -0.016 A 
ATOM      5  C   LIG d   1       4.281   0.342  -8.370  0.00  0.00     0.003 A 
ATOM      6  C   LIG d   1       3.475   1.485  -8.370  0.00  0.00    -0.052 A 
ATOM      7  C   LIG d   1       3.265   2.098  -9.580  0.00  0.00    -0.061 A 
ATOM      8  C   LIG d   1       3.821   1.618 -10.754  0.00  0.00    -0.060 A 
ATOM      9  C   LIG d   1       4.624   0.491 -10.785  0.00  0.00    -0.038 A 
ATOM     10  C   LIG d   1       4.854  -0.154  -9.571  0.00  0.00     0.047 A 
ATOM     11  N   LIG d   1       5.580  -1.264  -9.248  0.00  0.00    -0.356 N 
ATOM     12  H   LIG d   1       6.081  -1.806  -9.877  0.00  0.00     0.166 HD
ATOM     13  C   LIG d   1       5.497  -1.496  -7.901  0.00  0.00     0.038 A 
ATOM     14  C   LIG d   1       6.148  -2.611  -7.121  0.00  0.00     0.057 C 
ATOM     15  H   LIG d   1       7.205  -2.386  -6.976  0.00  0.00     0.053 H 
ATOM     16  N   LIG d   1       5.484  -2.720  -5.815  0.00  0.00    -0.274 N 
ATOM     17  C   LIG d   1       6.126  -3.747  -4.984  0.00  0.00     0.042 C 
ATOM     18  H   LIG d   1       5.642  -3.780  -4.008  0.00  0.00     0.051 H 
ATOM     19  C   LIG d   1       5.989  -5.109  -5.670  0.00  0.00     0.010 C 
ATOM     20  C   LIG d   1       6.643  -5.053  -7.053  0.00  0.00    -0.017 C 
ATOM     21  H   LIG d   1       7.709  -4.855  -6.942  0.00  0.00     0.085 H 
ATOM     22  C   LIG d   1       6.005  -3.932  -7.879  0.00  0.00     0.012 C 
ATOM     23  H   LIG d   1       3.402  -0.871  -5.669  0.00  0.00     0.033 H 
ATOM     24  H   LIG d   1       4.518   0.507  -5.476  0.00  0.00     0.033 H 
ATOM     25  H   LIG d   1       3.036   1.865  -7.460  0.00  0.00     0.062 H 
ATOM     26  H   LIG d   1       2.648   2.983  -9.617  0.00  0.00     0.062 H 
ATOM     27  H   LIG d   1       3.622   2.141 -11.678  0.00  0.00     0.062 H 
ATOM     28  H   LIG d   1       5.052   0.126 -11.707  0.00  0.00     0.064 H 
ATOM     29  H   LIG d   1       6.482  -5.870  -5.065  0.00  0.00     0.034 H 
ATOM     30  H   LIG d   1       4.933  -5.357  -5.777  0.00  0.00     0.034 H 
ATOM     31  H   LIG d   1       4.948  -4.153  -8.031  0.00  0.00     0.034 H 
ATOM     32  H   LIG d   1       6.505  -3.854  -8.845  0.00  0.00     0.034 H 
ENDROOT
BRANCH  20  33
ATOM     33  N   LIG d   1       6.452  -6.338  -7.738  0.00  0.00     0.239 N 
ATOM     34  C   LIG d   1       5.640  -7.234  -6.893  0.00  0.00    -0.005 C 
ATOM     35  C   LIG d   1       4.377  -7.603  -7.701  0.00  0.00     0.100 C 
ATOM     36  H   LIG d   1       6.206  -8.135  -6.658  0.00  0.00     0.084 H 
ATOM     37  H   LIG d   1       5.355  -6.720  -5.976  0.00  0.00     0.084 H 
ATOM     38  C   LIG d   1       4.817  -7.355  -9.168  0.00  0.00     0.018 C 
ATOM     39  H   LIG d   1       3.545  -6.954  -7.433  0.00  0.00     0.065 H 
ATOM     40  C   LIG d   1       5.739  -6.120  -9.014  0.00  0.00    -0.029 C 
ATOM     41  H   LIG d   1       3.958  -7.125  -9.799  0.00  0.00     0.034 H 
ATOM     42  H   LIG d   1       5.369  -8.209  -9.561  0.00  0.00     0.034 H 
ATOM     43  H   LIG d   1       5.146  -5.207  -8.967  0.00  0.00     0.082 H 
ATOM     44  H   LIG d   1       6.448  -6.071  -9.841  0.00  0.00     0.082 H 
ATOM     45  H   LIG d   1       7.349  -6.764  -7.920  0.00  0.00     0.204 HD
BRANCH  35  46
ATOM     46  O   LIG d   1       4.030  -8.975  -7.503  0.00  0.00    -0.386 OA
ATOM     47  H   LIG d   1       3.677  -9.168  -6.624  0.00  0.00     0.210 HD
ENDBRANCH  35  46
ENDBRANCH  20  33
BRANCH  17  48
ATOM     48  C   LIG d   1       7.585  -3.413  -4.811  0.00  0.00    -0.027 A 
ATOM     49  C   LIG d   1       8.089  -2.234  -5.327  0.00  0.00    -0.020 A 
ATOM     50  C   LIG d   1       9.428  -1.924  -5.164  0.00  0.00     0.142 A 
ATOM     51  H   LIG d   1       7.437  -1.553  -5.855  0.00  0.00     0.065 H 
ATOM     52  C   LIG d   1      10.264  -2.800  -4.492  0.00  0.00     0.076 A 
ATOM     53  F   LIG d   1       9.921  -0.769  -5.664  0.00  0.00    -0.204 F 
ATOM     54  C   LIG d   1       9.758  -3.983  -3.981  0.00  0.00    -0.040 A 
ATOM     55 CL   LIG d   1      11.945  -2.416  -4.291  0.00  0.00    -0.081 Cl
ATOM     56  C   LIG d   1       8.420  -4.287  -4.141  0.00  0.00    -0.056 A 
ATOM     57  H   LIG d   1      10.408  -4.666  -3.457  0.00  0.00     0.063 H 
ATOM     58  H   LIG d   1       8.025  -5.211  -3.741  0.00  0.00     0.062 H 
ENDBRANCH  17  48
BRANCH   1  59
ATOM     59  C   LIG d   1       4.977  -1.636  -3.702  0.00  0.00     0.325 C 
ATOM     60  O   LIG d   1       5.746  -1.426  -2.793  0.00  0.00    -0.249 OA
BRANCH  59  61
ATOM     61  O   LIG d   1       3.729  -2.056  -3.441  0.00  0.00    -0.467 OA
BRANCH  61  62
ATOM     62  C   LIG d   1       2.839  -1.111  -2.842  0.00  0.00     0.082 C 
ATOM     63  H   LIG d   1       2.167  -0.713  -3.603  0.00  0.00     0.066 H 
ATOM     64  H   LIG d   1       2.256  -1.605  -2.065  0.00  0.00     0.066 H 
ATOM     65  H   LIG d   1       3.415  -0.297  -2.406  0.00  0.00     0.066 H 
ENDBRANCH  61  62
ENDBRANCH  59  61
ENDBRANCH   1  59
TORSDOF 6
ENDMDL
MODEL 10
REMARK VINA RESULT:      -6.3      2.997      4.368
REMARK  6 active torsions:
REMARK  status: ('A' for Active; 'I' for Inactive)
REMARK    1  A    between atoms: C_1  and  O_2 
REMARK    2  A    between atoms: O_2  and  C_3 
REMARK    3  A    between atoms: C_3  and  C_5 
REMARK    4  A    between atoms: C_21  and  C_34 
REMARK    5  A    between atoms: C_24  and  N_27 
REMARK    6  A    between atoms: C_30  and  O_33 
ROOT
ATOM      1  C   LIG d   1       3.069  -0.881  -8.122  0.00  0.00     0.113 C 
ATOM      2  H   LIG d   1       2.651  -1.853  -7.856  0.00  0.00     0.058 H 
ATOM      3  C   LIG d   1       2.929   0.078  -6.932  0.00  0.00     0.001 C 
ATOM      4  C   LIG d   1       3.902  -0.351  -5.864  0.00  0.00    -0.016 A 
ATOM      5  C   LIG d   1       3.948   0.018  -4.466  0.00  0.00     0.003 A 
ATOM      6  C   LIG d   1       3.148   0.849  -3.675  0.00  0.00    -0.052 A 
ATOM      7  C   LIG d   1       3.495   0.969  -2.352  0.00  0.00    -0.061 A 
ATOM      8  C   LIG d   1       4.583   0.302  -1.813  0.00  0.00    -0.060 A 
ATOM      9  C   LIG d   1       5.390  -0.528  -2.571  0.00  0.00    -0.038 A 
ATOM     10  C   LIG d   1       5.063  -0.669  -3.919  0.00  0.00     0.047 A 
ATOM     11  N   LIG d   1       5.632  -1.391  -4.927  0.00  0.00    -0.356 N 
ATOM     12  H   LIG d   1       6.415  -1.957  -4.836  0.00  0.00     0.166 HD
ATOM     13  C   LIG d   1       4.932  -1.198  -6.088  0.00  0.00     0.038 A 
ATOM     14  C   LIG d   1       5.212  -1.808  -7.439  0.00  0.00     0.057 C 
ATOM     15  H   LIG d   1       4.868  -2.842  -7.451  0.00  0.00     0.053 H 
ATOM     16  N   LIG d   1       4.488  -1.036  -8.460  0.00  0.00    -0.274 N 
ATOM     17  C   LIG d   1       4.669  -1.630  -9.791  0.00  0.00     0.042 C 
ATOM     18  H   LIG d   1       4.091  -1.064 -10.523  0.00  0.00     0.051 H 
ATOM     19  C   LIG d   1       6.153  -1.586 -10.166  0.00  0.00     0.010 C 
ATOM     20  C   LIG d   1       6.967  -2.355  -9.122  0.00  0.00    -0.017 C 
ATOM     21  H   LIG d   1       6.665  -3.402  -9.126  0.00  0.00     0.085 H 
ATOM     22  C   LIG d   1       6.712  -1.763  -7.733  0.00  0.00     0.012 C 
ATOM     23  H   LIG d   1       3.158   1.096  -7.251  0.00  0.00     0.033 H 
ATOM     24  H   LIG d   1       1.911   0.035  -6.543  0.00  0.00     0.033 H 
ATOM     25  H   LIG d   1       2.299   1.374  -4.087  0.00  0.00     0.062 H 
ATOM     26  H   LIG d   1       2.900   1.602  -1.712  0.00  0.00     0.062 H 
ATOM     27  H   LIG d   1       4.808   0.434  -0.765  0.00  0.00     0.062 H 
ATOM     28  H   LIG d   1       6.236  -1.042  -2.139  0.00  0.00     0.064 H 
ATOM     29  H   LIG d   1       6.293  -2.044 -11.145  0.00  0.00     0.034 H 
ATOM     30  H   LIG d   1       6.489  -0.550 -10.198  0.00  0.00     0.034 H 
ATOM     31  H   LIG d   1       7.057  -0.729  -7.713  0.00  0.00     0.034 H 
ATOM     32  H   LIG d   1       7.248  -2.341  -6.980  0.00  0.00     0.034 H 
ENDROOT
BRANCH  20  33
ATOM     33  N   LIG d   1       8.396  -2.255  -9.444  0.00  0.00     0.239 N 
ATOM     34  C   LIG d   1       8.796  -3.398 -10.286  0.00  0.00    -0.005 C 
ATOM     35  C   LIG d   1       9.346  -2.821 -11.608  0.00  0.00     0.100 C 
ATOM     36  H   LIG d   1       9.571  -3.975  -9.783  0.00  0.00     0.084 H 
ATOM     37  H   LIG d   1       7.931  -4.029 -10.488  0.00  0.00     0.084 H 
ATOM     38  C   LIG d   1       9.754  -1.377 -11.216  0.00  0.00     0.018 C 
ATOM     39  H   LIG d   1       8.571  -2.808 -12.374  0.00  0.00     0.065 H 
ATOM     40  C   LIG d   1       8.651  -1.006 -10.194  0.00  0.00    -0.029 C 
ATOM     41  H   LIG d   1       9.723  -0.714 -12.081  0.00  0.00     0.034 H 
ATOM     42  H   LIG d   1      10.740  -1.362 -10.750  0.00  0.00     0.034 H 
ATOM     43  H   LIG d   1       7.747  -0.682 -10.711  0.00  0.00     0.082 H 
ATOM     44  H   LIG d   1       9.004  -0.225  -9.521  0.00  0.00     0.082 H 
ATOM     45  H   LIG d   1       8.938  -2.254  -8.593  0.00  0.00     0.204 HD
BRANCH  35  46
ATOM     46  O   LIG d   1      10.483  -3.564 -12.053  0.00  0.00    -0.386 OA
ATOM     47  H   LIG d   1      10.282  -4.476 -12.303  0.00  0.00     0.210 HD
ENDBRANCH  35  46
ENDBRANCH  20  33
BRANCH  17  48
ATOM     48  C   LIG d   1       4.194  -3.060  -9.772  0.00  0.00    -0.027 A 
ATOM     49  C   LIG d   1       4.247  -3.819 -10.926  0.00  0.00    -0.020 A 
ATOM     50  C   LIG d   1       3.817  -5.135 -10.908  0.00  0.00     0.142 A 
ATOM     51  H   LIG d   1       4.628  -3.388 -11.840  0.00  0.00     0.065 H 
ATOM     52  C   LIG d   1       3.324  -5.686  -9.737  0.00  0.00     0.076 A 
ATOM     53  F   LIG d   1       3.873  -5.880 -12.035  0.00  0.00    -0.204 F 
ATOM     54  C   LIG d   1       3.267  -4.921  -8.585  0.00  0.00    -0.040 A 
ATOM     55 CL   LIG d   1       2.778  -7.333  -9.714  0.00  0.00    -0.081 Cl
ATOM     56  C   LIG d   1       3.702  -3.610  -8.604  0.00  0.00    -0.056 A 
ATOM     57  H   LIG d   1       2.883  -5.349  -7.671  0.00  0.00     0.063 H 
ATOM     58  H   LIG d   1       3.658  -3.013  -7.704  0.00  0.00     0.062 H 
ENDBRANCH  17  48
BRANCH   1  59
ATOM     59  C   LIG d   1       2.328  -0.323  -9.309  0.00  0.00     0.325 C 
ATOM     60  O   LIG d   1       2.633   0.757  -9.758  0.00  0.00    -0.249 OA
BRANCH  59  61
ATOM     61  O   LIG d   1       1.328  -1.024  -9.867  0.00  0.00    -0.467 OA
BRANCH  61  62
ATOM     62  C   LIG d   1       1.316  -1.112 -11.293  0.00  0.00     0.082 C 
ATOM     63  H   LIG d   1       0.468  -0.548 -11.683  0.00  0.00     0.066 H 
ATOM     64  H   LIG d   1       2.242  -0.697 -11.691  0.00  0.00     0.066 H 
ATOM     65  H   LIG d   1       1.225  -2.156 -11.591  0.00  0.00     0.066 H 
ENDBRANCH  61  62
ENDBRANCH  59  61
ENDBRANCH   1  59
TORSDOF 6
ENDMDL
