MODEL 1
REMARK VINA RESULT:      -6.7      0.000      0.000
REMARK  13 active torsions:
REMARK  status: ('A' for Active; 'I' for Inactive)
REMARK    1  A    between atoms: C_1  and  C_2 
REMARK    2  A    between atoms: C_2  and  C_3 
REMARK    3  A    between atoms: C_3  and  O_4 
REMARK    4  A    between atoms: O_4  and  C_5 
REMARK    5  A    between atoms: C_5  and  C_7 
REMARK    6  A    between atoms: C_10  and  O_13 
REMARK    7  A    between atoms: O_13  and  C_14 
REMARK    8  A    between atoms: C_15  and  C_35 
REMARK    9  A    between atoms: C_19  and  O_25 
REMARK   10  A    between atoms: O_25  and  C_26 
REMARK   11  A    between atoms: C_26  and  C_27 
REMARK   12  A    between atoms: C_31  and  O_33 
REMARK   13  A    between atoms: O_33  and  C_34 
ROOT
ATOM      1  C   LIG d   1       6.126  -0.322  -4.551  0.00  0.00     0.213 A 
ATOM      2  C   LIG d   1       5.945   0.475  -3.479  0.00  0.00     0.148 A 
ATOM      3  O   LIG d   1       6.795   1.461  -3.158  0.00  0.00    -0.456 OA
ATOM      4  C   LIG d   1       7.899   1.727  -3.884  0.00  0.00     0.142 A 
ATOM      5  C   LIG d   1       8.759   2.755  -3.524  0.00  0.00     0.023 A 
ATOM      6  C   LIG d   1       9.885   3.008  -4.288  0.00  0.00     0.124 A 
ATOM      7  C   LIG d   1      10.161   2.244  -5.421  0.00  0.00    -0.019 A 
ATOM      8  C   LIG d   1       9.326   1.226  -5.786  0.00  0.00    -0.044 A 
ATOM      9  C   LIG d   1       8.188   0.958  -5.025  0.00  0.00     0.068 A 
ATOM     10  C   LIG d   1       7.260  -0.127  -5.389  0.00  0.00     0.235 A 
ATOM     11  O   LIG d   1       7.456  -0.829  -6.366  0.00  0.00    -0.283 OA
ATOM     12  H   LIG d   1       8.551   3.356  -2.651  0.00  0.00     0.069 H 
ATOM     13  H   LIG d   1      11.040   2.455  -6.011  0.00  0.00     0.065 H 
ATOM     14  H   LIG d   1       9.546   0.633  -6.662  0.00  0.00     0.063 H 
ENDROOT
BRANCH   1  15
ATOM     15  O   LIG d   1       5.229  -1.308  -4.829  0.00  0.00    -0.449 OA
BRANCH  15  16
ATOM     16  C   LIG d   1       4.484  -1.191  -5.956  0.00  0.00     0.129 A 
ATOM     17  C   LIG d   1       3.582  -0.140  -6.086  0.00  0.00    -0.019 A 
ATOM     18  C   LIG d   1       2.824  -0.019  -7.229  0.00  0.00    -0.044 A 
ATOM     19  H   LIG d   1       3.476   0.580  -5.290  0.00  0.00     0.065 H 
ATOM     20  C   LIG d   1       2.962  -0.952  -8.260  0.00  0.00     0.059 A 
ATOM     21  H   LIG d   1       2.123   0.798  -7.329  0.00  0.00     0.063 H 
ATOM     22  C   LIG d   1       3.870  -2.007  -8.126  0.00  0.00    -0.044 A 
ATOM     23  C   LIG d   1       4.628  -2.119  -6.983  0.00  0.00    -0.019 A 
ATOM     24  H   LIG d   1       3.980  -2.730  -8.920  0.00  0.00     0.063 H 
ATOM     25  H   LIG d   1       5.333  -2.932  -6.879  0.00  0.00     0.065 H 
BRANCH  20  26
ATOM     26  C   LIG d   1       2.152  -0.826  -9.486  0.00  0.00     0.339 C 
ATOM     27  O   LIG d   1       1.443  -1.746  -9.842  0.00  0.00    -0.245 OA
BRANCH  26  28
ATOM     28  O   LIG d   1       2.196   0.310 -10.209  0.00  0.00    -0.461 OA
BRANCH  28  29
ATOM     29  C   LIG d   1       3.501   0.741 -10.679  0.00  0.00     0.092 C 
ATOM     30  H   LIG d   1       4.264   0.053 -10.316  0.00  0.00     0.070 H 
ATOM     31  H   LIG d   1       3.510   0.750 -11.769  0.00  0.00     0.070 H 
BRANCH  29  32
ATOM     32  C   LIG d   1       3.791   2.149 -10.156  0.00  0.00    -0.021 C 
ATOM     33  H   LIG d   1       4.006   2.812 -10.993  0.00  0.00     0.029 H 
ATOM     34  H   LIG d   1       2.923   2.520  -9.611  0.00  0.00     0.029 H 
BRANCH  32  35
ATOM     35  C   LIG d   1       5.000   2.104  -9.218  0.00  0.00    -0.062 C 
ATOM     36  H   LIG d   1       5.323   1.072  -9.089  0.00  0.00     0.023 H 
ATOM     37  H   LIG d   1       5.814   2.688  -9.647  0.00  0.00     0.023 H 
ATOM     38  H   LIG d   1       4.723   2.523  -8.250  0.00  0.00     0.023 H 
ENDBRANCH  32  35
ENDBRANCH  29  32
ENDBRANCH  28  29
ENDBRANCH  26  28
ENDBRANCH  20  26
ENDBRANCH  15  16
ENDBRANCH   1  15
BRANCH   2  39
ATOM     39  C   LIG d   1       4.738   0.251  -2.606  0.00  0.00    -0.003 C 
ATOM     40  H   LIG d   1       5.058   0.090  -1.577  0.00  0.00     0.031 H 
ATOM     41  H   LIG d   1       4.088   1.125  -2.653  0.00  0.00     0.031 H 
ATOM     42  H   LIG d   1       4.194  -0.626  -2.958  0.00  0.00     0.031 H 
ENDBRANCH   2  39
BRANCH   6  43
ATOM     43  O   LIG d   1      10.726   4.015  -3.935  0.00  0.00    -0.487 OA
BRANCH  43  44
ATOM     44  C   LIG d   1      11.236   3.996  -2.601  0.00  0.00     0.115 C 
ATOM     45  H   LIG d   1      12.325   3.941  -2.628  0.00  0.00     0.075 H 
ATOM     46  H   LIG d   1      10.843   3.127  -2.073  0.00  0.00     0.075 H 
BRANCH  44  47
ATOM     47  C   LIG d   1      10.814   5.252  -1.884  0.00  0.00    -0.007 A 
ATOM     48  C   LIG d   1      11.366   5.565  -0.657  0.00  0.00    -0.014 A 
ATOM     49  C   LIG d   1      10.972   6.719   0.005  0.00  0.00     0.120 A 
ATOM     50  H   LIG d   1      12.100   4.909  -0.211  0.00  0.00     0.066 H 
ATOM     51  C   LIG d   1      10.035   7.562  -0.572  0.00  0.00    -0.020 A 
ATOM     52  C   LIG d   1       9.490   7.248  -1.802  0.00  0.00    -0.058 A 
ATOM     53  H   LIG d   1       9.731   8.463  -0.061  0.00  0.00     0.065 H 
ATOM     54  C   LIG d   1       9.880   6.094  -2.458  0.00  0.00    -0.055 A 
ATOM     55  H   LIG d   1       8.761   7.904  -2.253  0.00  0.00     0.062 H 
ATOM     56  H   LIG d   1       9.453   5.850  -3.420  0.00  0.00     0.062 H 
BRANCH  49  57
ATOM     57  O   LIG d   1      11.510   7.026   1.215  0.00  0.00    -0.495 OA
BRANCH  57  58
ATOM     58  C   LIG d   1      11.546   8.408   1.577  0.00  0.00     0.079 C 
ATOM     59  H   LIG d   1      10.779   8.949   1.023  0.00  0.00     0.066 H 
ATOM     60  H   LIG d   1      12.526   8.821   1.337  0.00  0.00     0.066 H 
ATOM     61  H   LIG d   1      11.361   8.509   2.646  0.00  0.00     0.066 H 
ENDBRANCH  57  58
ENDBRANCH  49  57
ENDBRANCH  44  47
ENDBRANCH  43  44
ENDBRANCH   6  43
TORSDOF 13
ENDMDL
MODEL 2
REMARK VINA RESULT:      -6.5      5.103     11.509
REMARK  13 active torsions:
REMARK  status: ('A' for Active; 'I' for Inactive)
REMARK    1  A    between atoms: C_1  and  C_2 
REMARK    2  A    between atoms: C_2  and  C_3 
REMARK    3  A    between atoms: C_3  and  O_4 
REMARK    4  A    between atoms: O_4  and  C_5 
REMARK    5  A    between atoms: C_5  and  C_7 
REMARK    6  A    between atoms: C_10  and  O_13 
REMARK    7  A    between atoms: O_13  and  C_14 
REMARK    8  A    between atoms: C_15  and  C_35 
REMARK    9  A    between atoms: C_19  and  O_25 
REMARK   10  A    between atoms: O_25  and  C_26 
REMARK   11  A    between atoms: C_26  and  C_27 
REMARK   12  A    between atoms: C_31  and  O_33 
REMARK   13  A    between atoms: O_33  and  C_34 
ROOT
ATOM      1  C   LIG d   1       3.251   0.994  -9.148  0.00  0.00     0.213 A 
ATOM      2  C   LIG d   1       4.326   1.443  -9.826  0.00  0.00     0.148 A 
ATOM      3  O   LIG d   1       4.640   1.011 -11.054  0.00  0.00    -0.456 OA
ATOM      4  C   LIG d   1       3.904   0.090 -11.706  0.00  0.00     0.142 A 
ATOM      5  C   LIG d   1       4.256  -0.336 -12.979  0.00  0.00     0.023 A 
ATOM      6  C   LIG d   1       3.481  -1.283 -13.627  0.00  0.00     0.124 A 
ATOM      7  C   LIG d   1       2.344  -1.808 -13.015  0.00  0.00    -0.019 A 
ATOM      8  C   LIG d   1       1.986  -1.402 -11.760  0.00  0.00    -0.044 A 
ATOM      9  C   LIG d   1       2.758  -0.449 -11.095  0.00  0.00     0.068 A 
ATOM     10  C   LIG d   1       2.402   0.019  -9.744  0.00  0.00     0.235 A 
ATOM     11  O   LIG d   1       1.421  -0.410  -9.161  0.00  0.00    -0.283 OA
ATOM     12  H   LIG d   1       5.133   0.068 -13.463  0.00  0.00     0.069 H 
ATOM     13  H   LIG d   1       1.746  -2.542 -13.532  0.00  0.00     0.065 H 
ATOM     14  H   LIG d   1       1.106  -1.815 -11.288  0.00  0.00     0.063 H 
ENDROOT
BRANCH   1  15
ATOM     15  O   LIG d   1       2.981   1.468  -7.901  0.00  0.00    -0.449 OA
BRANCH  15  16
ATOM     16  C   LIG d   1       3.184   0.640  -6.846  0.00  0.00     0.129 A 
ATOM     17  C   LIG d   1       4.195  -0.313  -6.897  0.00  0.00    -0.019 A 
ATOM     18  C   LIG d   1       4.405  -1.155  -5.829  0.00  0.00    -0.044 A 
ATOM     19  H   LIG d   1       4.816  -0.394  -7.776  0.00  0.00     0.065 H 
ATOM     20  C   LIG d   1       3.601  -1.050  -4.690  0.00  0.00     0.059 A 
ATOM     21  H   LIG d   1       5.190  -1.896  -5.869  0.00  0.00     0.063 H 
ATOM     22  C   LIG d   1       2.585  -0.090  -4.642  0.00  0.00    -0.044 A 
ATOM     23  C   LIG d   1       2.385   0.751  -5.713  0.00  0.00    -0.019 A 
ATOM     24  H   LIG d   1       1.961  -0.006  -3.765  0.00  0.00     0.063 H 
ATOM     25  H   LIG d   1       1.603   1.496  -5.676  0.00  0.00     0.065 H 
BRANCH  20  26
ATOM     26  C   LIG d   1       3.821  -1.950  -3.543  0.00  0.00     0.339 C 
ATOM     27  O   LIG d   1       4.226  -3.081  -3.727  0.00  0.00    -0.245 OA
BRANCH  26  28
ATOM     28  O   LIG d   1       3.574  -1.518  -2.291  0.00  0.00    -0.461 OA
BRANCH  28  29
ATOM     29  C   LIG d   1       4.659  -0.845  -1.599  0.00  0.00     0.092 C 
ATOM     30  H   LIG d   1       4.669  -1.151  -0.553  0.00  0.00     0.070 H 
ATOM     31  H   LIG d   1       5.608  -1.114  -2.065  0.00  0.00     0.070 H 
BRANCH  29  32
ATOM     32  C   LIG d   1       4.459   0.668  -1.688  0.00  0.00    -0.021 C 
ATOM     33  H   LIG d   1       3.439   0.883  -2.007  0.00  0.00     0.029 H 
ATOM     34  H   LIG d   1       4.636   1.116  -0.711  0.00  0.00     0.029 H 
BRANCH  32  35
ATOM     35  C   LIG d   1       5.444   1.254  -2.703  0.00  0.00    -0.062 C 
ATOM     36  H   LIG d   1       6.410   1.409  -2.225  0.00  0.00     0.023 H 
ATOM     37  H   LIG d   1       5.558   0.563  -3.538  0.00  0.00     0.023 H 
ATOM     38  H   LIG d   1       5.062   2.207  -3.070  0.00  0.00     0.023 H 
ENDBRANCH  32  35
ENDBRANCH  29  32
ENDBRANCH  28  29
ENDBRANCH  26  28
ENDBRANCH  20  26
ENDBRANCH  15  16
ENDBRANCH   1  15
BRANCH   2  39
ATOM     39  C   LIG d   1       5.211   2.474  -9.175  0.00  0.00    -0.003 C 
ATOM     40  H   LIG d   1       6.257   2.204  -9.325  0.00  0.00     0.031 H 
ATOM     41  H   LIG d   1       5.020   3.451  -9.621  0.00  0.00     0.031 H 
ATOM     42  H   LIG d   1       4.997   2.515  -8.107  0.00  0.00     0.031 H 
ENDBRANCH   2  39
BRANCH   6  43
ATOM     43  O   LIG d   1       3.827  -1.699 -14.872  0.00  0.00    -0.487 OA
BRANCH  43  44
ATOM     44  C   LIG d   1       4.934  -1.041 -15.492  0.00  0.00     0.115 C 
ATOM     45  H   LIG d   1       5.545  -1.775 -16.017  0.00  0.00     0.075 H 
ATOM     46  H   LIG d   1       5.536  -0.546 -14.730  0.00  0.00     0.075 H 
BRANCH  44  47
ATOM     47  C   LIG d   1       4.424  -0.017 -16.474  0.00  0.00    -0.007 A 
ATOM     48  C   LIG d   1       5.238   1.025 -16.869  0.00  0.00    -0.014 A 
ATOM     49  C   LIG d   1       4.766   1.971 -17.768  0.00  0.00     0.120 A 
ATOM     50  H   LIG d   1       6.241   1.107 -16.475  0.00  0.00     0.066 H 
ATOM     51  C   LIG d   1       3.481   1.860 -18.277  0.00  0.00    -0.020 A 
ATOM     52  C   LIG d   1       2.672   0.811 -17.883  0.00  0.00    -0.058 A 
ATOM     53  H   LIG d   1       3.113   2.591 -18.980  0.00  0.00     0.065 H 
ATOM     54  C   LIG d   1       3.143  -0.127 -16.983  0.00  0.00    -0.055 A 
ATOM     55  H   LIG d   1       1.671   0.723 -18.279  0.00  0.00     0.062 H 
ATOM     56  H   LIG d   1       2.509  -0.946 -16.677  0.00  0.00     0.062 H 
BRANCH  49  57
ATOM     57  O   LIG d   1       5.564   3.001 -18.153  0.00  0.00    -0.495 OA
BRANCH  57  58
ATOM     58  C   LIG d   1       6.686   3.298 -17.320  0.00  0.00     0.079 C 
ATOM     59  H   LIG d   1       7.141   4.234 -17.644  0.00  0.00     0.066 H 
ATOM     60  H   LIG d   1       7.418   2.494 -17.394  0.00  0.00     0.066 H 
ATOM     61  H   LIG d   1       6.355   3.394 -16.286  0.00  0.00     0.066 H 
ENDBRANCH  57  58
ENDBRANCH  49  57
ENDBRANCH  44  47
ENDBRANCH  43  44
ENDBRANCH   6  43
TORSDOF 13
ENDMDL
MODEL 3
REMARK VINA RESULT:      -6.4      2.937      6.589
REMARK  13 active torsions:
REMARK  status: ('A' for Active; 'I' for Inactive)
REMARK    1  A    between atoms: C_1  and  C_2 
REMARK    2  A    between atoms: C_2  and  C_3 
REMARK    3  A    between atoms: C_3  and  O_4 
REMARK    4  A    between atoms: O_4  and  C_5 
REMARK    5  A    between atoms: C_5  and  C_7 
REMARK    6  A    between atoms: C_10  and  O_13 
REMARK    7  A    between atoms: O_13  and  C_14 
REMARK    8  A    between atoms: C_15  and  C_35 
REMARK    9  A    between atoms: C_19  and  O_25 
REMARK   10  A    between atoms: O_25  and  C_26 
REMARK   11  A    between atoms: C_26  and  C_27 
REMARK   12  A    between atoms: C_31  and  O_33 
REMARK   13  A    between atoms: O_33  and  C_34 
ROOT
ATOM      1  C   LIG d   1      10.392   4.285  -3.693  0.00  0.00     0.213 A 
ATOM      2  C   LIG d   1      11.256   3.604  -2.915  0.00  0.00     0.148 A 
ATOM      3  O   LIG d   1      11.632   4.032  -1.702  0.00  0.00    -0.456 OA
ATOM      4  C   LIG d   1      11.173   5.182  -1.168  0.00  0.00     0.142 A 
ATOM      5  C   LIG d   1      11.581   5.598   0.092  0.00  0.00     0.023 A 
ATOM      6  C   LIG d   1      11.093   6.782   0.616  0.00  0.00     0.124 A 
ATOM      7  C   LIG d   1      10.189   7.559  -0.106  0.00  0.00    -0.019 A 
ATOM      8  C   LIG d   1       9.780   7.165  -1.349  0.00  0.00    -0.044 A 
ATOM      9  C   LIG d   1      10.264   5.975  -1.892  0.00  0.00     0.068 A 
ATOM     10  C   LIG d   1       9.843   5.513  -3.226  0.00  0.00     0.235 A 
ATOM     11  O   LIG d   1       9.059   6.156  -3.902  0.00  0.00    -0.283 OA
ATOM     12  H   LIG d   1      12.278   5.000   0.660  0.00  0.00     0.069 H 
ATOM     13  H   LIG d   1       9.812   8.478   0.317  0.00  0.00     0.065 H 
ATOM     14  H   LIG d   1       9.082   7.773  -1.907  0.00  0.00     0.063 H 
ENDROOT
BRANCH   1  15
ATOM     15  O   LIG d   1      10.046   3.801  -4.917  0.00  0.00    -0.449 OA
BRANCH  15  16
ATOM     16  C   LIG d   1       9.103   2.828  -4.974  0.00  0.00     0.129 A 
ATOM     17  C   LIG d   1       8.347   2.527  -3.847  0.00  0.00    -0.019 A 
ATOM     18  C   LIG d   1       7.389   1.540  -3.901  0.00  0.00    -0.044 A 
ATOM     19  H   LIG d   1       8.512   3.068  -2.927  0.00  0.00     0.065 H 
ATOM     20  C   LIG d   1       7.176   0.841  -5.092  0.00  0.00     0.059 A 
ATOM     21  H   LIG d   1       6.802   1.307  -3.024  0.00  0.00     0.063 H 
ATOM     22  C   LIG d   1       7.938   1.145  -6.224  0.00  0.00    -0.044 A 
ATOM     23  C   LIG d   1       8.890   2.138  -6.163  0.00  0.00    -0.019 A 
ATOM     24  H   LIG d   1       7.776   0.608  -7.146  0.00  0.00     0.063 H 
ATOM     25  H   LIG d   1       9.477   2.377  -7.038  0.00  0.00     0.065 H 
BRANCH  20  26
ATOM     26  C   LIG d   1       6.151  -0.218  -5.155  0.00  0.00     0.339 C 
ATOM     27  O   LIG d   1       6.481  -1.372  -5.342  0.00  0.00    -0.245 OA
BRANCH  26  28
ATOM     28  O   LIG d   1       4.849   0.094  -5.004  0.00  0.00    -0.461 OA
BRANCH  28  29
ATOM     29  C   LIG d   1       4.181  -0.419  -3.821  0.00  0.00     0.092 C 
ATOM     30  H   LIG d   1       3.345  -1.051  -4.121  0.00  0.00     0.070 H 
ATOM     31  H   LIG d   1       4.886  -1.006  -3.232  0.00  0.00     0.070 H 
BRANCH  29  32
ATOM     32  C   LIG d   1       3.664   0.750  -2.980  0.00  0.00    -0.021 C 
ATOM     33  H   LIG d   1       3.718   1.669  -3.562  0.00  0.00     0.029 H 
ATOM     34  H   LIG d   1       2.629   0.561  -2.694  0.00  0.00     0.029 H 
BRANCH  32  35
ATOM     35  C   LIG d   1       4.523   0.891  -1.721  0.00  0.00    -0.062 C 
ATOM     36  H   LIG d   1       5.249   0.081  -1.684  0.00  0.00     0.023 H 
ATOM     37  H   LIG d   1       5.045   1.847  -1.744  0.00  0.00     0.023 H 
ATOM     38  H   LIG d   1       3.883   0.848  -0.839  0.00  0.00     0.023 H 
ENDBRANCH  32  35
ENDBRANCH  29  32
ENDBRANCH  28  29
ENDBRANCH  26  28
ENDBRANCH  20  26
ENDBRANCH  15  16
ENDBRANCH   1  15
BRANCH   2  39
ATOM     39  C   LIG d   1      11.825   2.307  -3.429  0.00  0.00    -0.003 C 
ATOM     40  H   LIG d   1      11.706   2.261  -4.512  0.00  0.00     0.031 H 
ATOM     41  H   LIG d   1      12.884   2.248  -3.177  0.00  0.00     0.031 H 
ATOM     42  H   LIG d   1      11.295   1.471  -2.971  0.00  0.00     0.031 H 
ENDBRANCH   2  39
BRANCH   6  43
ATOM     43  O   LIG d   1      11.493   7.188   1.849  0.00  0.00    -0.487 OA
BRANCH  43  44
ATOM     44  C   LIG d   1      11.024   6.430   2.966  0.00  0.00     0.115 C 
ATOM     45  H   LIG d   1      11.473   5.438   2.946  0.00  0.00     0.075 H 
ATOM     46  H   LIG d   1       9.939   6.338   2.912  0.00  0.00     0.075 H 
BRANCH  44  47
ATOM     47  C   LIG d   1      11.406   7.131   4.244  0.00  0.00    -0.007 A 
ATOM     48  C   LIG d   1      11.342   6.455   5.447  0.00  0.00    -0.014 A 
ATOM     49  C   LIG d   1      11.688   7.102   6.624  0.00  0.00     0.120 A 
ATOM     50  H   LIG d   1      11.018   5.424   5.471  0.00  0.00     0.066 H 
ATOM     51  C   LIG d   1      12.109   8.423   6.589  0.00  0.00    -0.020 A 
ATOM     52  C   LIG d   1      12.178   9.093   5.383  0.00  0.00    -0.058 A 
ATOM     53  H   LIG d   1      12.384   8.927   7.504  0.00  0.00     0.065 H 
ATOM     54  C   LIG d   1      11.827   8.447   4.211  0.00  0.00    -0.055 A 
ATOM     55  H   LIG d   1      12.506  10.121   5.354  0.00  0.00     0.062 H 
ATOM     56  H   LIG d   1      11.881   8.973   3.269  0.00  0.00     0.062 H 
BRANCH  49  57
ATOM     57  O   LIG d   1      11.621   6.440   7.809  0.00  0.00    -0.495 OA
BRANCH  57  58
ATOM     58  C   LIG d   1      10.325   6.020   8.244  0.00  0.00     0.079 C 
ATOM     59  H   LIG d   1       9.829   6.844   8.758  0.00  0.00     0.066 H 
ATOM     60  H   LIG d   1      10.427   5.175   8.926  0.00  0.00     0.066 H 
ATOM     61  H   LIG d   1       9.732   5.720   7.380  0.00  0.00     0.066 H 
ENDBRANCH  57  58
ENDBRANCH  49  57
ENDBRANCH  44  47
ENDBRANCH  43  44
ENDBRANCH   6  43
TORSDOF 13
ENDMDL
MODEL 4
REMARK VINA RESULT:      -6.3      3.447      9.936
REMARK  13 active torsions:
REMARK  status: ('A' for Active; 'I' for Inactive)
REMARK    1  A    between atoms: C_1  and  C_2 
REMARK    2  A    between atoms: C_2  and  C_3 
REMARK    3  A    between atoms: C_3  and  O_4 
REMARK    4  A    between atoms: O_4  and  C_5 
REMARK    5  A    between atoms: C_5  and  C_7 
REMARK    6  A    between atoms: C_10  and  O_13 
REMARK    7  A    between atoms: O_13  and  C_14 
REMARK    8  A    between atoms: C_15  and  C_35 
REMARK    9  A    between atoms: C_19  and  O_25 
REMARK   10  A    between atoms: O_25  and  C_26 
REMARK   11  A    between atoms: C_26  and  C_27 
REMARK   12  A    between atoms: C_31  and  O_33 
REMARK   13  A    between atoms: O_33  and  C_34 
ROOT
ATOM      1  C   LIG d   1      10.870   4.979  -4.045  0.00  0.00     0.213 A 
ATOM      2  C   LIG d   1      10.214   4.595  -2.931  0.00  0.00     0.148 A 
ATOM      3  O   LIG d   1       9.406   3.527  -2.899  0.00  0.00    -0.456 OA
ATOM      4  C   LIG d   1       9.186   2.754  -3.981  0.00  0.00     0.142 A 
ATOM      5  C   LIG d   1       8.342   1.654  -3.914  0.00  0.00     0.023 A 
ATOM      6  C   LIG d   1       8.135   0.877  -5.040  0.00  0.00     0.124 A 
ATOM      7  C   LIG d   1       8.770   1.185  -6.241  0.00  0.00    -0.019 A 
ATOM      8  C   LIG d   1       9.600   2.267  -6.325  0.00  0.00    -0.044 A 
ATOM      9  C   LIG d   1       9.819   3.061  -5.199  0.00  0.00     0.068 A 
ATOM     10  C   LIG d   1      10.710   4.233  -5.247  0.00  0.00     0.235 A 
ATOM     11  O   LIG d   1      11.287   4.550  -6.272  0.00  0.00    -0.283 OA
ATOM     12  H   LIG d   1       7.849   1.405  -2.985  0.00  0.00     0.069 H 
ATOM     13  H   LIG d   1       8.604   0.568  -7.112  0.00  0.00     0.065 H 
ATOM     14  H   LIG d   1      10.087   2.505  -7.260  0.00  0.00     0.063 H 
ENDROOT
BRANCH   1  15
ATOM     15  O   LIG d   1      11.678   6.073  -4.020  0.00  0.00    -0.449 OA
BRANCH  15  16
ATOM     16  C   LIG d   1      11.265   7.186  -4.678  0.00  0.00     0.129 A 
ATOM     17  C   LIG d   1      12.183   7.954  -5.386  0.00  0.00    -0.019 A 
ATOM     18  C   LIG d   1      11.768   9.083  -6.055  0.00  0.00    -0.044 A 
ATOM     19  H   LIG d   1      13.223   7.664  -5.411  0.00  0.00     0.065 H 
ATOM     20  C   LIG d   1      10.422   9.457  -6.023  0.00  0.00     0.059 A 
ATOM     21  H   LIG d   1      12.482   9.680  -6.605  0.00  0.00     0.063 H 
ATOM     22  C   LIG d   1       9.502   8.682  -5.310  0.00  0.00    -0.044 A 
ATOM     23  C   LIG d   1       9.924   7.551  -4.648  0.00  0.00    -0.019 A 
ATOM     24  H   LIG d   1       8.460   8.967  -5.283  0.00  0.00     0.063 H 
ATOM     25  H   LIG d   1       9.213   6.950  -4.100  0.00  0.00     0.065 H 
BRANCH  20  26
ATOM     26  C   LIG d   1       9.973  10.666  -6.738  0.00  0.00     0.339 C 
ATOM     27  O   LIG d   1      10.088  10.735  -7.945  0.00  0.00    -0.245 OA
BRANCH  26  28
ATOM     28  O   LIG d   1       9.433  11.693  -6.052  0.00  0.00    -0.461 OA
BRANCH  28  29
ATOM     29  C   LIG d   1      10.262  12.313  -5.034  0.00  0.00     0.092 C 
ATOM     30  H   LIG d   1      10.963  11.578  -4.638  0.00  0.00     0.070 H 
ATOM     31  H   LIG d   1      10.816  13.143  -5.473  0.00  0.00     0.070 H 
BRANCH  29  32
ATOM     32  C   LIG d   1       9.375  12.835  -3.903  0.00  0.00    -0.021 C 
ATOM     33  H   LIG d   1       9.999  13.244  -3.109  0.00  0.00     0.029 H 
ATOM     34  H   LIG d   1       8.717  13.615  -4.287  0.00  0.00     0.029 H 
BRANCH  32  35
ATOM     35  C   LIG d   1       8.530  11.686  -3.346  0.00  0.00    -0.062 C 
ATOM     36  H   LIG d   1       9.141  11.074  -2.683  0.00  0.00     0.023 H 
ATOM     37  H   LIG d   1       7.687  12.092  -2.790  0.00  0.00     0.023 H 
ATOM     38  H   LIG d   1       8.162  11.074  -4.170  0.00  0.00     0.023 H 
ENDBRANCH  32  35
ENDBRANCH  29  32
ENDBRANCH  28  29
ENDBRANCH  26  28
ENDBRANCH  20  26
ENDBRANCH  15  16
ENDBRANCH   1  15
BRANCH   2  39
ATOM     39  C   LIG d   1      10.397   5.400  -1.671  0.00  0.00    -0.003 C 
ATOM     40  H   LIG d   1      10.176   4.776  -0.805  0.00  0.00     0.031 H 
ATOM     41  H   LIG d   1      11.427   5.753  -1.612  0.00  0.00     0.031 H 
ATOM     42  H   LIG d   1       9.721   6.255  -1.685  0.00  0.00     0.031 H 
ENDBRANCH   2  39
BRANCH   6  43
ATOM     43  O   LIG d   1       7.309  -0.199  -4.973  0.00  0.00    -0.487 OA
BRANCH  43  44
ATOM     44  C   LIG d   1       7.015  -0.712  -3.672  0.00  0.00     0.115 C 
ATOM     45  H   LIG d   1       7.416  -0.035  -2.916  0.00  0.00     0.075 H 
ATOM     46  H   LIG d   1       7.471  -1.695  -3.557  0.00  0.00     0.075 H 
BRANCH  44  47
ATOM     47  C   LIG d   1       5.522  -0.827  -3.502  0.00  0.00    -0.007 A 
ATOM     48  C   LIG d   1       4.677  -0.214  -4.405  0.00  0.00    -0.014 A 
ATOM     49  C   LIG d   1       3.302  -0.315  -4.245  0.00  0.00     0.120 A 
ATOM     50  H   LIG d   1       5.085   0.349  -5.233  0.00  0.00     0.066 H 
ATOM     51  C   LIG d   1       2.781  -1.043  -3.186  0.00  0.00    -0.020 A 
ATOM     52  C   LIG d   1       3.631  -1.661  -2.290  0.00  0.00    -0.058 A 
ATOM     53  H   LIG d   1       1.711  -1.128  -3.063  0.00  0.00     0.065 H 
ATOM     54  C   LIG d   1       5.001  -1.553  -2.448  0.00  0.00    -0.055 A 
ATOM     55  H   LIG d   1       3.227  -2.228  -1.465  0.00  0.00     0.062 H 
ATOM     56  H   LIG d   1       5.665  -2.036  -1.746  0.00  0.00     0.062 H 
BRANCH  49  57
ATOM     57  O   LIG d   1       2.468   0.292  -5.129  0.00  0.00    -0.495 OA
BRANCH  57  58
ATOM     58  C   LIG d   1       2.856   0.274  -6.505  0.00  0.00     0.079 C 
ATOM     59  H   LIG d   1       3.857   0.695  -6.606  0.00  0.00     0.066 H 
ATOM     60  H   LIG d   1       2.152   0.867  -7.089  0.00  0.00     0.066 H 
ATOM     61  H   LIG d   1       2.855  -0.753  -6.869  0.00  0.00     0.066 H 
ENDBRANCH  57  58
ENDBRANCH  49  57
ENDBRANCH  44  47
ENDBRANCH  43  44
ENDBRANCH   6  43
TORSDOF 13
ENDMDL
MODEL 5
REMARK VINA RESULT:      -6.3      3.481     10.178
REMARK  13 active torsions:
REMARK  status: ('A' for Active; 'I' for Inactive)
REMARK    1  A    between atoms: C_1  and  C_2 
REMARK    2  A    between atoms: C_2  and  C_3 
REMARK    3  A    between atoms: C_3  and  O_4 
REMARK    4  A    between atoms: O_4  and  C_5 
REMARK    5  A    between atoms: C_5  and  C_7 
REMARK    6  A    between atoms: C_10  and  O_13 
REMARK    7  A    between atoms: O_13  and  C_14 
REMARK    8  A    between atoms: C_15  and  C_35 
REMARK    9  A    between atoms: C_19  and  O_25 
REMARK   10  A    between atoms: O_25  and  C_26 
REMARK   11  A    between atoms: C_26  and  C_27 
REMARK   12  A    between atoms: C_31  and  O_33 
REMARK   13  A    between atoms: O_33  and  C_34 
ROOT
ATOM      1  C   LIG d   1      10.802   5.142  -6.326  0.00  0.00     0.213 A 
ATOM      2  C   LIG d   1      10.363   4.491  -7.422  0.00  0.00     0.148 A 
ATOM      3  O   LIG d   1       9.595   3.395  -7.354  0.00  0.00    -0.456 OA
ATOM      4  C   LIG d   1       9.203   2.859  -6.181  0.00  0.00     0.142 A 
ATOM      5  C   LIG d   1       8.407   1.723  -6.146  0.00  0.00     0.023 A 
ATOM      6  C   LIG d   1       8.018   1.194  -4.927  0.00  0.00     0.124 A 
ATOM      7  C   LIG d   1       8.413   1.796  -3.734  0.00  0.00    -0.019 A 
ATOM      8  C   LIG d   1       9.200   2.912  -3.752  0.00  0.00    -0.044 A 
ATOM      9  C   LIG d   1       9.601   3.456  -4.972  0.00  0.00     0.068 A 
ATOM     10  C   LIG d   1      10.446   4.662  -5.034  0.00  0.00     0.235 A 
ATOM     11  O   LIG d   1      10.823   5.225  -4.021  0.00  0.00    -0.283 OA
ATOM     12  H   LIG d   1       8.092   1.252  -7.066  0.00  0.00     0.069 H 
ATOM     13  H   LIG d   1       8.099   1.376  -2.790  0.00  0.00     0.065 H 
ATOM     14  H   LIG d   1       9.508   3.372  -2.824  0.00  0.00     0.063 H 
ENDROOT
BRANCH   1  15
ATOM     15  O   LIG d   1      11.580   6.251  -6.455  0.00  0.00    -0.449 OA
BRANCH  15  16
ATOM     16  C   LIG d   1      11.033   7.453  -6.142  0.00  0.00     0.129 A 
ATOM     17  C   LIG d   1      11.760   8.371  -5.392  0.00  0.00    -0.019 A 
ATOM     18  C   LIG d   1      11.209   9.592  -5.074  0.00  0.00    -0.044 A 
ATOM     19  H   LIG d   1      12.758   8.127  -5.060  0.00  0.00     0.065 H 
ATOM     20  C   LIG d   1       9.918   9.908  -5.505  0.00  0.00     0.059 A 
ATOM     21  H   LIG d   1      11.774  10.305  -4.491  0.00  0.00     0.063 H 
ATOM     22  C   LIG d   1       9.190   8.982  -6.258  0.00  0.00    -0.044 A 
ATOM     23  C   LIG d   1       9.750   7.765  -6.578  0.00  0.00    -0.019 A 
ATOM     24  H   LIG d   1       8.192   9.222  -6.594  0.00  0.00     0.063 H 
ATOM     25  H   LIG d   1       9.190   7.050  -7.163  0.00  0.00     0.065 H 
BRANCH  20  26
ATOM     26  C   LIG d   1       9.323  11.214  -5.165  0.00  0.00     0.339 C 
ATOM     27  O   LIG d   1       9.552  12.184  -5.860  0.00  0.00    -0.245 OA
BRANCH  26  28
ATOM     28  O   LIG d   1       8.525  11.330  -4.086  0.00  0.00    -0.461 OA
BRANCH  28  29
ATOM     29  C   LIG d   1       9.154  11.737  -2.842  0.00  0.00     0.092 C 
ATOM     30  H   LIG d   1      10.168  12.083  -3.043  0.00  0.00     0.070 H 
ATOM     31  H   LIG d   1       8.578  12.545  -2.390  0.00  0.00     0.070 H 
BRANCH  29  32
ATOM     32  C   LIG d   1       9.201  10.547  -1.882  0.00  0.00    -0.021 C 
ATOM     33  H   LIG d   1       8.608  10.770  -0.995  0.00  0.00     0.029 H 
ATOM     34  H   LIG d   1       8.796   9.664  -2.378  0.00  0.00     0.029 H 
BRANCH  32  35
ATOM     35  C   LIG d   1      10.651  10.280  -1.471  0.00  0.00    -0.062 C 
ATOM     36  H   LIG d   1      10.890   9.231  -1.638  0.00  0.00     0.023 H 
ATOM     37  H   LIG d   1      11.317  10.904  -2.066  0.00  0.00     0.023 H 
ATOM     38  H   LIG d   1      10.778  10.518  -0.414  0.00  0.00     0.023 H 
ENDBRANCH  32  35
ENDBRANCH  29  32
ENDBRANCH  28  29
ENDBRANCH  26  28
ENDBRANCH  20  26
ENDBRANCH  15  16
ENDBRANCH   1  15
BRANCH   2  39
ATOM     39  C   LIG d   1      10.753   5.016  -8.779  0.00  0.00    -0.003 C 
ATOM     40  H   LIG d   1      11.831   5.175  -8.812  0.00  0.00     0.031 H 
ATOM     41  H   LIG d   1      10.469   4.293  -9.544  0.00  0.00     0.031 H 
ATOM     42  H   LIG d   1      10.241   5.961  -8.963  0.00  0.00     0.031 H 
ENDBRANCH   2  39
BRANCH   6  43
ATOM     43  O   LIG d   1       7.239   0.082  -4.894  0.00  0.00    -0.487 OA
BRANCH  43  44
ATOM     44  C   LIG d   1       6.994  -0.501  -3.612  0.00  0.00     0.115 C 
ATOM     45  H   LIG d   1       7.354   0.172  -2.833  0.00  0.00     0.075 H 
ATOM     46  H   LIG d   1       7.520  -1.453  -3.540  0.00  0.00     0.075 H 
BRANCH  44  47
ATOM     47  C   LIG d   1       5.515  -0.729  -3.437  0.00  0.00    -0.007 A 
ATOM     48  C   LIG d   1       4.618  -0.120  -4.292  0.00  0.00    -0.014 A 
ATOM     49  C   LIG d   1       3.255  -0.325  -4.127  0.00  0.00     0.120 A 
ATOM     50  H   LIG d   1       4.976   0.520  -5.086  0.00  0.00     0.066 H 
ATOM     51  C   LIG d   1       2.799  -1.151  -3.111  0.00  0.00    -0.020 A 
ATOM     52  C   LIG d   1       3.701  -1.764  -2.263  0.00  0.00    -0.058 A 
ATOM     53  H   LIG d   1       1.739  -1.317  -2.984  0.00  0.00     0.065 H 
ATOM     54  C   LIG d   1       5.058  -1.553  -2.426  0.00  0.00    -0.055 A 
ATOM     55  H   LIG d   1       3.347  -2.408  -1.472  0.00  0.00     0.062 H 
ATOM     56  H   LIG d   1       5.762  -2.033  -1.762  0.00  0.00     0.062 H 
BRANCH  49  57
ATOM     57  O   LIG d   1       2.370   0.278  -4.963  0.00  0.00    -0.495 OA
BRANCH  57  58
ATOM     58  C   LIG d   1       2.732   0.355  -6.344  0.00  0.00     0.079 C 
ATOM     59  H   LIG d   1       2.019   0.989  -6.872  0.00  0.00     0.066 H 
ATOM     60  H   LIG d   1       2.720  -0.645  -6.779  0.00  0.00     0.066 H 
ATOM     61  H   LIG d   1       3.732   0.778  -6.434  0.00  0.00     0.066 H 
ENDBRANCH  57  58
ENDBRANCH  49  57
ENDBRANCH  44  47
ENDBRANCH  43  44
ENDBRANCH   6  43
TORSDOF 13
ENDMDL
MODEL 6
REMARK VINA RESULT:      -6.2      5.124      6.982
REMARK  13 active torsions:
REMARK  status: ('A' for Active; 'I' for Inactive)
REMARK    1  A    between atoms: C_1  and  C_2 
REMARK    2  A    between atoms: C_2  and  C_3 
REMARK    3  A    between atoms: C_3  and  O_4 
REMARK    4  A    between atoms: O_4  and  C_5 
REMARK    5  A    between atoms: C_5  and  C_7 
REMARK    6  A    between atoms: C_10  and  O_13 
REMARK    7  A    between atoms: O_13  and  C_14 
REMARK    8  A    between atoms: C_15  and  C_35 
REMARK    9  A    between atoms: C_19  and  O_25 
REMARK   10  A    between atoms: O_25  and  C_26 
REMARK   11  A    between atoms: C_26  and  C_27 
REMARK   12  A    between atoms: C_31  and  O_33 
REMARK   13  A    between atoms: O_33  and  C_34 
ROOT
ATOM      1  C   LIG d   1       4.963   0.454 -10.214  0.00  0.00     0.213 A 
ATOM      2  C   LIG d   1       4.824   1.372  -9.236  0.00  0.00     0.148 A 
ATOM      3  O   LIG d   1       5.438   1.266  -8.050  0.00  0.00    -0.456 OA
ATOM      4  C   LIG d   1       6.243   0.230  -7.744  0.00  0.00     0.142 A 
ATOM      5  C   LIG d   1       6.865   0.150  -6.506  0.00  0.00     0.023 A 
ATOM      6  C   LIG d   1       7.688  -0.925  -6.217  0.00  0.00     0.124 A 
ATOM      7  C   LIG d   1       7.904  -1.926  -7.162  0.00  0.00    -0.019 A 
ATOM      8  C   LIG d   1       7.296  -1.865  -8.384  0.00  0.00    -0.044 A 
ATOM      9  C   LIG d   1       6.463  -0.788  -8.689  0.00  0.00     0.068 A 
ATOM     10  C   LIG d   1       5.793  -0.682  -9.997  0.00  0.00     0.235 A 
ATOM     11  O   LIG d   1       5.943  -1.532 -10.858  0.00  0.00    -0.283 OA
ATOM     12  H   LIG d   1       6.707   0.924  -5.769  0.00  0.00     0.069 H 
ATOM     13  H   LIG d   1       8.552  -2.757  -6.927  0.00  0.00     0.065 H 
ATOM     14  H   LIG d   1       7.462  -2.646  -9.112  0.00  0.00     0.063 H 
ENDROOT
BRANCH   1  15
ATOM     15  O   LIG d   1       4.315   0.613 -11.399  0.00  0.00    -0.449 OA
BRANCH  15  16
ATOM     16  C   LIG d   1       3.307  -0.246 -11.695  0.00  0.00     0.129 A 
ATOM     17  C   LIG d   1       3.340  -0.972 -12.881  0.00  0.00    -0.019 A 
ATOM     18  C   LIG d   1       2.320  -1.845 -13.184  0.00  0.00    -0.044 A 
ATOM     19  H   LIG d   1       4.166  -0.850 -13.565  0.00  0.00     0.065 H 
ATOM     20  C   LIG d   1       1.251  -2.002 -12.298  0.00  0.00     0.059 A 
ATOM     21  H   LIG d   1       2.345  -2.408 -14.106  0.00  0.00     0.063 H 
ATOM     22  C   LIG d   1       1.221  -1.271 -11.106  0.00  0.00    -0.044 A 
ATOM     23  C   LIG d   1       2.248  -0.404 -10.808  0.00  0.00    -0.019 A 
ATOM     24  H   LIG d   1       0.397  -1.390 -10.419  0.00  0.00     0.063 H 
ATOM     25  H   LIG d   1       2.228   0.159  -9.886  0.00  0.00     0.065 H 
BRANCH  20  26
ATOM     26  C   LIG d   1       0.155  -2.936 -12.619  0.00  0.00     0.339 C 
ATOM     27  O   LIG d   1      -0.057  -3.893 -11.900  0.00  0.00    -0.245 OA
BRANCH  26  28
ATOM     28  O   LIG d   1      -0.611  -2.728 -13.707  0.00  0.00    -0.461 OA
BRANCH  28  29
ATOM     29  C   LIG d   1      -1.947  -2.203 -13.482  0.00  0.00     0.092 C 
ATOM     30  H   LIG d   1      -2.683  -2.895 -13.891  0.00  0.00     0.070 H 
ATOM     31  H   LIG d   1      -2.115  -2.085 -12.412  0.00  0.00     0.070 H 
BRANCH  29  32
ATOM     32  C   LIG d   1      -2.084  -0.845 -14.172  0.00  0.00    -0.021 C 
ATOM     33  H   LIG d   1      -1.099  -0.492 -14.480  0.00  0.00     0.029 H 
ATOM     34  H   LIG d   1      -2.725  -0.946 -15.048  0.00  0.00     0.029 H 
BRANCH  32  35
ATOM     35  C   LIG d   1      -2.704   0.161 -13.199  0.00  0.00    -0.062 C 
ATOM     36  H   LIG d   1      -2.507   1.173 -13.548  0.00  0.00     0.023 H 
ATOM     37  H   LIG d   1      -3.780  -0.003 -13.146  0.00  0.00     0.023 H 
ATOM     38  H   LIG d   1      -2.266   0.025 -12.210  0.00  0.00     0.023 H 
ENDBRANCH  32  35
ENDBRANCH  29  32
ENDBRANCH  28  29
ENDBRANCH  26  28
ENDBRANCH  20  26
ENDBRANCH  15  16
ENDBRANCH   1  15
BRANCH   2  39
ATOM     39  C   LIG d   1       3.940   2.566  -9.487  0.00  0.00    -0.003 C 
ATOM     40  H   LIG d   1       4.462   3.475  -9.186  0.00  0.00     0.031 H 
ATOM     41  H   LIG d   1       3.698   2.622 -10.549  0.00  0.00     0.031 H 
ATOM     42  H   LIG d   1       3.022   2.466  -8.909  0.00  0.00     0.031 H 
ENDBRANCH   2  39
BRANCH   6  43
ATOM     43  O   LIG d   1       8.296  -1.002  -5.006  0.00  0.00    -0.487 OA
BRANCH  43  44
ATOM     44  C   LIG d   1       7.947  -2.110  -4.174  0.00  0.00     0.115 C 
ATOM     45  H   LIG d   1       8.629  -2.156  -3.325  0.00  0.00     0.075 H 
ATOM     46  H   LIG d   1       8.020  -3.033  -4.748  0.00  0.00     0.075 H 
BRANCH  44  47
ATOM     47  C   LIG d   1       6.535  -1.939  -3.676  0.00  0.00    -0.007 A 
ATOM     48  C   LIG d   1       6.204  -0.845  -2.901  0.00  0.00    -0.014 A 
ATOM     49  C   LIG d   1       4.905  -0.692  -2.438  0.00  0.00     0.120 A 
ATOM     50  H   LIG d   1       6.957  -0.111  -2.652  0.00  0.00     0.066 H 
ATOM     51  C   LIG d   1       3.939  -1.631  -2.764  0.00  0.00    -0.020 A 
ATOM     52  C   LIG d   1       4.273  -2.721  -3.545  0.00  0.00    -0.058 A 
ATOM     53  H   LIG d   1       2.926  -1.511  -2.409  0.00  0.00     0.065 H 
ATOM     54  C   LIG d   1       5.570  -2.875  -4.001  0.00  0.00    -0.055 A 
ATOM     55  H   LIG d   1       3.522  -3.453  -3.801  0.00  0.00     0.062 H 
ATOM     56  H   LIG d   1       5.829  -3.727  -4.612  0.00  0.00     0.062 H 
BRANCH  49  57
ATOM     57  O   LIG d   1       4.579   0.381  -1.670  0.00  0.00    -0.495 OA
BRANCH  57  58
ATOM     58  C   LIG d   1       3.708   1.354  -2.252  0.00  0.00     0.079 C 
ATOM     59  H   LIG d   1       3.153   0.900  -3.074  0.00  0.00     0.066 H 
ATOM     60  H   LIG d   1       4.297   2.190  -2.630  0.00  0.00     0.066 H 
ATOM     61  H   LIG d   1       3.009   1.714  -1.497  0.00  0.00     0.066 H 
ENDBRANCH  57  58
ENDBRANCH  49  57
ENDBRANCH  44  47
ENDBRANCH  43  44
ENDBRANCH   6  43
TORSDOF 13
ENDMDL
MODEL 7
REMARK VINA RESULT:      -6.1      3.139      5.410
REMARK  13 active torsions:
REMARK  status: ('A' for Active; 'I' for Inactive)
REMARK    1  A    between atoms: C_1  and  C_2 
REMARK    2  A    between atoms: C_2  and  C_3 
REMARK    3  A    between atoms: C_3  and  O_4 
REMARK    4  A    between atoms: O_4  and  C_5 
REMARK    5  A    between atoms: C_5  and  C_7 
REMARK    6  A    between atoms: C_10  and  O_13 
REMARK    7  A    between atoms: O_13  and  C_14 
REMARK    8  A    between atoms: C_15  and  C_35 
REMARK    9  A    between atoms: C_19  and  O_25 
REMARK   10  A    between atoms: O_25  and  C_26 
REMARK   11  A    between atoms: C_26  and  C_27 
REMARK   12  A    between atoms: C_31  and  O_33 
REMARK   13  A    between atoms: O_33  and  C_34 
ROOT
ATOM      1  C   LIG d   1       9.371   2.078  -5.092  0.00  0.00     0.213 A 
ATOM      2  C   LIG d   1       9.024   2.592  -6.289  0.00  0.00     0.148 A 
ATOM      3  O   LIG d   1       9.210   3.880  -6.605  0.00  0.00    -0.456 OA
ATOM      4  C   LIG d   1       9.759   4.763  -5.747  0.00  0.00     0.142 A 
ATOM      5  C   LIG d   1       9.939   6.091  -6.107  0.00  0.00     0.023 A 
ATOM      6  C   LIG d   1      10.506   6.976  -5.206  0.00  0.00     0.124 A 
ATOM      7  C   LIG d   1      10.906   6.544  -3.943  0.00  0.00    -0.019 A 
ATOM      8  C   LIG d   1      10.732   5.241  -3.572  0.00  0.00    -0.044 A 
ATOM      9  C   LIG d   1      10.161   4.337  -4.468  0.00  0.00     0.068 A 
ATOM     10  C   LIG d   1       9.962   2.922  -4.109  0.00  0.00     0.235 A 
ATOM     11  O   LIG d   1      10.288   2.493  -3.016  0.00  0.00    -0.283 OA
ATOM     12  H   LIG d   1       9.636   6.434  -7.085  0.00  0.00     0.069 H 
ATOM     13  H   LIG d   1      11.351   7.244  -3.252  0.00  0.00     0.065 H 
ATOM     14  H   LIG d   1      11.039   4.911  -2.590  0.00  0.00     0.063 H 
ENDROOT
BRANCH   1  15
ATOM     15  O   LIG d   1       9.158   0.761  -4.825  0.00  0.00    -0.449 OA
BRANCH  15  16
ATOM     16  C   LIG d   1       7.994   0.413  -4.222  0.00  0.00     0.129 A 
ATOM     17  C   LIG d   1       7.165   1.397  -3.693  0.00  0.00    -0.019 A 
ATOM     18  C   LIG d   1       5.983   1.048  -3.081  0.00  0.00    -0.044 A 
ATOM     19  H   LIG d   1       7.450   2.435  -3.762  0.00  0.00     0.065 H 
ATOM     20  C   LIG d   1       5.614  -0.297  -2.993  0.00  0.00     0.059 A 
ATOM     21  H   LIG d   1       5.340   1.813  -2.670  0.00  0.00     0.063 H 
ATOM     22  C   LIG d   1       6.449  -1.284  -3.526  0.00  0.00    -0.044 A 
ATOM     23  C   LIG d   1       7.628  -0.927  -4.141  0.00  0.00    -0.019 A 
ATOM     24  H   LIG d   1       6.168  -2.325  -3.459  0.00  0.00     0.063 H 
ATOM     25  H   LIG d   1       8.272  -1.688  -4.556  0.00  0.00     0.065 H 
BRANCH  20  26
ATOM     26  C   LIG d   1       4.348  -0.676  -2.337  0.00  0.00     0.339 C 
ATOM     27  O   LIG d   1       4.321  -1.616  -1.567  0.00  0.00    -0.245 OA
BRANCH  26  28
ATOM     28  O   LIG d   1       3.223   0.020  -2.592  0.00  0.00    -0.461 OA
BRANCH  28  29
ATOM     29  C   LIG d   1       2.405  -0.433  -3.704  0.00  0.00     0.092 C 
ATOM     30  H   LIG d   1       2.772  -1.396  -4.056  0.00  0.00     0.070 H 
ATOM     31  H   LIG d   1       1.371  -0.537  -3.375  0.00  0.00     0.070 H 
BRANCH  29  32
ATOM     32  C   LIG d   1       2.478   0.590  -4.839  0.00  0.00    -0.021 C 
ATOM     33  H   LIG d   1       1.471   0.824  -5.183  0.00  0.00     0.029 H 
ATOM     34  H   LIG d   1       2.961   1.498  -4.479  0.00  0.00     0.029 H 
BRANCH  32  35
ATOM     35  C   LIG d   1       3.290   0.007  -5.998  0.00  0.00    -0.062 C 
ATOM     36  H   LIG d   1       3.573   0.806  -6.682  0.00  0.00     0.023 H 
ATOM     37  H   LIG d   1       4.187  -0.472  -5.608  0.00  0.00     0.023 H 
ATOM     38  H   LIG d   1       2.686  -0.730  -6.529  0.00  0.00     0.023 H 
ENDBRANCH  32  35
ENDBRANCH  29  32
ENDBRANCH  28  29
ENDBRANCH  26  28
ENDBRANCH  20  26
ENDBRANCH  15  16
ENDBRANCH   1  15
BRANCH   2  39
ATOM     39  C   LIG d   1       8.401   1.680  -7.313  0.00  0.00    -0.003 C 
ATOM     40  H   LIG d   1       7.478   2.126  -7.684  0.00  0.00     0.031 H 
ATOM     41  H   LIG d   1       9.094   1.537  -8.142  0.00  0.00     0.031 H 
ATOM     42  H   LIG d   1       8.179   0.716  -6.854  0.00  0.00     0.031 H 
ENDBRANCH   2  39
BRANCH   6  43
ATOM     43  O   LIG d   1      10.681   8.276  -5.559  0.00  0.00    -0.487 OA
BRANCH  43  44
ATOM     44  C   LIG d   1       9.503   9.060  -5.752  0.00  0.00     0.115 C 
ATOM     45  H   LIG d   1       8.625   8.464  -5.503  0.00  0.00     0.075 H 
ATOM     46  H   LIG d   1       9.443   9.377  -6.793  0.00  0.00     0.075 H 
BRANCH  44  47
ATOM     47  C   LIG d   1       9.555  10.274  -4.860  0.00  0.00    -0.007 A 
ATOM     48  C   LIG d   1       9.665  10.121  -3.492  0.00  0.00    -0.014 A 
ATOM     49  C   LIG d   1       9.707  11.239  -2.671  0.00  0.00     0.120 A 
ATOM     50  H   LIG d   1       9.712   9.131  -3.061  0.00  0.00     0.066 H 
ATOM     51  C   LIG d   1       9.652  12.507  -3.227  0.00  0.00    -0.020 A 
ATOM     52  C   LIG d   1       9.550  12.656  -4.597  0.00  0.00    -0.058 A 
ATOM     53  H   LIG d   1       9.690  13.379  -2.591  0.00  0.00     0.065 H 
ATOM     54  C   LIG d   1       9.502  11.540  -5.413  0.00  0.00    -0.055 A 
ATOM     55  H   LIG d   1       9.507  13.643  -5.031  0.00  0.00     0.062 H 
ATOM     56  H   LIG d   1       9.422  11.658  -6.484  0.00  0.00     0.062 H 
BRANCH  49  57
ATOM     57  O   LIG d   1       9.808  11.089  -1.324  0.00  0.00    -0.495 OA
BRANCH  57  58
ATOM     58  C   LIG d   1       9.219   9.918  -0.756  0.00  0.00     0.079 C 
ATOM     59  H   LIG d   1       9.994   9.174  -0.571  0.00  0.00     0.066 H 
ATOM     60  H   LIG d   1       8.481   9.509  -1.447  0.00  0.00     0.066 H 
ATOM     61  H   LIG d   1       8.732  10.175   0.185  0.00  0.00     0.066 H 
ENDBRANCH  57  58
ENDBRANCH  49  57
ENDBRANCH  44  47
ENDBRANCH  43  44
ENDBRANCH   6  43
TORSDOF 13
ENDMDL
MODEL 8
REMARK VINA RESULT:      -6.0      2.889      5.730
REMARK  13 active torsions:
REMARK  status: ('A' for Active; 'I' for Inactive)
REMARK    1  A    between atoms: C_1  and  C_2 
REMARK    2  A    between atoms: C_2  and  C_3 
REMARK    3  A    between atoms: C_3  and  O_4 
REMARK    4  A    between atoms: O_4  and  C_5 
REMARK    5  A    between atoms: C_5  and  C_7 
REMARK    6  A    between atoms: C_10  and  O_13 
REMARK    7  A    between atoms: O_13  and  C_14 
REMARK    8  A    between atoms: C_15  and  C_35 
REMARK    9  A    between atoms: C_19  and  O_25 
REMARK   10  A    between atoms: O_25  and  C_26 
REMARK   11  A    between atoms: C_26  and  C_27 
REMARK   12  A    between atoms: C_31  and  O_33 
REMARK   13  A    between atoms: O_33  and  C_34 
ROOT
ATOM      1  C   LIG d   1      10.202   3.501  -4.576  0.00  0.00     0.213 A 
ATOM      2  C   LIG d   1       9.969   4.521  -5.425  0.00  0.00     0.148 A 
ATOM      3  O   LIG d   1       9.953   5.802  -5.032  0.00  0.00    -0.456 OA
ATOM      4  C   LIG d   1      10.169   6.168  -3.753  0.00  0.00     0.142 A 
ATOM      5  C   LIG d   1      10.147   7.504  -3.378  0.00  0.00     0.023 A 
ATOM      6  C   LIG d   1      10.373   7.851  -2.058  0.00  0.00     0.124 A 
ATOM      7  C   LIG d   1      10.629   6.872  -1.100  0.00  0.00    -0.019 A 
ATOM      8  C   LIG d   1      10.651   5.552  -1.452  0.00  0.00    -0.044 A 
ATOM      9  C   LIG d   1      10.424   5.186  -2.779  0.00  0.00     0.068 A 
ATOM     10  C   LIG d   1      10.444   3.774  -3.199  0.00  0.00     0.235 A 
ATOM     11  O   LIG d   1      10.658   2.877  -2.402  0.00  0.00    -0.283 OA
ATOM     12  H   LIG d   1       9.953   8.270  -4.114  0.00  0.00     0.069 H 
ATOM     13  H   LIG d   1      10.809   7.156  -0.074  0.00  0.00     0.065 H 
ATOM     14  H   LIG d   1      10.846   4.795  -0.705  0.00  0.00     0.063 H 
ENDROOT
BRANCH   1  15
ATOM     15  O   LIG d   1      10.205   2.219  -5.031  0.00  0.00    -0.449 OA
BRANCH  15  16
ATOM     16  C   LIG d   1       9.030   1.540  -5.032  0.00  0.00     0.129 A 
ATOM     17  C   LIG d   1       8.635   0.839  -6.166  0.00  0.00    -0.019 A 
ATOM     18  C   LIG d   1       7.444   0.148  -6.171  0.00  0.00    -0.044 A 
ATOM     19  H   LIG d   1       9.263   0.836  -7.044  0.00  0.00     0.065 H 
ATOM     20  C   LIG d   1       6.632   0.152  -5.034  0.00  0.00     0.059 A 
ATOM     21  H   LIG d   1       7.138  -0.396  -7.053  0.00  0.00     0.063 H 
ATOM     22  C   LIG d   1       7.032   0.858  -3.896  0.00  0.00    -0.044 A 
ATOM     23  C   LIG d   1       8.227   1.541  -3.897  0.00  0.00    -0.019 A 
ATOM     24  H   LIG d   1       6.407   0.863  -3.015  0.00  0.00     0.063 H 
ATOM     25  H   LIG d   1       8.539   2.084  -3.016  0.00  0.00     0.065 H 
BRANCH  20  26
ATOM     26  C   LIG d   1       5.355  -0.585  -5.035  0.00  0.00     0.339 C 
ATOM     27  O   LIG d   1       5.355  -1.799  -5.083  0.00  0.00    -0.245 OA
BRANCH  26  28
ATOM     28  O   LIG d   1       4.188   0.087  -4.981  0.00  0.00    -0.461 OA
BRANCH  28  29
ATOM     29  C   LIG d   1       3.392  -0.070  -3.776  0.00  0.00     0.092 C 
ATOM     30  H   LIG d   1       2.344  -0.199  -4.047  0.00  0.00     0.070 H 
ATOM     31  H   LIG d   1       3.735  -0.947  -3.226  0.00  0.00     0.070 H 
BRANCH  29  32
ATOM     32  C   LIG d   1       3.544   1.173  -2.899  0.00  0.00    -0.021 C 
ATOM     33  H   LIG d   1       4.032   1.964  -3.469  0.00  0.00     0.029 H 
ATOM     34  H   LIG d   1       2.560   1.512  -2.576  0.00  0.00     0.029 H 
BRANCH  32  35
ATOM     35  C   LIG d   1       4.394   0.831  -1.672  0.00  0.00    -0.062 C 
ATOM     36  H   LIG d   1       3.772   0.864  -0.779  0.00  0.00     0.023 H 
ATOM     37  H   LIG d   1       4.811  -0.168  -1.788  0.00  0.00     0.023 H 
ATOM     38  H   LIG d   1       5.204   1.555  -1.579  0.00  0.00     0.023 H 
ENDBRANCH  32  35
ENDBRANCH  29  32
ENDBRANCH  28  29
ENDBRANCH  26  28
ENDBRANCH  20  26
ENDBRANCH  15  16
ENDBRANCH   1  15
BRANCH   2  39
ATOM     39  C   LIG d   1       9.714   4.209  -6.877  0.00  0.00    -0.003 C 
ATOM     40  H   LIG d   1      10.112   5.012  -7.497  0.00  0.00     0.031 H 
ATOM     41  H   LIG d   1      10.206   3.271  -7.138  0.00  0.00     0.031 H 
ATOM     42  H   LIG d   1       8.642   4.117  -7.046  0.00  0.00     0.031 H 
ENDBRANCH   2  39
BRANCH   6  43
ATOM     43  O   LIG d   1      10.350   9.159  -1.692  0.00  0.00    -0.487 OA
BRANCH  43  44
ATOM     44  C   LIG d   1       9.694   9.478  -0.464  0.00  0.00     0.115 C 
ATOM     45  H   LIG d   1       9.332   8.562   0.004  0.00  0.00     0.075 H 
ATOM     46  H   LIG d   1       8.851  10.141  -0.663  0.00  0.00     0.075 H 
BRANCH  44  47
ATOM     47  C   LIG d   1      10.665  10.165   0.462  0.00  0.00    -0.007 A 
ATOM     48  C   LIG d   1      11.374   9.428   1.388  0.00  0.00    -0.014 A 
ATOM     49  C   LIG d   1      12.264  10.062   2.244  0.00  0.00     0.120 A 
ATOM     50  H   LIG d   1      11.233   8.358   1.451  0.00  0.00     0.066 H 
ATOM     51  C   LIG d   1      12.447  11.433   2.158  0.00  0.00    -0.020 A 
ATOM     52  C   LIG d   1      11.740  12.166   1.224  0.00  0.00    -0.058 A 
ATOM     53  H   LIG d   1      13.143  11.928   2.819  0.00  0.00     0.065 H 
ATOM     54  C   LIG d   1      10.850  11.533   0.376  0.00  0.00    -0.055 A 
ATOM     55  H   LIG d   1      11.883  13.234   1.156  0.00  0.00     0.062 H 
ATOM     56  H   LIG d   1      10.298  12.108  -0.353  0.00  0.00     0.062 H 
BRANCH  49  57
ATOM     57  O   LIG d   1      12.958   9.338   3.161  0.00  0.00    -0.495 OA
BRANCH  57  58
ATOM     58  C   LIG d   1      12.566   9.477   4.528  0.00  0.00     0.079 C 
ATOM     59  H   LIG d   1      12.013  10.408   4.655  0.00  0.00     0.066 H 
ATOM     60  H   LIG d   1      13.454   9.494   5.161  0.00  0.00     0.066 H 
ATOM     61  H   LIG d   1      11.934   8.637   4.812  0.00  0.00     0.066 H 
ENDBRANCH  57  58
ENDBRANCH  49  57
ENDBRANCH  44  47
ENDBRANCH  43  44
ENDBRANCH   6  43
TORSDOF 13
ENDMDL
MODEL 9
REMARK VINA RESULT:      -6.0      4.262     10.176
REMARK  13 active torsions:
REMARK  status: ('A' for Active; 'I' for Inactive)
REMARK    1  A    between atoms: C_1  and  C_2 
REMARK    2  A    between atoms: C_2  and  C_3 
REMARK    3  A    between atoms: C_3  and  O_4 
REMARK    4  A    between atoms: O_4  and  C_5 
REMARK    5  A    between atoms: C_5  and  C_7 
REMARK    6  A    between atoms: C_10  and  O_13 
REMARK    7  A    between atoms: O_13  and  C_14 
REMARK    8  A    between atoms: C_15  and  C_35 
REMARK    9  A    between atoms: C_19  and  O_25 
REMARK   10  A    between atoms: O_25  and  C_26 
REMARK   11  A    between atoms: C_26  and  C_27 
REMARK   12  A    between atoms: C_31  and  O_33 
REMARK   13  A    between atoms: O_33  and  C_34 
ROOT
ATOM      1  C   LIG d   1      10.780   5.095  -6.587  0.00  0.00     0.213 A 
ATOM      2  C   LIG d   1      10.233   4.451  -7.636  0.00  0.00     0.148 A 
ATOM      3  O   LIG d   1       9.459   3.366  -7.496  0.00  0.00    -0.456 OA
ATOM      4  C   LIG d   1       9.170   2.835  -6.292  0.00  0.00     0.142 A 
ATOM      5  C   LIG d   1       8.364   1.711  -6.181  0.00  0.00     0.023 A 
ATOM      6  C   LIG d   1       8.082   1.187  -4.931  0.00  0.00     0.124 A 
ATOM      7  C   LIG d   1       8.594   1.783  -3.780  0.00  0.00    -0.019 A 
ATOM      8  C   LIG d   1       9.393   2.888  -3.872  0.00  0.00    -0.044 A 
ATOM      9  C   LIG d   1       9.686   3.427  -5.125  0.00  0.00     0.068 A 
ATOM     10  C   LIG d   1      10.538   4.621  -5.266  0.00  0.00     0.235 A 
ATOM     11  O   LIG d   1      11.016   5.178  -4.294  0.00  0.00    -0.283 OA
ATOM     12  H   LIG d   1       7.959   1.245  -7.068  0.00  0.00     0.069 H 
ATOM     13  H   LIG d   1       8.363   1.368  -2.811  0.00  0.00     0.065 H 
ATOM     14  H   LIG d   1       9.791   3.344  -2.978  0.00  0.00     0.063 H 
ENDROOT
BRANCH   1  15
ATOM     15  O   LIG d   1      11.559   6.193  -6.788  0.00  0.00    -0.449 OA
BRANCH  15  16
ATOM     16  C   LIG d   1      11.064   7.401  -6.421  0.00  0.00     0.129 A 
ATOM     17  C   LIG d   1       9.756   7.744  -6.746  0.00  0.00    -0.019 A 
ATOM     18  C   LIG d   1       9.250   8.969  -6.375  0.00  0.00    -0.044 A 
ATOM     19  H   LIG d   1       9.136   7.047  -7.291  0.00  0.00     0.065 H 
ATOM     20  C   LIG d   1      10.052   9.869  -5.669  0.00  0.00     0.059 A 
ATOM     21  H   LIG d   1       8.234   9.234  -6.628  0.00  0.00     0.063 H 
ATOM     22  C   LIG d   1      11.367   9.522  -5.343  0.00  0.00    -0.044 A 
ATOM     23  C   LIG d   1      11.864   8.293  -5.714  0.00  0.00    -0.019 A 
ATOM     24  H   LIG d   1      11.991  10.215  -4.798  0.00  0.00     0.063 H 
ATOM     25  H   LIG d   1      12.879   8.022  -5.460  0.00  0.00     0.065 H 
BRANCH  20  26
ATOM     26  C   LIG d   1       9.515  11.183  -5.269  0.00  0.00     0.339 C 
ATOM     27  O   LIG d   1       8.639  11.251  -4.431  0.00  0.00    -0.245 OA
BRANCH  26  28
ATOM     28  O   LIG d   1       9.998  12.308  -5.833  0.00  0.00    -0.461 OA
BRANCH  28  29
ATOM     29  C   LIG d   1       9.490  12.656  -7.148  0.00  0.00     0.092 C 
ATOM     30  H   LIG d   1       9.106  11.761  -7.638  0.00  0.00     0.070 H 
ATOM     31  H   LIG d   1       8.688  13.387  -7.046  0.00  0.00     0.070 H 
BRANCH  29  32
ATOM     32  C   LIG d   1      10.620  13.254  -7.989  0.00  0.00    -0.021 C 
ATOM     33  H   LIG d   1      11.528  13.315  -7.388  0.00  0.00     0.029 H 
ATOM     34  H   LIG d   1      10.801  12.621  -8.857  0.00  0.00     0.029 H 
BRANCH  32  35
ATOM     35  C   LIG d   1      10.222  14.657  -8.454  0.00  0.00    -0.062 C 
ATOM     36  H   LIG d   1      10.895  15.391  -8.014  0.00  0.00     0.023 H 
ATOM     37  H   LIG d   1      10.286  14.710  -9.540  0.00  0.00     0.023 H 
ATOM     38  H   LIG d   1       9.198  14.866  -8.140  0.00  0.00     0.023 H 
ENDBRANCH  32  35
ENDBRANCH  29  32
ENDBRANCH  28  29
ENDBRANCH  26  28
ENDBRANCH  20  26
ENDBRANCH  15  16
ENDBRANCH   1  15
BRANCH   2  39
ATOM     39  C   LIG d   1      10.503   4.971  -9.024  0.00  0.00    -0.003 C 
ATOM     40  H   LIG d   1      11.575   5.114  -9.158  0.00  0.00     0.031 H 
ATOM     41  H   LIG d   1      10.138   4.252  -9.759  0.00  0.00     0.031 H 
ATOM     42  H   LIG d   1       9.989   5.922  -9.162  0.00  0.00     0.031 H 
ENDBRANCH   2  39
BRANCH   6  43
ATOM     43  O   LIG d   1       7.293   0.087  -4.824  0.00  0.00    -0.487 OA
BRANCH  43  44
ATOM     44  C   LIG d   1       7.011  -0.384  -3.505  0.00  0.00     0.115 C 
ATOM     45  H   LIG d   1       7.311   0.372  -2.778  0.00  0.00     0.075 H 
ATOM     46  H   LIG d   1       7.565  -1.304  -3.321  0.00  0.00     0.075 H 
BRANCH  44  47
ATOM     47  C   LIG d   1       5.534  -0.651  -3.372  0.00  0.00    -0.007 A 
ATOM     48  C   LIG d   1       4.641  -0.031  -4.223  0.00  0.00    -0.014 A 
ATOM     49  C   LIG d   1       3.281  -0.273  -4.096  0.00  0.00     0.120 A 
ATOM     50  H   LIG d   1       5.001   0.647  -4.984  0.00  0.00     0.066 H 
ATOM     51  C   LIG d   1       2.822  -1.148  -3.123  0.00  0.00    -0.020 A 
ATOM     52  C   LIG d   1       3.720  -1.772  -2.279  0.00  0.00    -0.058 A 
ATOM     53  H   LIG d   1       1.764  -1.342  -3.026  0.00  0.00     0.065 H 
ATOM     54  C   LIG d   1       5.075  -1.524  -2.403  0.00  0.00    -0.055 A 
ATOM     55  H   LIG d   1       3.364  -2.454  -1.521  0.00  0.00     0.062 H 
ATOM     56  H   LIG d   1       5.775  -2.013  -1.742  0.00  0.00     0.062 H 
BRANCH  49  57
ATOM     57  O   LIG d   1       2.400   0.341  -4.929  0.00  0.00    -0.495 OA
BRANCH  57  58
ATOM     58  C   LIG d   1       2.725   0.355  -6.321  0.00  0.00     0.079 C 
ATOM     59  H   LIG d   1       2.172   1.153  -6.816  0.00  0.00     0.066 H 
ATOM     60  H   LIG d   1       2.456  -0.603  -6.767  0.00  0.00     0.066 H 
ATOM     61  H   LIG d   1       3.795   0.524  -6.443  0.00  0.00     0.066 H 
ENDBRANCH  57  58
ENDBRANCH  49  57
ENDBRANCH  44  47
ENDBRANCH  43  44
ENDBRANCH   6  43
TORSDOF 13
ENDMDL
