MODEL 1
REMARK VINA RESULT:      -4.6      0.000      0.000
REMARK  6 active torsions:
REMARK  status: ('A' for Active; 'I' for Inactive)
REMARK    1  A    between atoms: C_1  and  C_2 
REMARK    2  A    between atoms: C_3  and  N_16 
REMARK    3  A    between atoms: C_5  and  C_11 
REMARK    4  A    between atoms: C_7  and  N_8 
REMARK       I    between atoms: C_11  and  N_13 
REMARK    5  A    between atoms: N_13  and  C_14 
REMARK    6  A    between atoms: N_13  and  C_15 
ROOT
ATOM      1  C   LIG d   1       4.543  -1.383  -4.091  0.00  0.00     0.103 A 
ATOM      2  C   LIG d   1       4.655  -2.259  -5.156  0.00  0.00     0.283 A 
ATOM      3  C   LIG d   1       4.253  -1.869  -6.418  0.00  0.00     0.028 A 
ATOM      4  C   LIG d   1       3.738  -0.588  -6.618  0.00  0.00     0.050 A 
ATOM      5  C   LIG d   1       3.622   0.288  -5.538  0.00  0.00     0.028 A 
ATOM      6  C   LIG d   1       4.028  -0.113  -4.283  0.00  0.00     0.283 A 
ATOM      7  H   LIG d   1       4.340  -2.554  -7.249  0.00  0.00     0.069 H 
ATOM      8  H   LIG d   1       3.221   1.280  -5.686  0.00  0.00     0.069 H 
ENDROOT
BRANCH   4   9
ATOM      9  C   LIG d   1       3.311  -0.162  -7.968  0.00  0.00     0.247 C 
ATOM     10  O   LIG d   1       2.180  -0.390  -8.348  0.00  0.00    -0.270 OA
ATOM     11  N   LIG d   1       4.177   0.480  -8.777  0.00  0.00    -0.304 N 
BRANCH  11  12
ATOM     12  C   LIG d   1       3.725   0.996 -10.072  0.00  0.00     0.003 C 
ATOM     13  H   LIG d   1       4.560   1.475 -10.584  0.00  0.00     0.043 H 
ATOM     14  H   LIG d   1       3.350   0.173 -10.681  0.00  0.00     0.043 H 
ATOM     15  H   LIG d   1       2.929   1.724  -9.915  0.00  0.00     0.043 H 
ENDBRANCH  11  12
BRANCH  11  16
ATOM     16  C   LIG d   1       5.571   0.661  -8.363  0.00  0.00     0.003 C 
ATOM     17  H   LIG d   1       5.782   1.724  -8.252  0.00  0.00     0.043 H 
ATOM     18  H   LIG d   1       5.736   0.155  -7.412  0.00  0.00     0.043 H 
ATOM     19  H   LIG d   1       6.232   0.236  -9.120  0.00  0.00     0.043 H 
ENDBRANCH  11  16
ENDBRANCH   4   9
BRANCH   2  20
ATOM     20  N   LIG d   1       5.206  -3.615  -4.943  0.00  0.00     0.080 N 
ATOM     21  O   LIG d   1       4.455  -4.558  -4.767  0.00  0.00     0.042 OA
ATOM     22  O   LIG d   1       6.411  -3.791  -4.944  0.00  0.00    -0.576 OA
ENDBRANCH   2  20
BRANCH   6  23
ATOM     23  N   LIG d   1       3.912   0.817  -3.137  0.00  0.00     0.080 N 
ATOM     24  O   LIG d   1       3.027   0.662  -2.313  0.00  0.00     0.042 OA
ATOM     25  O   LIG d   1       4.701   1.738  -3.017  0.00  0.00    -0.576 OA
ENDBRANCH   6  23
BRANCH   1  26
ATOM     26  C   LIG d   1       4.984  -1.815  -2.716  0.00  0.00    -0.027 C 
ATOM     27  H   LIG d   1       4.689  -1.062  -1.986  0.00  0.00     0.028 H 
ATOM     28  H   LIG d   1       4.514  -2.766  -2.467  0.00  0.00     0.028 H 
ATOM     29  H   LIG d   1       6.067  -1.932  -2.702  0.00  0.00     0.028 H 
ENDBRANCH   1  26
TORSDOF 6
ENDMDL
MODEL 2
REMARK VINA RESULT:      -4.6      0.009      3.542
REMARK  6 active torsions:
REMARK  status: ('A' for Active; 'I' for Inactive)
REMARK    1  A    between atoms: C_1  and  C_2 
REMARK    2  A    between atoms: C_3  and  N_16 
REMARK    3  A    between atoms: C_5  and  C_11 
REMARK    4  A    between atoms: C_7  and  N_8 
REMARK       I    between atoms: C_11  and  N_13 
REMARK    5  A    between atoms: N_13  and  C_14 
REMARK    6  A    between atoms: N_13  and  C_15 
ROOT
ATOM      1  C   LIG d   1       4.541  -1.385  -4.088  0.00  0.00     0.103 A 
ATOM      2  C   LIG d   1       4.029  -0.114  -4.282  0.00  0.00     0.283 A 
ATOM      3  C   LIG d   1       3.632   0.288  -5.542  0.00  0.00     0.028 A 
ATOM      4  C   LIG d   1       3.743  -0.593  -6.619  0.00  0.00     0.050 A 
ATOM      5  C   LIG d   1       4.266  -1.871  -6.417  0.00  0.00     0.028 A 
ATOM      6  C   LIG d   1       4.658  -2.260  -5.153  0.00  0.00     0.283 A 
ATOM      7  H   LIG d   1       3.233   1.280  -5.692  0.00  0.00     0.069 H 
ATOM      8  H   LIG d   1       4.358  -2.555  -7.247  0.00  0.00     0.069 H 
ENDROOT
BRANCH   4   9
ATOM      9  C   LIG d   1       3.314  -0.171  -7.969  0.00  0.00     0.247 C 
ATOM     10  O   LIG d   1       2.184  -0.405  -8.349  0.00  0.00    -0.270 OA
ATOM     11  N   LIG d   1       4.178   0.472  -8.780  0.00  0.00    -0.304 N 
BRANCH  11  12
ATOM     12  C   LIG d   1       3.723   0.984 -10.076  0.00  0.00     0.003 C 
ATOM     13  H   LIG d   1       4.587   1.208 -10.701  0.00  0.00     0.043 H 
ATOM     14  H   LIG d   1       3.104   0.233 -10.567  0.00  0.00     0.043 H 
ATOM     15  H   LIG d   1       3.141   1.893  -9.923  0.00  0.00     0.043 H 
ENDBRANCH  11  12
BRANCH  11  16
ATOM     16  C   LIG d   1       5.571   0.659  -8.366  0.00  0.00     0.003 C 
ATOM     17  H   LIG d   1       5.645   0.558  -7.284  0.00  0.00     0.043 H 
ATOM     18  H   LIG d   1       6.196  -0.093  -8.846  0.00  0.00     0.043 H 
ATOM     19  H   LIG d   1       5.906   1.653  -8.663  0.00  0.00     0.043 H 
ENDBRANCH  11  16
ENDBRANCH   4   9
BRANCH   2  20
ATOM     20  N   LIG d   1       3.908   0.816  -3.138  0.00  0.00     0.080 N 
ATOM     21  O   LIG d   1       3.023   0.660  -2.316  0.00  0.00     0.042 OA
ATOM     22  O   LIG d   1       4.694   1.739  -3.017  0.00  0.00    -0.576 OA
ENDBRANCH   2  20
BRANCH   6  23
ATOM     23  N   LIG d   1       5.207  -3.617  -4.936  0.00  0.00     0.080 N 
ATOM     24  O   LIG d   1       6.413  -3.794  -4.932  0.00  0.00     0.042 OA
ATOM     25  O   LIG d   1       4.453  -4.559  -4.761  0.00  0.00    -0.576 OA
ENDBRANCH   6  23
BRANCH   1  26
ATOM     26  C   LIG d   1       4.972  -1.816  -2.710  0.00  0.00    -0.027 C 
ATOM     27  H   LIG d   1       5.899  -2.385  -2.781  0.00  0.00     0.028 H 
ATOM     28  H   LIG d   1       5.133  -0.936  -2.088  0.00  0.00     0.028 H 
ATOM     29  H   LIG d   1       4.196  -2.438  -2.264  0.00  0.00     0.028 H 
ENDBRANCH   1  26
TORSDOF 6
ENDMDL
MODEL 3
REMARK VINA RESULT:      -4.6      3.298      5.138
REMARK  6 active torsions:
REMARK  status: ('A' for Active; 'I' for Inactive)
REMARK    1  A    between atoms: C_1  and  C_2 
REMARK    2  A    between atoms: C_3  and  N_16 
REMARK    3  A    between atoms: C_5  and  C_11 
REMARK    4  A    between atoms: C_7  and  N_8 
REMARK       I    between atoms: C_11  and  N_13 
REMARK    5  A    between atoms: N_13  and  C_14 
REMARK    6  A    between atoms: N_13  and  C_15 
ROOT
ATOM      1  C   LIG d   1       6.738  -4.113  -4.939  0.00  0.00     0.103 A 
ATOM      2  C   LIG d   1       5.420  -3.784  -5.203  0.00  0.00     0.283 A 
ATOM      3  C   LIG d   1       4.923  -2.555  -4.822  0.00  0.00     0.028 A 
ATOM      4  C   LIG d   1       5.754  -1.640  -4.174  0.00  0.00     0.050 A 
ATOM      5  C   LIG d   1       7.080  -1.980  -3.905  0.00  0.00     0.028 A 
ATOM      6  C   LIG d   1       7.565  -3.212  -4.292  0.00  0.00     0.283 A 
ATOM      7  H   LIG d   1       3.893  -2.300  -5.029  0.00  0.00     0.069 H 
ATOM      8  H   LIG d   1       7.727  -1.278  -3.400  0.00  0.00     0.069 H 
ENDROOT
BRANCH   4   9
ATOM      9  C   LIG d   1       5.230  -0.318  -3.769  0.00  0.00     0.247 C 
ATOM     10  O   LIG d   1       5.441   0.658  -4.460  0.00  0.00    -0.270 OA
ATOM     11  N   LIG d   1       4.517  -0.197  -2.631  0.00  0.00    -0.304 N 
BRANCH  11  12
ATOM     12  C   LIG d   1       3.907   1.089  -2.282  0.00  0.00     0.003 C 
ATOM     13  H   LIG d   1       2.937   1.175  -2.770  0.00  0.00     0.043 H 
ATOM     14  H   LIG d   1       3.777   1.149  -1.201  0.00  0.00     0.043 H 
ATOM     15  H   LIG d   1       4.555   1.900  -2.616  0.00  0.00     0.043 H 
ENDBRANCH  11  12
BRANCH  11  16
ATOM     16  C   LIG d   1       4.353  -1.350  -1.742  0.00  0.00     0.003 C 
ATOM     17  H   LIG d   1       5.297  -1.558  -1.239  0.00  0.00     0.043 H 
ATOM     18  H   LIG d   1       3.586  -1.130  -0.999  0.00  0.00     0.043 H 
ATOM     19  H   LIG d   1       4.054  -2.219  -2.328  0.00  0.00     0.043 H 
ENDBRANCH  11  16
ENDBRANCH   4   9
BRANCH   2  20
ATOM     20  N   LIG d   1       4.542  -4.753  -5.895  0.00  0.00     0.080 N 
ATOM     21  O   LIG d   1       4.420  -4.710  -7.107  0.00  0.00     0.042 OA
ATOM     22  O   LIG d   1       3.940  -5.597  -5.254  0.00  0.00    -0.576 OA
ENDBRANCH   2  20
BRANCH   6  23
ATOM     23  N   LIG d   1       8.973  -3.572  -4.013  0.00  0.00     0.080 N 
ATOM     24  O   LIG d   1       9.266  -4.121  -2.965  0.00  0.00     0.042 OA
ATOM     25  O   LIG d   1       9.840  -3.319  -4.831  0.00  0.00    -0.576 OA
ENDBRANCH   6  23
BRANCH   1  26
ATOM     26  C   LIG d   1       7.274  -5.458  -5.358  0.00  0.00    -0.027 C 
ATOM     27  H   LIG d   1       8.157  -5.319  -5.981  0.00  0.00     0.028 H 
ATOM     28  H   LIG d   1       7.541  -6.034  -4.473  0.00  0.00     0.028 H 
ATOM     29  H   LIG d   1       6.511  -5.993  -5.922  0.00  0.00     0.028 H 
ENDBRANCH   1  26
TORSDOF 6
ENDMDL
MODEL 4
REMARK VINA RESULT:      -4.6      3.300      5.291
REMARK  6 active torsions:
REMARK  status: ('A' for Active; 'I' for Inactive)
REMARK    1  A    between atoms: C_1  and  C_2 
REMARK    2  A    between atoms: C_3  and  N_16 
REMARK    3  A    between atoms: C_5  and  C_11 
REMARK    4  A    between atoms: C_7  and  N_8 
REMARK       I    between atoms: C_11  and  N_13 
REMARK    5  A    between atoms: N_13  and  C_14 
REMARK    6  A    between atoms: N_13  and  C_15 
ROOT
ATOM      1  C   LIG d   1       6.743  -4.121  -4.952  0.00  0.00     0.103 A 
ATOM      2  C   LIG d   1       7.579  -3.222  -4.312  0.00  0.00     0.283 A 
ATOM      3  C   LIG d   1       7.101  -1.985  -3.928  0.00  0.00     0.028 A 
ATOM      4  C   LIG d   1       5.771  -1.645  -4.180  0.00  0.00     0.050 A 
ATOM      5  C   LIG d   1       4.936  -2.553  -4.831  0.00  0.00     0.028 A 
ATOM      6  C   LIG d   1       5.426  -3.786  -5.210  0.00  0.00     0.283 A 
ATOM      7  H   LIG d   1       7.755  -1.284  -3.429  0.00  0.00     0.069 H 
ATOM      8  H   LIG d   1       3.908  -2.294  -5.034  0.00  0.00     0.069 H 
ENDROOT
BRANCH   4   9
ATOM      9  C   LIG d   1       5.252  -0.324  -3.766  0.00  0.00     0.247 C 
ATOM     10  O   LIG d   1       5.473   0.657  -4.447  0.00  0.00    -0.270 OA
ATOM     11  N   LIG d   1       4.532  -0.209  -2.632  0.00  0.00    -0.304 N 
BRANCH  11  12
ATOM     12  C   LIG d   1       3.927   1.077  -2.275  0.00  0.00     0.003 C 
ATOM     13  H   LIG d   1       4.696   1.744  -1.884  0.00  0.00     0.043 H 
ATOM     14  H   LIG d   1       3.475   1.524  -3.161  0.00  0.00     0.043 H 
ATOM     15  H   LIG d   1       3.161   0.920  -1.516  0.00  0.00     0.043 H 
ENDBRANCH  11  12
BRANCH  11  16
ATOM     16  C   LIG d   1       4.356  -1.369  -1.755  0.00  0.00     0.003 C 
ATOM     17  H   LIG d   1       3.292  -1.555  -1.607  0.00  0.00     0.043 H 
ATOM     18  H   LIG d   1       4.817  -2.244  -2.212  0.00  0.00     0.043 H 
ATOM     19  H   LIG d   1       4.828  -1.171  -0.792  0.00  0.00     0.043 H 
ENDBRANCH  11  16
ENDBRANCH   4   9
BRANCH   2  20
ATOM     20  N   LIG d   1       8.986  -3.586  -4.041  0.00  0.00     0.080 N 
ATOM     21  O   LIG d   1       9.284  -4.131  -2.992  0.00  0.00     0.042 OA
ATOM     22  O   LIG d   1       9.849  -3.345  -4.866  0.00  0.00    -0.576 OA
ENDBRANCH   2  20
BRANCH   6  23
ATOM     23  N   LIG d   1       4.539  -4.754  -5.895  0.00  0.00     0.080 N 
ATOM     24  O   LIG d   1       4.414  -4.714  -7.106  0.00  0.00     0.042 OA
ATOM     25  O   LIG d   1       3.934  -5.590  -5.247  0.00  0.00    -0.576 OA
ENDBRANCH   6  23
BRANCH   1  26
ATOM     26  C   LIG d   1       7.271  -5.469  -5.369  0.00  0.00    -0.027 C 
ATOM     27  H   LIG d   1       8.281  -5.599  -4.980  0.00  0.00     0.028 H 
ATOM     28  H   LIG d   1       6.625  -6.251  -4.971  0.00  0.00     0.028 H 
ATOM     29  H   LIG d   1       7.289  -5.532  -6.457  0.00  0.00     0.028 H 
ENDBRANCH   1  26
TORSDOF 6
ENDMDL
MODEL 5
REMARK VINA RESULT:      -4.5      2.533      4.219
REMARK  6 active torsions:
REMARK  status: ('A' for Active; 'I' for Inactive)
REMARK    1  A    between atoms: C_1  and  C_2 
REMARK    2  A    between atoms: C_3  and  N_16 
REMARK    3  A    between atoms: C_5  and  C_11 
REMARK    4  A    between atoms: C_7  and  N_8 
REMARK       I    between atoms: C_11  and  N_13 
REMARK    5  A    between atoms: N_13  and  C_14 
REMARK    6  A    between atoms: N_13  and  C_15 
ROOT
ATOM      1  C   LIG d   1       3.647  -0.552  -4.866  0.00  0.00     0.103 A 
ATOM      2  C   LIG d   1       4.508  -1.200  -3.997  0.00  0.00     0.283 A 
ATOM      3  C   LIG d   1       5.745  -1.625  -4.437  0.00  0.00     0.028 A 
ATOM      4  C   LIG d   1       6.129  -1.397  -5.759  0.00  0.00     0.050 A 
ATOM      5  C   LIG d   1       5.254  -0.750  -6.632  0.00  0.00     0.028 A 
ATOM      6  C   LIG d   1       4.020  -0.329  -6.179  0.00  0.00     0.283 A 
ATOM      7  H   LIG d   1       6.415  -2.131  -3.757  0.00  0.00     0.069 H 
ATOM      8  H   LIG d   1       5.543  -0.574  -7.657  0.00  0.00     0.069 H 
ENDROOT
BRANCH   4   9
ATOM      9  C   LIG d   1       7.455  -1.845  -6.234  0.00  0.00     0.247 C 
ATOM     10  O   LIG d   1       7.589  -2.960  -6.698  0.00  0.00    -0.270 OA
ATOM     11  N   LIG d   1       8.515  -1.016  -6.154  0.00  0.00    -0.304 N 
BRANCH  11  12
ATOM     12  C   LIG d   1       9.805  -1.419  -6.722  0.00  0.00     0.003 C 
ATOM     13  H   LIG d   1      10.000  -0.842  -7.625  0.00  0.00     0.043 H 
ATOM     14  H   LIG d   1      10.595  -1.235  -5.994  0.00  0.00     0.043 H 
ATOM     15  H   LIG d   1       9.777  -2.481  -6.968  0.00  0.00     0.043 H 
ENDBRANCH  11  12
BRANCH  11  16
ATOM     16  C   LIG d   1       8.378   0.287  -5.499  0.00  0.00     0.003 C 
ATOM     17  H   LIG d   1       7.617   0.225  -4.722  0.00  0.00     0.043 H 
ATOM     18  H   LIG d   1       9.331   0.570  -5.052  0.00  0.00     0.043 H 
ATOM     19  H   LIG d   1       8.086   1.034  -6.236  0.00  0.00     0.043 H 
ENDBRANCH  11  16
ENDBRANCH   4   9
BRANCH   2  20
ATOM     20  N   LIG d   1       4.101  -1.436  -2.594  0.00  0.00     0.080 N 
ATOM     21  O   LIG d   1       3.553  -2.479  -2.286  0.00  0.00     0.042 OA
ATOM     22  O   LIG d   1       4.315  -0.588  -1.747  0.00  0.00    -0.576 OA
ENDBRANCH   2  20
BRANCH   6  23
ATOM     23  N   LIG d   1       3.093   0.364  -7.103  0.00  0.00     0.080 N 
ATOM     24  O   LIG d   1       3.087   1.581  -7.162  0.00  0.00     0.042 OA
ATOM     25  O   LIG d   1       2.335  -0.283  -7.803  0.00  0.00    -0.576 OA
ENDBRANCH   6  23
BRANCH   1  26
ATOM     26  C   LIG d   1       2.298  -0.090  -4.379  0.00  0.00    -0.027 C 
ATOM     27  H   LIG d   1       1.981   0.778  -4.956  0.00  0.00     0.028 H 
ATOM     28  H   LIG d   1       1.572  -0.894  -4.505  0.00  0.00     0.028 H 
ATOM     29  H   LIG d   1       2.364   0.177  -3.325  0.00  0.00     0.028 H 
ENDBRANCH   1  26
TORSDOF 6
ENDMDL
MODEL 6
REMARK VINA RESULT:      -4.5      2.094      5.421
REMARK  6 active torsions:
REMARK  status: ('A' for Active; 'I' for Inactive)
REMARK    1  A    between atoms: C_1  and  C_2 
REMARK    2  A    between atoms: C_3  and  N_16 
REMARK    3  A    between atoms: C_5  and  C_11 
REMARK    4  A    between atoms: C_7  and  N_8 
REMARK       I    between atoms: C_11  and  N_13 
REMARK    5  A    between atoms: N_13  and  C_14 
REMARK    6  A    between atoms: N_13  and  C_15 
ROOT
ATOM      1  C   LIG d   1       4.488  -3.193  -6.766  0.00  0.00     0.103 A 
ATOM      2  C   LIG d   1       4.387  -1.822  -6.926  0.00  0.00     0.283 A 
ATOM      3  C   LIG d   1       4.645  -0.980  -5.864  0.00  0.00     0.028 A 
ATOM      4  C   LIG d   1       5.014  -1.513  -4.628  0.00  0.00     0.050 A 
ATOM      5  C   LIG d   1       5.108  -2.897  -4.471  0.00  0.00     0.028 A 
ATOM      6  C   LIG d   1       4.847  -3.727  -5.542  0.00  0.00     0.283 A 
ATOM      7  H   LIG d   1       4.565   0.090  -5.990  0.00  0.00     0.069 H 
ATOM      8  H   LIG d   1       5.388  -3.316  -3.517  0.00  0.00     0.069 H 
ENDROOT
BRANCH   4   9
ATOM      9  C   LIG d   1       5.297  -0.616  -3.487  0.00  0.00     0.247 C 
ATOM     10  O   LIG d   1       6.443  -0.310  -3.226  0.00  0.00    -0.270 OA
ATOM     11  N   LIG d   1       4.284  -0.139  -2.738  0.00  0.00    -0.304 N 
BRANCH  11  12
ATOM     12  C   LIG d   1       4.553   0.833  -1.675  0.00  0.00     0.003 C 
ATOM     13  H   LIG d   1       5.035   0.330  -0.837  0.00  0.00     0.043 H 
ATOM     14  H   LIG d   1       5.210   1.615  -2.055  0.00  0.00     0.043 H 
ATOM     15  H   LIG d   1       3.615   1.276  -1.342  0.00  0.00     0.043 H 
ENDBRANCH  11  12
BRANCH  11  16
ATOM     16  C   LIG d   1       2.913  -0.592  -2.985  0.00  0.00     0.003 C 
ATOM     17  H   LIG d   1       2.747  -1.542  -2.478  0.00  0.00     0.043 H 
ATOM     18  H   LIG d   1       2.211   0.150  -2.606  0.00  0.00     0.043 H 
ATOM     19  H   LIG d   1       2.761  -0.721  -4.057  0.00  0.00     0.043 H 
ENDBRANCH  11  16
ENDBRANCH   4   9
BRANCH   2  20
ATOM     20  N   LIG d   1       4.001  -1.259  -8.239  0.00  0.00     0.080 N 
ATOM     21  O   LIG d   1       2.826  -1.072  -8.501  0.00  0.00     0.042 OA
ATOM     22  O   LIG d   1       4.858  -0.979  -9.058  0.00  0.00    -0.576 OA
ENDBRANCH   2  20
BRANCH   6  23
ATOM     23  N   LIG d   1       4.953  -5.195  -5.379  0.00  0.00     0.080 N 
ATOM     24  O   LIG d   1       3.979  -5.842  -5.035  0.00  0.00     0.042 OA
ATOM     25  O   LIG d   1       6.013  -5.757  -5.590  0.00  0.00    -0.576 OA
ENDBRANCH   6  23
BRANCH   1  26
ATOM     26  C   LIG d   1       4.205  -4.107  -7.931  0.00  0.00    -0.027 C 
ATOM     27  H   LIG d   1       3.727  -3.540  -8.729  0.00  0.00     0.028 H 
ATOM     28  H   LIG d   1       5.140  -4.531  -8.295  0.00  0.00     0.028 H 
ATOM     29  H   LIG d   1       3.543  -4.911  -7.609  0.00  0.00     0.028 H 
ENDBRANCH   1  26
TORSDOF 6
ENDMDL
MODEL 7
REMARK VINA RESULT:      -4.5      2.273      2.698
REMARK  6 active torsions:
REMARK  status: ('A' for Active; 'I' for Inactive)
REMARK    1  A    between atoms: C_1  and  C_2 
REMARK    2  A    between atoms: C_3  and  N_16 
REMARK    3  A    between atoms: C_5  and  C_11 
REMARK    4  A    between atoms: C_7  and  N_8 
REMARK       I    between atoms: C_11  and  N_13 
REMARK    5  A    between atoms: N_13  and  C_14 
REMARK    6  A    between atoms: N_13  and  C_15 
ROOT
ATOM      1  C   LIG d   1       6.065  -1.376  -4.328  0.00  0.00     0.103 A 
ATOM      2  C   LIG d   1       6.561  -1.021  -5.570  0.00  0.00     0.283 A 
ATOM      3  C   LIG d   1       5.714  -0.519  -6.536  0.00  0.00     0.028 A 
ATOM      4  C   LIG d   1       4.355  -0.364  -6.257  0.00  0.00     0.050 A 
ATOM      5  C   LIG d   1       3.860  -0.730  -5.005  0.00  0.00     0.028 A 
ATOM      6  C   LIG d   1       4.718  -1.231  -4.048  0.00  0.00     0.283 A 
ATOM      7  H   LIG d   1       6.103  -0.242  -7.506  0.00  0.00     0.069 H 
ATOM      8  H   LIG d   1       2.809  -0.617  -4.784  0.00  0.00     0.069 H 
ENDROOT
BRANCH   4   9
ATOM      9  C   LIG d   1       3.443   0.179  -7.286  0.00  0.00     0.247 C 
ATOM     10  O   LIG d   1       3.035   1.320  -7.196  0.00  0.00    -0.270 OA
ATOM     11  N   LIG d   1       3.064  -0.592  -8.325  0.00  0.00    -0.304 N 
BRANCH  11  12
ATOM     12  C   LIG d   1       2.246  -0.023  -9.400  0.00  0.00     0.003 C 
ATOM     13  H   LIG d   1       1.406  -0.684  -9.606  0.00  0.00     0.043 H 
ATOM     14  H   LIG d   1       1.873   0.955  -9.094  0.00  0.00     0.043 H 
ATOM     15  H   LIG d   1       2.853   0.085 -10.299  0.00  0.00     0.043 H 
ENDBRANCH  11  12
BRANCH  11  16
ATOM     16  C   LIG d   1       3.467  -1.999  -8.378  0.00  0.00     0.003 C 
ATOM     17  H   LIG d   1       2.964  -2.490  -9.211  0.00  0.00     0.043 H 
ATOM     18  H   LIG d   1       4.546  -2.063  -8.517  0.00  0.00     0.043 H 
ATOM     19  H   LIG d   1       3.191  -2.491  -7.446  0.00  0.00     0.043 H 
ENDBRANCH  11  16
ENDBRANCH   4   9
BRANCH   2  20
ATOM     20  N   LIG d   1       8.003  -1.181  -5.862  0.00  0.00     0.080 N 
ATOM     21  O   LIG d   1       8.415  -2.217  -6.352  0.00  0.00     0.042 OA
ATOM     22  O   LIG d   1       8.779  -0.275  -5.615  0.00  0.00    -0.576 OA
ENDBRANCH   2  20
BRANCH   6  23
ATOM     23  N   LIG d   1       4.195  -1.614  -2.716  0.00  0.00     0.080 N 
ATOM     24  O   LIG d   1       4.254  -0.826  -1.789  0.00  0.00     0.042 OA
ATOM     25  O   LIG d   1       3.707  -2.717  -2.548  0.00  0.00    -0.576 OA
ENDBRANCH   6  23
BRANCH   1  26
ATOM     26  C   LIG d   1       6.996  -1.924  -3.277  0.00  0.00    -0.027 C 
ATOM     27  H   LIG d   1       8.024  -1.856  -3.632  0.00  0.00     0.028 H 
ATOM     28  H   LIG d   1       6.889  -1.345  -2.360  0.00  0.00     0.028 H 
ATOM     29  H   LIG d   1       6.748  -2.966  -3.079  0.00  0.00     0.028 H 
ENDBRANCH   1  26
TORSDOF 6
ENDMDL
MODEL 8
REMARK VINA RESULT:      -4.4      2.974      4.691
REMARK  6 active torsions:
REMARK  status: ('A' for Active; 'I' for Inactive)
REMARK    1  A    between atoms: C_1  and  C_2 
REMARK    2  A    between atoms: C_3  and  N_16 
REMARK    3  A    between atoms: C_5  and  C_11 
REMARK    4  A    between atoms: C_7  and  N_8 
REMARK       I    between atoms: C_11  and  N_13 
REMARK    5  A    between atoms: N_13  and  C_14 
REMARK    6  A    between atoms: N_13  and  C_15 
ROOT
ATOM      1  C   LIG d   1       4.447  -0.247  -4.514  0.00  0.00     0.103 A 
ATOM      2  C   LIG d   1       4.975  -0.334  -5.790  0.00  0.00     0.283 A 
ATOM      3  C   LIG d   1       6.332  -0.513  -5.967  0.00  0.00     0.028 A 
ATOM      4  C   LIG d   1       7.171  -0.611  -4.856  0.00  0.00     0.050 A 
ATOM      5  C   LIG d   1       6.633  -0.516  -3.572  0.00  0.00     0.028 A 
ATOM      6  C   LIG d   1       5.274  -0.338  -3.409  0.00  0.00     0.283 A 
ATOM      7  H   LIG d   1       6.743  -0.581  -6.964  0.00  0.00     0.069 H 
ATOM      8  H   LIG d   1       7.276  -0.587  -2.708  0.00  0.00     0.069 H 
ENDROOT
BRANCH   4   9
ATOM      9  C   LIG d   1       8.625  -0.809  -5.038  0.00  0.00     0.247 C 
ATOM     10  O   LIG d   1       9.351   0.149  -5.214  0.00  0.00    -0.270 OA
ATOM     11  N   LIG d   1       9.144  -2.052  -5.009  0.00  0.00    -0.304 N 
BRANCH  11  12
ATOM     12  C   LIG d   1      10.596  -2.241  -5.083  0.00  0.00     0.003 C 
ATOM     13  H   LIG d   1      11.061  -1.836  -4.184  0.00  0.00     0.043 H 
ATOM     14  H   LIG d   1      10.820  -3.306  -5.160  0.00  0.00     0.043 H 
ATOM     15  H   LIG d   1      10.985  -1.723  -5.959  0.00  0.00     0.043 H 
ENDBRANCH  11  12
BRANCH  11  16
ATOM     16  C   LIG d   1       8.259  -3.215  -4.904  0.00  0.00     0.003 C 
ATOM     17  H   LIG d   1       7.609  -3.256  -5.777  0.00  0.00     0.043 H 
ATOM     18  H   LIG d   1       8.857  -4.124  -4.853  0.00  0.00     0.043 H 
ATOM     19  H   LIG d   1       7.652  -3.127  -4.003  0.00  0.00     0.043 H 
ENDBRANCH  11  16
ENDBRANCH   4   9
BRANCH   2  20
ATOM     20  N   LIG d   1       4.084  -0.235  -6.967  0.00  0.00     0.080 N 
ATOM     21  O   LIG d   1       3.660  -1.247  -7.498  0.00  0.00     0.042 OA
ATOM     22  O   LIG d   1       3.772   0.857  -7.405  0.00  0.00    -0.576 OA
ENDBRANCH   2  20
BRANCH   6  23
ATOM     23  N   LIG d   1       4.700  -0.243  -2.048  0.00  0.00     0.080 N 
ATOM     24  O   LIG d   1       4.338  -1.250  -1.467  0.00  0.00     0.042 OA
ATOM     25  O   LIG d   1       4.590   0.844  -1.508  0.00  0.00    -0.576 OA
ENDBRANCH   6  23
BRANCH   1  26
ATOM     26  C   LIG d   1       2.964  -0.052  -4.329  0.00  0.00    -0.027 C 
ATOM     27  H   LIG d   1       2.748   1.011  -4.225  0.00  0.00     0.028 H 
ATOM     28  H   LIG d   1       2.435  -0.447  -5.196  0.00  0.00     0.028 H 
ATOM     29  H   LIG d   1       2.637  -0.579  -3.433  0.00  0.00     0.028 H 
ENDBRANCH   1  26
TORSDOF 6
ENDMDL
MODEL 9
REMARK VINA RESULT:      -4.4      1.823      4.810
REMARK  6 active torsions:
REMARK  status: ('A' for Active; 'I' for Inactive)
REMARK    1  A    between atoms: C_1  and  C_2 
REMARK    2  A    between atoms: C_3  and  N_16 
REMARK    3  A    between atoms: C_5  and  C_11 
REMARK    4  A    between atoms: C_7  and  N_8 
REMARK       I    between atoms: C_11  and  N_13 
REMARK    5  A    between atoms: N_13  and  C_14 
REMARK    6  A    between atoms: N_13  and  C_15 
ROOT
ATOM      1  C   LIG d   1       3.969  -2.570  -7.565  0.00  0.00     0.103 A 
ATOM      2  C   LIG d   1       4.396  -3.147  -6.381  0.00  0.00     0.283 A 
ATOM      3  C   LIG d   1       4.688  -2.353  -5.290  0.00  0.00     0.028 A 
ATOM      4  C   LIG d   1       4.547  -0.968  -5.382  0.00  0.00     0.050 A 
ATOM      5  C   LIG d   1       4.123  -0.392  -6.580  0.00  0.00     0.028 A 
ATOM      6  C   LIG d   1       3.834  -1.197  -7.662  0.00  0.00     0.283 A 
ATOM      7  H   LIG d   1       5.021  -2.804  -4.367  0.00  0.00     0.069 H 
ATOM      8  H   LIG d   1       4.017   0.679  -6.658  0.00  0.00     0.069 H 
ENDROOT
BRANCH   4   9
ATOM      9  C   LIG d   1       4.853  -0.112  -4.215  0.00  0.00     0.247 C 
ATOM     10  O   LIG d   1       5.922   0.460  -4.144  0.00  0.00    -0.270 OA
ATOM     11  N   LIG d   1       3.944   0.033  -3.230  0.00  0.00    -0.304 N 
BRANCH  11  12
ATOM     12  C   LIG d   1       4.202   0.963  -2.127  0.00  0.00     0.003 C 
ATOM     13  H   LIG d   1       3.255   1.337  -1.738  0.00  0.00     0.043 H 
ATOM     14  H   LIG d   1       4.741   0.445  -1.333  0.00  0.00     0.043 H 
ATOM     15  H   LIG d   1       4.802   1.799  -2.489  0.00  0.00     0.043 H 
ENDBRANCH  11  12
BRANCH  11  16
ATOM     16  C   LIG d   1       2.699  -0.739  -3.261  0.00  0.00     0.003 C 
ATOM     17  H   LIG d   1       2.788  -1.598  -2.597  0.00  0.00     0.043 H 
ATOM     18  H   LIG d   1       1.873  -0.109  -2.932  0.00  0.00     0.043 H 
ATOM     19  H   LIG d   1       2.512  -1.083  -4.278  0.00  0.00     0.043 H 
ENDBRANCH  11  16
ENDBRANCH   4   9
BRANCH   2  20
ATOM     20  N   LIG d   1       4.539  -4.616  -6.285  0.00  0.00     0.080 N 
ATOM     21  O   LIG d   1       5.624  -5.137  -6.475  0.00  0.00     0.042 OA
ATOM     22  O   LIG d   1       3.573  -5.306  -6.013  0.00  0.00    -0.576 OA
ENDBRANCH   2  20
BRANCH   6  23
ATOM     23  N   LIG d   1       3.378  -0.589  -8.933  0.00  0.00     0.080 N 
ATOM     24  O   LIG d   1       4.190  -0.279  -9.787  0.00  0.00     0.042 OA
ATOM     25  O   LIG d   1       2.190  -0.398  -9.125  0.00  0.00    -0.576 OA
ENDBRANCH   6  23
BRANCH   1  26
ATOM     26  C   LIG d   1       3.652  -3.443  -8.752  0.00  0.00    -0.027 C 
ATOM     27  H   LIG d   1       3.294  -2.823  -9.573  0.00  0.00     0.028 H 
ATOM     28  H   LIG d   1       4.552  -3.973  -9.063  0.00  0.00     0.028 H 
ATOM     29  H   LIG d   1       2.883  -4.164  -8.477  0.00  0.00     0.028 H 
ENDBRANCH   1  26
TORSDOF 6
ENDMDL
MODEL 10
REMARK VINA RESULT:      -4.1      8.668     10.474
REMARK  6 active torsions:
REMARK  status: ('A' for Active; 'I' for Inactive)
REMARK    1  A    between atoms: C_1  and  C_2 
REMARK    2  A    between atoms: C_3  and  N_16 
REMARK    3  A    between atoms: C_5  and  C_11 
REMARK    4  A    between atoms: C_7  and  N_8 
REMARK       I    between atoms: C_11  and  N_13 
REMARK    5  A    between atoms: N_13  and  C_14 
REMARK    6  A    between atoms: N_13  and  C_15 
ROOT
ATOM      1  C   LIG d   1       9.928   5.153  -4.561  0.00  0.00     0.103 A 
ATOM      2  C   LIG d   1       9.863   4.514  -3.335  0.00  0.00     0.283 A 
ATOM      3  C   LIG d   1       9.927   5.248  -2.168  0.00  0.00     0.028 A 
ATOM      4  C   LIG d   1      10.053   6.636  -2.226  0.00  0.00     0.050 A 
ATOM      5  C   LIG d   1      10.125   7.274  -3.466  0.00  0.00     0.028 A 
ATOM      6  C   LIG d   1      10.059   6.528  -4.625  0.00  0.00     0.283 A 
ATOM      7  H   LIG d   1       9.876   4.748  -1.212  0.00  0.00     0.069 H 
ATOM      8  H   LIG d   1      10.227   8.347  -3.518  0.00  0.00     0.069 H 
ENDROOT
BRANCH   4   9
ATOM      9  C   LIG d   1      10.117   7.429  -0.980  0.00  0.00     0.247 C 
ATOM     10  O   LIG d   1       9.112   7.954  -0.542  0.00  0.00    -0.270 OA
ATOM     11  N   LIG d   1      11.289   7.569  -0.330  0.00  0.00    -0.304 N 
BRANCH  11  12
ATOM     12  C   LIG d   1      11.333   8.263   0.960  0.00  0.00     0.003 C 
ATOM     13  H   LIG d   1      11.825   9.228   0.836  0.00  0.00     0.043 H 
ATOM     14  H   LIG d   1      10.318   8.418   1.325  0.00  0.00     0.043 H 
ATOM     15  H   LIG d   1      11.890   7.661   1.678  0.00  0.00     0.043 H 
ENDBRANCH  11  12
BRANCH  11  16
ATOM     16  C   LIG d   1      12.519   7.027  -0.912  0.00  0.00     0.003 C 
ATOM     17  H   LIG d   1      13.351   7.696  -0.692  0.00  0.00     0.043 H 
ATOM     18  H   LIG d   1      12.721   6.044  -0.488  0.00  0.00     0.043 H 
ATOM     19  H   LIG d   1      12.400   6.939  -1.993  0.00  0.00     0.043 H 
ENDBRANCH  11  16
ENDBRANCH   4   9
BRANCH   2  20
ATOM     20  N   LIG d   1       9.724   3.042  -3.276  0.00  0.00     0.080 N 
ATOM     21  O   LIG d   1      10.711   2.342  -3.135  0.00  0.00     0.042 OA
ATOM     22  O   LIG d   1       8.623   2.530  -3.365  0.00  0.00    -0.576 OA
ENDBRANCH   2  20
BRANCH   6  23
ATOM     23  N   LIG d   1      10.128   7.203  -5.941  0.00  0.00     0.080 N 
ATOM     24  O   LIG d   1      11.190   7.274  -6.534  0.00  0.00     0.042 OA
ATOM     25  O   LIG d   1       9.124   7.688  -6.431  0.00  0.00    -0.576 OA
ENDBRANCH   6  23
BRANCH   1  26
ATOM     26  C   LIG d   1       9.857   4.345  -5.832  0.00  0.00    -0.027 C 
ATOM     27  H   LIG d   1      10.508   3.476  -5.746  0.00  0.00     0.028 H 
ATOM     28  H   LIG d   1       8.831   4.016  -5.995  0.00  0.00     0.028 H 
ATOM     29  H   LIG d   1      10.179   4.960  -6.672  0.00  0.00     0.028 H 
ENDBRANCH   1  26
TORSDOF 6
ENDMDL
