MODEL 1
REMARK VINA RESULT:      -5.4      0.000      0.000
REMARK  20 active torsions:
REMARK  status: ('A' for Active; 'I' for Inactive)
REMARK    1  A    between atoms: C_1  and  C_2 
REMARK    2  A    between atoms: C_4  and  O_32 
REMARK    3  A    between atoms: C_5  and  C_31 
REMARK    4  A    between atoms: C_9  and  C_12 
REMARK    5  A    between atoms: C_9  and  C_13 
REMARK    6  A    between atoms: C_13  and  C_14 
REMARK    7  A    between atoms: C_14  and  C_15 
REMARK    8  A    between atoms: C_15  and  C_16 
REMARK    9  A    between atoms: C_16  and  C_18 
REMARK   10  A    between atoms: C_16  and  C_19 
REMARK   11  A    between atoms: C_19  and  C_20 
REMARK   12  A    between atoms: C_20  and  C_21 
REMARK   13  A    between atoms: C_21  and  C_22 
REMARK   14  A    between atoms: C_22  and  C_24 
REMARK   15  A    between atoms: C_22  and  C_25 
REMARK   16  A    between atoms: C_25  and  C_26 
REMARK   17  A    between atoms: C_26  and  C_27 
REMARK   18  A    between atoms: C_27  and  C_28 
REMARK   19  A    between atoms: C_28  and  C_29 
REMARK   20  A    between atoms: C_28  and  C_30 
ROOT
ATOM      1  C   LIG d   1       3.197   0.257  -2.589  0.00  0.00    -0.044 C 
ATOM      2  H   LIG d   1       2.365   0.628  -1.990  0.00  0.00     0.030 H 
ENDROOT
BRANCH   1   3
ATOM      3  C   LIG d   1       3.313   1.084  -3.870  0.00  0.00    -0.050 C 
ATOM      4  H   LIG d   1       4.271   1.602  -3.883  0.00  0.00     0.027 H 
ATOM      5  H   LIG d   1       2.505   1.815  -3.906  0.00  0.00     0.027 H 
BRANCH   3   6
ATOM      6  C   LIG d   1       3.217   0.159  -5.086  0.00  0.00    -0.049 C 
ATOM      7  H   LIG d   1       2.805  -0.802  -4.779  0.00  0.00     0.027 H 
ATOM      8  H   LIG d   1       4.210   0.010  -5.509  0.00  0.00     0.027 H 
BRANCH   6   9
ATOM      9  C   LIG d   1       2.304   0.792  -6.138  0.00  0.00    -0.013 C 
ATOM     10  H   LIG d   1       2.089   1.824  -5.860  0.00  0.00     0.030 H 
ATOM     11  H   LIG d   1       1.372   0.230  -6.196  0.00  0.00     0.030 H 
BRANCH   9  12
ATOM     12  C   LIG d   1       3.001   0.766  -7.500  0.00  0.00     0.108 C 
ATOM     13  O   LIG d   1       4.393   0.503  -7.322  0.00  0.00    -0.485 OA
ATOM     14  C   LIG d   1       5.132   0.215  -8.427  0.00  0.00     0.128 A 
ATOM     15  C   LIG d   1       6.517   0.310  -8.341  0.00  0.00    -0.005 A 
ATOM     16  C   LIG d   1       4.542  -0.166  -9.619  0.00  0.00     0.001 A 
ATOM     17  C   LIG d   1       7.304   0.011  -9.434  0.00  0.00    -0.013 A 
ATOM     18  C   LIG d   1       6.712  -0.380 -10.626  0.00  0.00     0.120 A 
ATOM     19  H   LIG d   1       8.379   0.081  -9.362  0.00  0.00     0.066 H 
ATOM     20  C   LIG d   1       5.332  -0.466 -10.715  0.00  0.00    -0.002 A 
ATOM     21  C   LIG d   1       3.043  -0.268  -9.756  0.00  0.00    -0.020 C 
ATOM     22  C   LIG d   1       2.404  -0.351  -8.364  0.00  0.00    -0.009 C 
ATOM     23  H   LIG d   1       2.667   0.607 -10.287  0.00  0.00     0.032 H 
ATOM     24  H   LIG d   1       2.791  -1.168 -10.318  0.00  0.00     0.032 H 
ATOM     25  H   LIG d   1       2.618  -1.321  -7.912  0.00  0.00     0.031 H 
ATOM     26  H   LIG d   1       1.326  -0.215  -8.449  0.00  0.00     0.031 H 
BRANCH  15  27
ATOM     27  C   LIG d   1       7.162   0.735  -7.047  0.00  0.00    -0.036 C 
ATOM     28  H   LIG d   1       6.496   1.414  -6.515  0.00  0.00     0.028 H 
ATOM     29  H   LIG d   1       7.352  -0.143  -6.431  0.00  0.00     0.028 H 
ATOM     30  H   LIG d   1       8.104   1.241  -7.260  0.00  0.00     0.028 H 
ENDBRANCH  15  27
BRANCH  18  31
ATOM     31  O   LIG d   1       7.484  -0.677 -11.705  0.00  0.00    -0.506 OA
ATOM     32  H   LIG d   1       6.996  -0.722 -12.538  0.00  0.00     0.292 HD
ENDBRANCH  18  31
BRANCH  20  33
ATOM     33  C   LIG d   1       4.689  -0.889 -12.010  0.00  0.00    -0.036 C 
ATOM     34  H   LIG d   1       4.561  -0.018 -12.654  0.00  0.00     0.028 H 
ATOM     35  H   LIG d   1       5.323  -1.620 -12.510  0.00  0.00     0.028 H 
ATOM     36  H   LIG d   1       3.715  -1.333 -11.804  0.00  0.00     0.028 H 
ENDBRANCH  20  33
BRANCH  12  37
ATOM     37  C   LIG d   1       2.816   2.114  -8.200  0.00  0.00    -0.025 C 
ATOM     38  H   LIG d   1       3.536   2.830  -7.804  0.00  0.00     0.027 H 
ATOM     39  H   LIG d   1       2.979   1.992  -9.271  0.00  0.00     0.027 H 
ATOM     40  H   LIG d   1       1.804   2.479  -8.025  0.00  0.00     0.027 H 
ENDBRANCH  12  37
ENDBRANCH   9  12
ENDBRANCH   6   9
ENDBRANCH   3   6
ENDBRANCH   1   3
BRANCH   1  41
ATOM     41  C   LIG d   1       4.495   0.374  -1.787  0.00  0.00    -0.062 C 
ATOM     42  H   LIG d   1       5.316   0.623  -2.459  0.00  0.00     0.023 H 
ATOM     43  H   LIG d   1       4.389   1.159  -1.038  0.00  0.00     0.023 H 
ATOM     44  H   LIG d   1       4.703  -0.574  -1.293  0.00  0.00     0.023 H 
ENDBRANCH   1  41
BRANCH   1  45
ATOM     45  C   LIG d   1       2.950  -1.210  -2.950  0.00  0.00    -0.051 C 
ATOM     46  H   LIG d   1       2.025  -1.547  -2.485  0.00  0.00     0.027 H 
ATOM     47  H   LIG d   1       2.872  -1.310  -4.032  0.00  0.00     0.027 H 
BRANCH  45  48
ATOM     48  C   LIG d   1       4.116  -2.062  -2.443  0.00  0.00    -0.053 C 
ATOM     49  H   LIG d   1       4.870  -1.416  -1.993  0.00  0.00     0.026 H 
ATOM     50  H   LIG d   1       3.752  -2.769  -1.697  0.00  0.00     0.026 H 
BRANCH  48  51
ATOM     51  C   LIG d   1       4.734  -2.830  -3.614  0.00  0.00    -0.051 C 
ATOM     52  H   LIG d   1       5.153  -3.768  -3.251  0.00  0.00     0.027 H 
ATOM     53  H   LIG d   1       3.964  -3.038  -4.356  0.00  0.00     0.027 H 
BRANCH  51  54
ATOM     54  C   LIG d   1       5.841  -1.987  -4.249  0.00  0.00    -0.044 C 
ATOM     55  H   LIG d   1       5.491  -0.962  -4.374  0.00  0.00     0.030 H 
BRANCH  54  56
ATOM     56  C   LIG d   1       7.074  -1.999  -3.345  0.00  0.00    -0.062 C 
ATOM     57  H   LIG d   1       7.599  -1.048  -3.432  0.00  0.00     0.023 H 
ATOM     58  H   LIG d   1       6.765  -2.150  -2.310  0.00  0.00     0.023 H 
ATOM     59  H   LIG d   1       7.739  -2.810  -3.646  0.00  0.00     0.023 H 
ENDBRANCH  54  56
BRANCH  54  60
ATOM     60  C   LIG d   1       6.204  -2.570  -5.616  0.00  0.00    -0.051 C 
ATOM     61  H   LIG d   1       6.829  -1.861  -6.159  0.00  0.00     0.027 H 
ATOM     62  H   LIG d   1       6.748  -3.505  -5.479  0.00  0.00     0.027 H 
BRANCH  60  63
ATOM     63  C   LIG d   1       4.926  -2.837  -6.414  0.00  0.00    -0.053 C 
ATOM     64  H   LIG d   1       4.343  -3.613  -5.916  0.00  0.00     0.026 H 
ATOM     65  H   LIG d   1       4.336  -1.922  -6.471  0.00  0.00     0.026 H 
BRANCH  63  66
ATOM     66  C   LIG d   1       5.291  -3.299  -7.825  0.00  0.00    -0.051 C 
ATOM     67  H   LIG d   1       5.162  -2.471  -8.523  0.00  0.00     0.027 H 
ATOM     68  H   LIG d   1       6.330  -3.629  -7.842  0.00  0.00     0.027 H 
BRANCH  66  69
ATOM     69  C   LIG d   1       4.380  -4.458  -8.235  0.00  0.00    -0.047 C 
ATOM     70  H   LIG d   1       4.963  -5.203  -8.778  0.00  0.00     0.029 H 
BRANCH  69  71
ATOM     71  C   LIG d   1       3.774  -5.097  -6.985  0.00  0.00    -0.063 C 
ATOM     72  H   LIG d   1       3.323  -6.053  -7.247  0.00  0.00     0.023 H 
ATOM     73  H   LIG d   1       4.556  -5.256  -6.242  0.00  0.00     0.023 H 
ATOM     74  H   LIG d   1       3.012  -4.435  -6.572  0.00  0.00     0.023 H 
ENDBRANCH  69  71
BRANCH  69  75
ATOM     75  C   LIG d   1       3.260  -3.932  -9.135  0.00  0.00    -0.063 C 
ATOM     76  H   LIG d   1       3.060  -2.889  -8.894  0.00  0.00     0.023 H 
ATOM     77  H   LIG d   1       3.565  -4.012 -10.178  0.00  0.00     0.023 H 
ATOM     78  H   LIG d   1       2.358  -4.523  -8.974  0.00  0.00     0.023 H 
ENDBRANCH  69  75
ENDBRANCH  66  69
ENDBRANCH  63  66
ENDBRANCH  60  63
ENDBRANCH  54  60
ENDBRANCH  51  54
ENDBRANCH  48  51
ENDBRANCH  45  48
ENDBRANCH   1  45
TORSDOF 20
ENDMDL
MODEL 2
REMARK VINA RESULT:      -5.4      2.023      4.218
REMARK  20 active torsions:
REMARK  status: ('A' for Active; 'I' for Inactive)
REMARK    1  A    between atoms: C_1  and  C_2 
REMARK    2  A    between atoms: C_4  and  O_32 
REMARK    3  A    between atoms: C_5  and  C_31 
REMARK    4  A    between atoms: C_9  and  C_12 
REMARK    5  A    between atoms: C_9  and  C_13 
REMARK    6  A    between atoms: C_13  and  C_14 
REMARK    7  A    between atoms: C_14  and  C_15 
REMARK    8  A    between atoms: C_15  and  C_16 
REMARK    9  A    between atoms: C_16  and  C_18 
REMARK   10  A    between atoms: C_16  and  C_19 
REMARK   11  A    between atoms: C_19  and  C_20 
REMARK   12  A    between atoms: C_20  and  C_21 
REMARK   13  A    between atoms: C_21  and  C_22 
REMARK   14  A    between atoms: C_22  and  C_24 
REMARK   15  A    between atoms: C_22  and  C_25 
REMARK   16  A    between atoms: C_25  and  C_26 
REMARK   17  A    between atoms: C_26  and  C_27 
REMARK   18  A    between atoms: C_27  and  C_28 
REMARK   19  A    between atoms: C_28  and  C_29 
REMARK   20  A    between atoms: C_28  and  C_30 
ROOT
ATOM      1  C   LIG d   1       3.168   0.160  -2.611  0.00  0.00    -0.044 C 
ATOM      2  H   LIG d   1       2.258   0.466  -2.094  0.00  0.00     0.030 H 
ENDROOT
BRANCH   1   3
ATOM      3  C   LIG d   1       3.350   1.008  -3.870  0.00  0.00    -0.050 C 
ATOM      4  H   LIG d   1       4.369   1.392  -3.905  0.00  0.00     0.027 H 
ATOM      5  H   LIG d   1       2.649   1.843  -3.852  0.00  0.00     0.027 H 
BRANCH   3   6
ATOM      6  C   LIG d   1       3.086   0.147  -5.108  0.00  0.00    -0.049 C 
ATOM      7  H   LIG d   1       2.254   0.567  -5.671  0.00  0.00     0.027 H 
ATOM      8  H   LIG d   1       2.841  -0.869  -4.798  0.00  0.00     0.027 H 
BRANCH   6   9
ATOM      9  C   LIG d   1       4.337   0.122  -5.988  0.00  0.00    -0.013 C 
ATOM     10  H   LIG d   1       5.047  -0.604  -5.591  0.00  0.00     0.030 H 
ATOM     11  H   LIG d   1       4.796   1.111  -5.996  0.00  0.00     0.030 H 
BRANCH   9  12
ATOM     12  C   LIG d   1       3.950  -0.271  -7.415  0.00  0.00     0.108 C 
ATOM     13  O   LIG d   1       3.784  -1.688  -7.494  0.00  0.00    -0.485 OA
ATOM     14  C   LIG d   1       3.219  -2.200  -8.620  0.00  0.00     0.128 A 
ATOM     15  C   LIG d   1       3.370  -3.558  -8.878  0.00  0.00    -0.005 A 
ATOM     16  C   LIG d   1       2.504  -1.407  -9.501  0.00  0.00     0.001 A 
ATOM     17  C   LIG d   1       2.798  -4.120 -10.000  0.00  0.00    -0.013 A 
ATOM     18  C   LIG d   1       2.074  -3.327 -10.879  0.00  0.00     0.120 A 
ATOM     19  H   LIG d   1       2.914  -5.176 -10.196  0.00  0.00     0.066 H 
ATOM     20  C   LIG d   1       1.930  -1.973 -10.626  0.00  0.00    -0.002 A 
ATOM     21  C   LIG d   1       2.327   0.071  -9.262  0.00  0.00    -0.020 C 
ATOM     22  C   LIG d   1       2.620   0.393  -7.791  0.00  0.00    -0.009 C 
ATOM     23  H   LIG d   1       3.009   0.626  -9.907  0.00  0.00     0.032 H 
ATOM     24  H   LIG d   1       1.301   0.356  -9.490  0.00  0.00     0.032 H 
ATOM     25  H   LIG d   1       1.822   0.004  -7.157  0.00  0.00     0.031 H 
ATOM     26  H   LIG d   1       2.699   1.472  -7.662  0.00  0.00     0.031 H 
BRANCH  15  27
ATOM     27  C   LIG d   1       4.157  -4.421  -7.925  0.00  0.00    -0.036 C 
ATOM     28  H   LIG d   1       3.831  -4.225  -6.905  0.00  0.00     0.028 H 
ATOM     29  H   LIG d   1       3.992  -5.471  -8.165  0.00  0.00     0.028 H 
ATOM     30  H   LIG d   1       5.219  -4.189  -8.019  0.00  0.00     0.028 H 
ENDBRANCH  15  27
BRANCH  18  31
ATOM     31  O   LIG d   1       1.508  -3.878 -11.986  0.00  0.00    -0.506 OA
ATOM     32  H   LIG d   1       1.543  -3.313 -12.769  0.00  0.00     0.292 HD
ENDBRANCH  18  31
BRANCH  20  33
ATOM     33  C   LIG d   1       1.145  -1.111 -11.581  0.00  0.00    -0.036 C 
ATOM     34  H   LIG d   1       1.832  -0.525 -12.191  0.00  0.00     0.028 H 
ATOM     35  H   LIG d   1       0.536  -1.744 -12.225  0.00  0.00     0.028 H 
ATOM     36  H   LIG d   1       0.499  -0.439 -11.016  0.00  0.00     0.028 H 
ENDBRANCH  20  33
BRANCH  12  37
ATOM     37  C   LIG d   1       5.043   0.174  -8.388  0.00  0.00    -0.025 C 
ATOM     38  H   LIG d   1       5.710  -0.663  -8.594  0.00  0.00     0.027 H 
ATOM     39  H   LIG d   1       4.585   0.511  -9.318  0.00  0.00     0.027 H 
ATOM     40  H   LIG d   1       5.612   0.993  -7.946  0.00  0.00     0.027 H 
ENDBRANCH  12  37
ENDBRANCH   9  12
ENDBRANCH   6   9
ENDBRANCH   3   6
ENDBRANCH   1   3
BRANCH   1  41
ATOM     41  C   LIG d   1       4.370   0.357  -1.685  0.00  0.00    -0.062 C 
ATOM     42  H   LIG d   1       4.363  -0.410  -0.911  0.00  0.00     0.023 H 
ATOM     43  H   LIG d   1       5.291   0.280  -2.264  0.00  0.00     0.023 H 
ATOM     44  H   LIG d   1       4.315   1.342  -1.222  0.00  0.00     0.023 H 
ENDBRANCH   1  41
BRANCH   1  45
ATOM     45  C   LIG d   1       3.061  -1.316  -3.001  0.00  0.00    -0.051 C 
ATOM     46  H   LIG d   1       2.251  -1.782  -2.440  0.00  0.00     0.027 H 
ATOM     47  H   LIG d   1       2.857  -1.396  -4.069  0.00  0.00     0.027 H 
BRANCH  45  48
ATOM     48  C   LIG d   1       4.378  -2.025  -2.679  0.00  0.00    -0.053 C 
ATOM     49  H   LIG d   1       5.149  -1.284  -2.473  0.00  0.00     0.026 H 
ATOM     50  H   LIG d   1       4.244  -2.662  -1.804  0.00  0.00     0.026 H 
BRANCH  48  51
ATOM     51  C   LIG d   1       4.800  -2.883  -3.873  0.00  0.00    -0.051 C 
ATOM     52  H   LIG d   1       4.531  -3.923  -3.686  0.00  0.00     0.027 H 
ATOM     53  H   LIG d   1       4.291  -2.532  -4.770  0.00  0.00     0.027 H 
BRANCH  51  54
ATOM     54  C   LIG d   1       6.313  -2.775  -4.069  0.00  0.00    -0.044 C 
ATOM     55  H   LIG d   1       6.792  -3.690  -3.720  0.00  0.00     0.030 H 
BRANCH  54  56
ATOM     56  C   LIG d   1       6.623  -2.572  -5.554  0.00  0.00    -0.062 C 
ATOM     57  H   LIG d   1       7.409  -1.826  -5.663  0.00  0.00     0.023 H 
ATOM     58  H   LIG d   1       6.954  -3.516  -5.988  0.00  0.00     0.023 H 
ATOM     59  H   LIG d   1       5.724  -2.231  -6.069  0.00  0.00     0.023 H 
ENDBRANCH  54  56
BRANCH  54  60
ATOM     60  C   LIG d   1       6.847  -1.585  -3.270  0.00  0.00    -0.051 C 
ATOM     61  H   LIG d   1       6.044  -1.167  -2.662  0.00  0.00     0.027 H 
ATOM     62  H   LIG d   1       7.658  -1.917  -2.622  0.00  0.00     0.027 H 
BRANCH  60  63
ATOM     63  C   LIG d   1       7.368  -0.515  -4.232  0.00  0.00    -0.053 C 
ATOM     64  H   LIG d   1       8.437  -0.659  -4.390  0.00  0.00     0.026 H 
ATOM     65  H   LIG d   1       6.845  -0.599  -5.186  0.00  0.00     0.026 H 
BRANCH  63  66
ATOM     66  C   LIG d   1       7.122   0.872  -3.636  0.00  0.00    -0.051 C 
ATOM     67  H   LIG d   1       6.055   1.094  -3.661  0.00  0.00     0.027 H 
ATOM     68  H   LIG d   1       7.473   0.891  -2.603  0.00  0.00     0.027 H 
BRANCH  66  69
ATOM     69  C   LIG d   1       7.881   1.920  -4.452  0.00  0.00    -0.047 C 
ATOM     70  H   LIG d   1       7.240   2.788  -4.613  0.00  0.00     0.029 H 
BRANCH  69  71
ATOM     71  C   LIG d   1       9.137   2.347  -3.691  0.00  0.00    -0.063 C 
ATOM     72  H   LIG d   1       9.063   2.020  -2.655  0.00  0.00     0.023 H 
ATOM     73  H   LIG d   1      10.013   1.894  -4.154  0.00  0.00     0.023 H 
ATOM     74  H   LIG d   1       9.230   3.433  -3.725  0.00  0.00     0.023 H 
ENDBRANCH  69  71
BRANCH  69  75
ATOM     75  C   LIG d   1       8.280   1.323  -5.803  0.00  0.00    -0.063 C 
ATOM     76  H   LIG d   1       7.385   1.118  -6.389  0.00  0.00     0.023 H 
ATOM     77  H   LIG d   1       8.911   2.031  -6.340  0.00  0.00     0.023 H 
ATOM     78  H   LIG d   1       8.829   0.396  -5.642  0.00  0.00     0.023 H 
ENDBRANCH  69  75
ENDBRANCH  66  69
ENDBRANCH  63  66
ENDBRANCH  60  63
ENDBRANCH  54  60
ENDBRANCH  51  54
ENDBRANCH  48  51
ENDBRANCH  45  48
ENDBRANCH   1  45
TORSDOF 20
ENDMDL
MODEL 3
REMARK VINA RESULT:      -5.4      1.590      3.375
REMARK  20 active torsions:
REMARK  status: ('A' for Active; 'I' for Inactive)
REMARK    1  A    between atoms: C_1  and  C_2 
REMARK    2  A    between atoms: C_4  and  O_32 
REMARK    3  A    between atoms: C_5  and  C_31 
REMARK    4  A    between atoms: C_9  and  C_12 
REMARK    5  A    between atoms: C_9  and  C_13 
REMARK    6  A    between atoms: C_13  and  C_14 
REMARK    7  A    between atoms: C_14  and  C_15 
REMARK    8  A    between atoms: C_15  and  C_16 
REMARK    9  A    between atoms: C_16  and  C_18 
REMARK   10  A    between atoms: C_16  and  C_19 
REMARK   11  A    between atoms: C_19  and  C_20 
REMARK   12  A    between atoms: C_20  and  C_21 
REMARK   13  A    between atoms: C_21  and  C_22 
REMARK   14  A    between atoms: C_22  and  C_24 
REMARK   15  A    between atoms: C_22  and  C_25 
REMARK   16  A    between atoms: C_25  and  C_26 
REMARK   17  A    between atoms: C_26  and  C_27 
REMARK   18  A    between atoms: C_27  and  C_28 
REMARK   19  A    between atoms: C_28  and  C_29 
REMARK   20  A    between atoms: C_28  and  C_30 
ROOT
ATOM      1  C   LIG d   1       3.257   0.454  -2.445  0.00  0.00    -0.044 C 
ATOM      2  H   LIG d   1       2.383   0.759  -1.871  0.00  0.00     0.030 H 
ENDROOT
BRANCH   1   3
ATOM      3  C   LIG d   1       3.226   1.125  -3.818  0.00  0.00    -0.050 C 
ATOM      4  H   LIG d   1       4.243   1.346  -4.138  0.00  0.00     0.027 H 
ATOM      5  H   LIG d   1       2.655   2.053  -3.757  0.00  0.00     0.027 H 
BRANCH   3   6
ATOM      6  C   LIG d   1       2.565   0.187  -4.830  0.00  0.00    -0.049 C 
ATOM      7  H   LIG d   1       1.537  -0.010  -4.526  0.00  0.00     0.027 H 
ATOM      8  H   LIG d   1       3.118  -0.751  -4.872  0.00  0.00     0.027 H 
BRANCH   6   9
ATOM      9  C   LIG d   1       2.569   0.842  -6.213  0.00  0.00    -0.013 C 
ATOM     10  H   LIG d   1       2.975   1.851  -6.136  0.00  0.00     0.030 H 
ATOM     11  H   LIG d   1       1.550   0.890  -6.596  0.00  0.00     0.030 H 
BRANCH   9  12
ATOM     12  C   LIG d   1       3.434   0.016  -7.167  0.00  0.00     0.108 C 
ATOM     13  O   LIG d   1       4.545   0.798  -7.608  0.00  0.00    -0.485 OA
ATOM     14  C   LIG d   1       5.545   0.162  -8.276  0.00  0.00     0.128 A 
ATOM     15  C   LIG d   1       6.439   0.929  -9.015  0.00  0.00    -0.005 A 
ATOM     16  C   LIG d   1       5.689  -1.214  -8.234  0.00  0.00     0.001 A 
ATOM     17  C   LIG d   1       7.477   0.325  -9.694  0.00  0.00    -0.013 A 
ATOM     18  C   LIG d   1       7.626  -1.053  -9.645  0.00  0.00     0.120 A 
ATOM     19  H   LIG d   1       8.172   0.924 -10.264  0.00  0.00     0.066 H 
ATOM     20  C   LIG d   1       6.731  -1.818  -8.915  0.00  0.00    -0.002 A 
ATOM     21  C   LIG d   1       4.733  -2.080  -7.454  0.00  0.00    -0.020 C 
ATOM     22  C   LIG d   1       3.972  -1.220  -6.436  0.00  0.00    -0.009 C 
ATOM     23  H   LIG d   1       4.030  -2.553  -8.141  0.00  0.00     0.032 H 
ATOM     24  H   LIG d   1       5.292  -2.850  -6.922  0.00  0.00     0.032 H 
ATOM     25  H   LIG d   1       4.643  -0.911  -5.634  0.00  0.00     0.031 H 
ATOM     26  H   LIG d   1       3.143  -1.793  -6.022  0.00  0.00     0.031 H 
BRANCH  15  27
ATOM     27  C   LIG d   1       6.277   2.426  -9.070  0.00  0.00    -0.036 C 
ATOM     28  H   LIG d   1       5.237   2.687  -8.878  0.00  0.00     0.028 H 
ATOM     29  H   LIG d   1       6.914   2.888  -8.315  0.00  0.00     0.028 H 
ATOM     30  H   LIG d   1       6.566   2.786 -10.058  0.00  0.00     0.028 H 
ENDBRANCH  15  27
BRANCH  18  31
ATOM     31  O   LIG d   1       8.649  -1.652 -10.312  0.00  0.00    -0.506 OA
ATOM     32  H   LIG d   1       8.380  -2.102 -11.123  0.00  0.00     0.292 HD
ENDBRANCH  18  31
BRANCH  20  33
ATOM     33  C   LIG d   1       6.892  -3.316  -8.863  0.00  0.00    -0.036 C 
ATOM     34  H   LIG d   1       7.171  -3.686  -9.849  0.00  0.00     0.028 H 
ATOM     35  H   LIG d   1       7.670  -3.573  -8.145  0.00  0.00     0.028 H 
ATOM     36  H   LIG d   1       5.950  -3.772  -8.557  0.00  0.00     0.028 H 
ENDBRANCH  20  33
BRANCH  12  37
ATOM     37  C   LIG d   1       2.600  -0.420  -8.373  0.00  0.00    -0.025 C 
ATOM     38  H   LIG d   1       1.543  -0.269  -8.157  0.00  0.00     0.027 H 
ATOM     39  H   LIG d   1       2.882   0.174  -9.243  0.00  0.00     0.027 H 
ATOM     40  H   LIG d   1       2.783  -1.475  -8.579  0.00  0.00     0.027 H 
ENDBRANCH  12  37
ENDBRANCH   9  12
ENDBRANCH   6   9
ENDBRANCH   3   6
ENDBRANCH   1   3
BRANCH   1  41
ATOM     41  C   LIG d   1       4.527   0.875  -1.701  0.00  0.00    -0.062 C 
ATOM     42  H   LIG d   1       5.113  -0.010  -1.453  0.00  0.00     0.023 H 
ATOM     43  H   LIG d   1       5.118   1.535  -2.337  0.00  0.00     0.023 H 
ATOM     44  H   LIG d   1       4.255   1.400  -0.786  0.00  0.00     0.023 H 
ENDBRANCH   1  41
BRANCH   1  45
ATOM     45  C   LIG d   1       3.249  -1.066  -2.620  0.00  0.00    -0.051 C 
ATOM     46  H   LIG d   1       2.485  -1.501  -1.977  0.00  0.00     0.027 H 
ATOM     47  H   LIG d   1       3.031  -1.311  -3.660  0.00  0.00     0.027 H 
BRANCH  45  48
ATOM     48  C   LIG d   1       4.619  -1.631  -2.240  0.00  0.00    -0.053 C 
ATOM     49  H   LIG d   1       5.300  -0.811  -2.013  0.00  0.00     0.026 H 
ATOM     50  H   LIG d   1       4.517  -2.272  -1.363  0.00  0.00     0.026 H 
BRANCH  48  51
ATOM     51  C   LIG d   1       5.176  -2.450  -3.407  0.00  0.00    -0.051 C 
ATOM     52  H   LIG d   1       4.978  -3.507  -3.235  0.00  0.00     0.027 H 
ATOM     53  H   LIG d   1       4.693  -2.135  -4.332  0.00  0.00     0.027 H 
BRANCH  51  54
ATOM     54  C   LIG d   1       6.684  -2.223  -3.515  0.00  0.00    -0.044 C 
ATOM     55  H   LIG d   1       7.190  -2.756  -2.710  0.00  0.00     0.030 H 
BRANCH  54  56
ATOM     56  C   LIG d   1       7.183  -2.742  -4.864  0.00  0.00    -0.062 C 
ATOM     57  H   LIG d   1       7.347  -1.903  -5.539  0.00  0.00     0.023 H 
ATOM     58  H   LIG d   1       8.119  -3.282  -4.722  0.00  0.00     0.023 H 
ATOM     59  H   LIG d   1       6.439  -3.413  -5.293  0.00  0.00     0.023 H 
ENDBRANCH  54  56
BRANCH  54  60
ATOM     60  C   LIG d   1       6.984  -0.727  -3.401  0.00  0.00    -0.051 C 
ATOM     61  H   LIG d   1       6.296  -0.272  -2.688  0.00  0.00     0.027 H 
ATOM     62  H   LIG d   1       8.009  -0.587  -3.058  0.00  0.00     0.027 H 
BRANCH  60  63
ATOM     63  C   LIG d   1       6.810  -0.066  -4.770  0.00  0.00    -0.053 C 
ATOM     64  H   LIG d   1       7.198  -0.728  -5.545  0.00  0.00     0.026 H 
ATOM     65  H   LIG d   1       5.751   0.123  -4.951  0.00  0.00     0.026 H 
BRANCH  63  66
ATOM     66  C   LIG d   1       7.577   1.258  -4.799  0.00  0.00    -0.051 C 
ATOM     67  H   LIG d   1       6.875   2.086  -4.689  0.00  0.00     0.027 H 
ATOM     68  H   LIG d   1       8.296   1.279  -3.980  0.00  0.00     0.027 H 
BRANCH  66  69
ATOM     69  C   LIG d   1       8.316   1.390  -6.132  0.00  0.00    -0.047 C 
ATOM     70  H   LIG d   1       7.591   1.458  -6.944  0.00  0.00     0.029 H 
BRANCH  69  71
ATOM     71  C   LIG d   1       9.179   2.653  -6.113  0.00  0.00    -0.063 C 
ATOM     72  H   LIG d   1       8.598   3.484  -5.714  0.00  0.00     0.023 H 
ATOM     73  H   LIG d   1      10.053   2.485  -5.484  0.00  0.00     0.023 H 
ATOM     74  H   LIG d   1       9.502   2.888  -7.127  0.00  0.00     0.023 H 
ENDBRANCH  69  71
BRANCH  69  75
ATOM     75  C   LIG d   1       9.207   0.165  -6.344  0.00  0.00    -0.063 C 
ATOM     76  H   LIG d   1       9.227  -0.092  -7.403  0.00  0.00     0.023 H 
ATOM     77  H   LIG d   1      10.219   0.390  -6.007  0.00  0.00     0.023 H 
ATOM     78  H   LIG d   1       8.812  -0.675  -5.774  0.00  0.00     0.023 H 
ENDBRANCH  69  75
ENDBRANCH  66  69
ENDBRANCH  63  66
ENDBRANCH  60  63
ENDBRANCH  54  60
ENDBRANCH  51  54
ENDBRANCH  48  51
ENDBRANCH  45  48
ENDBRANCH   1  45
TORSDOF 20
ENDMDL
MODEL 4
REMARK VINA RESULT:      -5.4      2.260      6.464
REMARK  20 active torsions:
REMARK  status: ('A' for Active; 'I' for Inactive)
REMARK    1  A    between atoms: C_1  and  C_2 
REMARK    2  A    between atoms: C_4  and  O_32 
REMARK    3  A    between atoms: C_5  and  C_31 
REMARK    4  A    between atoms: C_9  and  C_12 
REMARK    5  A    between atoms: C_9  and  C_13 
REMARK    6  A    between atoms: C_13  and  C_14 
REMARK    7  A    between atoms: C_14  and  C_15 
REMARK    8  A    between atoms: C_15  and  C_16 
REMARK    9  A    between atoms: C_16  and  C_18 
REMARK   10  A    between atoms: C_16  and  C_19 
REMARK   11  A    between atoms: C_19  and  C_20 
REMARK   12  A    between atoms: C_20  and  C_21 
REMARK   13  A    between atoms: C_21  and  C_22 
REMARK   14  A    between atoms: C_22  and  C_24 
REMARK   15  A    between atoms: C_22  and  C_25 
REMARK   16  A    between atoms: C_25  and  C_26 
REMARK   17  A    between atoms: C_26  and  C_27 
REMARK   18  A    between atoms: C_27  and  C_28 
REMARK   19  A    between atoms: C_28  and  C_29 
REMARK   20  A    between atoms: C_28  and  C_30 
ROOT
ATOM      1  C   LIG d   1       7.424  -0.685  -8.765  0.00  0.00    -0.044 C 
ATOM      2  H   LIG d   1       7.480  -0.405  -9.816  0.00  0.00     0.030 H 
ENDROOT
BRANCH   1   3
ATOM      3  C   LIG d   1       8.484  -1.744  -8.461  0.00  0.00    -0.050 C 
ATOM      4  H   LIG d   1       9.283  -1.680  -9.199  0.00  0.00     0.027 H 
ATOM      5  H   LIG d   1       8.031  -2.735  -8.503  0.00  0.00     0.027 H 
BRANCH   3   6
ATOM      6  C   LIG d   1       9.060  -1.505  -7.064  0.00  0.00    -0.049 C 
ATOM      7  H   LIG d   1       8.534  -0.675  -6.592  0.00  0.00     0.027 H 
ATOM      8  H   LIG d   1      10.120  -1.266  -7.143  0.00  0.00     0.027 H 
BRANCH   6   9
ATOM      9  C   LIG d   1       8.885  -2.767  -6.217  0.00  0.00    -0.013 C 
ATOM     10  H   LIG d   1       9.850  -3.067  -5.808  0.00  0.00     0.030 H 
ATOM     11  H   LIG d   1       8.489  -3.571  -6.839  0.00  0.00     0.030 H 
BRANCH   9  12
ATOM     12  C   LIG d   1       7.913  -2.483  -5.071  0.00  0.00     0.108 C 
ATOM     13  O   LIG d   1       7.735  -1.073  -4.930  0.00  0.00    -0.485 OA
ATOM     14  C   LIG d   1       6.735  -0.635  -4.119  0.00  0.00     0.128 A 
ATOM     15  C   LIG d   1       6.764   0.686  -3.685  0.00  0.00    -0.005 A 
ATOM     16  C   LIG d   1       5.702  -1.467  -3.723  0.00  0.00     0.001 A 
ATOM     17  C   LIG d   1       5.760   1.174  -2.875  0.00  0.00    -0.013 A 
ATOM     18  C   LIG d   1       4.720   0.342  -2.485  0.00  0.00     0.120 A 
ATOM     19  H   LIG d   1       5.783   2.201  -2.543  0.00  0.00     0.066 H 
ATOM     20  C   LIG d   1       4.695  -0.976  -2.910  0.00  0.00    -0.002 A 
ATOM     21  C   LIG d   1       5.642  -2.908  -4.162  0.00  0.00    -0.020 C 
ATOM     22  C   LIG d   1       6.550  -3.113  -5.382  0.00  0.00    -0.009 C 
ATOM     23  H   LIG d   1       5.969  -3.550  -3.343  0.00  0.00     0.032 H 
ATOM     24  H   LIG d   1       4.618  -3.162  -4.434  0.00  0.00     0.032 H 
ATOM     25  H   LIG d   1       6.113  -2.632  -6.257  0.00  0.00     0.031 H 
ATOM     26  H   LIG d   1       6.672  -4.179  -5.571  0.00  0.00     0.031 H 
BRANCH  15  27
ATOM     27  C   LIG d   1       7.893   1.590  -4.107  0.00  0.00    -0.036 C 
ATOM     28  H   LIG d   1       7.621   2.106  -5.027  0.00  0.00     0.028 H 
ATOM     29  H   LIG d   1       8.085   2.322  -3.322  0.00  0.00     0.028 H 
ATOM     30  H   LIG d   1       8.791   0.995  -4.276  0.00  0.00     0.028 H 
ENDBRANCH  15  27
BRANCH  18  31
ATOM     31  O   LIG d   1       3.728   0.820  -1.687  0.00  0.00    -0.506 OA
ATOM     32  H   LIG d   1       3.790   0.532  -0.767  0.00  0.00     0.292 HD
ENDBRANCH  18  31
BRANCH  20  33
ATOM     33  C   LIG d   1       3.567  -1.880  -2.486  0.00  0.00    -0.036 C 
ATOM     34  H   LIG d   1       3.963  -2.697  -1.882  0.00  0.00     0.028 H 
ATOM     35  H   LIG d   1       2.846  -1.311  -1.899  0.00  0.00     0.028 H 
ATOM     36  H   LIG d   1       3.076  -2.288  -3.370  0.00  0.00     0.028 H 
ENDBRANCH  20  33
BRANCH  12  37
ATOM     37  C   LIG d   1       8.465  -3.065  -3.768  0.00  0.00    -0.025 C 
ATOM     38  H   LIG d   1       8.070  -4.070  -3.623  0.00  0.00     0.027 H 
ATOM     39  H   LIG d   1       9.553  -3.107  -3.822  0.00  0.00     0.027 H 
ATOM     40  H   LIG d   1       8.167  -2.432  -2.932  0.00  0.00     0.027 H 
ENDBRANCH  12  37
ENDBRANCH   9  12
ENDBRANCH   6   9
ENDBRANCH   3   6
ENDBRANCH   1   3
BRANCH   1  41
ATOM     41  C   LIG d   1       7.674   0.550  -7.895  0.00  0.00    -0.062 C 
ATOM     42  H   LIG d   1       7.443   0.316  -6.856  0.00  0.00     0.023 H 
ATOM     43  H   LIG d   1       8.721   0.845  -7.976  0.00  0.00     0.023 H 
ATOM     44  H   LIG d   1       7.039   1.368  -8.235  0.00  0.00     0.023 H 
ENDBRANCH   1  41
BRANCH   1  45
ATOM     45  C   LIG d   1       6.035  -1.251  -8.460  0.00  0.00    -0.051 C 
ATOM     46  H   LIG d   1       5.454  -1.300  -9.379  0.00  0.00     0.027 H 
ATOM     47  H   LIG d   1       6.135  -2.251  -8.037  0.00  0.00     0.027 H 
BRANCH  45  48
ATOM     48  C   LIG d   1       5.323  -0.342  -7.455  0.00  0.00    -0.053 C 
ATOM     49  H   LIG d   1       5.954  -0.207  -6.577  0.00  0.00     0.026 H 
ATOM     50  H   LIG d   1       5.130   0.627  -7.915  0.00  0.00     0.026 H 
BRANCH  48  51
ATOM     51  C   LIG d   1       3.998  -0.982  -7.038  0.00  0.00    -0.051 C 
ATOM     52  H   LIG d   1       3.727  -1.756  -7.756  0.00  0.00     0.027 H 
ATOM     53  H   LIG d   1       4.105  -1.426  -6.049  0.00  0.00     0.027 H 
BRANCH  51  54
ATOM     54  C   LIG d   1       2.905   0.087  -7.002  0.00  0.00    -0.044 C 
ATOM     55  H   LIG d   1       1.985  -0.319  -7.425  0.00  0.00     0.030 H 
BRANCH  54  56
ATOM     56  C   LIG d   1       2.655   0.513  -5.554  0.00  0.00    -0.062 C 
ATOM     57  H   LIG d   1       2.911  -0.307  -4.884  0.00  0.00     0.023 H 
ATOM     58  H   LIG d   1       3.272   1.380  -5.319  0.00  0.00     0.023 H 
ATOM     59  H   LIG d   1       1.603   0.771  -5.427  0.00  0.00     0.023 H 
ENDBRANCH  54  56
BRANCH  54  60
ATOM     60  C   LIG d   1       3.350   1.299  -7.821  0.00  0.00    -0.051 C 
ATOM     61  H   LIG d   1       3.193   2.208  -7.240  0.00  0.00     0.027 H 
ATOM     62  H   LIG d   1       4.407   1.203  -8.067  0.00  0.00     0.027 H 
BRANCH  60  63
ATOM     63  C   LIG d   1       2.531   1.373  -9.112  0.00  0.00    -0.053 C 
ATOM     64  H   LIG d   1       1.643   0.747  -9.014  0.00  0.00     0.026 H 
ATOM     65  H   LIG d   1       2.229   2.405  -9.293  0.00  0.00     0.026 H 
BRANCH  63  66
ATOM     66  C   LIG d   1       3.378   0.875 -10.284  0.00  0.00    -0.051 C 
ATOM     67  H   LIG d   1       3.221   1.523 -11.147  0.00  0.00     0.027 H 
ATOM     68  H   LIG d   1       4.432   0.892 -10.004  0.00  0.00     0.027 H 
BRANCH  66  69
ATOM     69  C   LIG d   1       2.968  -0.555 -10.640  0.00  0.00    -0.047 C 
ATOM     70  H   LIG d   1       3.565  -1.259 -10.058  0.00  0.00     0.029 H 
BRANCH  69  71
ATOM     71  C   LIG d   1       1.486  -0.756 -10.318  0.00  0.00    -0.063 C 
ATOM     72  H   LIG d   1       1.346  -0.760  -9.238  0.00  0.00     0.023 H 
ATOM     73  H   LIG d   1       0.907   0.057 -10.757  0.00  0.00     0.023 H 
ATOM     74  H   LIG d   1       1.150  -1.706 -10.733  0.00  0.00     0.023 H 
ENDBRANCH  69  71
BRANCH  69  75
ATOM     75  C   LIG d   1       3.204  -0.797 -12.132  0.00  0.00    -0.063 C 
ATOM     76  H   LIG d   1       3.791   0.022 -12.544  0.00  0.00     0.023 H 
ATOM     77  H   LIG d   1       3.745  -1.734 -12.266  0.00  0.00     0.023 H 
ATOM     78  H   LIG d   1       2.245  -0.853 -12.647  0.00  0.00     0.023 H 
ENDBRANCH  69  75
ENDBRANCH  66  69
ENDBRANCH  63  66
ENDBRANCH  60  63
ENDBRANCH  54  60
ENDBRANCH  51  54
ENDBRANCH  48  51
ENDBRANCH  45  48
ENDBRANCH   1  45
TORSDOF 20
ENDMDL
MODEL 5
REMARK VINA RESULT:      -5.2      5.376      7.522
REMARK  20 active torsions:
REMARK  status: ('A' for Active; 'I' for Inactive)
REMARK    1  A    between atoms: C_1  and  C_2 
REMARK    2  A    between atoms: C_4  and  O_32 
REMARK    3  A    between atoms: C_5  and  C_31 
REMARK    4  A    between atoms: C_9  and  C_12 
REMARK    5  A    between atoms: C_9  and  C_13 
REMARK    6  A    between atoms: C_13  and  C_14 
REMARK    7  A    between atoms: C_14  and  C_15 
REMARK    8  A    between atoms: C_15  and  C_16 
REMARK    9  A    between atoms: C_16  and  C_18 
REMARK   10  A    between atoms: C_16  and  C_19 
REMARK   11  A    between atoms: C_19  and  C_20 
REMARK   12  A    between atoms: C_20  and  C_21 
REMARK   13  A    between atoms: C_21  and  C_22 
REMARK   14  A    between atoms: C_22  and  C_24 
REMARK   15  A    between atoms: C_22  and  C_25 
REMARK   16  A    between atoms: C_25  and  C_26 
REMARK   17  A    between atoms: C_26  and  C_27 
REMARK   18  A    between atoms: C_27  and  C_28 
REMARK   19  A    between atoms: C_28  and  C_29 
REMARK   20  A    between atoms: C_28  and  C_30 
ROOT
ATOM      1  C   LIG d   1       7.824   0.751  -4.215  0.00  0.00    -0.044 C 
ATOM      2  H   LIG d   1       8.799   0.268  -4.157  0.00  0.00     0.030 H 
ENDROOT
BRANCH   1   3
ATOM      3  C   LIG d   1       7.985   2.256  -3.992  0.00  0.00    -0.050 C 
ATOM      4  H   LIG d   1       8.208   2.445  -2.943  0.00  0.00     0.027 H 
ATOM      5  H   LIG d   1       7.060   2.765  -4.264  0.00  0.00     0.027 H 
BRANCH   3   6
ATOM      6  C   LIG d   1       9.130   2.781  -4.860  0.00  0.00    -0.049 C 
ATOM      7  H   LIG d   1       8.733   3.460  -5.613  0.00  0.00     0.027 H 
ATOM      8  H   LIG d   1       9.628   1.944  -5.350  0.00  0.00     0.027 H 
BRANCH   6   9
ATOM      9  C   LIG d   1      10.136   3.527  -3.981  0.00  0.00    -0.013 C 
ATOM     10  H   LIG d   1      11.097   3.012  -4.010  0.00  0.00     0.030 H 
ATOM     11  H   LIG d   1       9.771   3.555  -2.954  0.00  0.00     0.030 H 
BRANCH   9  12
ATOM     12  C   LIG d   1      10.307   4.955  -4.500  0.00  0.00     0.108 C 
ATOM     13  O   LIG d   1       9.812   5.044  -5.836  0.00  0.00    -0.485 OA
ATOM     14  C   LIG d   1       9.667   6.281  -6.381  0.00  0.00     0.128 A 
ATOM     15  C   LIG d   1       9.538   6.386  -7.762  0.00  0.00    -0.005 A 
ATOM     16  C   LIG d   1       9.646   7.423  -5.599  0.00  0.00     0.001 A 
ATOM     17  C   LIG d   1       9.373   7.622  -8.353  0.00  0.00    -0.013 A 
ATOM     18  C   LIG d   1       9.343   8.765  -7.568  0.00  0.00     0.120 A 
ATOM     19  H   LIG d   1       9.269   7.700  -9.425  0.00  0.00     0.066 H 
ATOM     20  C   LIG d   1       9.481   8.662  -6.194  0.00  0.00    -0.002 A 
ATOM     21  C   LIG d   1       9.796   7.352  -4.100  0.00  0.00    -0.020 C 
ATOM     22  C   LIG d   1       9.505   5.923  -3.622  0.00  0.00    -0.009 C 
ATOM     23  H   LIG d   1      10.812   7.637  -3.824  0.00  0.00     0.032 H 
ATOM     24  H   LIG d   1       9.088   8.035  -3.632  0.00  0.00     0.032 H 
ATOM     25  H   LIG d   1       8.440   5.708  -3.714  0.00  0.00     0.031 H 
ATOM     26  H   LIG d   1       9.813   5.817  -2.582  0.00  0.00     0.031 H 
BRANCH  15  27
ATOM     27  C   LIG d   1       9.571   5.145  -8.616  0.00  0.00    -0.036 C 
ATOM     28  H   LIG d   1      10.605   4.859  -8.801  0.00  0.00     0.028 H 
ATOM     29  H   LIG d   1       9.056   4.335  -8.099  0.00  0.00     0.028 H 
ATOM     30  H   LIG d   1       9.073   5.345  -9.565  0.00  0.00     0.028 H 
ENDBRANCH  15  27
BRANCH  18  31
ATOM     31  O   LIG d   1       9.180   9.985  -8.147  0.00  0.00    -0.506 OA
ATOM     32  H   LIG d   1       9.697  10.689  -7.733  0.00  0.00     0.292 HD
ENDBRANCH  18  31
BRANCH  20  33
ATOM     33  C   LIG d   1       9.450   9.904  -5.341  0.00  0.00    -0.036 C 
ATOM     34  H   LIG d   1      10.349  10.493  -5.523  0.00  0.00     0.028 H 
ATOM     35  H   LIG d   1       8.571  10.496  -5.592  0.00  0.00     0.028 H 
ATOM     36  H   LIG d   1       9.410   9.621  -4.289  0.00  0.00     0.028 H 
ENDBRANCH  20  33
BRANCH  12  37
ATOM     37  C   LIG d   1      11.787   5.341  -4.474  0.00  0.00    -0.025 C 
ATOM     38  H   LIG d   1      12.251   5.069  -5.422  0.00  0.00     0.027 H 
ATOM     39  H   LIG d   1      11.880   6.416  -4.320  0.00  0.00     0.027 H 
ATOM     40  H   LIG d   1      12.286   4.813  -3.660  0.00  0.00     0.027 H 
ENDBRANCH  12  37
ENDBRANCH   9  12
ENDBRANCH   6   9
ENDBRANCH   3   6
ENDBRANCH   1   3
BRANCH   1  41
ATOM     41  C   LIG d   1       7.215   0.504  -5.598  0.00  0.00    -0.062 C 
ATOM     42  H   LIG d   1       7.960   0.708  -6.365  0.00  0.00     0.023 H 
ATOM     43  H   LIG d   1       6.892  -0.535  -5.672  0.00  0.00     0.023 H 
ATOM     44  H   LIG d   1       6.356   1.161  -5.739  0.00  0.00     0.023 H 
ENDBRANCH   1  41
BRANCH   1  45
ATOM     45  C   LIG d   1       6.902   0.172  -3.140  0.00  0.00    -0.051 C 
ATOM     46  H   LIG d   1       6.573  -0.822  -3.442  0.00  0.00     0.027 H 
ATOM     47  H   LIG d   1       7.442   0.105  -2.196  0.00  0.00     0.027 H 
BRANCH  45  48
ATOM     48  C   LIG d   1       5.684   1.082  -2.968  0.00  0.00    -0.053 C 
ATOM     49  H   LIG d   1       6.008   2.057  -2.603  0.00  0.00     0.026 H 
ATOM     50  H   LIG d   1       5.182   1.203  -3.928  0.00  0.00     0.026 H 
BRANCH  48  51
ATOM     51  C   LIG d   1       4.717   0.455  -1.962  0.00  0.00    -0.051 C 
ATOM     52  H   LIG d   1       5.039  -0.561  -1.733  0.00  0.00     0.027 H 
ATOM     53  H   LIG d   1       4.709   1.049  -1.048  0.00  0.00     0.027 H 
BRANCH  51  54
ATOM     54  C   LIG d   1       3.310   0.422  -2.561  0.00  0.00    -0.044 C 
ATOM     55  H   LIG d   1       2.618   0.936  -1.893  0.00  0.00     0.030 H 
BRANCH  54  56
ATOM     56  C   LIG d   1       3.317   1.118  -3.923  0.00  0.00    -0.062 C 
ATOM     57  H   LIG d   1       4.243   1.680  -4.039  0.00  0.00     0.023 H 
ATOM     58  H   LIG d   1       3.244   0.370  -4.713  0.00  0.00     0.023 H 
ATOM     59  H   LIG d   1       2.468   1.798  -3.988  0.00  0.00     0.023 H 
ENDBRANCH  54  56
BRANCH  54  60
ATOM     60  C   LIG d   1       2.863  -1.032  -2.733  0.00  0.00    -0.051 C 
ATOM     61  H   LIG d   1       1.999  -1.224  -2.097  0.00  0.00     0.027 H 
ATOM     62  H   LIG d   1       2.596  -1.209  -3.774  0.00  0.00     0.027 H 
BRANCH  60  63
ATOM     63  C   LIG d   1       4.007  -1.967  -2.333  0.00  0.00    -0.053 C 
ATOM     64  H   LIG d   1       4.907  -1.381  -2.146  0.00  0.00     0.026 H 
ATOM     65  H   LIG d   1       3.733  -2.511  -1.428  0.00  0.00     0.026 H 
BRANCH  63  66
ATOM     66  C   LIG d   1       4.272  -2.962  -3.465  0.00  0.00    -0.051 C 
ATOM     67  H   LIG d   1       4.672  -3.887  -3.049  0.00  0.00     0.027 H 
ATOM     68  H   LIG d   1       3.340  -3.173  -3.989  0.00  0.00     0.027 H 
BRANCH  66  69
ATOM     69  C   LIG d   1       5.284  -2.363  -4.444  0.00  0.00    -0.047 C 
ATOM     70  H   LIG d   1       5.635  -1.404  -4.062  0.00  0.00     0.029 H 
BRANCH  69  71
ATOM     71  C   LIG d   1       6.471  -3.316  -4.596  0.00  0.00    -0.063 C 
ATOM     72  H   LIG d   1       7.355  -2.870  -4.142  0.00  0.00     0.023 H 
ATOM     73  H   LIG d   1       6.244  -4.260  -4.100  0.00  0.00     0.023 H 
ATOM     74  H   LIG d   1       6.657  -3.498  -5.655  0.00  0.00     0.023 H 
ENDBRANCH  69  71
BRANCH  69  75
ATOM     75  C   LIG d   1       4.616  -2.158  -5.805  0.00  0.00    -0.063 C 
ATOM     76  H   LIG d   1       4.744  -3.053  -6.412  0.00  0.00     0.023 H 
ATOM     77  H   LIG d   1       3.553  -1.965  -5.662  0.00  0.00     0.023 H 
ATOM     78  H   LIG d   1       5.075  -1.307  -6.310  0.00  0.00     0.023 H 
ENDBRANCH  69  75
ENDBRANCH  66  69
ENDBRANCH  63  66
ENDBRANCH  60  63
ENDBRANCH  54  60
ENDBRANCH  51  54
ENDBRANCH  48  51
ENDBRANCH  45  48
ENDBRANCH   1  45
TORSDOF 20
ENDMDL
MODEL 6
REMARK VINA RESULT:      -5.2      1.615      4.997
REMARK  20 active torsions:
REMARK  status: ('A' for Active; 'I' for Inactive)
REMARK    1  A    between atoms: C_1  and  C_2 
REMARK    2  A    between atoms: C_4  and  O_32 
REMARK    3  A    between atoms: C_5  and  C_31 
REMARK    4  A    between atoms: C_9  and  C_12 
REMARK    5  A    between atoms: C_9  and  C_13 
REMARK    6  A    between atoms: C_13  and  C_14 
REMARK    7  A    between atoms: C_14  and  C_15 
REMARK    8  A    between atoms: C_15  and  C_16 
REMARK    9  A    between atoms: C_16  and  C_18 
REMARK   10  A    between atoms: C_16  and  C_19 
REMARK   11  A    between atoms: C_19  and  C_20 
REMARK   12  A    between atoms: C_20  and  C_21 
REMARK   13  A    between atoms: C_21  and  C_22 
REMARK   14  A    between atoms: C_22  and  C_24 
REMARK   15  A    between atoms: C_22  and  C_25 
REMARK   16  A    between atoms: C_25  and  C_26 
REMARK   17  A    between atoms: C_26  and  C_27 
REMARK   18  A    between atoms: C_27  and  C_28 
REMARK   19  A    between atoms: C_28  and  C_29 
REMARK   20  A    between atoms: C_28  and  C_30 
ROOT
ATOM      1  C   LIG d   1       3.566   0.118  -3.496  0.00  0.00    -0.044 C 
ATOM      2  H   LIG d   1       4.593   0.013  -3.846  0.00  0.00     0.030 H 
ENDROOT
BRANCH   1   3
ATOM      3  C   LIG d   1       3.137  -1.163  -2.780  0.00  0.00    -0.050 C 
ATOM      4  H   LIG d   1       2.191  -1.511  -3.194  0.00  0.00     0.027 H 
ATOM      5  H   LIG d   1       3.014  -0.961  -1.715  0.00  0.00     0.027 H 
BRANCH   3   6
ATOM      6  C   LIG d   1       4.207  -2.239  -2.974  0.00  0.00    -0.049 C 
ATOM      7  H   LIG d   1       4.058  -2.730  -3.936  0.00  0.00     0.027 H 
ATOM      8  H   LIG d   1       4.131  -2.976  -2.175  0.00  0.00     0.027 H 
BRANCH   6   9
ATOM      9  C   LIG d   1       5.593  -1.593  -2.941  0.00  0.00    -0.013 C 
ATOM     10  H   LIG d   1       6.133  -1.936  -2.058  0.00  0.00     0.030 H 
ATOM     11  H   LIG d   1       5.488  -0.508  -2.903  0.00  0.00     0.030 H 
BRANCH   9  12
ATOM     12  C   LIG d   1       6.370  -1.986  -4.199  0.00  0.00     0.108 C 
ATOM     13  O   LIG d   1       5.532  -2.758  -5.060  0.00  0.00    -0.485 OA
ATOM     14  C   LIG d   1       5.971  -3.002  -6.324  0.00  0.00     0.128 A 
ATOM     15  C   LIG d   1       5.367  -4.023  -7.049  0.00  0.00    -0.005 A 
ATOM     16  C   LIG d   1       6.992  -2.263  -6.895  0.00  0.00     0.001 A 
ATOM     17  C   LIG d   1       5.772  -4.292  -8.340  0.00  0.00    -0.013 A 
ATOM     18  C   LIG d   1       6.790  -3.546  -8.916  0.00  0.00     0.120 A 
ATOM     19  H   LIG d   1       5.298  -5.084  -8.902  0.00  0.00     0.066 H 
ATOM     20  C   LIG d   1       7.397  -2.534  -8.191  0.00  0.00    -0.002 A 
ATOM     21  C   LIG d   1       7.680  -1.155  -6.137  0.00  0.00    -0.020 C 
ATOM     22  C   LIG d   1       6.806  -0.724  -4.952  0.00  0.00    -0.009 C 
ATOM     23  H   LIG d   1       8.647  -1.509  -5.777  0.00  0.00     0.032 H 
ATOM     24  H   LIG d   1       7.830  -0.302  -6.798  0.00  0.00     0.032 H 
ATOM     25  H   LIG d   1       5.927  -0.187  -5.311  0.00  0.00     0.031 H 
ATOM     26  H   LIG d   1       7.383  -0.080  -4.288  0.00  0.00     0.031 H 
BRANCH  15  27
ATOM     27  C   LIG d   1       4.262  -4.836  -6.425  0.00  0.00    -0.036 C 
ATOM     28  H   LIG d   1       3.968  -5.633  -7.106  0.00  0.00     0.028 H 
ATOM     29  H   LIG d   1       4.614  -5.269  -5.488  0.00  0.00     0.028 H 
ATOM     30  H   LIG d   1       3.405  -4.191  -6.228  0.00  0.00     0.028 H 
ENDBRANCH  15  27
BRANCH  18  31
ATOM     31  O   LIG d   1       7.191  -3.807 -10.188  0.00  0.00    -0.506 OA
ATOM     32  H   LIG d   1       7.506  -3.031 -10.669  0.00  0.00     0.292 HD
ENDBRANCH  18  31
BRANCH  20  33
ATOM     33  C   LIG d   1       8.504  -1.723  -8.815  0.00  0.00    -0.036 C 
ATOM     34  H   LIG d   1       8.444  -1.803  -9.901  0.00  0.00     0.028 H 
ATOM     35  H   LIG d   1       8.400  -0.679  -8.521  0.00  0.00     0.028 H 
ATOM     36  H   LIG d   1       9.468  -2.103  -8.476  0.00  0.00     0.028 H 
ENDBRANCH  20  33
BRANCH  12  37
ATOM     37  C   LIG d   1       7.601  -2.806  -3.809  0.00  0.00    -0.025 C 
ATOM     38  H   LIG d   1       8.065  -2.368  -2.925  0.00  0.00     0.027 H 
ATOM     39  H   LIG d   1       7.301  -3.831  -3.591  0.00  0.00     0.027 H 
ATOM     40  H   LIG d   1       8.315  -2.804  -4.634  0.00  0.00     0.027 H 
ENDBRANCH  12  37
ENDBRANCH   9  12
ENDBRANCH   6   9
ENDBRANCH   3   6
ENDBRANCH   1   3
BRANCH   1  41
ATOM     41  C   LIG d   1       3.477   1.299  -2.526  0.00  0.00    -0.062 C 
ATOM     42  H   LIG d   1       2.515   1.797  -2.647  0.00  0.00     0.023 H 
ATOM     43  H   LIG d   1       3.571   0.936  -1.502  0.00  0.00     0.023 H 
ATOM     44  H   LIG d   1       4.281   2.004  -2.737  0.00  0.00     0.023 H 
ENDBRANCH   1  41
BRANCH   1  45
ATOM     45  C   LIG d   1       2.643   0.368  -4.691  0.00  0.00    -0.051 C 
ATOM     46  H   LIG d   1       1.719  -0.193  -4.559  0.00  0.00     0.027 H 
ATOM     47  H   LIG d   1       2.417   1.432  -4.759  0.00  0.00     0.027 H 
BRANCH  45  48
ATOM     48  C   LIG d   1       3.338  -0.088  -5.976  0.00  0.00    -0.053 C 
ATOM     49  H   LIG d   1       4.339   0.341  -6.020  0.00  0.00     0.026 H 
ATOM     50  H   LIG d   1       3.409  -1.176  -5.985  0.00  0.00     0.026 H 
BRANCH  48  51
ATOM     51  C   LIG d   1       2.528   0.379  -7.187  0.00  0.00    -0.051 C 
ATOM     52  H   LIG d   1       1.485   0.506  -6.899  0.00  0.00     0.027 H 
ATOM     53  H   LIG d   1       2.925   1.330  -7.543  0.00  0.00     0.027 H 
BRANCH  51  54
ATOM     54  C   LIG d   1       2.628  -0.664  -8.301  0.00  0.00    -0.044 C 
ATOM     55  H   LIG d   1       2.129  -1.581  -7.986  0.00  0.00     0.030 H 
BRANCH  54  56
ATOM     56  C   LIG d   1       1.957  -0.127  -9.566  0.00  0.00    -0.062 C 
ATOM     57  H   LIG d   1       0.880  -0.072  -9.411  0.00  0.00     0.023 H 
ATOM     58  H   LIG d   1       2.343   0.868  -9.788  0.00  0.00     0.023 H 
ATOM     59  H   LIG d   1       2.170  -0.793 -10.402  0.00  0.00     0.023 H 
ENDBRANCH  54  56
BRANCH  54  60
ATOM     60  C   LIG d   1       4.101  -0.960  -8.591  0.00  0.00    -0.051 C 
ATOM     61  H   LIG d   1       4.728  -0.399  -7.898  0.00  0.00     0.027 H 
ATOM     62  H   LIG d   1       4.288  -2.027  -8.468  0.00  0.00     0.027 H 
BRANCH  60  63
ATOM     63  C   LIG d   1       4.431  -0.547 -10.027  0.00  0.00    -0.053 C 
ATOM     64  H   LIG d   1       4.611  -1.438 -10.629  0.00  0.00     0.026 H 
ATOM     65  H   LIG d   1       3.594   0.011 -10.447  0.00  0.00     0.026 H 
BRANCH  63  66
ATOM     66  C   LIG d   1       5.683   0.332 -10.031  0.00  0.00    -0.051 C 
ATOM     67  H   LIG d   1       6.569  -0.298  -9.934  0.00  0.00     0.027 H 
ATOM     68  H   LIG d   1       5.734   0.889 -10.967  0.00  0.00     0.027 H 
BRANCH  66  69
ATOM     69  C   LIG d   1       5.623   1.310  -8.856  0.00  0.00    -0.047 C 
ATOM     70  H   LIG d   1       5.169   0.818  -7.996  0.00  0.00     0.029 H 
BRANCH  69  71
ATOM     71  C   LIG d   1       7.039   1.762  -8.497  0.00  0.00    -0.063 C 
ATOM     72  H   LIG d   1       7.103   1.939  -7.423  0.00  0.00     0.023 H 
ATOM     73  H   LIG d   1       7.751   0.987  -8.780  0.00  0.00     0.023 H 
ATOM     74  H   LIG d   1       7.274   2.683  -9.032  0.00  0.00     0.023 H 
ENDBRANCH  69  71
BRANCH  69  75
ATOM     75  C   LIG d   1       4.783   2.527  -9.250  0.00  0.00    -0.063 C 
ATOM     76  H   LIG d   1       3.783   2.202  -9.533  0.00  0.00     0.023 H 
ATOM     77  H   LIG d   1       4.717   3.211  -8.404  0.00  0.00     0.023 H 
ATOM     78  H   LIG d   1       5.252   3.035 -10.092  0.00  0.00     0.023 H 
ENDBRANCH  69  75
ENDBRANCH  66  69
ENDBRANCH  63  66
ENDBRANCH  60  63
ENDBRANCH  54  60
ENDBRANCH  51  54
ENDBRANCH  48  51
ENDBRANCH  45  48
ENDBRANCH   1  45
TORSDOF 20
ENDMDL
MODEL 7
REMARK VINA RESULT:      -5.1      2.046      3.661
REMARK  20 active torsions:
REMARK  status: ('A' for Active; 'I' for Inactive)
REMARK    1  A    between atoms: C_1  and  C_2 
REMARK    2  A    between atoms: C_4  and  O_32 
REMARK    3  A    between atoms: C_5  and  C_31 
REMARK    4  A    between atoms: C_9  and  C_12 
REMARK    5  A    between atoms: C_9  and  C_13 
REMARK    6  A    between atoms: C_13  and  C_14 
REMARK    7  A    between atoms: C_14  and  C_15 
REMARK    8  A    between atoms: C_15  and  C_16 
REMARK    9  A    between atoms: C_16  and  C_18 
REMARK   10  A    between atoms: C_16  and  C_19 
REMARK   11  A    between atoms: C_19  and  C_20 
REMARK   12  A    between atoms: C_20  and  C_21 
REMARK   13  A    between atoms: C_21  and  C_22 
REMARK   14  A    between atoms: C_22  and  C_24 
REMARK   15  A    between atoms: C_22  and  C_25 
REMARK   16  A    between atoms: C_25  and  C_26 
REMARK   17  A    between atoms: C_26  and  C_27 
REMARK   18  A    between atoms: C_27  and  C_28 
REMARK   19  A    between atoms: C_28  and  C_29 
REMARK   20  A    between atoms: C_28  and  C_30 
ROOT
ATOM      1  C   LIG d   1       3.681  -0.784  -3.148  0.00  0.00    -0.044 C 
ATOM      2  H   LIG d   1       4.550  -0.808  -3.805  0.00  0.00     0.030 H 
ENDROOT
BRANCH   1   3
ATOM      3  C   LIG d   1       2.415  -0.585  -3.982  0.00  0.00    -0.050 C 
ATOM      4  H   LIG d   1       1.694   0.002  -3.414  0.00  0.00     0.027 H 
ATOM      5  H   LIG d   1       1.982  -1.556  -4.225  0.00  0.00     0.027 H 
BRANCH   3   6
ATOM      6  C   LIG d   1       2.768   0.154  -5.275  0.00  0.00    -0.049 C 
ATOM      7  H   LIG d   1       2.967   1.202  -5.052  0.00  0.00     0.027 H 
ATOM      8  H   LIG d   1       1.934   0.083  -5.974  0.00  0.00     0.027 H 
BRANCH   6   9
ATOM      9  C   LIG d   1       4.012  -0.479  -5.902  0.00  0.00    -0.013 C 
ATOM     10  H   LIG d   1       4.220  -1.431  -5.414  0.00  0.00     0.030 H 
ATOM     11  H   LIG d   1       4.864   0.189  -5.772  0.00  0.00     0.030 H 
BRANCH   9  12
ATOM     12  C   LIG d   1       3.770  -0.712  -7.394  0.00  0.00     0.108 C 
ATOM     13  O   LIG d   1       3.625  -2.111  -7.644  0.00  0.00    -0.485 OA
ATOM     14  C   LIG d   1       3.177  -2.495  -8.869  0.00  0.00     0.128 A 
ATOM     15  C   LIG d   1       3.366  -3.817  -9.259  0.00  0.00    -0.005 A 
ATOM     16  C   LIG d   1       2.545  -1.609  -9.724  0.00  0.00     0.001 A 
ATOM     17  C   LIG d   1       2.912  -4.251 -10.487  0.00  0.00    -0.013 A 
ATOM     18  C   LIG d   1       2.270  -3.365 -11.340  0.00  0.00     0.120 A 
ATOM     19  H   LIG d   1       3.056  -5.279 -10.785  0.00  0.00     0.066 H 
ATOM     20  C   LIG d   1       2.090  -2.046 -10.956  0.00  0.00    -0.002 A 
ATOM     21  C   LIG d   1       2.333  -0.166  -9.343  0.00  0.00    -0.020 C 
ATOM     22  C   LIG d   1       2.477  -0.008  -7.824  0.00  0.00    -0.009 C 
ATOM     23  H   LIG d   1       3.070   0.456  -9.854  0.00  0.00     0.032 H 
ATOM     24  H   LIG d   1       1.331   0.145  -9.639  0.00  0.00     0.032 H 
ATOM     25  H   LIG d   1       1.625  -0.463  -7.319  0.00  0.00     0.031 H 
ATOM     26  H   LIG d   1       2.533   1.050  -7.570  0.00  0.00     0.031 H 
BRANCH  15  27
ATOM     27  C   LIG d   1       4.063  -4.780  -8.334  0.00  0.00    -0.036 C 
ATOM     28  H   LIG d   1       3.837  -4.520  -7.300  0.00  0.00     0.028 H 
ATOM     29  H   LIG d   1       3.718  -5.794  -8.538  0.00  0.00     0.028 H 
ATOM     30  H   LIG d   1       5.140  -4.724  -8.495  0.00  0.00     0.028 H 
ENDBRANCH  15  27
BRANCH  18  31
ATOM     31  O   LIG d   1       1.820  -3.790 -12.551  0.00  0.00    -0.506 OA
ATOM     32  H   LIG d   1       2.445  -4.352 -13.028  0.00  0.00     0.292 HD
ENDBRANCH  18  31
BRANCH  20  33
ATOM     33  C   LIG d   1       1.394  -1.083 -11.883  0.00  0.00    -0.036 C 
ATOM     34  H   LIG d   1       1.162  -0.164 -11.344  0.00  0.00     0.028 H 
ATOM     35  H   LIG d   1       2.045  -0.855 -12.726  0.00  0.00     0.028 H 
ATOM     36  H   LIG d   1       0.470  -1.533 -12.248  0.00  0.00     0.028 H 
ENDBRANCH  20  33
BRANCH  12  37
ATOM     37  C   LIG d   1       4.949  -0.164  -8.200  0.00  0.00    -0.025 C 
ATOM     38  H   LIG d   1       4.845   0.916  -8.307  0.00  0.00     0.027 H 
ATOM     39  H   LIG d   1       5.880  -0.389  -7.680  0.00  0.00     0.027 H 
ATOM     40  H   LIG d   1       4.962  -0.629  -9.187  0.00  0.00     0.027 H 
ENDBRANCH  12  37
ENDBRANCH   9  12
ENDBRANCH   6   9
ENDBRANCH   3   6
ENDBRANCH   1   3
BRANCH   1  41
ATOM     41  C   LIG d   1       3.583  -2.107  -2.384  0.00  0.00    -0.062 C 
ATOM     42  H   LIG d   1       3.053  -1.947  -1.446  0.00  0.00     0.023 H 
ATOM     43  H   LIG d   1       3.042  -2.836  -2.987  0.00  0.00     0.023 H 
ATOM     44  H   LIG d   1       4.586  -2.481  -2.176  0.00  0.00     0.023 H 
ENDBRANCH   1  41
BRANCH   1  45
ATOM     45  C   LIG d   1       3.823   0.370  -2.154  0.00  0.00    -0.051 C 
ATOM     46  H   LIG d   1       3.244   1.224  -2.503  0.00  0.00     0.027 H 
ATOM     47  H   LIG d   1       3.456   0.056  -1.176  0.00  0.00     0.027 H 
BRANCH  45  48
ATOM     48  C   LIG d   1       5.297   0.766  -2.040  0.00  0.00    -0.053 C 
ATOM     49  H   LIG d   1       5.449   1.344  -1.128  0.00  0.00     0.026 H 
ATOM     50  H   LIG d   1       5.914  -0.133  -2.007  0.00  0.00     0.026 H 
BRANCH  48  51
ATOM     51  C   LIG d   1       5.693   1.611  -3.252  0.00  0.00    -0.051 C 
ATOM     52  H   LIG d   1       4.854   1.668  -3.945  0.00  0.00     0.027 H 
ATOM     53  H   LIG d   1       5.961   2.614  -2.922  0.00  0.00     0.027 H 
BRANCH  51  54
ATOM     54  C   LIG d   1       6.891   0.967  -3.953  0.00  0.00    -0.044 C 
ATOM     55  H   LIG d   1       6.690   0.894  -5.022  0.00  0.00     0.030 H 
BRANCH  54  56
ATOM     56  C   LIG d   1       8.137   1.825  -3.726  0.00  0.00    -0.062 C 
ATOM     57  H   LIG d   1       8.819   1.305  -3.055  0.00  0.00     0.023 H 
ATOM     58  H   LIG d   1       8.633   2.006  -4.679  0.00  0.00     0.023 H 
ATOM     59  H   LIG d   1       7.847   2.778  -3.281  0.00  0.00     0.023 H 
ENDBRANCH  54  56
BRANCH  54  60
ATOM     60  C   LIG d   1       7.124  -0.432  -3.382  0.00  0.00    -0.051 C 
ATOM     61  H   LIG d   1       7.996  -0.418  -2.728  0.00  0.00     0.027 H 
ATOM     62  H   LIG d   1       6.248  -0.743  -2.812  0.00  0.00     0.027 H 
BRANCH  60  63
ATOM     63  C   LIG d   1       7.363  -1.418  -4.528  0.00  0.00    -0.053 C 
ATOM     64  H   LIG d   1       6.675  -1.199  -5.345  0.00  0.00     0.026 H 
ATOM     65  H   LIG d   1       8.389  -1.322  -4.882  0.00  0.00     0.026 H 
BRANCH  63  66
ATOM     66  C   LIG d   1       7.126  -2.846  -4.031  0.00  0.00    -0.051 C 
ATOM     67  H   LIG d   1       8.065  -3.264  -3.668  0.00  0.00     0.027 H 
ATOM     68  H   LIG d   1       6.397  -2.833  -3.221  0.00  0.00     0.027 H 
BRANCH  66  69
ATOM     69  C   LIG d   1       6.595  -3.705  -5.181  0.00  0.00    -0.047 C 
ATOM     70  H   LIG d   1       7.116  -4.663  -5.188  0.00  0.00     0.029 H 
BRANCH  69  71
ATOM     71  C   LIG d   1       5.096  -3.939  -4.992  0.00  0.00    -0.063 C 
ATOM     72  H   LIG d   1       4.611  -3.993  -5.967  0.00  0.00     0.023 H 
ATOM     73  H   LIG d   1       4.939  -4.876  -4.457  0.00  0.00     0.023 H 
ATOM     74  H   LIG d   1       4.669  -3.117  -4.418  0.00  0.00     0.023 H 
ENDBRANCH  69  71
BRANCH  69  75
ATOM     75  C   LIG d   1       6.837  -2.984  -6.509  0.00  0.00    -0.063 C 
ATOM     76  H   LIG d   1       6.383  -1.994  -6.473  0.00  0.00     0.023 H 
ATOM     77  H   LIG d   1       7.909  -2.886  -6.678  0.00  0.00     0.023 H 
ATOM     78  H   LIG d   1       6.392  -3.559  -7.320  0.00  0.00     0.023 H 
ENDBRANCH  69  75
ENDBRANCH  66  69
ENDBRANCH  63  66
ENDBRANCH  60  63
ENDBRANCH  54  60
ENDBRANCH  51  54
ENDBRANCH  48  51
ENDBRANCH  45  48
ENDBRANCH   1  45
TORSDOF 20
ENDMDL
MODEL 8
REMARK VINA RESULT:      -5.1      1.309      2.014
REMARK  20 active torsions:
REMARK  status: ('A' for Active; 'I' for Inactive)
REMARK    1  A    between atoms: C_1  and  C_2 
REMARK    2  A    between atoms: C_4  and  O_32 
REMARK    3  A    between atoms: C_5  and  C_31 
REMARK    4  A    between atoms: C_9  and  C_12 
REMARK    5  A    between atoms: C_9  and  C_13 
REMARK    6  A    between atoms: C_13  and  C_14 
REMARK    7  A    between atoms: C_14  and  C_15 
REMARK    8  A    between atoms: C_15  and  C_16 
REMARK    9  A    between atoms: C_16  and  C_18 
REMARK   10  A    between atoms: C_16  and  C_19 
REMARK   11  A    between atoms: C_19  and  C_20 
REMARK   12  A    between atoms: C_20  and  C_21 
REMARK   13  A    between atoms: C_21  and  C_22 
REMARK   14  A    between atoms: C_22  and  C_24 
REMARK   15  A    between atoms: C_22  and  C_25 
REMARK   16  A    between atoms: C_25  and  C_26 
REMARK   17  A    between atoms: C_26  and  C_27 
REMARK   18  A    between atoms: C_27  and  C_28 
REMARK   19  A    between atoms: C_28  and  C_29 
REMARK   20  A    between atoms: C_28  and  C_30 
ROOT
ATOM      1  C   LIG d   1       3.999  -0.808  -3.022  0.00  0.00    -0.044 C 
ATOM      2  H   LIG d   1       4.951  -1.008  -3.511  0.00  0.00     0.030 H 
ENDROOT
BRANCH   1   3
ATOM      3  C   LIG d   1       2.925  -0.551  -4.080  0.00  0.00    -0.050 C 
ATOM      4  H   LIG d   1       2.308   0.294  -3.775  0.00  0.00     0.027 H 
ATOM      5  H   LIG d   1       2.299  -1.437  -4.186  0.00  0.00     0.027 H 
BRANCH   3   6
ATOM      6  C   LIG d   1       3.595  -0.236  -5.420  0.00  0.00    -0.049 C 
ATOM      7  H   LIG d   1       3.638  -1.141  -6.026  0.00  0.00     0.027 H 
ATOM      8  H   LIG d   1       4.605   0.133  -5.244  0.00  0.00     0.027 H 
BRANCH   6   9
ATOM      9  C   LIG d   1       2.784   0.832  -6.157  0.00  0.00    -0.013 C 
ATOM     10  H   LIG d   1       3.046   1.818  -5.770  0.00  0.00     0.030 H 
ATOM     11  H   LIG d   1       1.720   0.653  -6.002  0.00  0.00     0.030 H 
BRANCH   9  12
ATOM     12  C   LIG d   1       3.100   0.771  -7.652  0.00  0.00     0.108 C 
ATOM     13  O   LIG d   1       4.490   0.505  -7.840  0.00  0.00    -0.485 OA
ATOM     14  C   LIG d   1       4.914   0.187  -9.093  0.00  0.00     0.128 A 
ATOM     15  C   LIG d   1       6.272   0.276  -9.375  0.00  0.00    -0.005 A 
ATOM     16  C   LIG d   1       4.031  -0.218 -10.079  0.00  0.00     0.001 A 
ATOM     17  C   LIG d   1       6.745  -0.053 -10.628  0.00  0.00    -0.013 A 
ATOM     18  C   LIG d   1       5.862  -0.467 -11.614  0.00  0.00     0.120 A 
ATOM     19  H   LIG d   1       7.802   0.013 -10.843  0.00  0.00     0.066 H 
ATOM     20  C   LIG d   1       4.507  -0.548 -11.336  0.00  0.00    -0.002 A 
ATOM     21  C   LIG d   1       2.550  -0.315  -9.816  0.00  0.00    -0.020 C 
ATOM     22  C   LIG d   1       2.298  -0.362  -8.303  0.00  0.00    -0.009 C 
ATOM     23  H   LIG d   1       2.047   0.550 -10.250  0.00  0.00     0.032 H 
ATOM     24  H   LIG d   1       2.159  -1.226 -10.270  0.00  0.00     0.032 H 
ATOM     25  H   LIG d   1       2.623  -1.322  -7.900  0.00  0.00     0.031 H 
ATOM     26  H   LIG d   1       1.235  -0.222  -8.106  0.00  0.00     0.031 H 
BRANCH  15  27
ATOM     27  C   LIG d   1       7.234   0.727  -8.305  0.00  0.00    -0.036 C 
ATOM     28  H   LIG d   1       6.751   1.472  -7.674  0.00  0.00     0.028 H 
ATOM     29  H   LIG d   1       7.529  -0.129  -7.698  0.00  0.00     0.028 H 
ATOM     30  H   LIG d   1       8.117   1.163  -8.772  0.00  0.00     0.028 H 
ENDBRANCH  15  27
BRANCH  18  31
ATOM     31  O   LIG d   1       6.324  -0.793 -12.851  0.00  0.00    -0.506 OA
ATOM     32  H   LIG d   1       6.658  -0.041 -13.357  0.00  0.00     0.292 HD
ENDBRANCH  18  31
BRANCH  20  33
ATOM     33  C   LIG d   1       3.547  -0.997 -12.407  0.00  0.00    -0.036 C 
ATOM     34  H   LIG d   1       3.950  -1.874 -12.913  0.00  0.00     0.028 H 
ATOM     35  H   LIG d   1       2.588  -1.248 -11.954  0.00  0.00     0.028 H 
ATOM     36  H   LIG d   1       3.408  -0.193 -13.131  0.00  0.00     0.028 H 
ENDBRANCH  20  33
BRANCH  12  37
ATOM     37  C   LIG d   1       2.737   2.103  -8.311  0.00  0.00    -0.025 C 
ATOM     38  H   LIG d   1       2.433   2.817  -7.546  0.00  0.00     0.027 H 
ATOM     39  H   LIG d   1       3.605   2.493  -8.844  0.00  0.00     0.027 H 
ATOM     40  H   LIG d   1       1.918   1.951  -9.014  0.00  0.00     0.027 H 
ENDBRANCH  12  37
ENDBRANCH   9  12
ENDBRANCH   6   9
ENDBRANCH   3   6
ENDBRANCH   1   3
BRANCH   1  41
ATOM     41  C   LIG d   1       3.598  -2.016  -2.172  0.00  0.00    -0.062 C 
ATOM     42  H   LIG d   1       2.669  -2.437  -2.555  0.00  0.00     0.023 H 
ATOM     43  H   LIG d   1       4.384  -2.770  -2.219  0.00  0.00     0.023 H 
ATOM     44  H   LIG d   1       3.457  -1.702  -1.138  0.00  0.00     0.023 H 
ENDBRANCH   1  41
BRANCH   1  45
ATOM     45  C   LIG d   1       4.135   0.424  -2.124  0.00  0.00    -0.051 C 
ATOM     46  H   LIG d   1       3.250   1.050  -2.231  0.00  0.00     0.027 H 
ATOM     47  H   LIG d   1       4.235   0.109  -1.086  0.00  0.00     0.027 H 
BRANCH  45  48
ATOM     48  C   LIG d   1       5.375   1.220  -2.536  0.00  0.00    -0.053 C 
ATOM     49  H   LIG d   1       5.128   1.870  -3.375  0.00  0.00     0.026 H 
ATOM     50  H   LIG d   1       5.714   1.827  -1.695  0.00  0.00     0.026 H 
BRANCH  48  51
ATOM     51  C   LIG d   1       6.488   0.255  -2.948  0.00  0.00    -0.051 C 
ATOM     52  H   LIG d   1       7.276   0.268  -2.195  0.00  0.00     0.027 H 
ATOM     53  H   LIG d   1       6.081  -0.752  -3.031  0.00  0.00     0.027 H 
BRANCH  51  54
ATOM     54  C   LIG d   1       7.064   0.686  -4.298  0.00  0.00    -0.044 C 
ATOM     55  H   LIG d   1       6.249   0.959  -4.969  0.00  0.00     0.030 H 
BRANCH  54  56
ATOM     56  C   LIG d   1       7.987   1.889  -4.099  0.00  0.00    -0.062 C 
ATOM     57  H   LIG d   1       8.183   2.360  -5.061  0.00  0.00     0.023 H 
ATOM     58  H   LIG d   1       7.508   2.608  -3.433  0.00  0.00     0.023 H 
ATOM     59  H   LIG d   1       8.927   1.557  -3.657  0.00  0.00     0.023 H 
ENDBRANCH  54  56
BRANCH  54  60
ATOM     60  C   LIG d   1       7.858  -0.471  -4.906  0.00  0.00    -0.051 C 
ATOM     61  H   LIG d   1       8.153  -0.214  -5.924  0.00  0.00     0.027 H 
ATOM     62  H   LIG d   1       8.748  -0.657  -4.305  0.00  0.00     0.027 H 
BRANCH  60  63
ATOM     63  C   LIG d   1       6.988  -1.730  -4.930  0.00  0.00    -0.053 C 
ATOM     64  H   LIG d   1       7.521  -2.549  -4.447  0.00  0.00     0.026 H 
ATOM     65  H   LIG d   1       6.057  -1.539  -4.396  0.00  0.00     0.026 H 
BRANCH  63  66
ATOM     66  C   LIG d   1       6.677  -2.108  -6.379  0.00  0.00    -0.051 C 
ATOM     67  H   LIG d   1       6.152  -1.284  -6.865  0.00  0.00     0.027 H 
ATOM     68  H   LIG d   1       7.607  -2.310  -6.911  0.00  0.00     0.027 H 
BRANCH  66  69
ATOM     69  C   LIG d   1       5.794  -3.358  -6.403  0.00  0.00    -0.047 C 
ATOM     70  H   LIG d   1       6.380  -4.209  -6.752  0.00  0.00     0.029 H 
BRANCH  69  71
ATOM     71  C   LIG d   1       5.274  -3.641  -4.993  0.00  0.00    -0.063 C 
ATOM     72  H   LIG d   1       5.459  -2.776  -4.357  0.00  0.00     0.023 H 
ATOM     73  H   LIG d   1       4.203  -3.839  -5.034  0.00  0.00     0.023 H 
ATOM     74  H   LIG d   1       5.788  -4.511  -4.584  0.00  0.00     0.023 H 
ENDBRANCH  69  71
BRANCH  69  75
ATOM     75  C   LIG d   1       4.613  -3.130  -7.348  0.00  0.00    -0.063 C 
ATOM     76  H   LIG d   1       4.429  -4.035  -7.925  0.00  0.00     0.023 H 
ATOM     77  H   LIG d   1       3.725  -2.884  -6.765  0.00  0.00     0.023 H 
ATOM     78  H   LIG d   1       4.843  -2.307  -8.024  0.00  0.00     0.023 H 
ENDBRANCH  69  75
ENDBRANCH  66  69
ENDBRANCH  63  66
ENDBRANCH  60  63
ENDBRANCH  54  60
ENDBRANCH  51  54
ENDBRANCH  48  51
ENDBRANCH  45  48
ENDBRANCH   1  45
TORSDOF 20
ENDMDL
MODEL 9
REMARK VINA RESULT:      -5.1      3.449      6.149
REMARK  20 active torsions:
REMARK  status: ('A' for Active; 'I' for Inactive)
REMARK    1  A    between atoms: C_1  and  C_2 
REMARK    2  A    between atoms: C_4  and  O_32 
REMARK    3  A    between atoms: C_5  and  C_31 
REMARK    4  A    between atoms: C_9  and  C_12 
REMARK    5  A    between atoms: C_9  and  C_13 
REMARK    6  A    between atoms: C_13  and  C_14 
REMARK    7  A    between atoms: C_14  and  C_15 
REMARK    8  A    between atoms: C_15  and  C_16 
REMARK    9  A    between atoms: C_16  and  C_18 
REMARK   10  A    between atoms: C_16  and  C_19 
REMARK   11  A    between atoms: C_19  and  C_20 
REMARK   12  A    between atoms: C_20  and  C_21 
REMARK   13  A    between atoms: C_21  and  C_22 
REMARK   14  A    between atoms: C_22  and  C_24 
REMARK   15  A    between atoms: C_22  and  C_25 
REMARK   16  A    between atoms: C_25  and  C_26 
REMARK   17  A    between atoms: C_26  and  C_27 
REMARK   18  A    between atoms: C_27  and  C_28 
REMARK   19  A    between atoms: C_28  and  C_29 
REMARK   20  A    between atoms: C_28  and  C_30 
ROOT
ATOM      1  C   LIG d   1       3.621  -0.706  -6.510  0.00  0.00    -0.044 C 
ATOM      2  H   LIG d   1       3.161  -1.659  -6.250  0.00  0.00     0.030 H 
ENDROOT
BRANCH   1   3
ATOM      3  C   LIG d   1       5.064  -0.941  -6.958  0.00  0.00    -0.050 C 
ATOM      4  H   LIG d   1       5.165  -0.683  -8.011  0.00  0.00     0.027 H 
ATOM      5  H   LIG d   1       5.323  -1.991  -6.816  0.00  0.00     0.027 H 
BRANCH   3   6
ATOM      6  C   LIG d   1       6.006  -0.067  -6.126  0.00  0.00    -0.049 C 
ATOM      7  H   LIG d   1       6.008  -0.416  -5.094  0.00  0.00     0.027 H 
ATOM      8  H   LIG d   1       5.666   0.968  -6.160  0.00  0.00     0.027 H 
BRANCH   6   9
ATOM      9  C   LIG d   1       7.423  -0.156  -6.697  0.00  0.00    -0.013 C 
ATOM     10  H   LIG d   1       7.407   0.113  -7.754  0.00  0.00     0.030 H 
ATOM     11  H   LIG d   1       7.795  -1.175  -6.588  0.00  0.00     0.030 H 
BRANCH   9  12
ATOM     12  C   LIG d   1       8.340   0.805  -5.940  0.00  0.00     0.108 C 
ATOM     13  O   LIG d   1       8.567   1.974  -6.728  0.00  0.00    -0.485 OA
ATOM     14  C   LIG d   1       9.167   3.038  -6.131  0.00  0.00     0.128 A 
ATOM     15  C   LIG d   1       9.717   4.028  -6.938  0.00  0.00    -0.005 A 
ATOM     16  C   LIG d   1       9.240   3.154  -4.754  0.00  0.00     0.001 A 
ATOM     17  C   LIG d   1      10.320   5.132  -6.372  0.00  0.00    -0.013 A 
ATOM     18  C   LIG d   1      10.385   5.252  -4.991  0.00  0.00     0.120 A 
ATOM     19  H   LIG d   1      10.742   5.901  -7.002  0.00  0.00     0.066 H 
ATOM     20  C   LIG d   1       9.846   4.262  -4.187  0.00  0.00    -0.002 A 
ATOM     21  C   LIG d   1       8.668   2.096  -3.845  0.00  0.00    -0.020 C 
ATOM     22  C   LIG d   1       7.672   1.230  -4.627  0.00  0.00    -0.009 C 
ATOM     23  H   LIG d   1       9.477   1.475  -3.457  0.00  0.00     0.032 H 
ATOM     24  H   LIG d   1       8.148   2.573  -3.014  0.00  0.00     0.032 H 
ATOM     25  H   LIG d   1       6.768   1.802  -4.842  0.00  0.00     0.031 H 
ATOM     26  H   LIG d   1       7.417   0.347  -4.041  0.00  0.00     0.031 H 
BRANCH  15  27
ATOM     27  C   LIG d   1       9.647   3.899  -8.438  0.00  0.00    -0.036 C 
ATOM     28  H   LIG d   1       9.279   4.830  -8.867  0.00  0.00     0.028 H 
ATOM     29  H   LIG d   1      10.641   3.685  -8.831  0.00  0.00     0.028 H 
ATOM     30  H   LIG d   1       8.970   3.085  -8.701  0.00  0.00     0.028 H 
ENDBRANCH  15  27
BRANCH  18  31
ATOM     31  O   LIG d   1      10.978   6.339  -4.429  0.00  0.00    -0.506 OA
ATOM     32  H   LIG d   1      10.392   7.102  -4.333  0.00  0.00     0.292 HD
ENDBRANCH  18  31
BRANCH  20  33
ATOM     33  C   LIG d   1       9.918   4.392  -2.687  0.00  0.00    -0.036 C 
ATOM     34  H   LIG d   1       9.478   3.508  -2.224  0.00  0.00     0.028 H 
ATOM     35  H   LIG d   1      10.959   4.482  -2.379  0.00  0.00     0.028 H 
ATOM     36  H   LIG d   1       9.367   5.278  -2.372  0.00  0.00     0.028 H 
ENDBRANCH  20  33
BRANCH  12  37
ATOM     37  C   LIG d   1       9.674   0.119  -5.641  0.00  0.00    -0.025 C 
ATOM     38  H   LIG d   1       9.524  -0.654  -4.887  0.00  0.00     0.027 H 
ATOM     39  H   LIG d   1      10.061  -0.335  -6.553  0.00  0.00     0.027 H 
ATOM     40  H   LIG d   1      10.387   0.856  -5.271  0.00  0.00     0.027 H 
ENDBRANCH  12  37
ENDBRANCH   9  12
ENDBRANCH   6   9
ENDBRANCH   3   6
ENDBRANCH   1   3
BRANCH   1  41
ATOM     41  C   LIG d   1       2.834  -0.054  -7.649  0.00  0.00    -0.062 C 
ATOM     42  H   LIG d   1       3.137   0.988  -7.750  0.00  0.00     0.023 H 
ATOM     43  H   LIG d   1       3.038  -0.582  -8.581  0.00  0.00     0.023 H 
ATOM     44  H   LIG d   1       1.768  -0.104  -7.429  0.00  0.00     0.023 H 
ENDBRANCH   1  41
BRANCH   1  45
ATOM     45  C   LIG d   1       3.610   0.216  -5.289  0.00  0.00    -0.051 C 
ATOM     46  H   LIG d   1       4.448  -0.033  -4.638  0.00  0.00     0.027 H 
ATOM     47  H   LIG d   1       3.698   1.253  -5.614  0.00  0.00     0.027 H 
BRANCH  45  48
ATOM     48  C   LIG d   1       2.298   0.033  -4.523  0.00  0.00    -0.053 C 
ATOM     49  H   LIG d   1       1.759   0.980  -4.495  0.00  0.00     0.026 H 
ATOM     50  H   LIG d   1       1.686  -0.718  -5.024  0.00  0.00     0.026 H 
BRANCH  48  51
ATOM     51  C   LIG d   1       2.600  -0.426  -3.095  0.00  0.00    -0.051 C 
ATOM     52  H   LIG d   1       2.038   0.187  -2.391  0.00  0.00     0.027 H 
ATOM     53  H   LIG d   1       2.309  -1.470  -2.981  0.00  0.00     0.027 H 
BRANCH  51  54
ATOM     54  C   LIG d   1       4.097  -0.281  -2.818  0.00  0.00    -0.044 C 
ATOM     55  H   LIG d   1       4.620  -0.063  -3.750  0.00  0.00     0.030 H 
BRANCH  54  56
ATOM     56  C   LIG d   1       4.325   0.861  -1.826  0.00  0.00    -0.062 C 
ATOM     57  H   LIG d   1       4.802   0.472  -0.928  0.00  0.00     0.023 H 
ATOM     58  H   LIG d   1       4.966   1.616  -2.281  0.00  0.00     0.023 H 
ATOM     59  H   LIG d   1       3.367   1.311  -1.563  0.00  0.00     0.023 H 
ENDBRANCH  54  56
BRANCH  54  60
ATOM     60  C   LIG d   1       4.635  -1.585  -2.227  0.00  0.00    -0.051 C 
ATOM     61  H   LIG d   1       5.280  -1.360  -1.377  0.00  0.00     0.027 H 
ATOM     62  H   LIG d   1       3.802  -2.206  -1.898  0.00  0.00     0.027 H 
BRANCH  60  63
ATOM     63  C   LIG d   1       5.440  -2.335  -3.292  0.00  0.00    -0.053 C 
ATOM     64  H   LIG d   1       5.324  -3.409  -3.145  0.00  0.00     0.026 H 
ATOM     65  H   LIG d   1       5.073  -2.063  -4.283  0.00  0.00     0.026 H 
BRANCH  63  66
ATOM     66  C   LIG d   1       6.918  -1.960  -3.174  0.00  0.00    -0.051 C 
ATOM     67  H   LIG d   1       7.040  -0.897  -3.382  0.00  0.00     0.027 H 
ATOM     68  H   LIG d   1       7.268  -2.175  -2.163  0.00  0.00     0.027 H 
BRANCH  66  69
ATOM     69  C   LIG d   1       7.733  -2.774  -4.180  0.00  0.00    -0.047 C 
ATOM     70  H   LIG d   1       8.221  -2.098  -4.884  0.00  0.00     0.029 H 
BRANCH  69  71
ATOM     71  C   LIG d   1       8.793  -3.589  -3.437  0.00  0.00    -0.063 C 
ATOM     72  H   LIG d   1       8.882  -3.224  -2.415  0.00  0.00     0.023 H 
ATOM     73  H   LIG d   1       8.501  -4.639  -3.424  0.00  0.00     0.023 H 
ATOM     74  H   LIG d   1       9.752  -3.486  -3.945  0.00  0.00     0.023 H 
ENDBRANCH  69  71
BRANCH  69  75
ATOM     75  C   LIG d   1       6.803  -3.720  -4.943  0.00  0.00    -0.063 C 
ATOM     76  H   LIG d   1       5.845  -3.782  -4.428  0.00  0.00     0.023 H 
ATOM     77  H   LIG d   1       6.649  -3.340  -5.953  0.00  0.00     0.023 H 
ATOM     78  H   LIG d   1       7.255  -4.711  -4.992  0.00  0.00     0.023 H 
ENDBRANCH  69  75
ENDBRANCH  66  69
ENDBRANCH  63  66
ENDBRANCH  60  63
ENDBRANCH  54  60
ENDBRANCH  51  54
ENDBRANCH  48  51
ENDBRANCH  45  48
ENDBRANCH   1  45
TORSDOF 20
ENDMDL
