MODEL 1
REMARK VINA RESULT:      -6.5      0.000      0.000
REMARK  9 active torsions:
REMARK  status: ('A' for Active; 'I' for Inactive)
REMARK    1  A    between atoms: C_1  and  C_2 
REMARK    2  A    between atoms: C_2  and  C_3 
REMARK    3  A    between atoms: C_3  and  C_5 
REMARK    4  A    between atoms: C_3  and  C_6 
REMARK    5  A    between atoms: C_6  and  C_8 
REMARK    6  A    between atoms: C_6  and  N_21 
REMARK       I    between atoms: C_8  and  N_10 
REMARK       I    between atoms: N_10  and  C_11 
REMARK       I    between atoms: C_11  and  N_13 
REMARK    7  A    between atoms: N_13  and  C_14 
REMARK    8  A    between atoms: C_14  and  C_15 
REMARK       I    between atoms: N_21  and  C_22 
REMARK    9  A    between atoms: C_22  and  C_24 
ROOT
ATOM      1  C   LIG d   1       3.248  -1.366 -10.489  0.00  0.00     0.102 C 
ATOM      2  H   LIG d   1       4.277  -1.544 -10.802  0.00  0.00     0.060 H 
ENDROOT
BRANCH   1   3
ATOM      3  C   LIG d   1       2.441  -0.826 -11.671  0.00  0.00    -0.017 C 
ATOM      4  H   LIG d   1       2.534   0.259 -11.710  0.00  0.00     0.032 H 
BRANCH   3   5
ATOM      5  C   LIG d   1       0.968  -1.205 -11.499  0.00  0.00    -0.051 C 
ATOM      6  H   LIG d   1       0.861  -1.860 -10.634  0.00  0.00     0.027 H 
ATOM      7  H   LIG d   1       0.376  -0.303 -11.349  0.00  0.00     0.027 H 
BRANCH   5   8
ATOM      8  C   LIG d   1       0.479  -1.933 -12.754  0.00  0.00    -0.065 C 
ATOM      9  H   LIG d   1       0.490  -3.008 -12.578  0.00  0.00     0.023 H 
ATOM     10  H   LIG d   1      -0.537  -1.613 -12.987  0.00  0.00     0.023 H 
ATOM     11  H   LIG d   1       1.136  -1.695 -13.590  0.00  0.00     0.023 H 
ENDBRANCH   5   8
ENDBRANCH   3   5
BRANCH   3  12
ATOM     12  C   LIG d   1       2.974  -1.431 -12.972  0.00  0.00    -0.060 C 
ATOM     13  H   LIG d   1       3.240  -0.630 -13.662  0.00  0.00     0.023 H 
ATOM     14  H   LIG d   1       3.856  -2.034 -12.757  0.00  0.00     0.023 H 
ATOM     15  H   LIG d   1       2.206  -2.059 -13.423  0.00  0.00     0.023 H 
ENDBRANCH   3  12
ENDBRANCH   1   3
BRANCH   1  16
ATOM     16  C   LIG d   1       3.231  -0.360  -9.368  0.00  0.00     0.241 C 
ATOM     17  O   LIG d   1       3.585   0.781  -9.571  0.00  0.00    -0.273 OA
ATOM     18  N   LIG d   1       2.823  -0.730  -8.137  0.00  0.00    -0.239 N 
ATOM     19  C   LIG d   1       2.808   0.171  -7.134  0.00  0.00     0.306 C 
ATOM     20  H   LIG d   1       2.540  -1.643  -7.974  0.00  0.00     0.159 HD
ATOM     21  O   LIG d   1       3.163   1.315  -7.338  0.00  0.00    -0.252 OA
ATOM     22  N   LIG d   1       2.400  -0.199  -5.903  0.00  0.00    -0.295 N 
ATOM     23  H   LIG d   1       2.116  -1.112  -5.740  0.00  0.00     0.151 HD
BRANCH  22  24
ATOM     24  C   LIG d   1       2.383   0.780  -4.813  0.00  0.00     0.038 C 
ATOM     25  H   LIG d   1       2.840   1.709  -5.153  0.00  0.00     0.051 H 
ATOM     26  H   LIG d   1       1.353   0.970  -4.511  0.00  0.00     0.051 H 
BRANCH  24  27
ATOM     27  C   LIG d   1       3.159   0.238  -3.641  0.00  0.00    -0.030 A 
ATOM     28  C   LIG d   1       3.829   1.103  -2.796  0.00  0.00    -0.057 A 
ATOM     29  C   LIG d   1       4.542   0.606  -1.721  0.00  0.00    -0.061 A 
ATOM     30  H   LIG d   1       3.798   2.167  -2.977  0.00  0.00     0.062 H 
ATOM     31  C   LIG d   1       4.583  -0.756  -1.490  0.00  0.00    -0.062 A 
ATOM     32  H   LIG d   1       5.065   1.282  -1.061  0.00  0.00     0.062 H 
ATOM     33  C   LIG d   1       3.912  -1.621  -2.333  0.00  0.00    -0.061 A 
ATOM     34  H   LIG d   1       5.139  -1.145  -0.649  0.00  0.00     0.062 H 
ATOM     35  C   LIG d   1       3.196  -1.124  -3.406  0.00  0.00    -0.057 A 
ATOM     36  H   LIG d   1       3.944  -2.686  -2.152  0.00  0.00     0.062 H 
ATOM     37  H   LIG d   1       2.668  -1.800  -4.063  0.00  0.00     0.062 H 
ENDBRANCH  24  27
ENDBRANCH  22  24
ENDBRANCH   1  16
BRANCH   1  38
ATOM     38  N   LIG d   1       2.655  -2.623 -10.026  0.00  0.00    -0.304 N 
ATOM     39  C   LIG d   1       3.377  -3.762 -10.060  0.00  0.00     0.210 C 
ATOM     40  O   LIG d   1       4.518  -3.744 -10.473  0.00  0.00    -0.276 OA
ATOM     41  H   LIG d   1       1.744  -2.637  -9.696  0.00  0.00     0.149 HD
BRANCH  39  42
ATOM     42  C   LIG d   1       2.770  -5.053  -9.579  0.00  0.00     0.012 C 
ATOM     43  H   LIG d   1       2.427  -5.635 -10.435  0.00  0.00     0.032 H 
ATOM     44  H   LIG d   1       3.518  -5.624  -9.028  0.00  0.00     0.032 H 
ATOM     45  H   LIG d   1       1.924  -4.836  -8.926  0.00  0.00     0.032 H 
ENDBRANCH  39  42
ENDBRANCH   1  38
TORSDOF 9
ENDMDL
MODEL 2
REMARK VINA RESULT:      -6.4      2.528      7.664
REMARK  9 active torsions:
REMARK  status: ('A' for Active; 'I' for Inactive)
REMARK    1  A    between atoms: C_1  and  C_2 
REMARK    2  A    between atoms: C_2  and  C_3 
REMARK    3  A    between atoms: C_3  and  C_5 
REMARK    4  A    between atoms: C_3  and  C_6 
REMARK    5  A    between atoms: C_6  and  C_8 
REMARK    6  A    between atoms: C_6  and  N_21 
REMARK       I    between atoms: C_8  and  N_10 
REMARK       I    between atoms: N_10  and  C_11 
REMARK       I    between atoms: C_11  and  N_13 
REMARK    7  A    between atoms: N_13  and  C_14 
REMARK    8  A    between atoms: C_14  and  C_15 
REMARK       I    between atoms: N_21  and  C_22 
REMARK    9  A    between atoms: C_22  and  C_24 
ROOT
ATOM      1  C   LIG d   1       4.910  -1.699  -4.281  0.00  0.00     0.102 C 
ATOM      2  H   LIG d   1       4.504  -2.670  -4.566  0.00  0.00     0.060 H 
ENDROOT
BRANCH   1   3
ATOM      3  C   LIG d   1       4.133  -1.153  -3.081  0.00  0.00    -0.017 C 
ATOM      4  H   LIG d   1       3.260  -0.604  -3.433  0.00  0.00     0.032 H 
BRANCH   3   5
ATOM      5  C   LIG d   1       5.035  -0.214  -2.275  0.00  0.00    -0.051 C 
ATOM      6  H   LIG d   1       5.339  -0.708  -1.352  0.00  0.00     0.027 H 
ATOM      7  H   LIG d   1       5.917   0.035  -2.863  0.00  0.00     0.027 H 
BRANCH   5   8
ATOM      8  C   LIG d   1       4.267   1.066  -1.940  0.00  0.00    -0.065 C 
ATOM      9  H   LIG d   1       4.839   1.658  -1.226  0.00  0.00     0.023 H 
ATOM     10  H   LIG d   1       4.112   1.646  -2.851  0.00  0.00     0.023 H 
ATOM     11  H   LIG d   1       3.301   0.808  -1.506  0.00  0.00     0.023 H 
ENDBRANCH   5   8
ENDBRANCH   3   5
BRANCH   3  12
ATOM     12  C   LIG d   1       3.683  -2.315  -2.193  0.00  0.00    -0.060 C 
ATOM     13  H   LIG d   1       4.105  -3.245  -2.572  0.00  0.00     0.023 H 
ATOM     14  H   LIG d   1       4.028  -2.147  -1.173  0.00  0.00     0.023 H 
ATOM     15  H   LIG d   1       2.595  -2.379  -2.203  0.00  0.00     0.023 H 
ENDBRANCH   3  12
ENDBRANCH   1   3
BRANCH   1  16
ATOM     16  C   LIG d   1       4.783  -0.743  -5.439  0.00  0.00     0.241 C 
ATOM     17  O   LIG d   1       5.633   0.101  -5.624  0.00  0.00    -0.273 OA
ATOM     18  N   LIG d   1       3.724  -0.826  -6.269  0.00  0.00    -0.239 N 
ATOM     19  C   LIG d   1       3.612   0.029  -7.305  0.00  0.00     0.306 C 
ATOM     20  H   LIG d   1       3.044  -1.501  -6.121  0.00  0.00     0.159 HD
ATOM     21  O   LIG d   1       4.463   0.876  -7.490  0.00  0.00    -0.252 OA
ATOM     22  N   LIG d   1       2.552  -0.054  -8.135  0.00  0.00    -0.295 N 
ATOM     23  H   LIG d   1       1.872  -0.729  -7.987  0.00  0.00     0.151 HD
BRANCH  22  24
ATOM     24  C   LIG d   1       2.430   0.876  -9.260  0.00  0.00     0.038 C 
ATOM     25  H   LIG d   1       1.405   1.242  -9.318  0.00  0.00     0.051 H 
ATOM     26  H   LIG d   1       3.109   1.715  -9.114  0.00  0.00     0.051 H 
BRANCH  24  27
ATOM     27  C   LIG d   1       2.781   0.162 -10.540  0.00  0.00    -0.030 A 
ATOM     28  C   LIG d   1       1.937  -0.811 -11.043  0.00  0.00    -0.057 A 
ATOM     29  C   LIG d   1       2.259  -1.465 -12.218  0.00  0.00    -0.061 A 
ATOM     30  H   LIG d   1       1.027  -1.061 -10.518  0.00  0.00     0.062 H 
ATOM     31  C   LIG d   1       3.424  -1.147 -12.889  0.00  0.00    -0.062 A 
ATOM     32  H   LIG d   1       1.600  -2.226 -12.610  0.00  0.00     0.062 H 
ATOM     33  C   LIG d   1       4.267  -0.173 -12.387  0.00  0.00    -0.061 A 
ATOM     34  H   LIG d   1       3.676  -1.658 -13.807  0.00  0.00     0.062 H 
ATOM     35  C   LIG d   1       3.943   0.485 -11.215  0.00  0.00    -0.057 A 
ATOM     36  H   LIG d   1       5.177   0.077 -12.913  0.00  0.00     0.062 H 
ATOM     37  H   LIG d   1       4.600   1.249 -10.825  0.00  0.00     0.062 H 
ENDBRANCH  24  27
ENDBRANCH  22  24
ENDBRANCH   1  16
BRANCH   1  38
ATOM     38  N   LIG d   1       6.322  -1.848  -3.923  0.00  0.00    -0.304 N 
ATOM     39  C   LIG d   1       6.985  -2.976  -4.248  0.00  0.00     0.210 C 
ATOM     40  O   LIG d   1       6.411  -3.867  -4.838  0.00  0.00    -0.276 OA
ATOM     41  H   LIG d   1       6.781  -1.135  -3.451  0.00  0.00     0.149 HD
BRANCH  39  42
ATOM     42  C   LIG d   1       8.439  -3.127  -3.885  0.00  0.00     0.012 C 
ATOM     43  H   LIG d   1       8.757  -2.268  -3.293  0.00  0.00     0.032 H 
ATOM     44  H   LIG d   1       8.576  -4.039  -3.304  0.00  0.00     0.032 H 
ATOM     45  H   LIG d   1       9.037  -3.181  -4.795  0.00  0.00     0.032 H 
ENDBRANCH  39  42
ENDBRANCH   1  38
TORSDOF 9
ENDMDL
MODEL 3
REMARK VINA RESULT:      -6.3      1.583      2.613
REMARK  9 active torsions:
REMARK  status: ('A' for Active; 'I' for Inactive)
REMARK    1  A    between atoms: C_1  and  C_2 
REMARK    2  A    between atoms: C_2  and  C_3 
REMARK    3  A    between atoms: C_3  and  C_5 
REMARK    4  A    between atoms: C_3  and  C_6 
REMARK    5  A    between atoms: C_6  and  C_8 
REMARK    6  A    between atoms: C_6  and  N_21 
REMARK       I    between atoms: C_8  and  N_10 
REMARK       I    between atoms: N_10  and  C_11 
REMARK       I    between atoms: C_11  and  N_13 
REMARK    7  A    between atoms: N_13  and  C_14 
REMARK    8  A    between atoms: C_14  and  C_15 
REMARK       I    between atoms: N_21  and  C_22 
REMARK    9  A    between atoms: C_22  and  C_24 
ROOT
ATOM      1  C   LIG d   1       3.587  -0.592 -10.779  0.00  0.00     0.102 C 
ATOM      2  H   LIG d   1       3.815  -1.610 -10.465  0.00  0.00     0.060 H 
ENDROOT
BRANCH   1   3
ATOM      3  C   LIG d   1       4.767  -0.026 -11.572  0.00  0.00    -0.017 C 
ATOM      4  H   LIG d   1       4.732   1.063 -11.550  0.00  0.00     0.032 H 
BRANCH   3   5
ATOM      5  C   LIG d   1       4.686  -0.509 -13.022  0.00  0.00    -0.051 C 
ATOM      6  H   LIG d   1       3.919  -1.279 -13.106  0.00  0.00     0.027 H 
ATOM      7  H   LIG d   1       4.433   0.329 -13.670  0.00  0.00     0.027 H 
BRANCH   5   8
ATOM      8  C   LIG d   1       6.039  -1.089 -13.442  0.00  0.00    -0.065 C 
ATOM      9  H   LIG d   1       5.880  -1.969 -14.065  0.00  0.00     0.023 H 
ATOM     10  H   LIG d   1       6.595  -0.340 -14.007  0.00  0.00     0.023 H 
ATOM     11  H   LIG d   1       6.605  -1.369 -12.554  0.00  0.00     0.023 H 
ENDBRANCH   5   8
ENDBRANCH   3   5
BRANCH   3  12
ATOM     12  C   LIG d   1       6.079  -0.507 -10.947  0.00  0.00    -0.060 C 
ATOM     13  H   LIG d   1       6.882  -0.418 -11.677  0.00  0.00     0.023 H 
ATOM     14  H   LIG d   1       6.311   0.104 -10.075  0.00  0.00     0.023 H 
ATOM     15  H   LIG d   1       5.976  -1.549 -10.644  0.00  0.00     0.023 H 
ENDBRANCH   3  12
ENDBRANCH   1   3
BRANCH   1  16
ATOM     16  C   LIG d   1       3.340   0.266  -9.565  0.00  0.00     0.241 C 
ATOM     17  O   LIG d   1       3.352   1.473  -9.662  0.00  0.00    -0.273 OA
ATOM     18  N   LIG d   1       3.107  -0.312  -8.368  0.00  0.00    -0.239 N 
ATOM     19  C   LIG d   1       2.886   0.456  -7.283  0.00  0.00     0.306 C 
ATOM     20  H   LIG d   1       3.097  -1.278  -8.290  0.00  0.00     0.159 HD
ATOM     21  O   LIG d   1       2.898   1.667  -7.381  0.00  0.00    -0.252 OA
ATOM     22  N   LIG d   1       2.653  -0.121  -6.086  0.00  0.00    -0.295 N 
ATOM     23  H   LIG d   1       2.643  -1.088  -6.008  0.00  0.00     0.151 HD
BRANCH  22  24
ATOM     24  C   LIG d   1       2.413   0.712  -4.906  0.00  0.00     0.038 C 
ATOM     25  H   LIG d   1       2.759   1.727  -5.102  0.00  0.00     0.051 H 
ATOM     26  H   LIG d   1       1.346   0.729  -4.684  0.00  0.00     0.051 H 
BRANCH  24  27
ATOM     27  C   LIG d   1       3.163   0.144  -3.730  0.00  0.00    -0.030 A 
ATOM     28  C   LIG d   1       3.170  -1.221  -3.507  0.00  0.00    -0.057 A 
ATOM     29  C   LIG d   1       3.859  -1.741  -2.428  0.00  0.00    -0.061 A 
ATOM     30  H   LIG d   1       2.635  -1.879  -4.175  0.00  0.00     0.062 H 
ATOM     31  C   LIG d   1       4.541  -0.898  -1.572  0.00  0.00    -0.062 A 
ATOM     32  H   LIG d   1       3.863  -2.808  -2.254  0.00  0.00     0.062 H 
ATOM     33  C   LIG d   1       4.536   0.466  -1.795  0.00  0.00    -0.061 A 
ATOM     34  H   LIG d   1       5.081  -1.305  -0.728  0.00  0.00     0.062 H 
ATOM     35  C   LIG d   1       3.851   0.987  -2.877  0.00  0.00    -0.057 A 
ATOM     36  H   LIG d   1       5.071   1.124  -1.126  0.00  0.00     0.062 H 
ATOM     37  H   LIG d   1       3.851   2.052  -3.054  0.00  0.00     0.062 H 
ENDBRANCH  24  27
ENDBRANCH  22  24
ENDBRANCH   1  16
BRANCH   1  38
ATOM     38  N   LIG d   1       2.390  -0.599 -11.623  0.00  0.00    -0.304 N 
ATOM     39  C   LIG d   1       1.407  -1.492 -11.392  0.00  0.00     0.210 C 
ATOM     40  O   LIG d   1       1.514  -2.290 -10.484  0.00  0.00    -0.276 OA
ATOM     41  H   LIG d   1       2.304   0.039 -12.349  0.00  0.00     0.149 HD
BRANCH  39  42
ATOM     42  C   LIG d   1       0.173  -1.496 -12.256  0.00  0.00     0.012 C 
ATOM     43  H   LIG d   1      -0.591  -2.123 -11.796  0.00  0.00     0.032 H 
ATOM     44  H   LIG d   1      -0.204  -0.478 -12.356  0.00  0.00     0.032 H 
ATOM     45  H   LIG d   1       0.421  -1.891 -13.242  0.00  0.00     0.032 H 
ENDBRANCH  39  42
ENDBRANCH   1  38
TORSDOF 9
ENDMDL
MODEL 4
REMARK VINA RESULT:      -6.3      1.189      1.578
REMARK  9 active torsions:
REMARK  status: ('A' for Active; 'I' for Inactive)
REMARK    1  A    between atoms: C_1  and  C_2 
REMARK    2  A    between atoms: C_2  and  C_3 
REMARK    3  A    between atoms: C_3  and  C_5 
REMARK    4  A    between atoms: C_3  and  C_6 
REMARK    5  A    between atoms: C_6  and  C_8 
REMARK    6  A    between atoms: C_6  and  N_21 
REMARK       I    between atoms: C_8  and  N_10 
REMARK       I    between atoms: N_10  and  C_11 
REMARK       I    between atoms: C_11  and  N_13 
REMARK    7  A    between atoms: N_13  and  C_14 
REMARK    8  A    between atoms: C_14  and  C_15 
REMARK       I    between atoms: N_21  and  C_22 
REMARK    9  A    between atoms: C_22  and  C_24 
ROOT
ATOM      1  C   LIG d   1       3.962  -0.524 -10.708  0.00  0.00     0.102 C 
ATOM      2  H   LIG d   1       4.865  -0.117 -11.162  0.00  0.00     0.060 H 
ENDROOT
BRANCH   1   3
ATOM      3  C   LIG d   1       2.821  -0.497 -11.727  0.00  0.00    -0.017 C 
ATOM      4  H   LIG d   1       2.589   0.535 -11.987  0.00  0.00     0.032 H 
BRANCH   3   5
ATOM      5  C   LIG d   1       1.581  -1.162 -11.123  0.00  0.00    -0.051 C 
ATOM      6  H   LIG d   1       1.890  -1.969 -10.459  0.00  0.00     0.027 H 
ATOM      7  H   LIG d   1       1.013  -0.424 -10.559  0.00  0.00     0.027 H 
BRANCH   5   8
ATOM      8  C   LIG d   1       0.709  -1.729 -12.245  0.00  0.00    -0.065 C 
ATOM      9  H   LIG d   1       0.880  -1.163 -13.160  0.00  0.00     0.023 H 
ATOM     10  H   LIG d   1       0.966  -2.775 -12.412  0.00  0.00     0.023 H 
ATOM     11  H   LIG d   1      -0.341  -1.653 -11.962  0.00  0.00     0.023 H 
ENDBRANCH   5   8
ENDBRANCH   3   5
BRANCH   3  12
ATOM     12  C   LIG d   1       3.244  -1.258 -12.986  0.00  0.00    -0.060 C 
ATOM     13  H   LIG d   1       4.308  -1.104 -13.162  0.00  0.00     0.023 H 
ATOM     14  H   LIG d   1       3.047  -2.321 -12.851  0.00  0.00     0.023 H 
ATOM     15  H   LIG d   1       2.677  -0.889 -13.841  0.00  0.00     0.023 H 
ENDBRANCH   3  12
ENDBRANCH   1   3
BRANCH   1  16
ATOM     16  C   LIG d   1       3.584   0.309  -9.509  0.00  0.00     0.241 C 
ATOM     17  O   LIG d   1       3.509   1.514  -9.607  0.00  0.00    -0.273 OA
ATOM     18  N   LIG d   1       3.330  -0.288  -8.327  0.00  0.00    -0.239 N 
ATOM     19  C   LIG d   1       2.992   0.457  -7.256  0.00  0.00     0.306 C 
ATOM     20  H   LIG d   1       3.390  -1.253  -8.249  0.00  0.00     0.159 HD
ATOM     21  O   LIG d   1       2.917   1.665  -7.355  0.00  0.00    -0.252 OA
ATOM     22  N   LIG d   1       2.738  -0.140  -6.074  0.00  0.00    -0.295 N 
ATOM     23  H   LIG d   1       2.797  -1.105  -5.995  0.00  0.00     0.151 HD
BRANCH  22  24
ATOM     24  C   LIG d   1       2.370   0.669  -4.910  0.00  0.00     0.038 C 
ATOM     25  H   LIG d   1       2.609   1.715  -5.104  0.00  0.00     0.051 H 
ATOM     26  H   LIG d   1       1.301   0.569  -4.721  0.00  0.00     0.051 H 
BRANCH  24  27
ATOM     27  C   LIG d   1       3.141   0.194  -3.705  0.00  0.00    -0.030 A 
ATOM     28  C   LIG d   1       3.218  -1.158  -3.423  0.00  0.00    -0.057 A 
ATOM     29  C   LIG d   1       3.925  -1.593  -2.317  0.00  0.00    -0.061 A 
ATOM     30  H   LIG d   1       2.724  -1.872  -4.064  0.00  0.00     0.062 H 
ATOM     31  C   LIG d   1       4.555  -0.678  -1.496  0.00  0.00    -0.062 A 
ATOM     32  H   LIG d   1       3.985  -2.649  -2.097  0.00  0.00     0.062 H 
ATOM     33  C   LIG d   1       4.479   0.673  -1.779  0.00  0.00    -0.061 A 
ATOM     34  H   LIG d   1       5.109  -1.019  -0.632  0.00  0.00     0.062 H 
ATOM     35  C   LIG d   1       3.776   1.108  -2.886  0.00  0.00    -0.057 A 
ATOM     36  H   LIG d   1       4.973   1.387  -1.137  0.00  0.00     0.062 H 
ATOM     37  H   LIG d   1       3.721   2.164  -3.110  0.00  0.00     0.062 H 
ENDBRANCH  24  27
ENDBRANCH  22  24
ENDBRANCH   1  16
BRANCH   1  38
ATOM     38  N   LIG d   1       4.208  -1.904 -10.285  0.00  0.00    -0.304 N 
ATOM     39  C   LIG d   1       5.461  -2.400 -10.299  0.00  0.00     0.210 C 
ATOM     40  O   LIG d   1       6.385  -1.702 -10.662  0.00  0.00    -0.276 OA
ATOM     41  H   LIG d   1       3.469  -2.462  -9.995  0.00  0.00     0.149 HD
BRANCH  39  42
ATOM     42  C   LIG d   1       5.716  -3.818  -9.859  0.00  0.00     0.012 C 
ATOM     43  H   LIG d   1       6.096  -3.819  -8.838  0.00  0.00     0.032 H 
ATOM     44  H   LIG d   1       4.785  -4.385  -9.901  0.00  0.00     0.032 H 
ATOM     45  H   LIG d   1       6.451  -4.278 -10.520  0.00  0.00     0.032 H 
ENDBRANCH  39  42
ENDBRANCH   1  38
TORSDOF 9
ENDMDL
MODEL 5
REMARK VINA RESULT:      -6.0      6.183      8.452
REMARK  9 active torsions:
REMARK  status: ('A' for Active; 'I' for Inactive)
REMARK    1  A    between atoms: C_1  and  C_2 
REMARK    2  A    between atoms: C_2  and  C_3 
REMARK    3  A    between atoms: C_3  and  C_5 
REMARK    4  A    between atoms: C_3  and  C_6 
REMARK    5  A    between atoms: C_6  and  C_8 
REMARK    6  A    between atoms: C_6  and  N_21 
REMARK       I    between atoms: C_8  and  N_10 
REMARK       I    between atoms: N_10  and  C_11 
REMARK       I    between atoms: C_11  and  N_13 
REMARK    7  A    between atoms: N_13  and  C_14 
REMARK    8  A    between atoms: C_14  and  C_15 
REMARK       I    between atoms: N_21  and  C_22 
REMARK    9  A    between atoms: C_22  and  C_24 
ROOT
ATOM      1  C   LIG d   1       6.257  -0.555  -3.629  0.00  0.00     0.102 C 
ATOM      2  H   LIG d   1       5.618  -0.951  -4.418  0.00  0.00     0.060 H 
ENDROOT
BRANCH   1   3
ATOM      3  C   LIG d   1       5.393  -0.129  -2.439  0.00  0.00    -0.017 C 
ATOM      4  H   LIG d   1       6.034   0.246  -1.641  0.00  0.00     0.032 H 
BRANCH   3   5
ATOM      5  C   LIG d   1       4.597  -1.334  -1.930  0.00  0.00    -0.051 C 
ATOM      6  H   LIG d   1       5.224  -2.224  -1.966  0.00  0.00     0.027 H 
ATOM      7  H   LIG d   1       4.280  -1.152  -0.905  0.00  0.00     0.027 H 
BRANCH   5   8
ATOM      8  C   LIG d   1       3.366  -1.541  -2.816  0.00  0.00    -0.065 C 
ATOM      9  H   LIG d   1       2.792  -2.391  -2.448  0.00  0.00     0.023 H 
ATOM     10  H   LIG d   1       2.745  -0.645  -2.790  0.00  0.00     0.023 H 
ATOM     11  H   LIG d   1       3.684  -1.733  -3.841  0.00  0.00     0.023 H 
ENDBRANCH   5   8
ENDBRANCH   3   5
BRANCH   3  12
ATOM     12  C   LIG d   1       4.427   0.973  -2.878  0.00  0.00    -0.060 C 
ATOM     13  H   LIG d   1       4.157   0.823  -3.923  0.00  0.00     0.023 H 
ATOM     14  H   LIG d   1       3.529   0.935  -2.261  0.00  0.00     0.023 H 
ATOM     15  H   LIG d   1       4.906   1.944  -2.762  0.00  0.00     0.023 H 
ENDBRANCH   3  12
ENDBRANCH   1   3
BRANCH   1  16
ATOM     16  C   LIG d   1       7.017   0.638  -4.149  0.00  0.00     0.241 C 
ATOM     17  O   LIG d   1       6.757   1.094  -5.241  0.00  0.00    -0.273 OA
ATOM     18  N   LIG d   1       7.989   1.197  -3.399  0.00  0.00    -0.239 N 
ATOM     19  C   LIG d   1       8.668   2.264  -3.865  0.00  0.00     0.306 C 
ATOM     20  H   LIG d   1       8.198   0.832  -2.525  0.00  0.00     0.159 HD
ATOM     21  O   LIG d   1       8.407   2.721  -4.960  0.00  0.00    -0.252 OA
ATOM     22  N   LIG d   1       9.640   2.823  -3.115  0.00  0.00    -0.295 N 
ATOM     23  H   LIG d   1       9.849   2.458  -2.241  0.00  0.00     0.151 HD
BRANCH  22  24
ATOM     24  C   LIG d   1      10.379   3.982  -3.621  0.00  0.00     0.038 C 
ATOM     25  H   LIG d   1      11.421   3.706  -3.783  0.00  0.00     0.051 H 
ATOM     26  H   LIG d   1       9.939   4.311  -4.562  0.00  0.00     0.051 H 
BRANCH  24  27
ATOM     27  C   LIG d   1      10.307   5.100  -2.614  0.00  0.00    -0.030 A 
ATOM     28  C   LIG d   1      10.964   4.984  -1.403  0.00  0.00    -0.057 A 
ATOM     29  C   LIG d   1      10.898   6.011  -0.479  0.00  0.00    -0.061 A 
ATOM     30  H   LIG d   1      11.527   4.091  -1.178  0.00  0.00     0.062 H 
ATOM     31  C   LIG d   1      10.176   7.153  -0.767  0.00  0.00    -0.062 A 
ATOM     32  H   LIG d   1      11.411   5.919   0.467  0.00  0.00     0.062 H 
ATOM     33  C   LIG d   1       9.520   7.270  -1.978  0.00  0.00    -0.061 A 
ATOM     34  H   LIG d   1      10.125   7.956  -0.045  0.00  0.00     0.062 H 
ATOM     35  C   LIG d   1       9.590   6.246  -2.903  0.00  0.00    -0.057 A 
ATOM     36  H   LIG d   1       8.957   8.165  -2.202  0.00  0.00     0.062 H 
ATOM     37  H   LIG d   1       9.081   6.340  -3.852  0.00  0.00     0.062 H 
ENDBRANCH  24  27
ENDBRANCH  22  24
ENDBRANCH   1  16
BRANCH   1  38
ATOM     38  N   LIG d   1       7.202  -1.588  -3.202  0.00  0.00    -0.304 N 
ATOM     39  C   LIG d   1       7.511  -2.605  -4.033  0.00  0.00     0.210 C 
ATOM     40  O   LIG d   1       7.005  -2.661  -5.134  0.00  0.00    -0.276 OA
ATOM     41  H   LIG d   1       7.607  -1.542  -2.321  0.00  0.00     0.149 HD
BRANCH  39  42
ATOM     42  C   LIG d   1       8.487  -3.665  -3.596  0.00  0.00     0.012 C 
ATOM     43  H   LIG d   1       9.397  -3.191  -3.226  0.00  0.00     0.032 H 
ATOM     44  H   LIG d   1       8.042  -4.266  -2.803  0.00  0.00     0.032 H 
ATOM     45  H   LIG d   1       8.732  -4.305  -4.444  0.00  0.00     0.032 H 
ENDBRANCH  39  42
ENDBRANCH   1  38
TORSDOF 9
ENDMDL
MODEL 6
REMARK VINA RESULT:      -6.0      5.384      7.923
REMARK  9 active torsions:
REMARK  status: ('A' for Active; 'I' for Inactive)
REMARK    1  A    between atoms: C_1  and  C_2 
REMARK    2  A    between atoms: C_2  and  C_3 
REMARK    3  A    between atoms: C_3  and  C_5 
REMARK    4  A    between atoms: C_3  and  C_6 
REMARK    5  A    between atoms: C_6  and  C_8 
REMARK    6  A    between atoms: C_6  and  N_21 
REMARK       I    between atoms: C_8  and  N_10 
REMARK       I    between atoms: N_10  and  C_11 
REMARK       I    between atoms: C_11  and  N_13 
REMARK    7  A    between atoms: N_13  and  C_14 
REMARK    8  A    between atoms: C_14  and  C_15 
REMARK       I    between atoms: N_21  and  C_22 
REMARK    9  A    between atoms: C_22  and  C_24 
ROOT
ATOM      1  C   LIG d   1       5.281  -0.087  -3.947  0.00  0.00     0.102 C 
ATOM      2  H   LIG d   1       4.613   0.714  -4.264  0.00  0.00     0.060 H 
ENDROOT
BRANCH   1   3
ATOM      3  C   LIG d   1       4.859  -0.587  -2.564  0.00  0.00    -0.017 C 
ATOM      4  H   LIG d   1       5.674  -1.156  -2.118  0.00  0.00     0.032 H 
BRANCH   3   5
ATOM      5  C   LIG d   1       3.626  -1.484  -2.701  0.00  0.00    -0.051 C 
ATOM      6  H   LIG d   1       3.815  -2.248  -3.455  0.00  0.00     0.027 H 
ATOM      7  H   LIG d   1       3.417  -1.961  -1.744  0.00  0.00     0.027 H 
BRANCH   5   8
ATOM      8  C   LIG d   1       2.424  -0.636  -3.123  0.00  0.00    -0.065 C 
ATOM      9  H   LIG d   1       2.017  -1.021  -4.058  0.00  0.00     0.023 H 
ATOM     10  H   LIG d   1       1.657  -0.681  -2.348  0.00  0.00     0.023 H 
ATOM     11  H   LIG d   1       2.739   0.398  -3.262  0.00  0.00     0.023 H 
ENDBRANCH   5   8
ENDBRANCH   3   5
BRANCH   3  12
ATOM     12  C   LIG d   1       4.522   0.609  -1.670  0.00  0.00    -0.060 C 
ATOM     13  H   LIG d   1       4.416   0.273  -0.639  0.00  0.00     0.023 H 
ATOM     14  H   LIG d   1       5.323   1.346  -1.732  0.00  0.00     0.023 H 
ATOM     15  H   LIG d   1       3.587   1.060  -2.003  0.00  0.00     0.023 H 
ENDBRANCH   3  12
ENDBRANCH   1   3
BRANCH   1  16
ATOM     16  C   LIG d   1       6.694   0.434  -3.883  0.00  0.00     0.241 C 
ATOM     17  O   LIG d   1       7.584  -0.276  -3.469  0.00  0.00    -0.273 OA
ATOM     18  N   LIG d   1       6.968   1.692  -4.284  0.00  0.00    -0.239 N 
ATOM     19  C   LIG d   1       8.231   2.157  -4.227  0.00  0.00     0.306 C 
ATOM     20  H   LIG d   1       6.255   2.261  -4.615  0.00  0.00     0.159 HD
ATOM     21  O   LIG d   1       9.124   1.444  -3.813  0.00  0.00    -0.252 OA
ATOM     22  N   LIG d   1       8.505   3.415  -4.629  0.00  0.00    -0.295 N 
ATOM     23  H   LIG d   1       7.792   3.984  -4.960  0.00  0.00     0.151 HD
BRANCH  22  24
ATOM     24  C   LIG d   1       9.878   3.921  -4.567  0.00  0.00     0.038 C 
ATOM     25  H   LIG d   1      10.566   3.086  -4.431  0.00  0.00     0.051 H 
ATOM     26  H   LIG d   1      10.116   4.441  -5.495  0.00  0.00     0.051 H 
BRANCH  24  27
ATOM     27  C   LIG d   1      10.009   4.874  -3.408  0.00  0.00    -0.030 A 
ATOM     28  C   LIG d   1      10.646   4.469  -2.249  0.00  0.00    -0.057 A 
ATOM     29  C   LIG d   1      10.766   5.344  -1.185  0.00  0.00    -0.061 A 
ATOM     30  H   LIG d   1      11.047   3.469  -2.174  0.00  0.00     0.062 H 
ATOM     31  C   LIG d   1      10.251   6.623  -1.280  0.00  0.00    -0.062 A 
ATOM     32  H   LIG d   1      11.263   5.027  -0.280  0.00  0.00     0.062 H 
ATOM     33  C   LIG d   1       9.616   7.028  -2.439  0.00  0.00    -0.061 A 
ATOM     34  H   LIG d   1      10.346   7.307  -0.449  0.00  0.00     0.062 H 
ATOM     35  C   LIG d   1       9.499   6.155  -3.505  0.00  0.00    -0.057 A 
ATOM     36  H   LIG d   1       9.215   8.028  -2.514  0.00  0.00     0.062 H 
ATOM     37  H   LIG d   1       9.007   6.473  -4.412  0.00  0.00     0.062 H 
ENDBRANCH  24  27
ENDBRANCH  22  24
ENDBRANCH   1  16
BRANCH   1  38
ATOM     38  N   LIG d   1       5.211  -1.190  -4.908  0.00  0.00    -0.304 N 
ATOM     39  C   LIG d   1       4.690  -0.984  -6.134  0.00  0.00     0.210 C 
ATOM     40  O   LIG d   1       4.280   0.116  -6.441  0.00  0.00    -0.276 OA
ATOM     41  H   LIG d   1       5.539  -2.069  -4.662  0.00  0.00     0.149 HD
BRANCH  39  42
ATOM     42  C   LIG d   1       4.622  -2.117  -7.124  0.00  0.00     0.012 C 
ATOM     43  H   LIG d   1       4.627  -1.714  -8.138  0.00  0.00     0.032 H 
ATOM     44  H   LIG d   1       5.484  -2.770  -6.988  0.00  0.00     0.032 H 
ATOM     45  H   LIG d   1       3.705  -2.685  -6.965  0.00  0.00     0.032 H 
ENDBRANCH  39  42
ENDBRANCH   1  38
TORSDOF 9
ENDMDL
MODEL 7
REMARK VINA RESULT:      -5.9      2.406      7.638
REMARK  9 active torsions:
REMARK  status: ('A' for Active; 'I' for Inactive)
REMARK    1  A    between atoms: C_1  and  C_2 
REMARK    2  A    between atoms: C_2  and  C_3 
REMARK    3  A    between atoms: C_3  and  C_5 
REMARK    4  A    between atoms: C_3  and  C_6 
REMARK    5  A    between atoms: C_6  and  C_8 
REMARK    6  A    between atoms: C_6  and  N_21 
REMARK       I    between atoms: C_8  and  N_10 
REMARK       I    between atoms: N_10  and  C_11 
REMARK       I    between atoms: C_11  and  N_13 
REMARK    7  A    between atoms: N_13  and  C_14 
REMARK    8  A    between atoms: C_14  and  C_15 
REMARK       I    between atoms: N_21  and  C_22 
REMARK    9  A    between atoms: C_22  and  C_24 
ROOT
ATOM      1  C   LIG d   1       4.431  -0.588  -4.196  0.00  0.00     0.102 C 
ATOM      2  H   LIG d   1       3.628  -1.105  -3.670  0.00  0.00     0.060 H 
ENDROOT
BRANCH   1   3
ATOM      3  C   LIG d   1       5.088   0.426  -3.256  0.00  0.00    -0.017 C 
ATOM      4  H   LIG d   1       4.863   1.436  -3.596  0.00  0.00     0.032 H 
BRANCH   3   5
ATOM      5  C   LIG d   1       6.603   0.212  -3.255  0.00  0.00    -0.051 C 
ATOM      6  H   LIG d   1       6.941   0.014  -2.238  0.00  0.00     0.027 H 
ATOM      7  H   LIG d   1       6.850  -0.635  -3.893  0.00  0.00     0.027 H 
BRANCH   5   8
ATOM      8  C   LIG d   1       7.294   1.470  -3.787  0.00  0.00    -0.065 C 
ATOM      9  H   LIG d   1       7.381   2.204  -2.987  0.00  0.00     0.023 H 
ATOM     10  H   LIG d   1       8.289   1.211  -4.152  0.00  0.00     0.023 H 
ATOM     11  H   LIG d   1       6.707   1.890  -4.604  0.00  0.00     0.023 H 
ENDBRANCH   5   8
ENDBRANCH   3   5
BRANCH   3  12
ATOM     12  C   LIG d   1       4.545   0.232  -1.838  0.00  0.00    -0.060 C 
ATOM     13  H   LIG d   1       4.439  -0.833  -1.632  0.00  0.00     0.023 H 
ATOM     14  H   LIG d   1       5.236   0.674  -1.121  0.00  0.00     0.023 H 
ATOM     15  H   LIG d   1       3.573   0.718  -1.752  0.00  0.00     0.023 H 
ENDBRANCH   3  12
ENDBRANCH   1   3
BRANCH   1  16
ATOM     16  C   LIG d   1       3.865   0.132  -5.393  0.00  0.00     0.241 C 
ATOM     17  O   LIG d   1       2.870   0.815  -5.277  0.00  0.00    -0.273 OA
ATOM     18  N   LIG d   1       4.464   0.014  -6.596  0.00  0.00    -0.239 N 
ATOM     19  C   LIG d   1       3.958   0.658  -7.666  0.00  0.00     0.306 C 
ATOM     20  H   LIG d   1       5.260  -0.532  -6.689  0.00  0.00     0.159 HD
ATOM     21  O   LIG d   1       2.961   1.343  -7.549  0.00  0.00    -0.252 OA
ATOM     22  N   LIG d   1       4.558   0.541  -8.868  0.00  0.00    -0.295 N 
ATOM     23  H   LIG d   1       5.353  -0.005  -8.962  0.00  0.00     0.151 HD
BRANCH  22  24
ATOM     24  C   LIG d   1       4.008   1.241 -10.031  0.00  0.00     0.038 C 
ATOM     25  H   LIG d   1       3.218   1.919  -9.707  0.00  0.00     0.051 H 
ATOM     26  H   LIG d   1       4.798   1.810 -10.520  0.00  0.00     0.051 H 
BRANCH  24  27
ATOM     27  C   LIG d   1       3.440   0.235 -10.999  0.00  0.00    -0.030 A 
ATOM     28  C   LIG d   1       4.148  -0.108 -12.136  0.00  0.00    -0.057 A 
ATOM     29  C   LIG d   1       3.626  -1.031 -13.023  0.00  0.00    -0.061 A 
ATOM     30  H   LIG d   1       5.108   0.347 -12.331  0.00  0.00     0.062 H 
ATOM     31  C   LIG d   1       2.397  -1.611 -12.773  0.00  0.00    -0.062 A 
ATOM     32  H   LIG d   1       4.180  -1.298 -13.911  0.00  0.00     0.062 H 
ATOM     33  C   LIG d   1       1.689  -1.270 -11.636  0.00  0.00    -0.061 A 
ATOM     34  H   LIG d   1       1.990  -2.333 -13.466  0.00  0.00     0.062 H 
ATOM     35  C   LIG d   1       2.213  -0.350 -10.746  0.00  0.00    -0.057 A 
ATOM     36  H   LIG d   1       0.729  -1.725 -11.441  0.00  0.00     0.062 H 
ATOM     37  H   LIG d   1       1.662  -0.087  -9.855  0.00  0.00     0.062 H 
ENDBRANCH  24  27
ENDBRANCH  22  24
ENDBRANCH   1  16
BRANCH   1  38
ATOM     38  N   LIG d   1       5.430  -1.562  -4.639  0.00  0.00    -0.304 N 
ATOM     39  C   LIG d   1       5.216  -2.880  -4.452  0.00  0.00     0.210 C 
ATOM     40  O   LIG d   1       4.195  -3.258  -3.916  0.00  0.00    -0.276 OA
ATOM     41  H   LIG d   1       6.246  -1.260  -5.068  0.00  0.00     0.149 HD
BRANCH  39  42
ATOM     42  C   LIG d   1       6.241  -3.883  -4.913  0.00  0.00     0.012 C 
ATOM     43  H   LIG d   1       7.155  -3.763  -4.330  0.00  0.00     0.032 H 
ATOM     44  H   LIG d   1       5.851  -4.892  -4.774  0.00  0.00     0.032 H 
ATOM     45  H   LIG d   1       6.460  -3.720  -5.968  0.00  0.00     0.032 H 
ENDBRANCH  39  42
ENDBRANCH   1  38
TORSDOF 9
ENDMDL
MODEL 8
REMARK VINA RESULT:      -5.9      7.157     11.084
REMARK  9 active torsions:
REMARK  status: ('A' for Active; 'I' for Inactive)
REMARK    1  A    between atoms: C_1  and  C_2 
REMARK    2  A    between atoms: C_2  and  C_3 
REMARK    3  A    between atoms: C_3  and  C_5 
REMARK    4  A    between atoms: C_3  and  C_6 
REMARK    5  A    between atoms: C_6  and  C_8 
REMARK    6  A    between atoms: C_6  and  N_21 
REMARK       I    between atoms: C_8  and  N_10 
REMARK       I    between atoms: N_10  and  C_11 
REMARK       I    between atoms: C_11  and  N_13 
REMARK    7  A    between atoms: N_13  and  C_14 
REMARK    8  A    between atoms: C_14  and  C_15 
REMARK       I    between atoms: N_21  and  C_22 
REMARK    9  A    between atoms: C_22  and  C_24 
ROOT
ATOM      1  C   LIG d   1      10.747   5.583  -2.740  0.00  0.00     0.102 C 
ATOM      2  H   LIG d   1      11.279   6.269  -3.400  0.00  0.00     0.060 H 
ENDROOT
BRANCH   1   3
ATOM      3  C   LIG d   1      11.757   4.720  -1.980  0.00  0.00    -0.017 C 
ATOM      4  H   LIG d   1      11.367   3.707  -1.881  0.00  0.00     0.032 H 
BRANCH   3   5
ATOM      5  C   LIG d   1      11.991   5.314  -0.589  0.00  0.00    -0.051 C 
ATOM      6  H   LIG d   1      11.192   6.017  -0.355  0.00  0.00     0.027 H 
ATOM      7  H   LIG d   1      12.001   4.514   0.150  0.00  0.00     0.027 H 
BRANCH   5   8
ATOM      8  C   LIG d   1      13.336   6.045  -0.568  0.00  0.00    -0.065 C 
ATOM      9  H   LIG d   1      14.130   5.338  -0.330  0.00  0.00     0.023 H 
ATOM     10  H   LIG d   1      13.524   6.488  -1.546  0.00  0.00     0.023 H 
ATOM     11  H   LIG d   1      13.310   6.830   0.187  0.00  0.00     0.023 H 
ENDBRANCH   5   8
ENDBRANCH   3   5
BRANCH   3  12
ATOM     12  C   LIG d   1      13.079   4.685  -2.749  0.00  0.00    -0.060 C 
ATOM     13  H   LIG d   1      13.484   3.674  -2.728  0.00  0.00     0.023 H 
ATOM     14  H   LIG d   1      12.906   4.986  -3.783  0.00  0.00     0.023 H 
ATOM     15  H   LIG d   1      13.788   5.371  -2.285  0.00  0.00     0.023 H 
ENDBRANCH   3  12
ENDBRANCH   1   3
BRANCH   1  16
ATOM     16  C   LIG d   1       9.844   4.698  -3.558  0.00  0.00     0.241 C 
ATOM     17  O   LIG d   1       9.371   5.107  -4.597  0.00  0.00    -0.273 OA
ATOM     18  N   LIG d   1       9.560   3.449  -3.135  0.00  0.00    -0.239 N 
ATOM     19  C   LIG d   1       8.752   2.657  -3.867  0.00  0.00     0.306 C 
ATOM     20  H   LIG d   1       9.938   3.122  -2.304  0.00  0.00     0.159 HD
ATOM     21  O   LIG d   1       8.278   3.068  -4.908  0.00  0.00    -0.252 OA
ATOM     22  N   LIG d   1       8.469   1.409  -3.443  0.00  0.00    -0.295 N 
ATOM     23  H   LIG d   1       8.847   1.081  -2.613  0.00  0.00     0.151 HD
BRANCH  22  24
ATOM     24  C   LIG d   1       7.591   0.548  -4.239  0.00  0.00     0.038 C 
ATOM     25  H   LIG d   1       7.235   1.099  -5.110  0.00  0.00     0.051 H 
ATOM     26  H   LIG d   1       8.144  -0.332  -4.567  0.00  0.00     0.051 H 
BRANCH  24  27
ATOM     27  C   LIG d   1       6.414   0.119  -3.401  0.00  0.00    -0.030 A 
ATOM     28  C   LIG d   1       5.643   1.068  -2.755  0.00  0.00    -0.057 A 
ATOM     29  C   LIG d   1       4.564   0.674  -1.986  0.00  0.00    -0.061 A 
ATOM     30  H   LIG d   1       5.886   2.116  -2.849  0.00  0.00     0.062 H 
ATOM     31  C   LIG d   1       4.255  -0.667  -1.864  0.00  0.00    -0.062 A 
ATOM     32  H   LIG d   1       3.962   1.416  -1.481  0.00  0.00     0.062 H 
ATOM     33  C   LIG d   1       5.025  -1.615  -2.511  0.00  0.00    -0.061 A 
ATOM     34  H   LIG d   1       3.411  -0.975  -1.263  0.00  0.00     0.062 H 
ATOM     35  C   LIG d   1       6.102  -1.222  -3.283  0.00  0.00    -0.057 A 
ATOM     36  H   LIG d   1       4.782  -2.664  -2.416  0.00  0.00     0.062 H 
ATOM     37  H   LIG d   1       6.700  -1.963  -3.793  0.00  0.00     0.062 H 
ENDBRANCH  24  27
ENDBRANCH  22  24
ENDBRANCH   1  16
BRANCH   1  38
ATOM     38  N   LIG d   1       9.945   6.351  -1.785  0.00  0.00    -0.304 N 
ATOM     39  C   LIG d   1       9.797   7.682  -1.945  0.00  0.00     0.210 C 
ATOM     40  O   LIG d   1      10.329   8.242  -2.880  0.00  0.00    -0.276 OA
ATOM     41  H   LIG d   1       9.519   5.902  -1.038  0.00  0.00     0.149 HD
BRANCH  39  42
ATOM     42  C   LIG d   1       8.967   8.470  -0.967  0.00  0.00     0.012 C 
ATOM     43  H   LIG d   1       8.983   9.525  -1.244  0.00  0.00     0.032 H 
ATOM     44  H   LIG d   1       7.940   8.106  -0.984  0.00  0.00     0.032 H 
ATOM     45  H   LIG d   1       9.378   8.353   0.037  0.00  0.00     0.032 H 
ENDBRANCH  39  42
ENDBRANCH   1  38
TORSDOF 9
ENDMDL
MODEL 9
REMARK VINA RESULT:      -5.8      7.073     10.764
REMARK  9 active torsions:
REMARK  status: ('A' for Active; 'I' for Inactive)
REMARK    1  A    between atoms: C_1  and  C_2 
REMARK    2  A    between atoms: C_2  and  C_3 
REMARK    3  A    between atoms: C_3  and  C_5 
REMARK    4  A    between atoms: C_3  and  C_6 
REMARK    5  A    between atoms: C_6  and  C_8 
REMARK    6  A    between atoms: C_6  and  N_21 
REMARK       I    between atoms: C_8  and  N_10 
REMARK       I    between atoms: N_10  and  C_11 
REMARK       I    between atoms: C_11  and  N_13 
REMARK    7  A    between atoms: N_13  and  C_14 
REMARK    8  A    between atoms: C_14  and  C_15 
REMARK       I    between atoms: N_21  and  C_22 
REMARK    9  A    between atoms: C_22  and  C_24 
ROOT
ATOM      1  C   LIG d   1      10.576   5.758  -2.941  0.00  0.00     0.102 C 
ATOM      2  H   LIG d   1      11.617   6.009  -3.147  0.00  0.00     0.060 H 
ENDROOT
BRANCH   1   3
ATOM      3  C   LIG d   1      10.262   6.049  -1.472  0.00  0.00    -0.017 C 
ATOM      4  H   LIG d   1       9.690   5.222  -1.052  0.00  0.00     0.032 H 
BRANCH   3   5
ATOM      5  C   LIG d   1       9.445   7.339  -1.371  0.00  0.00    -0.051 C 
ATOM      6  H   LIG d   1       9.320   7.769  -2.365  0.00  0.00     0.027 H 
ATOM      7  H   LIG d   1       8.467   7.116  -0.946  0.00  0.00     0.027 H 
BRANCH   5   8
ATOM      8  C   LIG d   1      10.177   8.337  -0.471  0.00  0.00    -0.065 C 
ATOM      9  H   LIG d   1       9.763   8.292   0.536  0.00  0.00     0.023 H 
ATOM     10  H   LIG d   1      11.238   8.087  -0.439  0.00  0.00     0.023 H 
ATOM     11  H   LIG d   1      10.053   9.344  -0.870  0.00  0.00     0.023 H 
ENDBRANCH   5   8
ENDBRANCH   3   5
BRANCH   3  12
ATOM     12  C   LIG d   1      11.570   6.212  -0.693  0.00  0.00    -0.060 C 
ATOM     13  H   LIG d   1      12.096   5.258  -0.664  0.00  0.00     0.023 H 
ATOM     14  H   LIG d   1      12.195   6.957  -1.186  0.00  0.00     0.023 H 
ATOM     15  H   LIG d   1      11.350   6.537   0.323  0.00  0.00     0.023 H 
ENDBRANCH   3  12
ENDBRANCH   1   3
BRANCH   1  16
ATOM     16  C   LIG d   1      10.347   4.296  -3.224  0.00  0.00     0.241 C 
ATOM     17  O   LIG d   1      11.280   3.522  -3.214  0.00  0.00    -0.273 OA
ATOM     18  N   LIG d   1       9.103   3.848  -3.488  0.00  0.00    -0.239 N 
ATOM     19  C   LIG d   1       8.898   2.540  -3.740  0.00  0.00     0.306 C 
ATOM     20  H   LIG d   1       8.356   4.467  -3.496  0.00  0.00     0.159 HD
ATOM     21  O   LIG d   1       9.833   1.765  -3.731  0.00  0.00    -0.252 OA
ATOM     22  N   LIG d   1       7.654   2.092  -4.005  0.00  0.00    -0.295 N 
ATOM     23  H   LIG d   1       6.907   2.711  -4.012  0.00  0.00     0.151 HD
BRANCH  22  24
ATOM     24  C   LIG d   1       7.431   0.670  -4.279  0.00  0.00     0.038 C 
ATOM     25  H   LIG d   1       7.171   0.540  -5.330  0.00  0.00     0.051 H 
ATOM     26  H   LIG d   1       8.339   0.111  -4.057  0.00  0.00     0.051 H 
BRANCH  24  27
ATOM     27  C   LIG d   1       6.304   0.164  -3.417  0.00  0.00    -0.030 A 
ATOM     28  C   LIG d   1       6.040  -1.191  -3.349  0.00  0.00    -0.057 A 
ATOM     29  C   LIG d   1       5.005  -1.655  -2.558  0.00  0.00    -0.061 A 
ATOM     30  H   LIG d   1       6.640  -1.887  -3.916  0.00  0.00     0.062 H 
ATOM     31  C   LIG d   1       4.236  -0.765  -1.834  0.00  0.00    -0.062 A 
ATOM     32  H   LIG d   1       4.799  -2.715  -2.506  0.00  0.00     0.062 H 
ATOM     33  C   LIG d   1       4.501   0.590  -1.900  0.00  0.00    -0.061 A 
ATOM     34  H   LIG d   1       3.428  -1.127  -1.214  0.00  0.00     0.062 H 
ATOM     35  C   LIG d   1       5.538   1.054  -2.687  0.00  0.00    -0.057 A 
ATOM     36  H   LIG d   1       3.900   1.286  -1.332  0.00  0.00     0.062 H 
ATOM     37  H   LIG d   1       5.747   2.113  -2.736  0.00  0.00     0.062 H 
ENDBRANCH  24  27
ENDBRANCH  22  24
ENDBRANCH   1  16
BRANCH   1  38
ATOM     38  N   LIG d   1       9.702   6.564  -3.796  0.00  0.00    -0.304 N 
ATOM     39  C   LIG d   1      10.188   7.118  -4.926  0.00  0.00     0.210 C 
ATOM     40  O   LIG d   1      11.349   6.947  -5.233  0.00  0.00    -0.276 OA
ATOM     41  H   LIG d   1       8.773   6.700  -3.550  0.00  0.00     0.149 HD
BRANCH  39  42
ATOM     42  C   LIG d   1       9.287   7.942  -5.808  0.00  0.00     0.012 C 
ATOM     43  H   LIG d   1       9.888   8.651  -6.378  0.00  0.00     0.032 H 
ATOM     44  H   LIG d   1       8.751   7.286  -6.494  0.00  0.00     0.032 H 
ATOM     45  H   LIG d   1       8.572   8.486  -5.191  0.00  0.00     0.032 H 
ENDBRANCH  39  42
ENDBRANCH   1  38
TORSDOF 9
ENDMDL
