MODEL 1
REMARK VINA RESULT:      -7.5      0.000      0.000
REMARK  5 active torsions:
REMARK  status: ('A' for Active; 'I' for Inactive)
REMARK    1  A    between atoms: C_1  and  C_2 
REMARK    2  A    between atoms: N_15  and  N_16 
REMARK    3  A    between atoms: N_16  and  C_17 
REMARK    4  A    between atoms: C_24  and  C_28 
REMARK    5  A    between atoms: C_24  and  C_29 
ROOT
ATOM      1  C   LIG d   1       5.227  -2.539  -6.043  0.00  0.00     0.220 A 
ATOM      2  C   LIG d   1       4.710  -3.621  -6.745  0.00  0.00     0.077 A 
ATOM      3  C   LIG d   1       4.861  -5.082  -6.646  0.00  0.00     0.013 A 
ATOM      4  C   LIG d   1       5.570  -5.920  -5.790  0.00  0.00    -0.052 A 
ATOM      5  C   LIG d   1       5.506  -7.286  -5.958  0.00  0.00    -0.061 A 
ATOM      6  C   LIG d   1       4.737  -7.829  -6.977  0.00  0.00    -0.060 A 
ATOM      7  C   LIG d   1       4.028  -7.011  -7.831  0.00  0.00    -0.038 A 
ATOM      8  C   LIG d   1       4.086  -5.629  -7.681  0.00  0.00     0.048 A 
ATOM      9  N   LIG d   1       3.495  -4.590  -8.380  0.00  0.00    -0.353 N 
ATOM     10  H   LIG d   1       2.908  -4.700  -9.143  0.00  0.00     0.166 HD
ATOM     11  C   LIG d   1       3.861  -3.383  -7.841  0.00  0.00     0.070 A 
ATOM     12  C   LIG d   1       3.553  -2.045  -8.155  0.00  0.00     0.111 A 
ATOM     13  C   LIG d   1       4.099  -1.016  -7.388  0.00  0.00     0.226 A 
ATOM     14  N   LIG d   1       4.909  -1.300  -6.375  0.00  0.00    -0.084 N 
ATOM     15  C   LIG d   1       3.782   0.428  -7.678  0.00  0.00     0.041 C 
ATOM     16  C   LIG d   1       3.338   0.617  -9.125  0.00  0.00    -0.018 C 
ATOM     17  C   LIG d   1       2.159  -0.320  -9.423  0.00  0.00     0.016 C 
ATOM     18  C   LIG d   1       2.668  -1.741  -9.288  0.00  0.00     0.172 C 
ATOM     19  O   LIG d   1       2.355  -2.598 -10.088  0.00  0.00    -0.292 OA
ATOM     20  H   LIG d   1       6.170  -5.500  -4.996  0.00  0.00     0.062 H 
ATOM     21  H   LIG d   1       6.056  -7.937  -5.295  0.00  0.00     0.062 H 
ATOM     22  H   LIG d   1       4.692  -8.900  -7.101  0.00  0.00     0.062 H 
ATOM     23  H   LIG d   1       3.433  -7.444  -8.621  0.00  0.00     0.064 H 
ATOM     24  H   LIG d   1       2.984   0.758  -7.013  0.00  0.00     0.038 H 
ATOM     25  H   LIG d   1       4.671   1.032  -7.497  0.00  0.00     0.038 H 
ATOM     26  H   LIG d   1       1.421  -0.145  -8.772  0.00  0.00     0.035 H 
ATOM     27  H   LIG d   1       1.797  -0.151 -10.437  0.00  0.00     0.035 H 
ENDROOT
BRANCH  14  28
ATOM     28  N   LIG d   1       5.448  -0.244  -5.628  0.00  0.00    -0.118 N 
ATOM     29  H   LIG d   1       6.193   0.268  -5.978  0.00  0.00     0.223 HD
BRANCH  28  30
ATOM     30  C   LIG d   1       4.913   0.070  -4.377  0.00  0.00     0.088 A 
ATOM     31  C   LIG d   1       5.715   0.649  -3.401  0.00  0.00    -0.035 A 
ATOM     32  C   LIG d   1       5.183   0.958  -2.165  0.00  0.00    -0.060 A 
ATOM     33  H   LIG d   1       6.755   0.856  -3.609  0.00  0.00     0.064 H 
ATOM     34  C   LIG d   1       3.852   0.694  -1.899  0.00  0.00    -0.062 A 
ATOM     35  H   LIG d   1       5.806   1.408  -1.406  0.00  0.00     0.062 H 
ATOM     36  C   LIG d   1       3.050   0.118  -2.867  0.00  0.00    -0.060 A 
ATOM     37  H   LIG d   1       3.437   0.938  -0.932  0.00  0.00     0.062 H 
ATOM     38  C   LIG d   1       3.575  -0.189  -4.107  0.00  0.00    -0.035 A 
ATOM     39  H   LIG d   1       2.011  -0.087  -2.655  0.00  0.00     0.062 H 
ATOM     40  H   LIG d   1       2.947  -0.634  -4.865  0.00  0.00     0.064 H 
ENDBRANCH  28  30
ENDBRANCH  14  28
BRANCH   1  41
ATOM     41  C   LIG d   1       6.155  -2.783  -4.880  0.00  0.00     0.024 C 
ATOM     42  H   LIG d   1       6.863  -1.958  -4.802  0.00  0.00     0.034 H 
ATOM     43  H   LIG d   1       5.574  -2.852  -3.961  0.00  0.00     0.034 H 
ATOM     44  H   LIG d   1       6.698  -3.714  -5.039  0.00  0.00     0.034 H 
ENDBRANCH   1  41
BRANCH  16  45
ATOM     45  C   LIG d   1       2.902   2.068  -9.340  0.00  0.00    -0.059 C 
ATOM     46  H   LIG d   1       2.591   2.204 -10.376  0.00  0.00     0.024 H 
ATOM     47  H   LIG d   1       2.068   2.299  -8.677  0.00  0.00     0.024 H 
ATOM     48  H   LIG d   1       3.736   2.734  -9.120  0.00  0.00     0.024 H 
ENDBRANCH  16  45
BRANCH  16  49
ATOM     49  C   LIG d   1       4.500   0.289 -10.064  0.00  0.00    -0.059 C 
ATOM     50  H   LIG d   1       4.960  -0.651  -9.759  0.00  0.00     0.024 H 
ATOM     51  H   LIG d   1       4.129   0.198 -11.084  0.00  0.00     0.024 H 
ATOM     52  H   LIG d   1       5.240   1.088 -10.018  0.00  0.00     0.024 H 
ENDBRANCH  16  49
TORSDOF 5
ENDMDL
MODEL 2
REMARK VINA RESULT:      -7.5      2.070      4.650
REMARK  5 active torsions:
REMARK  status: ('A' for Active; 'I' for Inactive)
REMARK    1  A    between atoms: C_1  and  C_2 
REMARK    2  A    between atoms: N_15  and  N_16 
REMARK    3  A    between atoms: N_16  and  C_17 
REMARK    4  A    between atoms: C_24  and  C_28 
REMARK    5  A    between atoms: C_24  and  C_29 
ROOT
ATOM      1  C   LIG d   1       5.583  -2.254  -6.953  0.00  0.00     0.220 A 
ATOM      2  C   LIG d   1       5.272  -3.488  -6.393  0.00  0.00     0.077 A 
ATOM      3  C   LIG d   1       5.297  -4.878  -6.879  0.00  0.00     0.013 A 
ATOM      4  C   LIG d   1       5.664  -5.469  -8.086  0.00  0.00    -0.052 A 
ATOM      5  C   LIG d   1       5.573  -6.835  -8.236  0.00  0.00    -0.061 A 
ATOM      6  C   LIG d   1       5.118  -7.624  -7.190  0.00  0.00    -0.060 A 
ATOM      7  C   LIG d   1       4.752  -7.052  -5.989  0.00  0.00    -0.038 A 
ATOM      8  C   LIG d   1       4.831  -5.674  -5.821  0.00  0.00     0.048 A 
ATOM      9  N   LIG d   1       4.533  -4.846  -4.752  0.00  0.00    -0.353 N 
ATOM     10  H   LIG d   1       4.194  -5.150  -3.895  0.00  0.00     0.166 HD
ATOM     11  C   LIG d   1       4.784  -3.537  -5.076  0.00  0.00     0.070 A 
ATOM     12  C   LIG d   1       4.660  -2.322  -4.375  0.00  0.00     0.111 A 
ATOM     13  C   LIG d   1       5.012  -1.127  -5.003  0.00  0.00     0.226 A 
ATOM     14  N   LIG d   1       5.452  -1.140  -6.256  0.00  0.00    -0.084 N 
ATOM     15  C   LIG d   1       4.912   0.192  -4.285  0.00  0.00     0.041 C 
ATOM     16  C   LIG d   1       3.912   0.123  -3.135  0.00  0.00    -0.018 C 
ATOM     17  C   LIG d   1       4.291  -1.034  -2.200  0.00  0.00     0.016 C 
ATOM     18  C   LIG d   1       4.157  -2.317  -2.994  0.00  0.00     0.172 C 
ATOM     19  O   LIG d   1       3.652  -3.307  -2.507  0.00  0.00    -0.292 OA
ATOM     20  H   LIG d   1       6.018  -4.856  -8.902  0.00  0.00     0.062 H 
ATOM     21  H   LIG d   1       5.857  -7.294  -9.172  0.00  0.00     0.062 H 
ATOM     22  H   LIG d   1       5.050  -8.694  -7.316  0.00  0.00     0.062 H 
ATOM     23  H   LIG d   1       4.399  -7.675  -5.181  0.00  0.00     0.064 H 
ATOM     24  H   LIG d   1       5.893   0.459  -3.890  0.00  0.00     0.038 H 
ATOM     25  H   LIG d   1       4.591   0.959  -4.990  0.00  0.00     0.038 H 
ATOM     26  H   LIG d   1       5.230  -0.911  -1.881  0.00  0.00     0.035 H 
ATOM     27  H   LIG d   1       3.616  -1.056  -1.344  0.00  0.00     0.035 H 
ENDROOT
BRANCH  14  28
ATOM     28  N   LIG d   1       5.790   0.077  -6.863  0.00  0.00    -0.118 N 
ATOM     29  H   LIG d   1       6.638   0.501  -6.661  0.00  0.00     0.223 HD
BRANCH  28  30
ATOM     30  C   LIG d   1       4.906   0.679  -7.759  0.00  0.00     0.088 A 
ATOM     31  C   LIG d   1       3.540   0.442  -7.656  0.00  0.00    -0.035 A 
ATOM     32  C   LIG d   1       2.668   1.040  -8.544  0.00  0.00    -0.060 A 
ATOM     33  H   LIG d   1       3.161  -0.209  -6.882  0.00  0.00     0.064 H 
ATOM     34  C   LIG d   1       3.152   1.874  -9.535  0.00  0.00    -0.062 A 
ATOM     35  H   LIG d   1       1.606   0.856  -8.465  0.00  0.00     0.062 H 
ATOM     36  C   LIG d   1       4.510   2.113  -9.641  0.00  0.00    -0.060 A 
ATOM     37  H   LIG d   1       2.468   2.341 -10.228  0.00  0.00     0.062 H 
ATOM     38  C   LIG d   1       5.387   1.523  -8.753  0.00  0.00    -0.035 A 
ATOM     39  H   LIG d   1       4.884   2.766 -10.416  0.00  0.00     0.062 H 
ATOM     40  H   LIG d   1       6.447   1.713  -8.833  0.00  0.00     0.064 H 
ENDBRANCH  28  30
ENDBRANCH  14  28
BRANCH   1  41
ATOM     41  C   LIG d   1       6.089  -2.189  -8.372  0.00  0.00     0.024 C 
ATOM     42  H   LIG d   1       6.028  -1.163  -8.732  0.00  0.00     0.034 H 
ATOM     43  H   LIG d   1       7.125  -2.525  -8.404  0.00  0.00     0.034 H 
ATOM     44  H   LIG d   1       5.478  -2.833  -9.005  0.00  0.00     0.034 H 
ENDBRANCH   1  41
BRANCH  16  45
ATOM     45  C   LIG d   1       3.939   1.439  -2.354  0.00  0.00    -0.059 C 
ATOM     46  H   LIG d   1       4.654   1.359  -1.535  0.00  0.00     0.024 H 
ATOM     47  H   LIG d   1       4.236   2.250  -3.018  0.00  0.00     0.024 H 
ATOM     48  H   LIG d   1       2.946   1.643  -1.953  0.00  0.00     0.024 H 
ENDBRANCH  16  45
BRANCH  16  49
ATOM     49  C   LIG d   1       2.507  -0.111  -3.692  0.00  0.00    -0.059 C 
ATOM     50  H   LIG d   1       2.314  -1.182  -3.755  0.00  0.00     0.024 H 
ATOM     51  H   LIG d   1       1.773   0.353  -3.035  0.00  0.00     0.024 H 
ATOM     52  H   LIG d   1       2.433   0.330  -4.687  0.00  0.00     0.024 H 
ENDBRANCH  16  49
TORSDOF 5
ENDMDL
MODEL 3
REMARK VINA RESULT:      -7.2      1.938      5.804
REMARK  5 active torsions:
REMARK  status: ('A' for Active; 'I' for Inactive)
REMARK    1  A    between atoms: C_1  and  C_2 
REMARK    2  A    between atoms: N_15  and  N_16 
REMARK    3  A    between atoms: N_16  and  C_17 
REMARK    4  A    between atoms: C_24  and  C_28 
REMARK    5  A    between atoms: C_24  and  C_29 
ROOT
ATOM      1  C   LIG d   1       4.724  -2.708  -6.896  0.00  0.00     0.220 A 
ATOM      2  C   LIG d   1       4.397  -1.650  -6.057  0.00  0.00     0.077 A 
ATOM      3  C   LIG d   1       4.262  -1.492  -4.599  0.00  0.00     0.013 A 
ATOM      4  C   LIG d   1       4.434  -2.352  -3.518  0.00  0.00    -0.052 A 
ATOM      5  C   LIG d   1       4.228  -1.893  -2.236  0.00  0.00    -0.061 A 
ATOM      6  C   LIG d   1       3.850  -0.576  -2.018  0.00  0.00    -0.060 A 
ATOM      7  C   LIG d   1       3.676   0.287  -3.079  0.00  0.00    -0.038 A 
ATOM      8  C   LIG d   1       3.874  -0.160  -4.381  0.00  0.00     0.048 A 
ATOM      9  N   LIG d   1       3.769   0.470  -5.610  0.00  0.00    -0.353 N 
ATOM     10  H   LIG d   1       3.517   1.398  -5.736  0.00  0.00     0.166 HD
ATOM     11  C   LIG d   1       4.072  -0.404  -6.623  0.00  0.00     0.070 A 
ATOM     12  C   LIG d   1       4.122  -0.286  -8.026  0.00  0.00     0.111 A 
ATOM     13  C   LIG d   1       4.480  -1.393  -8.796  0.00  0.00     0.226 A 
ATOM     14  N   LIG d   1       4.760  -2.549  -8.207  0.00  0.00    -0.084 N 
ATOM     15  C   LIG d   1       4.564  -1.306 -10.297  0.00  0.00     0.041 C 
ATOM     16  C   LIG d   1       3.710  -0.161 -10.834  0.00  0.00    -0.018 C 
ATOM     17  C   LIG d   1       4.117   1.147 -10.140  0.00  0.00     0.016 C 
ATOM     18  C   LIG d   1       3.795   0.994  -8.668  0.00  0.00     0.172 C 
ATOM     19  O   LIG d   1       3.284   1.899  -8.040  0.00  0.00    -0.292 OA
ATOM     20  H   LIG d   1       4.729  -3.378  -3.685  0.00  0.00     0.062 H 
ATOM     21  H   LIG d   1       4.361  -2.560  -1.397  0.00  0.00     0.062 H 
ATOM     22  H   LIG d   1       3.690  -0.225  -1.010  0.00  0.00     0.062 H 
ATOM     23  H   LIG d   1       3.381   1.310  -2.899  0.00  0.00     0.064 H 
ATOM     24  H   LIG d   1       5.602  -1.144 -10.587  0.00  0.00     0.038 H 
ATOM     25  H   LIG d   1       4.214  -2.244 -10.729  0.00  0.00     0.038 H 
ATOM     26  H   LIG d   1       5.095   1.305 -10.275  0.00  0.00     0.035 H 
ATOM     27  H   LIG d   1       3.552   1.979 -10.559  0.00  0.00     0.035 H 
ENDROOT
BRANCH  14  28
ATOM     28  N   LIG d   1       5.108  -3.645  -9.008  0.00  0.00    -0.118 N 
ATOM     29  H   LIG d   1       6.015  -3.738  -9.337  0.00  0.00     0.223 HD
BRANCH  28  30
ATOM     30  C   LIG d   1       4.147  -4.605  -9.332  0.00  0.00     0.088 A 
ATOM     31  C   LIG d   1       2.866  -4.212  -9.701  0.00  0.00    -0.035 A 
ATOM     32  C   LIG d   1       1.919  -5.164 -10.022  0.00  0.00    -0.060 A 
ATOM     33  H   LIG d   1       2.612  -3.163  -9.738  0.00  0.00     0.064 H 
ATOM     34  C   LIG d   1       2.244  -6.507  -9.977  0.00  0.00    -0.062 A 
ATOM     35  H   LIG d   1       0.923  -4.859 -10.309  0.00  0.00     0.062 H 
ATOM     36  C   LIG d   1       3.517  -6.903  -9.610  0.00  0.00    -0.060 A 
ATOM     37  H   LIG d   1       1.501  -7.250 -10.229  0.00  0.00     0.062 H 
ATOM     38  C   LIG d   1       4.471  -5.956  -9.293  0.00  0.00    -0.035 A 
ATOM     39  H   LIG d   1       3.767  -7.953  -9.576  0.00  0.00     0.062 H 
ATOM     40  H   LIG d   1       5.467  -6.265  -9.012  0.00  0.00     0.064 H 
ENDBRANCH  28  30
ENDBRANCH  14  28
BRANCH   1  41
ATOM     41  C   LIG d   1       5.055  -4.053  -6.300  0.00  0.00     0.024 C 
ATOM     42  H   LIG d   1       4.142  -4.524  -5.938  0.00  0.00     0.034 H 
ATOM     43  H   LIG d   1       5.513  -4.685  -7.061  0.00  0.00     0.034 H 
ATOM     44  H   LIG d   1       5.749  -3.921  -5.470  0.00  0.00     0.034 H 
ENDBRANCH   1  41
BRANCH  16  45
ATOM     45  C   LIG d   1       3.927  -0.027 -12.343  0.00  0.00    -0.059 C 
ATOM     46  H   LIG d   1       3.186  -0.627 -12.870  0.00  0.00     0.024 H 
ATOM     47  H   LIG d   1       3.823   1.018 -12.634  0.00  0.00     0.024 H 
ATOM     48  H   LIG d   1       4.928  -0.376 -12.598  0.00  0.00     0.024 H 
ENDBRANCH  16  45
BRANCH  16  49
ATOM     49  C   LIG d   1       2.235  -0.449 -10.555  0.00  0.00    -0.059 C 
ATOM     50  H   LIG d   1       2.153  -1.234  -9.802  0.00  0.00     0.024 H 
ATOM     51  H   LIG d   1       1.750   0.456 -10.190  0.00  0.00     0.024 H 
ATOM     52  H   LIG d   1       1.748  -0.776 -11.474  0.00  0.00     0.024 H 
ENDBRANCH  16  49
TORSDOF 5
ENDMDL
MODEL 4
REMARK VINA RESULT:      -7.2      2.198      5.713
REMARK  5 active torsions:
REMARK  status: ('A' for Active; 'I' for Inactive)
REMARK    1  A    between atoms: C_1  and  C_2 
REMARK    2  A    between atoms: N_15  and  N_16 
REMARK    3  A    between atoms: N_16  and  C_17 
REMARK    4  A    between atoms: C_24  and  C_28 
REMARK    5  A    between atoms: C_24  and  C_29 
ROOT
ATOM      1  C   LIG d   1       4.490  -2.690  -6.278  0.00  0.00     0.220 A 
ATOM      2  C   LIG d   1       4.278  -1.540  -5.527  0.00  0.00     0.077 A 
ATOM      3  C   LIG d   1       4.347  -1.218  -4.091  0.00  0.00     0.013 A 
ATOM      4  C   LIG d   1       4.671  -1.954  -2.955  0.00  0.00    -0.052 A 
ATOM      5  C   LIG d   1       4.644  -1.351  -1.716  0.00  0.00    -0.061 A 
ATOM      6  C   LIG d   1       4.294  -0.014  -1.598  0.00  0.00    -0.060 A 
ATOM      7  C   LIG d   1       3.972   0.727  -2.715  0.00  0.00    -0.038 A 
ATOM      8  C   LIG d   1       3.988   0.134  -3.973  0.00  0.00     0.048 A 
ATOM      9  N   LIG d   1       3.711   0.624  -5.239  0.00  0.00    -0.353 N 
ATOM     10  H   LIG d   1       3.440   1.535  -5.432  0.00  0.00     0.166 HD
ATOM     11  C   LIG d   1       3.873  -0.362  -6.178  0.00  0.00     0.070 A 
ATOM     12  C   LIG d   1       3.727  -0.402  -7.579  0.00  0.00     0.111 A 
ATOM     13  C   LIG d   1       3.978  -1.593  -8.262  0.00  0.00     0.226 A 
ATOM     14  N   LIG d   1       4.342  -2.679  -7.591  0.00  0.00    -0.084 N 
ATOM     15  C   LIG d   1       3.852  -1.675  -9.760  0.00  0.00     0.041 C 
ATOM     16  C   LIG d   1       2.928  -0.588 -10.299  0.00  0.00    -0.018 C 
ATOM     17  C   LIG d   1       3.422   0.784  -9.820  0.00  0.00     0.016 C 
ATOM     18  C   LIG d   1       3.309   0.802  -8.310  0.00  0.00     0.172 C 
ATOM     19  O   LIG d   1       2.887   1.777  -7.724  0.00  0.00    -0.292 OA
ATOM     20  H   LIG d   1       4.944  -2.995  -3.045  0.00  0.00     0.062 H 
ATOM     21  H   LIG d   1       4.895  -1.922  -0.834  0.00  0.00     0.062 H 
ATOM     22  H   LIG d   1       4.276   0.450  -0.624  0.00  0.00     0.062 H 
ATOM     23  H   LIG d   1       3.701   1.767  -2.612  0.00  0.00     0.064 H 
ATOM     24  H   LIG d   1       4.839  -1.559 -10.208  0.00  0.00     0.038 H 
ATOM     25  H   LIG d   1       3.449  -2.652 -10.031  0.00  0.00     0.038 H 
ATOM     26  H   LIG d   1       4.371   0.915 -10.107  0.00  0.00     0.035 H 
ATOM     27  H   LIG d   1       2.801   1.571 -10.248  0.00  0.00     0.035 H 
ENDROOT
BRANCH  14  28
ATOM     28  N   LIG d   1       4.579  -3.862  -8.304  0.00  0.00    -0.118 N 
ATOM     29  H   LIG d   1       3.834  -4.397  -8.618  0.00  0.00     0.223 HD
BRANCH  28  30
ATOM     30  C   LIG d   1       5.889  -4.271  -8.562  0.00  0.00     0.088 A 
ATOM     31  C   LIG d   1       6.193  -5.625  -8.640  0.00  0.00    -0.035 A 
ATOM     32  C   LIG d   1       7.490  -6.026  -8.895  0.00  0.00    -0.060 A 
ATOM     33  H   LIG d   1       5.417  -6.363  -8.502  0.00  0.00     0.064 H 
ATOM     34  C   LIG d   1       8.484  -5.082  -9.073  0.00  0.00    -0.062 A 
ATOM     35  H   LIG d   1       7.727  -7.078  -8.956  0.00  0.00     0.062 H 
ATOM     36  C   LIG d   1       8.185  -3.734  -8.996  0.00  0.00    -0.060 A 
ATOM     37  H   LIG d   1       9.498  -5.398  -9.273  0.00  0.00     0.062 H 
ATOM     38  C   LIG d   1       6.890  -3.326  -8.747  0.00  0.00    -0.035 A 
ATOM     39  H   LIG d   1       8.965  -3.000  -9.136  0.00  0.00     0.062 H 
ATOM     40  H   LIG d   1       6.656  -2.273  -8.691  0.00  0.00     0.064 H 
ENDBRANCH  28  30
ENDBRANCH  14  28
BRANCH   1  41
ATOM     41  C   LIG d   1       4.905  -3.963  -5.586  0.00  0.00     0.024 C 
ATOM     42  H   LIG d   1       4.295  -4.789  -5.950  0.00  0.00     0.034 H 
ATOM     43  H   LIG d   1       5.955  -4.166  -5.798  0.00  0.00     0.034 H 
ATOM     44  H   LIG d   1       4.766  -3.854  -4.511  0.00  0.00     0.034 H 
ENDBRANCH   1  41
BRANCH  16  45
ATOM     45  C   LIG d   1       2.932  -0.626 -11.829  0.00  0.00    -0.059 C 
ATOM     46  H   LIG d   1       2.003  -0.197 -12.205  0.00  0.00     0.024 H 
ATOM     47  H   LIG d   1       3.777  -0.050 -12.205  0.00  0.00     0.024 H 
ATOM     48  H   LIG d   1       3.018  -1.659 -12.166  0.00  0.00     0.024 H 
ENDBRANCH  16  45
BRANCH  16  49
ATOM     49  C   LIG d   1       1.506  -0.825  -9.787  0.00  0.00    -0.059 C 
ATOM     50  H   LIG d   1       0.871  -1.148 -10.613  0.00  0.00     0.024 H 
ATOM     51  H   LIG d   1       1.520  -1.596  -9.017  0.00  0.00     0.024 H 
ATOM     52  H   LIG d   1       1.112   0.100  -9.367  0.00  0.00     0.024 H 
ENDBRANCH  16  49
TORSDOF 5
ENDMDL
MODEL 5
REMARK VINA RESULT:      -7.1      2.078      6.193
REMARK  5 active torsions:
REMARK  status: ('A' for Active; 'I' for Inactive)
REMARK    1  A    between atoms: C_1  and  C_2 
REMARK    2  A    between atoms: N_15  and  N_16 
REMARK    3  A    between atoms: N_16  and  C_17 
REMARK    4  A    between atoms: C_24  and  C_28 
REMARK    5  A    between atoms: C_24  and  C_29 
ROOT
ATOM      1  C   LIG d   1       5.875  -1.911  -7.268  0.00  0.00     0.220 A 
ATOM      2  C   LIG d   1       5.024  -0.958  -7.817  0.00  0.00     0.077 A 
ATOM      3  C   LIG d   1       4.785  -0.451  -9.178  0.00  0.00     0.013 A 
ATOM      4  C   LIG d   1       5.316  -0.759 -10.428  0.00  0.00    -0.052 A 
ATOM      5  C   LIG d   1       4.872  -0.090 -11.547  0.00  0.00    -0.061 A 
ATOM      6  C   LIG d   1       3.897   0.890 -11.433  0.00  0.00    -0.060 A 
ATOM      7  C   LIG d   1       3.361   1.205 -10.203  0.00  0.00    -0.038 A 
ATOM      8  C   LIG d   1       3.802   0.544  -9.061  0.00  0.00     0.048 A 
ATOM      9  N   LIG d   1       3.452   0.657  -7.725  0.00  0.00    -0.353 N 
ATOM     10  H   LIG d   1       2.790   1.274  -7.377  0.00  0.00     0.166 HD
ATOM     11  C   LIG d   1       4.176  -0.227  -6.966  0.00  0.00     0.070 A 
ATOM     12  C   LIG d   1       4.213  -0.523  -5.589  0.00  0.00     0.111 A 
ATOM     13  C   LIG d   1       5.081  -1.508  -5.121  0.00  0.00     0.226 A 
ATOM     14  N   LIG d   1       5.873  -2.154  -5.969  0.00  0.00    -0.084 N 
ATOM     15  C   LIG d   1       5.140  -1.869  -3.660  0.00  0.00     0.041 C 
ATOM     16  C   LIG d   1       4.635  -0.724  -2.787  0.00  0.00    -0.018 C 
ATOM     17  C   LIG d   1       3.226  -0.320  -3.242  0.00  0.00     0.016 C 
ATOM     18  C   LIG d   1       3.344   0.209  -4.657  0.00  0.00     0.172 C 
ATOM     19  O   LIG d   1       2.742   1.202  -5.008  0.00  0.00    -0.292 OA
ATOM     20  H   LIG d   1       6.076  -1.522 -10.518  0.00  0.00     0.062 H 
ATOM     21  H   LIG d   1       5.284  -0.329 -12.516  0.00  0.00     0.062 H 
ATOM     22  H   LIG d   1       3.555   1.409 -12.316  0.00  0.00     0.062 H 
ATOM     23  H   LIG d   1       2.603   1.970 -10.125  0.00  0.00     0.064 H 
ATOM     24  H   LIG d   1       4.523  -2.750  -3.485  0.00  0.00     0.038 H 
ATOM     25  H   LIG d   1       6.172  -2.094  -3.389  0.00  0.00     0.038 H 
ATOM     26  H   LIG d   1       2.624  -1.117  -3.210  0.00  0.00     0.035 H 
ATOM     27  H   LIG d   1       2.834   0.458  -2.588  0.00  0.00     0.035 H 
ENDROOT
BRANCH  14  28
ATOM     28  N   LIG d   1       6.741  -3.133  -5.468  0.00  0.00    -0.118 N 
ATOM     29  H   LIG d   1       7.600  -2.878  -5.100  0.00  0.00     0.223 HD
BRANCH  28  30
ATOM     30  C   LIG d   1       6.368  -4.478  -5.499  0.00  0.00     0.088 A 
ATOM     31  C   LIG d   1       5.024  -4.828  -5.541  0.00  0.00    -0.035 A 
ATOM     32  C   LIG d   1       4.658  -6.159  -5.572  0.00  0.00    -0.060 A 
ATOM     33  H   LIG d   1       4.265  -4.059  -5.550  0.00  0.00     0.064 H 
ATOM     34  C   LIG d   1       5.629  -7.144  -5.561  0.00  0.00    -0.062 A 
ATOM     35  H   LIG d   1       3.614  -6.432  -5.605  0.00  0.00     0.062 H 
ATOM     36  C   LIG d   1       6.967  -6.801  -5.520  0.00  0.00    -0.060 A 
ATOM     37  H   LIG d   1       5.340  -8.185  -5.586  0.00  0.00     0.062 H 
ATOM     38  C   LIG d   1       7.340  -5.471  -5.494  0.00  0.00    -0.035 A 
ATOM     39  H   LIG d   1       7.723  -7.573  -5.512  0.00  0.00     0.062 H 
ATOM     40  H   LIG d   1       8.386  -5.203  -5.467  0.00  0.00     0.064 H 
ENDBRANCH  28  30
ENDBRANCH  14  28
BRANCH   1  41
ATOM     41  C   LIG d   1       6.803  -2.685  -8.169  0.00  0.00     0.024 C 
ATOM     42  H   LIG d   1       6.461  -3.717  -8.241  0.00  0.00     0.034 H 
ATOM     43  H   LIG d   1       6.806  -2.233  -9.161  0.00  0.00     0.034 H 
ATOM     44  H   LIG d   1       7.811  -2.663  -7.756  0.00  0.00     0.034 H 
ENDBRANCH   1  41
BRANCH  16  45
ATOM     45  C   LIG d   1       4.588  -1.178  -1.326  0.00  0.00    -0.059 C 
ATOM     46  H   LIG d   1       4.408  -0.315  -0.684  0.00  0.00     0.024 H 
ATOM     47  H   LIG d   1       3.785  -1.903  -1.196  0.00  0.00     0.024 H 
ATOM     48  H   LIG d   1       5.539  -1.639  -1.059  0.00  0.00     0.024 H 
ENDBRANCH  16  45
BRANCH  16  49
ATOM     49  C   LIG d   1       5.577   0.474  -2.919  0.00  0.00    -0.059 C 
ATOM     50  H   LIG d   1       5.438   0.940  -3.895  0.00  0.00     0.024 H 
ATOM     51  H   LIG d   1       5.357   1.198  -2.135  0.00  0.00     0.024 H 
ATOM     52  H   LIG d   1       6.609   0.137  -2.821  0.00  0.00     0.024 H 
ENDBRANCH  16  49
TORSDOF 5
ENDMDL
MODEL 6
REMARK VINA RESULT:      -7.0      3.184      5.693
REMARK  5 active torsions:
REMARK  status: ('A' for Active; 'I' for Inactive)
REMARK    1  A    between atoms: C_1  and  C_2 
REMARK    2  A    between atoms: N_15  and  N_16 
REMARK    3  A    between atoms: N_16  and  C_17 
REMARK    4  A    between atoms: C_24  and  C_28 
REMARK    5  A    between atoms: C_24  and  C_29 
ROOT
ATOM      1  C   LIG d   1       6.797  -0.189  -6.252  0.00  0.00     0.220 A 
ATOM      2  C   LIG d   1       7.263   0.809  -7.099  0.00  0.00     0.077 A 
ATOM      3  C   LIG d   1       8.309   1.842  -6.999  0.00  0.00     0.013 A 
ATOM      4  C   LIG d   1       9.233   2.183  -6.016  0.00  0.00    -0.052 A 
ATOM      5  C   LIG d   1      10.105   3.229  -6.227  0.00  0.00    -0.061 A 
ATOM      6  C   LIG d   1      10.065   3.942  -7.415  0.00  0.00    -0.060 A 
ATOM      7  C   LIG d   1       9.155   3.615  -8.398  0.00  0.00    -0.038 A 
ATOM      8  C   LIG d   1       8.263   2.566  -8.201  0.00  0.00     0.048 A 
ATOM      9  N   LIG d   1       7.262   2.032  -8.994  0.00  0.00    -0.353 N 
ATOM     10  H   LIG d   1       7.027   2.352  -9.879  0.00  0.00     0.166 HD
ATOM     11  C   LIG d   1       6.650   0.986  -8.352  0.00  0.00     0.070 A 
ATOM     12  C   LIG d   1       5.600   0.113  -8.698  0.00  0.00     0.111 A 
ATOM     13  C   LIG d   1       5.204  -0.877  -7.799  0.00  0.00     0.226 A 
ATOM     14  N   LIG d   1       5.809  -0.986  -6.622  0.00  0.00    -0.084 N 
ATOM     15  C   LIG d   1       4.099  -1.843  -8.136  0.00  0.00     0.041 C 
ATOM     16  C   LIG d   1       3.170  -1.271  -9.202  0.00  0.00    -0.018 C 
ATOM     17  C   LIG d   1       3.995  -0.862 -10.431  0.00  0.00     0.016 C 
ATOM     18  C   LIG d   1       4.926   0.252  -9.997  0.00  0.00     0.172 C 
ATOM     19  O   LIG d   1       5.109   1.226 -10.698  0.00  0.00    -0.292 OA
ATOM     20  H   LIG d   1       9.266   1.629  -5.089  0.00  0.00     0.062 H 
ATOM     21  H   LIG d   1      10.822   3.494  -5.463  0.00  0.00     0.062 H 
ATOM     22  H   LIG d   1      10.752   4.760  -7.572  0.00  0.00     0.062 H 
ATOM     23  H   LIG d   1       9.132   4.177  -9.320  0.00  0.00     0.064 H 
ATOM     24  H   LIG d   1       4.536  -2.771  -8.504  0.00  0.00     0.038 H 
ATOM     25  H   LIG d   1       3.521  -2.052  -7.236  0.00  0.00     0.038 H 
ATOM     26  H   LIG d   1       4.515  -1.650 -10.760  0.00  0.00     0.035 H 
ATOM     27  H   LIG d   1       3.334  -0.505 -11.220  0.00  0.00     0.035 H 
ENDROOT
BRANCH  14  28
ATOM     28  N   LIG d   1       5.384  -1.985  -5.736  0.00  0.00    -0.118 N 
ATOM     29  H   LIG d   1       5.679  -2.900  -5.859  0.00  0.00     0.223 HD
BRANCH  28  30
ATOM     30  C   LIG d   1       4.536  -1.662  -4.675  0.00  0.00     0.088 A 
ATOM     31  C   LIG d   1       4.598  -2.383  -3.489  0.00  0.00    -0.035 A 
ATOM     32  C   LIG d   1       3.758  -2.061  -2.442  0.00  0.00    -0.060 A 
ATOM     33  H   LIG d   1       5.304  -3.193  -3.385  0.00  0.00     0.064 H 
ATOM     34  C   LIG d   1       2.855  -1.022  -2.573  0.00  0.00    -0.062 A 
ATOM     35  H   LIG d   1       3.806  -2.620  -1.519  0.00  0.00     0.062 H 
ATOM     36  C   LIG d   1       2.789  -0.303  -3.752  0.00  0.00    -0.060 A 
ATOM     37  H   LIG d   1       2.199  -0.771  -1.752  0.00  0.00     0.062 H 
ATOM     38  C   LIG d   1       3.630  -0.615  -4.801  0.00  0.00    -0.035 A 
ATOM     39  H   LIG d   1       2.082   0.508  -3.850  0.00  0.00     0.062 H 
ATOM     40  H   LIG d   1       3.582  -0.050  -5.720  0.00  0.00     0.064 H 
ENDBRANCH  28  30
ENDBRANCH  14  28
BRANCH   1  41
ATOM     41  C   LIG d   1       7.435  -0.374  -4.899  0.00  0.00     0.024 C 
ATOM     42  H   LIG d   1       7.361   0.555  -4.333  0.00  0.00     0.034 H 
ATOM     43  H   LIG d   1       6.921  -1.169  -4.361  0.00  0.00     0.034 H 
ATOM     44  H   LIG d   1       8.484  -0.639  -5.026  0.00  0.00     0.034 H 
ENDBRANCH   1  41
BRANCH  16  45
ATOM     45  C   LIG d   1       2.144  -2.331  -9.608  0.00  0.00    -0.059 C 
ATOM     46  H   LIG d   1       2.620  -3.312  -9.614  0.00  0.00     0.024 H 
ATOM     47  H   LIG d   1       1.319  -2.331  -8.896  0.00  0.00     0.024 H 
ATOM     48  H   LIG d   1       1.763  -2.106 -10.604  0.00  0.00     0.024 H 
ENDBRANCH  16  45
BRANCH  16  49
ATOM     49  C   LIG d   1       2.444  -0.046  -8.645  0.00  0.00    -0.059 C 
ATOM     50  H   LIG d   1       1.631   0.232  -9.316  0.00  0.00     0.024 H 
ATOM     51  H   LIG d   1       2.039  -0.280  -7.661  0.00  0.00     0.024 H 
ATOM     52  H   LIG d   1       3.145   0.785  -8.560  0.00  0.00     0.024 H 
ENDBRANCH  16  49
TORSDOF 5
ENDMDL
MODEL 7
REMARK VINA RESULT:      -6.9      3.495      5.628
REMARK  5 active torsions:
REMARK  status: ('A' for Active; 'I' for Inactive)
REMARK    1  A    between atoms: C_1  and  C_2 
REMARK    2  A    between atoms: N_15  and  N_16 
REMARK    3  A    between atoms: N_16  and  C_17 
REMARK    4  A    between atoms: C_24  and  C_28 
REMARK    5  A    between atoms: C_24  and  C_29 
ROOT
ATOM      1  C   LIG d   1       5.951  -0.470  -7.138  0.00  0.00     0.220 A 
ATOM      2  C   LIG d   1       4.666  -0.440  -7.665  0.00  0.00     0.077 A 
ATOM      3  C   LIG d   1       4.109  -0.462  -9.028  0.00  0.00     0.013 A 
ATOM      4  C   LIG d   1       4.675  -0.540 -10.298  0.00  0.00    -0.052 A 
ATOM      5  C   LIG d   1       3.864  -0.540 -11.412  0.00  0.00    -0.061 A 
ATOM      6  C   LIG d   1       2.487  -0.463 -11.273  0.00  0.00    -0.060 A 
ATOM      7  C   LIG d   1       1.912  -0.385 -10.022  0.00  0.00    -0.038 A 
ATOM      8  C   LIG d   1       2.715  -0.378  -8.886  0.00  0.00     0.048 A 
ATOM      9  N   LIG d   1       2.418  -0.305  -7.535  0.00  0.00    -0.353 N 
ATOM     10  H   LIG d   1       1.523  -0.242  -7.168  0.00  0.00     0.166 HD
ATOM     11  C   LIG d   1       3.569  -0.335  -6.791  0.00  0.00     0.070 A 
ATOM     12  C   LIG d   1       3.834  -0.293  -5.407  0.00  0.00     0.111 A 
ATOM     13  C   LIG d   1       5.154  -0.348  -4.959  0.00  0.00     0.226 A 
ATOM     14  N   LIG d   1       6.150  -0.429  -5.832  0.00  0.00    -0.084 N 
ATOM     15  C   LIG d   1       5.480  -0.324  -3.489  0.00  0.00     0.041 C 
ATOM     16  C   LIG d   1       4.354   0.315  -2.681  0.00  0.00    -0.018 C 
ATOM     17  C   LIG d   1       3.036  -0.411  -2.984  0.00  0.00     0.016 C 
ATOM     18  C   LIG d   1       2.725  -0.187  -4.450  0.00  0.00     0.172 C 
ATOM     19  O   LIG d   1       1.599   0.071  -4.820  0.00  0.00    -0.292 OA
ATOM     20  H   LIG d   1       5.748  -0.600 -10.409  0.00  0.00     0.062 H 
ATOM     21  H   LIG d   1       4.303  -0.601 -12.397  0.00  0.00     0.062 H 
ATOM     22  H   LIG d   1       1.859  -0.464 -12.151  0.00  0.00     0.062 H 
ATOM     23  H   LIG d   1       0.838  -0.325  -9.925  0.00  0.00     0.064 H 
ATOM     24  H   LIG d   1       5.634  -1.346  -3.141  0.00  0.00     0.038 H 
ATOM     25  H   LIG d   1       6.396   0.247  -3.336  0.00  0.00     0.038 H 
ATOM     26  H   LIG d   1       3.139  -1.386  -2.788  0.00  0.00     0.035 H 
ATOM     27  H   LIG d   1       2.236   0.001  -2.369  0.00  0.00     0.035 H 
ENDROOT
BRANCH  14  28
ATOM     28  N   LIG d   1       7.465  -0.475  -5.351  0.00  0.00    -0.118 N 
ATOM     29  H   LIG d   1       7.838  -1.312  -5.035  0.00  0.00     0.223 HD
BRANCH  28  30
ATOM     30  C   LIG d   1       8.239   0.687  -5.325  0.00  0.00     0.088 A 
ATOM     31  C   LIG d   1       9.430   0.747  -6.040  0.00  0.00    -0.035 A 
ATOM     32  C   LIG d   1      10.193   1.898  -6.013  0.00  0.00    -0.060 A 
ATOM     33  H   LIG d   1       9.758  -0.105  -6.617  0.00  0.00     0.064 H 
ATOM     34  C   LIG d   1       9.773   2.990  -5.276  0.00  0.00    -0.062 A 
ATOM     35  H   LIG d   1      11.118   1.945  -6.569  0.00  0.00     0.062 H 
ATOM     36  C   LIG d   1       8.589   2.934  -4.564  0.00  0.00    -0.060 A 
ATOM     37  H   LIG d   1      10.371   3.889  -5.257  0.00  0.00     0.062 H 
ATOM     38  C   LIG d   1       7.818   1.789  -4.591  0.00  0.00    -0.035 A 
ATOM     39  H   LIG d   1       8.265   3.790  -3.989  0.00  0.00     0.062 H 
ATOM     40  H   LIG d   1       6.892   1.748  -4.038  0.00  0.00     0.064 H 
ENDBRANCH  28  30
ENDBRANCH  14  28
BRANCH   1  41
ATOM     41  C   LIG d   1       7.133  -0.562  -8.068  0.00  0.00     0.024 C 
ATOM     42  H   LIG d   1       7.746  -1.420  -7.793  0.00  0.00     0.034 H 
ATOM     43  H   LIG d   1       6.781  -0.681  -9.093  0.00  0.00     0.034 H 
ATOM     44  H   LIG d   1       7.727   0.348  -7.992  0.00  0.00     0.034 H 
ENDBRANCH   1  41
BRANCH  16  45
ATOM     45  C   LIG d   1       4.668   0.200  -1.188  0.00  0.00    -0.059 C 
ATOM     46  H   LIG d   1       5.745   0.097  -1.051  0.00  0.00     0.024 H 
ATOM     47  H   LIG d   1       4.319   1.094  -0.673  0.00  0.00     0.024 H 
ATOM     48  H   LIG d   1       4.164  -0.675  -0.777  0.00  0.00     0.024 H 
ENDBRANCH  16  45
BRANCH  16  49
ATOM     49  C   LIG d   1       4.225   1.790  -3.063  0.00  0.00    -0.059 C 
ATOM     50  H   LIG d   1       3.932   1.870  -4.111  0.00  0.00     0.024 H 
ATOM     51  H   LIG d   1       3.468   2.263  -2.437  0.00  0.00     0.024 H 
ATOM     52  H   LIG d   1       5.182   2.289  -2.914  0.00  0.00     0.024 H 
ENDBRANCH  16  49
TORSDOF 5
ENDMDL
MODEL 8
REMARK VINA RESULT:      -6.9      1.787      4.812
REMARK  5 active torsions:
REMARK  status: ('A' for Active; 'I' for Inactive)
REMARK    1  A    between atoms: C_1  and  C_2 
REMARK    2  A    between atoms: N_15  and  N_16 
REMARK    3  A    between atoms: N_16  and  C_17 
REMARK    4  A    between atoms: C_24  and  C_28 
REMARK    5  A    between atoms: C_24  and  C_29 
ROOT
ATOM      1  C   LIG d   1       3.617  -0.619  -7.836  0.00  0.00     0.220 A 
ATOM      2  C   LIG d   1       3.274  -1.570  -8.790  0.00  0.00     0.077 A 
ATOM      3  C   LIG d   1       2.319  -1.609  -9.911  0.00  0.00     0.013 A 
ATOM      4  C   LIG d   1       1.417  -0.689 -10.438  0.00  0.00    -0.052 A 
ATOM      5  C   LIG d   1       0.642  -1.033 -11.524  0.00  0.00    -0.061 A 
ATOM      6  C   LIG d   1       0.757  -2.293 -12.093  0.00  0.00    -0.060 A 
ATOM      7  C   LIG d   1       1.647  -3.213 -11.581  0.00  0.00    -0.038 A 
ATOM      8  C   LIG d   1       2.433  -2.886 -10.481  0.00  0.00     0.048 A 
ATOM      9  N   LIG d   1       3.386  -3.597  -9.771  0.00  0.00    -0.353 N 
ATOM     10  H   LIG d   1       3.654  -4.509  -9.966  0.00  0.00     0.166 HD
ATOM     11  C   LIG d   1       3.894  -2.831  -8.754  0.00  0.00     0.070 A 
ATOM     12  C   LIG d   1       4.864  -3.058  -7.757  0.00  0.00     0.111 A 
ATOM     13  C   LIG d   1       5.165  -2.043  -6.849  0.00  0.00     0.226 A 
ATOM     14  N   LIG d   1       4.534  -0.878  -6.921  0.00  0.00    -0.084 N 
ATOM     15  C   LIG d   1       6.208  -2.237  -5.780  0.00  0.00     0.041 C 
ATOM     16  C   LIG d   1       6.418  -3.716  -5.472  0.00  0.00    -0.018 C 
ATOM     17  C   LIG d   1       6.754  -4.464  -6.770  0.00  0.00     0.016 C 
ATOM     18  C   LIG d   1       5.545  -4.357  -7.677  0.00  0.00     0.172 C 
ATOM     19  O   LIG d   1       5.153  -5.312  -8.315  0.00  0.00    -0.292 OA
ATOM     20  H   LIG d   1       1.325   0.293  -9.997  0.00  0.00     0.062 H 
ATOM     21  H   LIG d   1      -0.059  -0.320 -11.934  0.00  0.00     0.062 H 
ATOM     22  H   LIG d   1       0.146  -2.554 -12.943  0.00  0.00     0.062 H 
ATOM     23  H   LIG d   1       1.729  -4.191 -12.031  0.00  0.00     0.064 H 
ATOM     24  H   LIG d   1       7.150  -1.805  -6.117  0.00  0.00     0.038 H 
ATOM     25  H   LIG d   1       5.886  -1.727  -4.871  0.00  0.00     0.038 H 
ATOM     26  H   LIG d   1       7.556  -4.046  -7.197  0.00  0.00     0.035 H 
ATOM     27  H   LIG d   1       6.962  -5.511  -6.552  0.00  0.00     0.035 H 
ENDROOT
BRANCH  14  28
ATOM     28  N   LIG d   1       4.853   0.119  -5.989  0.00  0.00    -0.118 N 
ATOM     29  H   LIG d   1       5.298   0.931  -6.279  0.00  0.00     0.223 HD
BRANCH  28  30
ATOM     30  C   LIG d   1       4.531  -0.056  -4.642  0.00  0.00     0.088 A 
ATOM     31  C   LIG d   1       5.445   0.293  -3.655  0.00  0.00    -0.035 A 
ATOM     32  C   LIG d   1       5.123   0.119  -2.324  0.00  0.00    -0.060 A 
ATOM     33  H   LIG d   1       6.407   0.701  -3.930  0.00  0.00     0.064 H 
ATOM     34  C   LIG d   1       3.892  -0.402  -1.972  0.00  0.00    -0.062 A 
ATOM     35  H   LIG d   1       5.834   0.390  -1.557  0.00  0.00     0.062 H 
ATOM     36  C   LIG d   1       2.979  -0.751  -2.950  0.00  0.00    -0.060 A 
ATOM     37  H   LIG d   1       3.642  -0.537  -0.929  0.00  0.00     0.062 H 
ATOM     38  C   LIG d   1       3.292  -0.574  -4.283  0.00  0.00    -0.035 A 
ATOM     39  H   LIG d   1       2.018  -1.158  -2.671  0.00  0.00     0.062 H 
ATOM     40  H   LIG d   1       2.577  -0.842  -5.047  0.00  0.00     0.064 H 
ENDBRANCH  28  30
ENDBRANCH  14  28
BRANCH   1  41
ATOM     41  C   LIG d   1       2.943   0.729  -7.854  0.00  0.00     0.024 C 
ATOM     42  H   LIG d   1       1.932   0.623  -8.247  0.00  0.00     0.034 H 
ATOM     43  H   LIG d   1       2.899   1.127  -6.841  0.00  0.00     0.034 H 
ATOM     44  H   LIG d   1       3.510   1.410  -8.488  0.00  0.00     0.034 H 
ENDBRANCH   1  41
BRANCH  16  45
ATOM     45  C   LIG d   1       7.573  -3.873  -4.480  0.00  0.00    -0.059 C 
ATOM     46  H   LIG d   1       8.334  -3.121  -4.688  0.00  0.00     0.024 H 
ATOM     47  H   LIG d   1       7.200  -3.743  -3.465  0.00  0.00     0.024 H 
ATOM     48  H   LIG d   1       8.006  -4.868  -4.582  0.00  0.00     0.024 H 
ENDBRANCH  16  45
BRANCH  16  49
ATOM     49  C   LIG d   1       5.141  -4.299  -4.864  0.00  0.00    -0.059 C 
ATOM     50  H   LIG d   1       5.128  -5.379  -5.011  0.00  0.00     0.024 H 
ATOM     51  H   LIG d   1       5.111  -4.076  -3.798  0.00  0.00     0.024 H 
ATOM     52  H   LIG d   1       4.272  -3.856  -5.352  0.00  0.00     0.024 H 
ENDBRANCH  16  49
TORSDOF 5
ENDMDL
MODEL 9
REMARK VINA RESULT:      -6.9      2.422      4.989
REMARK  5 active torsions:
REMARK  status: ('A' for Active; 'I' for Inactive)
REMARK    1  A    between atoms: C_1  and  C_2 
REMARK    2  A    between atoms: N_15  and  N_16 
REMARK    3  A    between atoms: N_16  and  C_17 
REMARK    4  A    between atoms: C_24  and  C_28 
REMARK    5  A    between atoms: C_24  and  C_29 
ROOT
ATOM      1  C   LIG d   1       4.832  -2.628  -7.151  0.00  0.00     0.220 A 
ATOM      2  C   LIG d   1       5.833  -3.359  -6.521  0.00  0.00     0.077 A 
ATOM      3  C   LIG d   1       6.615  -4.556  -6.876  0.00  0.00     0.013 A 
ATOM      4  C   LIG d   1       6.648  -5.388  -7.992  0.00  0.00    -0.052 A 
ATOM      5  C   LIG d   1       7.516  -6.457  -8.025  0.00  0.00    -0.061 A 
ATOM      6  C   LIG d   1       8.356  -6.708  -6.950  0.00  0.00    -0.060 A 
ATOM      7  C   LIG d   1       8.334  -5.893  -5.839  0.00  0.00    -0.038 A 
ATOM      8  C   LIG d   1       7.460  -4.812  -5.785  0.00  0.00     0.048 A 
ATOM      9  N   LIG d   1       7.225  -3.850  -4.816  0.00  0.00    -0.353 N 
ATOM     10  H   LIG d   1       7.683  -3.801  -3.963  0.00  0.00     0.166 HD
ATOM     11  C   LIG d   1       6.253  -2.978  -5.235  0.00  0.00     0.070 A 
ATOM     12  C   LIG d   1       5.649  -1.845  -4.656  0.00  0.00     0.111 A 
ATOM     13  C   LIG d   1       4.665  -1.154  -5.362  0.00  0.00     0.226 A 
ATOM     14  N   LIG d   1       4.296  -1.571  -6.568  0.00  0.00    -0.084 N 
ATOM     15  C   LIG d   1       4.007   0.073  -4.788  0.00  0.00     0.041 C 
ATOM     16  C   LIG d   1       4.105   0.093  -3.266  0.00  0.00    -0.018 C 
ATOM     17  C   LIG d   1       5.576  -0.041  -2.848  0.00  0.00     0.016 C 
ATOM     18  C   LIG d   1       6.054  -1.401  -3.315  0.00  0.00     0.172 C 
ATOM     19  O   LIG d   1       6.747  -2.100  -2.605  0.00  0.00    -0.292 OA
ATOM     20  H   LIG d   1       5.995  -5.194  -8.830  0.00  0.00     0.062 H 
ATOM     21  H   LIG d   1       7.542  -7.103  -8.891  0.00  0.00     0.062 H 
ATOM     22  H   LIG d   1       9.032  -7.549  -6.985  0.00  0.00     0.062 H 
ATOM     23  H   LIG d   1       8.992  -6.097  -5.007  0.00  0.00     0.064 H 
ATOM     24  H   LIG d   1       4.496   0.961  -5.189  0.00  0.00     0.038 H 
ATOM     25  H   LIG d   1       2.956   0.083  -5.078  0.00  0.00     0.038 H 
ATOM     26  H   LIG d   1       6.111   0.688  -3.274  0.00  0.00     0.035 H 
ATOM     27  H   LIG d   1       5.661   0.030  -1.764  0.00  0.00     0.035 H 
ENDROOT
BRANCH  14  28
ATOM     28  N   LIG d   1       3.299  -0.860  -7.250  0.00  0.00    -0.118 N 
ATOM     29  H   LIG d   1       2.378  -1.161  -7.213  0.00  0.00     0.223 HD
BRANCH  28  30
ATOM     30  C   LIG d   1       3.632   0.280  -7.983  0.00  0.00     0.088 A 
ATOM     31  C   LIG d   1       4.952   0.512  -8.350  0.00  0.00    -0.035 A 
ATOM     32  C   LIG d   1       5.278   1.641  -9.076  0.00  0.00    -0.060 A 
ATOM     33  H   LIG d   1       5.723  -0.191  -8.069  0.00  0.00     0.064 H 
ATOM     34  C   LIG d   1       4.292   2.540  -9.437  0.00  0.00    -0.062 A 
ATOM     35  H   LIG d   1       6.304   1.821  -9.361  0.00  0.00     0.062 H 
ATOM     36  C   LIG d   1       2.977   2.313  -9.073  0.00  0.00    -0.060 A 
ATOM     37  H   LIG d   1       4.549   3.422 -10.005  0.00  0.00     0.062 H 
ATOM     38  C   LIG d   1       2.643   1.184  -8.353  0.00  0.00    -0.035 A 
ATOM     39  H   LIG d   1       2.209   3.018  -9.358  0.00  0.00     0.062 H 
ATOM     40  H   LIG d   1       1.616   1.005  -8.074  0.00  0.00     0.064 H 
ENDBRANCH  28  30
ENDBRANCH  14  28
BRANCH   1  41
ATOM     41  C   LIG d   1       4.361  -3.041  -8.522  0.00  0.00     0.024 C 
ATOM     42  H   LIG d   1       5.126  -3.653  -8.999  0.00  0.00     0.034 H 
ATOM     43  H   LIG d   1       3.440  -3.617  -8.431  0.00  0.00     0.034 H 
ATOM     44  H   LIG d   1       4.177  -2.153  -9.125  0.00  0.00     0.034 H 
ENDBRANCH   1  41
BRANCH  16  45
ATOM     45  C   LIG d   1       3.543   1.414  -2.736  0.00  0.00    -0.059 C 
ATOM     46  H   LIG d   1       3.380   2.099  -3.568  0.00  0.00     0.024 H 
ATOM     47  H   LIG d   1       2.597   1.229  -2.227  0.00  0.00     0.024 H 
ATOM     48  H   LIG d   1       4.252   1.854  -2.034  0.00  0.00     0.024 H 
ENDBRANCH  16  45
BRANCH  16  49
ATOM     49  C   LIG d   1       3.301  -1.072  -2.687  0.00  0.00    -0.059 C 
ATOM     50  H   LIG d   1       2.519  -1.360  -3.390  0.00  0.00     0.024 H 
ATOM     51  H   LIG d   1       3.963  -1.920  -2.513  0.00  0.00     0.024 H 
ATOM     52  H   LIG d   1       2.847  -0.767  -1.744  0.00  0.00     0.024 H 
ENDBRANCH  16  49
TORSDOF 5
ENDMDL
