MODEL 1
REMARK VINA RESULT:      -7.9      0.000      0.000
REMARK  12 active torsions:
REMARK  status: ('A' for Active; 'I' for Inactive)
REMARK    1  A    between atoms: C_1  and  C_2 
REMARK    2  A    between atoms: C_2  and  C_3 
REMARK    3  A    between atoms: C_3  and  C_5 
REMARK    4  A    between atoms: C_3  and  N_27 
REMARK    5  A    between atoms: C_5  and  O_7 
REMARK    6  A    between atoms: O_7  and  C_8 
REMARK    7  A    between atoms: C_12  and  C_19 
REMARK    8  A    between atoms: C_22  and  O_25 
REMARK    9  A    between atoms: O_25  and  C_26 
REMARK   10  A    between atoms: N_27  and  S_28 
REMARK   11  A    between atoms: S_28  and  C_31 
REMARK   12  A    between atoms: C_34  and  C_37 
ROOT
ATOM      1  O   LIG d   1       6.574  -0.711  -5.057  0.00  0.00    -0.425 OA
ENDROOT
BRANCH   1   2
ATOM      2  C   LIG d   1       5.957  -1.076  -3.921  0.00  0.00     0.331 C 
ATOM      3  O   LIG d   1       6.561  -1.696  -3.078  0.00  0.00    -0.249 OA
BRANCH   2   4
ATOM      4  C   LIG d   1       4.511  -0.714  -3.699  0.00  0.00     0.126 C 
ATOM      5  H   LIG d   1       3.873  -1.499  -4.106  0.00  0.00     0.059 H 
BRANCH   4   6
ATOM      6  C   LIG d   1       4.247  -0.570  -2.199  0.00  0.00    -0.028 C 
ATOM      7  H   LIG d   1       4.926  -1.219  -1.647  0.00  0.00     0.028 H 
ATOM      8  H   LIG d   1       3.217  -0.851  -1.981  0.00  0.00     0.028 H 
BRANCH   6   9
ATOM      9  C   LIG d   1       4.477   0.884  -1.779  0.00  0.00    -0.063 C 
ATOM     10  H   LIG d   1       3.515   1.373  -1.621  0.00  0.00     0.023 H 
ATOM     11  H   LIG d   1       5.053   0.908  -0.854  0.00  0.00     0.023 H 
ATOM     12  H   LIG d   1       5.024   1.406  -2.563  0.00  0.00     0.023 H 
ENDBRANCH   6   9
ENDBRANCH   4   6
BRANCH   4  13
ATOM     13  N   LIG d   1       4.216   0.553  -4.372  0.00  0.00    -0.176 N 
ATOM     14  H   LIG d   1       4.886   1.253  -4.401  0.00  0.00     0.149 HD
BRANCH  13  15
ATOM     15  S   LIG d   1       2.738   0.790  -5.081  0.00  0.00     0.059 S 
ATOM     16  O   LIG d   1       1.902  -0.272  -4.641  0.00  0.00    -0.153 OA
ATOM     17  O   LIG d   1       2.405   2.156  -4.877  0.00  0.00    -0.153 OA
BRANCH  15  18
ATOM     18  C   LIG d   1       2.952   0.577  -6.817  0.00  0.00     0.105 A 
ATOM     19  C   LIG d   1       2.720   1.634  -7.677  0.00  0.00    -0.035 A 
ATOM     20  C   LIG d   1       2.887   1.467  -9.038  0.00  0.00    -0.057 A 
ATOM     21  H   LIG d   1       2.407   2.592  -7.284  0.00  0.00     0.064 H 
ATOM     22  C   LIG d   1       3.287   0.243  -9.541  0.00  0.00    -0.050 A 
ATOM     23  H   LIG d   1       2.705   2.294  -9.710  0.00  0.00     0.062 H 
ATOM     24  C   LIG d   1       3.520  -0.814  -8.681  0.00  0.00    -0.057 A 
ATOM     25  C   LIG d   1       3.356  -0.646  -7.318  0.00  0.00    -0.035 A 
ATOM     26  H   LIG d   1       3.833  -1.770  -9.073  0.00  0.00     0.062 H 
ATOM     27  H   LIG d   1       3.541  -1.470  -6.647  0.00  0.00     0.064 H 
BRANCH  22  28
ATOM     28  C   LIG d   1       3.471   0.062 -11.025  0.00  0.00    -0.040 C 
ATOM     29  H   LIG d   1       2.658   0.556 -11.555  0.00  0.00     0.028 H 
ATOM     30  H   LIG d   1       4.422   0.498 -11.329  0.00  0.00     0.028 H 
ATOM     31  H   LIG d   1       3.467  -1.002 -11.264  0.00  0.00     0.028 H 
ENDBRANCH  22  28
ENDBRANCH  15  18
ENDBRANCH  13  15
ENDBRANCH   4  13
ENDBRANCH   2   4
ENDBRANCH   1   2
BRANCH   1  32
ATOM     32  C   LIG d   1       7.290   0.443  -5.025  0.00  0.00     0.135 A 
ATOM     33  C   LIG d   1       7.787   0.975  -6.202  0.00  0.00     0.024 A 
ATOM     34  C   LIG d   1       8.518   2.155  -6.170  0.00  0.00     0.143 A 
ATOM     35  H   LIG d   1       7.607   0.474  -7.142  0.00  0.00     0.069 H 
ATOM     36  C   LIG d   1       8.742   2.794  -4.940  0.00  0.00     0.025 A 
ATOM     37  O   LIG d   1       9.012   2.688  -7.308  0.00  0.00    -0.422 OA
ATOM     38  C   LIG d   1       8.234   2.243  -3.761  0.00  0.00    -0.047 A 
ATOM     39  C   LIG d   1       9.519   4.044  -4.919  0.00  0.00    -0.001 A 
ATOM     40  C   LIG d   1       7.511   1.085  -3.809  0.00  0.00    -0.018 A 
ATOM     41  H   LIG d   1       8.406   2.735  -2.815  0.00  0.00     0.063 H 
ATOM     42  H   LIG d   1       7.114   0.662  -2.897  0.00  0.00     0.065 H 
ATOM     43  C   LIG d   1       9.994   4.531  -6.124  0.00  0.00     0.031 A 
ATOM     44  C   LIG d   1       9.722   3.828  -7.309  0.00  0.00     0.338 A 
ATOM     45  H   LIG d   1      10.569   5.444  -6.153  0.00  0.00     0.070 H 
ATOM     46  O   LIG d   1      10.144   4.263  -8.365  0.00  0.00    -0.245 OA
BRANCH  39  47
ATOM     47  C   LIG d   1       9.785   4.756  -3.651  0.00  0.00    -0.017 A 
ATOM     48  C   LIG d   1      10.603   4.174  -2.678  0.00  0.00    -0.051 A 
ATOM     49  C   LIG d   1      10.848   4.841  -1.499  0.00  0.00    -0.019 A 
ATOM     50  H   LIG d   1      11.041   3.202  -2.852  0.00  0.00     0.062 H 
ATOM     51  C   LIG d   1      10.285   6.091  -1.275  0.00  0.00     0.120 A 
ATOM     52  H   LIG d   1      11.480   4.392  -0.746  0.00  0.00     0.065 H 
ATOM     53  C   LIG d   1       9.472   6.674  -2.240  0.00  0.00    -0.019 A 
ATOM     54  C   LIG d   1       9.225   6.015  -3.424  0.00  0.00    -0.051 A 
ATOM     55  H   LIG d   1       9.036   7.646  -2.062  0.00  0.00     0.065 H 
ATOM     56  H   LIG d   1       8.597   6.470  -4.175  0.00  0.00     0.062 H 
BRANCH  51  57
ATOM     57  O   LIG d   1      10.529   6.746  -0.111  0.00  0.00    -0.495 OA
BRANCH  57  58
ATOM     58  C   LIG d   1      11.095   5.983   0.957  0.00  0.00     0.079 C 
ATOM     59  H   LIG d   1      11.999   5.484   0.608  0.00  0.00     0.066 H 
ATOM     60  H   LIG d   1      11.343   6.647   1.785  0.00  0.00     0.066 H 
ATOM     61  H   LIG d   1      10.375   5.237   1.292  0.00  0.00     0.066 H 
ENDBRANCH  57  58
ENDBRANCH  51  57
ENDBRANCH  39  47
ENDBRANCH   1  32
TORSDOF 12
ENDMDL
MODEL 2
REMARK VINA RESULT:      -7.6      7.655     11.886
REMARK  12 active torsions:
REMARK  status: ('A' for Active; 'I' for Inactive)
REMARK    1  A    between atoms: C_1  and  C_2 
REMARK    2  A    between atoms: C_2  and  C_3 
REMARK    3  A    between atoms: C_3  and  C_5 
REMARK    4  A    between atoms: C_3  and  N_27 
REMARK    5  A    between atoms: C_5  and  O_7 
REMARK    6  A    between atoms: O_7  and  C_8 
REMARK    7  A    between atoms: C_12  and  C_19 
REMARK    8  A    between atoms: C_22  and  O_25 
REMARK    9  A    between atoms: O_25  and  C_26 
REMARK   10  A    between atoms: N_27  and  S_28 
REMARK   11  A    between atoms: S_28  and  C_31 
REMARK   12  A    between atoms: C_34  and  C_37 
ROOT
ATOM      1  O   LIG d   1       7.239  -6.608  -6.821  0.00  0.00    -0.425 OA
ENDROOT
BRANCH   1   2
ATOM      2  C   LIG d   1       7.936  -5.538  -6.403  0.00  0.00     0.331 C 
ATOM      3  O   LIG d   1       9.017  -5.296  -6.884  0.00  0.00    -0.249 OA
BRANCH   2   4
ATOM      4  C   LIG d   1       7.368  -4.640  -5.334  0.00  0.00     0.126 C 
ATOM      5  H   LIG d   1       6.748  -5.227  -4.658  0.00  0.00     0.059 H 
BRANCH   4   6
ATOM      6  C   LIG d   1       8.513  -3.997  -4.549  0.00  0.00    -0.028 C 
ATOM      7  H   LIG d   1       8.148  -3.108  -4.036  0.00  0.00     0.028 H 
ATOM      8  H   LIG d   1       9.314  -3.720  -5.234  0.00  0.00     0.028 H 
BRANCH   6   9
ATOM      9  C   LIG d   1       9.047  -4.996  -3.519  0.00  0.00    -0.063 C 
ATOM     10  H   LIG d   1       9.394  -4.457  -2.636  0.00  0.00     0.023 H 
ATOM     11  H   LIG d   1       8.252  -5.685  -3.234  0.00  0.00     0.023 H 
ATOM     12  H   LIG d   1       9.876  -5.555  -3.951  0.00  0.00     0.023 H 
ENDBRANCH   6   9
ENDBRANCH   4   6
BRANCH   4  13
ATOM     13  N   LIG d   1       6.555  -3.593  -5.958  0.00  0.00    -0.176 N 
ATOM     14  H   LIG d   1       6.953  -2.991  -6.605  0.00  0.00     0.149 HD
BRANCH  13  15
ATOM     15  S   LIG d   1       4.955  -3.437  -5.556  0.00  0.00     0.059 S 
ATOM     16  O   LIG d   1       4.286  -2.985  -6.725  0.00  0.00    -0.153 OA
ATOM     17  O   LIG d   1       4.588  -4.633  -4.882  0.00  0.00    -0.153 OA
BRANCH  15  18
ATOM     18  C   LIG d   1       4.839  -2.137  -4.373  0.00  0.00     0.105 A 
ATOM     19  C   LIG d   1       4.235  -2.366  -3.151  0.00  0.00    -0.035 A 
ATOM     20  C   LIG d   1       4.143  -1.346  -2.222  0.00  0.00    -0.057 A 
ATOM     21  H   LIG d   1       3.835  -3.344  -2.920  0.00  0.00     0.064 H 
ATOM     22  C   LIG d   1       4.656  -0.096  -2.516  0.00  0.00    -0.050 A 
ATOM     23  H   LIG d   1       3.672  -1.526  -1.268  0.00  0.00     0.062 H 
ATOM     24  C   LIG d   1       5.259   0.133  -3.738  0.00  0.00    -0.057 A 
ATOM     25  C   LIG d   1       5.355  -0.889  -4.665  0.00  0.00    -0.035 A 
ATOM     26  H   LIG d   1       5.660   1.109  -3.968  0.00  0.00     0.062 H 
ATOM     27  H   LIG d   1       5.830  -0.710  -5.618  0.00  0.00     0.064 H 
BRANCH  22  28
ATOM     28  C   LIG d   1       4.556   1.015  -1.504  0.00  0.00    -0.040 C 
ATOM     29  H   LIG d   1       3.682   0.856  -0.874  0.00  0.00     0.028 H 
ATOM     30  H   LIG d   1       5.454   1.024  -0.886  0.00  0.00     0.028 H 
ATOM     31  H   LIG d   1       4.463   1.970  -2.022  0.00  0.00     0.028 H 
ENDBRANCH  22  28
ENDBRANCH  15  18
ENDBRANCH  13  15
ENDBRANCH   4  13
ENDBRANCH   2   4
ENDBRANCH   1   2
BRANCH   1  32
ATOM     32  C   LIG d   1       6.921  -7.540  -5.885  0.00  0.00     0.135 A 
ATOM     33  C   LIG d   1       5.591  -7.817  -5.616  0.00  0.00     0.024 A 
ATOM     34  C   LIG d   1       5.266  -8.769  -4.661  0.00  0.00     0.143 A 
ATOM     35  H   LIG d   1       4.810  -7.293  -6.148  0.00  0.00     0.069 H 
ATOM     36  C   LIG d   1       6.294  -9.441  -3.979  0.00  0.00     0.025 A 
ATOM     37  O   LIG d   1       3.975  -9.052  -4.384  0.00  0.00    -0.422 OA
ATOM     38  C   LIG d   1       7.630  -9.149  -4.262  0.00  0.00    -0.047 A 
ATOM     39  C   LIG d   1       5.936 -10.449  -2.967  0.00  0.00    -0.001 A 
ATOM     40  C   LIG d   1       7.935  -8.214  -5.209  0.00  0.00    -0.018 A 
ATOM     41  H   LIG d   1       8.420  -9.667  -3.738  0.00  0.00     0.063 H 
ATOM     42  H   LIG d   1       8.969  -7.992  -5.431  0.00  0.00     0.065 H 
ATOM     43  C   LIG d   1       4.592 -10.686  -2.737  0.00  0.00     0.031 A 
ATOM     44  C   LIG d   1       3.629  -9.968  -3.465  0.00  0.00     0.338 A 
ATOM     45  H   LIG d   1       4.286 -11.416  -2.003  0.00  0.00     0.070 H 
ATOM     46  O   LIG d   1       2.448 -10.182  -3.256  0.00  0.00    -0.245 OA
BRANCH  39  47
ATOM     47  C   LIG d   1       6.978 -11.184  -2.220  0.00  0.00    -0.017 A 
ATOM     48  C   LIG d   1       7.481 -10.666  -1.024  0.00  0.00    -0.051 A 
ATOM     49  C   LIG d   1       8.452 -11.353  -0.332  0.00  0.00    -0.019 A 
ATOM     50  H   LIG d   1       7.108  -9.725  -0.644  0.00  0.00     0.062 H 
ATOM     51  C   LIG d   1       8.931 -12.563  -0.820  0.00  0.00     0.120 A 
ATOM     52  H   LIG d   1       8.841 -10.954   0.594  0.00  0.00     0.065 H 
ATOM     53  C   LIG d   1       8.434 -13.083  -2.009  0.00  0.00    -0.019 A 
ATOM     54  C   LIG d   1       7.460 -12.403  -2.705  0.00  0.00    -0.051 A 
ATOM     55  H   LIG d   1       8.810 -14.023  -2.385  0.00  0.00     0.065 H 
ATOM     56  H   LIG d   1       7.071 -12.809  -3.627  0.00  0.00     0.062 H 
BRANCH  51  57
ATOM     57  O   LIG d   1       9.889 -13.239  -0.134  0.00  0.00    -0.495 OA
BRANCH  57  58
ATOM     58  C   LIG d   1      10.770 -12.466   0.683  0.00  0.00     0.079 C 
ATOM     59  H   LIG d   1      11.592 -13.095   1.028  0.00  0.00     0.066 H 
ATOM     60  H   LIG d   1      11.168 -11.635   0.102  0.00  0.00     0.066 H 
ATOM     61  H   LIG d   1      10.223 -12.080   1.543  0.00  0.00     0.066 H 
ENDBRANCH  57  58
ENDBRANCH  51  57
ENDBRANCH  39  47
ENDBRANCH   1  32
TORSDOF 12
ENDMDL
MODEL 3
REMARK VINA RESULT:      -7.5      4.978      7.468
REMARK  12 active torsions:
REMARK  status: ('A' for Active; 'I' for Inactive)
REMARK    1  A    between atoms: C_1  and  C_2 
REMARK    2  A    between atoms: C_2  and  C_3 
REMARK    3  A    between atoms: C_3  and  C_5 
REMARK    4  A    between atoms: C_3  and  N_27 
REMARK    5  A    between atoms: C_5  and  O_7 
REMARK    6  A    between atoms: O_7  and  C_8 
REMARK    7  A    between atoms: C_12  and  C_19 
REMARK    8  A    between atoms: C_22  and  O_25 
REMARK    9  A    between atoms: O_25  and  C_26 
REMARK   10  A    between atoms: N_27  and  S_28 
REMARK   11  A    between atoms: S_28  and  C_31 
REMARK   12  A    between atoms: C_34  and  C_37 
ROOT
ATOM      1  O   LIG d   1       3.591  -5.245 -10.541  0.00  0.00    -0.425 OA
ENDROOT
BRANCH   1   2
ATOM      2  C   LIG d   1       2.307  -5.593 -10.358  0.00  0.00     0.331 C 
ATOM      3  O   LIG d   1       2.008  -6.356  -9.470  0.00  0.00    -0.249 OA
BRANCH   2   4
ATOM      4  C   LIG d   1       1.238  -5.033 -11.261  0.00  0.00     0.126 C 
ATOM      5  H   LIG d   1       1.551  -5.135 -12.300  0.00  0.00     0.059 H 
BRANCH   4   6
ATOM      6  C   LIG d   1      -0.066  -5.802 -11.043  0.00  0.00    -0.028 C 
ATOM      7  H   LIG d   1       0.121  -6.659 -10.398  0.00  0.00     0.028 H 
ATOM      8  H   LIG d   1      -0.451  -6.146 -12.003  0.00  0.00     0.028 H 
BRANCH   6   9
ATOM      9  C   LIG d   1      -1.096  -4.881 -10.383  0.00  0.00    -0.063 C 
ATOM     10  H   LIG d   1      -2.006  -5.445 -10.175  0.00  0.00     0.023 H 
ATOM     11  H   LIG d   1      -0.689  -4.491  -9.451  0.00  0.00     0.023 H 
ATOM     12  H   LIG d   1      -1.327  -4.055 -11.054  0.00  0.00     0.023 H 
ENDBRANCH   6   9
ENDBRANCH   4   6
BRANCH   4  13
ATOM     13  N   LIG d   1       1.030  -3.617 -10.951  0.00  0.00    -0.176 N 
ATOM     14  H   LIG d   1       0.664  -3.358 -10.091  0.00  0.00     0.149 HD
BRANCH  13  15
ATOM     15  S   LIG d   1       1.417  -2.458 -12.069  0.00  0.00     0.059 S 
ATOM     16  O   LIG d   1       2.470  -2.993 -12.860  0.00  0.00    -0.153 OA
ATOM     17  O   LIG d   1       0.191  -2.013 -12.633  0.00  0.00    -0.153 OA
BRANCH  15  18
ATOM     18  C   LIG d   1       2.093  -1.089 -11.189  0.00  0.00     0.105 A 
ATOM     19  C   LIG d   1       1.602  -0.761  -9.939  0.00  0.00    -0.035 A 
ATOM     20  C   LIG d   1       2.132   0.313  -9.249  0.00  0.00    -0.057 A 
ATOM     21  H   LIG d   1       0.805  -1.344  -9.501  0.00  0.00     0.064 H 
ATOM     22  C   LIG d   1       3.153   1.059  -9.809  0.00  0.00    -0.050 A 
ATOM     23  H   LIG d   1       1.749   0.569  -8.272  0.00  0.00     0.062 H 
ATOM     24  C   LIG d   1       3.643   0.731 -11.058  0.00  0.00    -0.057 A 
ATOM     25  C   LIG d   1       3.116  -0.347 -11.747  0.00  0.00    -0.035 A 
ATOM     26  H   LIG d   1       4.440   1.313 -11.496  0.00  0.00     0.062 H 
ATOM     27  H   LIG d   1       3.501  -0.605 -12.722  0.00  0.00     0.064 H 
BRANCH  22  28
ATOM     28  C   LIG d   1       3.731   2.229  -9.056  0.00  0.00    -0.040 C 
ATOM     29  H   LIG d   1       4.712   2.473  -9.461  0.00  0.00     0.028 H 
ATOM     30  H   LIG d   1       3.070   3.089  -9.159  0.00  0.00     0.028 H 
ATOM     31  H   LIG d   1       3.827   1.970  -8.001  0.00  0.00     0.028 H 
ENDBRANCH  22  28
ENDBRANCH  15  18
ENDBRANCH  13  15
ENDBRANCH   4  13
ENDBRANCH   2   4
ENDBRANCH   1   2
BRANCH   1  32
ATOM     32  C   LIG d   1       4.044  -4.172  -9.841  0.00  0.00     0.135 A 
ATOM     33  C   LIG d   1       4.988  -3.332 -10.407  0.00  0.00     0.024 A 
ATOM     34  C   LIG d   1       5.450  -2.235  -9.694  0.00  0.00     0.143 A 
ATOM     35  H   LIG d   1       5.363  -3.529 -11.401  0.00  0.00     0.069 H 
ATOM     36  C   LIG d   1       4.952  -1.993  -8.403  0.00  0.00     0.025 A 
ATOM     37  O   LIG d   1       6.371  -1.405 -10.229  0.00  0.00    -0.422 OA
ATOM     38  C   LIG d   1       4.000  -2.851  -7.846  0.00  0.00    -0.047 A 
ATOM     39  C   LIG d   1       5.450  -0.826  -7.655  0.00  0.00    -0.001 A 
ATOM     40  C   LIG d   1       3.550  -3.922  -8.563  0.00  0.00    -0.018 A 
ATOM     41  H   LIG d   1       3.617  -2.663  -6.854  0.00  0.00     0.063 H 
ATOM     42  H   LIG d   1       2.811  -4.583  -8.134  0.00  0.00     0.065 H 
ATOM     43  C   LIG d   1       6.394  -0.021  -8.268  0.00  0.00     0.031 A 
ATOM     44  C   LIG d   1       6.837  -0.337  -9.562  0.00  0.00     0.338 A 
ATOM     45  H   LIG d   1       6.786   0.844  -7.754  0.00  0.00     0.070 H 
ATOM     46  O   LIG d   1       7.668   0.378 -10.094  0.00  0.00    -0.245 OA
BRANCH  39  47
ATOM     47  C   LIG d   1       4.960  -0.526  -6.294  0.00  0.00    -0.017 A 
ATOM     48  C   LIG d   1       5.819  -0.646  -5.197  0.00  0.00    -0.051 A 
ATOM     49  C   LIG d   1       5.358  -0.366  -3.931  0.00  0.00    -0.019 A 
ATOM     50  H   LIG d   1       6.842  -0.960  -5.344  0.00  0.00     0.062 H 
ATOM     51  C   LIG d   1       4.042   0.037  -3.741  0.00  0.00     0.120 A 
ATOM     52  H   LIG d   1       6.021  -0.458  -3.082  0.00  0.00     0.065 H 
ATOM     53  C   LIG d   1       3.185   0.158  -4.829  0.00  0.00    -0.019 A 
ATOM     54  C   LIG d   1       3.639  -0.116  -6.099  0.00  0.00    -0.051 A 
ATOM     55  H   LIG d   1       2.162   0.472  -4.677  0.00  0.00     0.065 H 
ATOM     56  H   LIG d   1       2.974  -0.018  -6.944  0.00  0.00     0.062 H 
BRANCH  51  57
ATOM     57  O   LIG d   1       3.591   0.313  -2.490  0.00  0.00    -0.495 OA
BRANCH  57  58
ATOM     58  C   LIG d   1       4.497   0.971  -1.603  0.00  0.00     0.079 C 
ATOM     59  H   LIG d   1       5.045   0.227  -1.025  0.00  0.00     0.066 H 
ATOM     60  H   LIG d   1       5.201   1.570  -2.182  0.00  0.00     0.066 H 
ATOM     61  H   LIG d   1       3.939   1.618  -0.927  0.00  0.00     0.066 H 
ENDBRANCH  57  58
ENDBRANCH  51  57
ENDBRANCH  39  47
ENDBRANCH   1  32
TORSDOF 12
ENDMDL
MODEL 4
REMARK VINA RESULT:      -7.4      1.604      2.683
REMARK  12 active torsions:
REMARK  status: ('A' for Active; 'I' for Inactive)
REMARK    1  A    between atoms: C_1  and  C_2 
REMARK    2  A    between atoms: C_2  and  C_3 
REMARK    3  A    between atoms: C_3  and  C_5 
REMARK    4  A    between atoms: C_3  and  N_27 
REMARK    5  A    between atoms: C_5  and  O_7 
REMARK    6  A    between atoms: O_7  and  C_8 
REMARK    7  A    between atoms: C_12  and  C_19 
REMARK    8  A    between atoms: C_22  and  O_25 
REMARK    9  A    between atoms: O_25  and  C_26 
REMARK   10  A    between atoms: N_27  and  S_28 
REMARK   11  A    between atoms: S_28  and  C_31 
REMARK   12  A    between atoms: C_34  and  C_37 
ROOT
ATOM      1  O   LIG d   1       6.609  -0.566  -5.119  0.00  0.00    -0.425 OA
ENDROOT
BRANCH   1   2
ATOM      2  C   LIG d   1       5.307  -0.434  -5.420  0.00  0.00     0.331 C 
ATOM      3  O   LIG d   1       4.492  -0.313  -4.536  0.00  0.00    -0.249 OA
BRANCH   2   4
ATOM      4  C   LIG d   1       4.861  -0.438  -6.860  0.00  0.00     0.126 C 
ATOM      5  H   LIG d   1       5.696  -0.149  -7.499  0.00  0.00     0.059 H 
BRANCH   4   6
ATOM      6  C   LIG d   1       4.388  -1.842  -7.243  0.00  0.00    -0.028 C 
ATOM      7  H   LIG d   1       3.326  -1.813  -7.485  0.00  0.00     0.028 H 
ATOM      8  H   LIG d   1       4.552  -2.522  -6.407  0.00  0.00     0.028 H 
BRANCH   6   9
ATOM      9  C   LIG d   1       5.175  -2.331  -8.460  0.00  0.00    -0.063 C 
ATOM     10  H   LIG d   1       6.192  -1.937  -8.417  0.00  0.00     0.023 H 
ATOM     11  H   LIG d   1       5.208  -3.420  -8.458  0.00  0.00     0.023 H 
ATOM     12  H   LIG d   1       4.690  -1.982  -9.371  0.00  0.00     0.023 H 
ENDBRANCH   6   9
ENDBRANCH   4   6
BRANCH   4  13
ATOM     13  N   LIG d   1       3.761   0.514  -7.033  0.00  0.00    -0.176 N 
ATOM     14  H   LIG d   1       3.062   0.572  -6.365  0.00  0.00     0.149 HD
BRANCH  13  15
ATOM     15  S   LIG d   1       3.712   1.488  -8.372  0.00  0.00     0.059 S 
ATOM     16  O   LIG d   1       2.702   2.458  -8.131  0.00  0.00    -0.153 OA
ATOM     17  O   LIG d   1       5.057   1.844  -8.663  0.00  0.00    -0.153 OA
BRANCH  15  18
ATOM     18  C   LIG d   1       3.151   0.499  -9.717  0.00  0.00     0.105 A 
ATOM     19  C   LIG d   1       1.947  -0.174  -9.625  0.00  0.00    -0.035 A 
ATOM     20  C   LIG d   1       1.506  -0.950 -10.680  0.00  0.00    -0.057 A 
ATOM     21  H   LIG d   1       1.349  -0.093  -8.728  0.00  0.00     0.064 H 
ATOM     22  C   LIG d   1       2.269  -1.054 -11.828  0.00  0.00    -0.050 A 
ATOM     23  H   LIG d   1       0.565  -1.475 -10.608  0.00  0.00     0.062 H 
ATOM     24  C   LIG d   1       3.473  -0.381 -11.921  0.00  0.00    -0.057 A 
ATOM     25  C   LIG d   1       3.912   0.399 -10.866  0.00  0.00    -0.035 A 
ATOM     26  H   LIG d   1       4.069  -0.462 -12.817  0.00  0.00     0.062 H 
ATOM     27  H   LIG d   1       4.851   0.927 -10.940  0.00  0.00     0.064 H 
BRANCH  22  28
ATOM     28  C   LIG d   1       1.788  -1.900 -12.979  0.00  0.00    -0.040 C 
ATOM     29  H   LIG d   1       2.090  -2.934 -12.820  0.00  0.00     0.028 H 
ATOM     30  H   LIG d   1       0.702  -1.842 -13.041  0.00  0.00     0.028 H 
ATOM     31  H   LIG d   1       2.225  -1.531 -13.907  0.00  0.00     0.028 H 
ENDBRANCH  22  28
ENDBRANCH  15  18
ENDBRANCH  13  15
ENDBRANCH   4  13
ENDBRANCH   2   4
ENDBRANCH   1   2
BRANCH   1  32
ATOM     32  C   LIG d   1       7.346   0.575  -5.062  0.00  0.00     0.135 A 
ATOM     33  C   LIG d   1       7.932   1.072  -6.213  0.00  0.00     0.024 A 
ATOM     34  C   LIG d   1       8.684   2.237  -6.155  0.00  0.00     0.143 A 
ATOM     35  H   LIG d   1       7.805   0.555  -7.153  0.00  0.00     0.069 H 
ATOM     36  C   LIG d   1       8.839   2.897  -4.924  0.00  0.00     0.025 A 
ATOM     37  O   LIG d   1       9.265   2.737  -7.267  0.00  0.00    -0.422 OA
ATOM     38  C   LIG d   1       8.241   2.381  -3.772  0.00  0.00    -0.047 A 
ATOM     39  C   LIG d   1       9.640   4.132  -4.875  0.00  0.00    -0.001 A 
ATOM     40  C   LIG d   1       7.499   1.237  -3.846  0.00  0.00    -0.018 A 
ATOM     41  H   LIG d   1       8.360   2.889  -2.826  0.00  0.00     0.063 H 
ATOM     42  H   LIG d   1       7.032   0.841  -2.955  0.00  0.00     0.065 H 
ATOM     43  C   LIG d   1      10.204   4.583  -6.055  0.00  0.00     0.031 A 
ATOM     44  C   LIG d   1       9.998   3.861  -7.241  0.00  0.00     0.338 A 
ATOM     45  H   LIG d   1      10.800   5.484  -6.063  0.00  0.00     0.070 H 
ATOM     46  O   LIG d   1      10.499   4.266  -8.275  0.00  0.00    -0.245 OA
BRANCH  39  47
ATOM     47  C   LIG d   1       9.835   4.864  -3.607  0.00  0.00    -0.017 A 
ATOM     48  C   LIG d   1       9.271   6.131  -3.435  0.00  0.00    -0.051 A 
ATOM     49  C   LIG d   1       9.456   6.810  -2.252  0.00  0.00    -0.019 A 
ATOM     50  H   LIG d   1       8.692   6.577  -4.230  0.00  0.00     0.062 H 
ATOM     51  C   LIG d   1      10.201   6.237  -1.228  0.00  0.00     0.120 A 
ATOM     52  H   LIG d   1       9.020   7.789  -2.117  0.00  0.00     0.065 H 
ATOM     53  C   LIG d   1      10.764   4.977  -1.395  0.00  0.00    -0.019 A 
ATOM     54  C   LIG d   1      10.580   4.290  -2.574  0.00  0.00    -0.051 A 
ATOM     55  H   LIG d   1      11.343   4.536  -0.597  0.00  0.00     0.065 H 
ATOM     56  H   LIG d   1      11.014   3.309  -2.702  0.00  0.00     0.062 H 
BRANCH  51  57
ATOM     57  O   LIG d   1      10.382   6.910  -0.062  0.00  0.00    -0.495 OA
BRANCH  57  58
ATOM     58  C   LIG d   1      11.136   6.252   0.957  0.00  0.00     0.079 C 
ATOM     59  H   LIG d   1      11.782   5.500   0.504  0.00  0.00     0.066 H 
ATOM     60  H   LIG d   1      11.747   6.983   1.486  0.00  0.00     0.066 H 
ATOM     61  H   LIG d   1      10.456   5.770   1.659  0.00  0.00     0.066 H 
ENDBRANCH  57  58
ENDBRANCH  51  57
ENDBRANCH  39  47
ENDBRANCH   1  32
TORSDOF 12
ENDMDL
MODEL 5
REMARK VINA RESULT:      -7.3      6.926     11.144
REMARK  12 active torsions:
REMARK  status: ('A' for Active; 'I' for Inactive)
REMARK    1  A    between atoms: C_1  and  C_2 
REMARK    2  A    between atoms: C_2  and  C_3 
REMARK    3  A    between atoms: C_3  and  C_5 
REMARK    4  A    between atoms: C_3  and  N_27 
REMARK    5  A    between atoms: C_5  and  O_7 
REMARK    6  A    between atoms: O_7  and  C_8 
REMARK    7  A    between atoms: C_12  and  C_19 
REMARK    8  A    between atoms: C_22  and  O_25 
REMARK    9  A    between atoms: O_25  and  C_26 
REMARK   10  A    between atoms: N_27  and  S_28 
REMARK   11  A    between atoms: S_28  and  C_31 
REMARK   12  A    between atoms: C_34  and  C_37 
ROOT
ATOM      1  O   LIG d   1       5.534  -6.420  -8.050  0.00  0.00    -0.425 OA
ENDROOT
BRANCH   1   2
ATOM      2  C   LIG d   1       4.552  -5.509  -7.959  0.00  0.00     0.331 C 
ATOM      3  O   LIG d   1       3.397  -5.860  -7.988  0.00  0.00    -0.249 OA
BRANCH   2   4
ATOM      4  C   LIG d   1       4.891  -4.046  -7.820  0.00  0.00     0.126 C 
ATOM      5  H   LIG d   1       5.974  -3.923  -7.820  0.00  0.00     0.059 H 
BRANCH   4   6
ATOM      6  C   LIG d   1       4.290  -3.271  -8.994  0.00  0.00    -0.028 C 
ATOM      7  H   LIG d   1       3.596  -3.912  -9.536  0.00  0.00     0.028 H 
ATOM      8  H   LIG d   1       5.087  -2.949  -9.664  0.00  0.00     0.028 H 
BRANCH   6   9
ATOM      9  C   LIG d   1       3.543  -2.044  -8.465  0.00  0.00    -0.063 C 
ATOM     10  H   LIG d   1       3.966  -1.142  -8.908  0.00  0.00     0.023 H 
ATOM     11  H   LIG d   1       2.489  -2.118  -8.730  0.00  0.00     0.023 H 
ATOM     12  H   LIG d   1       3.643  -1.997  -7.381  0.00  0.00     0.023 H 
ENDBRANCH   6   9
ENDBRANCH   4   6
BRANCH   4  13
ATOM     13  N   LIG d   1       4.341  -3.535  -6.563  0.00  0.00    -0.176 N 
ATOM     14  H   LIG d   1       3.550  -2.974  -6.572  0.00  0.00     0.149 HD
BRANCH  13  15
ATOM     15  S   LIG d   1       5.070  -3.914  -5.125  0.00  0.00     0.059 S 
ATOM     16  O   LIG d   1       4.282  -4.933  -4.526  0.00  0.00    -0.153 OA
ATOM     17  O   LIG d   1       6.453  -4.085  -5.405  0.00  0.00    -0.153 OA
BRANCH  15  18
ATOM     18  C   LIG d   1       4.939  -2.498  -4.084  0.00  0.00     0.105 A 
ATOM     19  C   LIG d   1       3.955  -2.442  -3.115  0.00  0.00    -0.035 A 
ATOM     20  C   LIG d   1       3.852  -1.331  -2.298  0.00  0.00    -0.057 A 
ATOM     21  H   LIG d   1       3.267  -3.266  -2.995  0.00  0.00     0.064 H 
ATOM     22  C   LIG d   1       4.733  -0.276  -2.451  0.00  0.00    -0.050 A 
ATOM     23  H   LIG d   1       3.083  -1.288  -1.541  0.00  0.00     0.062 H 
ATOM     24  C   LIG d   1       5.716  -0.333  -3.421  0.00  0.00    -0.057 A 
ATOM     25  C   LIG d   1       5.822  -1.446  -4.234  0.00  0.00    -0.035 A 
ATOM     26  H   LIG d   1       6.404   0.491  -3.540  0.00  0.00     0.062 H 
ATOM     27  H   LIG d   1       6.593  -1.491  -4.989  0.00  0.00     0.064 H 
BRANCH  22  28
ATOM     28  C   LIG d   1       4.620   0.934  -1.561  0.00  0.00    -0.040 C 
ATOM     29  H   LIG d   1       5.049   1.797  -2.066  0.00  0.00     0.028 H 
ATOM     30  H   LIG d   1       3.570   1.125  -1.341  0.00  0.00     0.028 H 
ATOM     31  H   LIG d   1       5.158   0.751  -0.630  0.00  0.00     0.028 H 
ENDBRANCH  22  28
ENDBRANCH  15  18
ENDBRANCH  13  15
ENDBRANCH   4  13
ENDBRANCH   2   4
ENDBRANCH   1   2
BRANCH   1  32
ATOM     32  C   LIG d   1       5.741  -7.214  -6.966  0.00  0.00     0.135 A 
ATOM     33  C   LIG d   1       4.676  -7.896  -6.403  0.00  0.00     0.024 A 
ATOM     34  C   LIG d   1       4.886  -8.708  -5.297  0.00  0.00     0.143 A 
ATOM     35  H   LIG d   1       3.685  -7.797  -6.823  0.00  0.00     0.069 H 
ATOM     36  C   LIG d   1       6.180  -8.826  -4.764  0.00  0.00     0.025 A 
ATOM     37  O   LIG d   1       3.860  -9.381  -4.733  0.00  0.00    -0.422 OA
ATOM     38  C   LIG d   1       7.243  -8.130  -5.345  0.00  0.00    -0.047 A 
ATOM     39  C   LIG d   1       6.391  -9.690  -3.590  0.00  0.00    -0.001 A 
ATOM     40  C   LIG d   1       7.022  -7.340  -6.436  0.00  0.00    -0.018 A 
ATOM     41  H   LIG d   1       8.239  -8.221  -4.935  0.00  0.00     0.063 H 
ATOM     42  H   LIG d   1       7.846  -6.805  -6.888  0.00  0.00     0.065 H 
ATOM     43  C   LIG d   1       5.292 -10.348  -3.067  0.00  0.00     0.031 A 
ATOM     44  C   LIG d   1       4.032 -10.173  -3.663  0.00  0.00     0.338 A 
ATOM     45  H   LIG d   1       5.402 -10.990  -2.206  0.00  0.00     0.070 H 
ATOM     46  O   LIG d   1       3.070 -10.756  -3.195  0.00  0.00    -0.245 OA
BRANCH  39  47
ATOM     47  C   LIG d   1       7.732  -9.848  -2.990  0.00  0.00    -0.017 A 
ATOM     48  C   LIG d   1       8.622 -10.795  -3.502  0.00  0.00    -0.051 A 
ATOM     49  C   LIG d   1       9.870 -10.940  -2.939  0.00  0.00    -0.019 A 
ATOM     50  H   LIG d   1       8.330 -11.415  -4.338  0.00  0.00     0.062 H 
ATOM     51  C   LIG d   1      10.246 -10.143  -1.864  0.00  0.00     0.120 A 
ATOM     52  H   LIG d   1      10.559 -11.671  -3.334  0.00  0.00     0.065 H 
ATOM     53  C   LIG d   1       9.364  -9.199  -1.352  0.00  0.00    -0.019 A 
ATOM     54  C   LIG d   1       8.115  -9.046  -1.912  0.00  0.00    -0.051 A 
ATOM     55  H   LIG d   1       9.660  -8.583  -0.516  0.00  0.00     0.065 H 
ATOM     56  H   LIG d   1       7.431  -8.310  -1.516  0.00  0.00     0.062 H 
BRANCH  51  57
ATOM     57  O   LIG d   1      11.478 -10.288  -1.312  0.00  0.00    -0.495 OA
BRANCH  57  58
ATOM     58  C   LIG d   1      11.963  -9.207  -0.514  0.00  0.00     0.079 C 
ATOM     59  H   LIG d   1      13.052  -9.175  -0.568  0.00  0.00     0.066 H 
ATOM     60  H   LIG d   1      11.554  -8.268  -0.888  0.00  0.00     0.066 H 
ATOM     61  H   LIG d   1      11.655  -9.352   0.521  0.00  0.00     0.066 H 
ENDBRANCH  57  58
ENDBRANCH  51  57
ENDBRANCH  39  47
ENDBRANCH   1  32
TORSDOF 12
ENDMDL
MODEL 6
REMARK VINA RESULT:      -7.2      5.776      8.412
REMARK  12 active torsions:
REMARK  status: ('A' for Active; 'I' for Inactive)
REMARK    1  A    between atoms: C_1  and  C_2 
REMARK    2  A    between atoms: C_2  and  C_3 
REMARK    3  A    between atoms: C_3  and  C_5 
REMARK    4  A    between atoms: C_3  and  N_27 
REMARK    5  A    between atoms: C_5  and  O_7 
REMARK    6  A    between atoms: O_7  and  C_8 
REMARK    7  A    between atoms: C_12  and  C_19 
REMARK    8  A    between atoms: C_22  and  O_25 
REMARK    9  A    between atoms: O_25  and  C_26 
REMARK   10  A    between atoms: N_27  and  S_28 
REMARK   11  A    between atoms: S_28  and  C_31 
REMARK   12  A    between atoms: C_34  and  C_37 
ROOT
ATOM      1  O   LIG d   1       3.398  -3.277 -10.291  0.00  0.00    -0.425 OA
ENDROOT
BRANCH   1   2
ATOM      2  C   LIG d   1       2.584  -2.254  -9.986  0.00  0.00     0.331 C 
ATOM      3  O   LIG d   1       1.391  -2.432  -9.909  0.00  0.00    -0.249 OA
BRANCH   2   4
ATOM      4  C   LIG d   1       3.157  -0.882  -9.740  0.00  0.00     0.126 C 
ATOM      5  H   LIG d   1       4.234  -0.960  -9.589  0.00  0.00     0.059 H 
BRANCH   4   6
ATOM      6  C   LIG d   1       2.874   0.013 -10.948  0.00  0.00    -0.028 C 
ATOM      7  H   LIG d   1       2.352   0.911 -10.621  0.00  0.00     0.028 H 
ATOM      8  H   LIG d   1       2.255  -0.528 -11.664  0.00  0.00     0.028 H 
BRANCH   6   9
ATOM      9  C   LIG d   1       4.196   0.405 -11.613  0.00  0.00    -0.063 C 
ATOM     10  H   LIG d   1       4.648   1.230 -11.062  0.00  0.00     0.023 H 
ATOM     11  H   LIG d   1       4.873  -0.449 -11.607  0.00  0.00     0.023 H 
ATOM     12  H   LIG d   1       4.009   0.714 -12.640  0.00  0.00     0.023 H 
ENDBRANCH   6   9
ENDBRANCH   4   6
BRANCH   4  13
ATOM     13  N   LIG d   1       2.539  -0.301  -8.546  0.00  0.00    -0.176 N 
ATOM     14  H   LIG d   1       1.608  -0.483  -8.345  0.00  0.00     0.149 HD
BRANCH  13  15
ATOM     15  S   LIG d   1       3.429   0.668  -7.539  0.00  0.00     0.059 S 
ATOM     16  O   LIG d   1       4.749   0.694  -8.065  0.00  0.00    -0.153 OA
ATOM     17  O   LIG d   1       2.666   1.849  -7.335  0.00  0.00    -0.153 OA
BRANCH  15  18
ATOM     18  C   LIG d   1       3.523  -0.147  -5.980  0.00  0.00     0.105 A 
ATOM     19  C   LIG d   1       2.695   0.244  -4.945  0.00  0.00    -0.035 A 
ATOM     20  C   LIG d   1       2.769  -0.394  -3.721  0.00  0.00    -0.057 A 
ATOM     21  H   LIG d   1       1.989   1.049  -5.092  0.00  0.00     0.064 H 
ATOM     22  C   LIG d   1       3.672  -1.424  -3.533  0.00  0.00    -0.050 A 
ATOM     23  H   LIG d   1       2.121  -0.089  -2.913  0.00  0.00     0.062 H 
ATOM     24  C   LIG d   1       4.500  -1.815  -4.568  0.00  0.00    -0.057 A 
ATOM     25  C   LIG d   1       4.423  -1.179  -5.793  0.00  0.00    -0.035 A 
ATOM     26  H   LIG d   1       5.205  -2.619  -4.421  0.00  0.00     0.062 H 
ATOM     27  H   LIG d   1       5.067  -1.487  -6.603  0.00  0.00     0.064 H 
BRANCH  22  28
ATOM     28  C   LIG d   1       3.752  -2.121  -2.199  0.00  0.00    -0.040 C 
ATOM     29  H   LIG d   1       3.272  -1.506  -1.439  0.00  0.00     0.028 H 
ATOM     30  H   LIG d   1       3.245  -3.083  -2.262  0.00  0.00     0.028 H 
ATOM     31  H   LIG d   1       4.798  -2.278  -1.934  0.00  0.00     0.028 H 
ENDBRANCH  22  28
ENDBRANCH  15  18
ENDBRANCH  13  15
ENDBRANCH   4  13
ENDBRANCH   2   4
ENDBRANCH   1   2
BRANCH   1  32
ATOM     32  C   LIG d   1       4.116  -3.819  -9.272  0.00  0.00     0.135 A 
ATOM     33  C   LIG d   1       3.700  -5.006  -8.694  0.00  0.00     0.024 A 
ATOM     34  C   LIG d   1       4.433  -5.560  -7.654  0.00  0.00     0.143 A 
ATOM     35  H   LIG d   1       2.808  -5.499  -9.052  0.00  0.00     0.069 H 
ATOM     36  C   LIG d   1       5.590  -4.905  -7.202  0.00  0.00     0.025 A 
ATOM     37  O   LIG d   1       4.042  -6.716  -7.078  0.00  0.00    -0.422 OA
ATOM     38  C   LIG d   1       5.996  -3.707  -7.795  0.00  0.00    -0.047 A 
ATOM     39  C   LIG d   1       6.359  -5.502  -6.097  0.00  0.00    -0.001 A 
ATOM     40  C   LIG d   1       5.268  -3.178  -8.822  0.00  0.00    -0.018 A 
ATOM     41  H   LIG d   1       6.886  -3.205  -7.447  0.00  0.00     0.063 H 
ATOM     42  H   LIG d   1       5.585  -2.254  -9.284  0.00  0.00     0.065 H 
ATOM     43  C   LIG d   1       5.898  -6.689  -5.555  0.00  0.00     0.031 A 
ATOM     44  C   LIG d   1       4.730  -7.276  -6.070  0.00  0.00     0.338 A 
ATOM     45  H   LIG d   1       6.431  -7.160  -4.744  0.00  0.00     0.070 H 
ATOM     46  O   LIG d   1       4.331  -8.321  -5.587  0.00  0.00    -0.245 OA
BRANCH  39  47
ATOM     47  C   LIG d   1       7.583  -4.854  -5.582  0.00  0.00    -0.017 A 
ATOM     48  C   LIG d   1       8.831  -5.190  -6.114  0.00  0.00    -0.051 A 
ATOM     49  C   LIG d   1       9.969  -4.584  -5.631  0.00  0.00    -0.019 A 
ATOM     50  H   LIG d   1       8.903  -5.925  -6.902  0.00  0.00     0.062 H 
ATOM     51  C   LIG d   1       9.879  -3.639  -4.617  0.00  0.00     0.120 A 
ATOM     52  H   LIG d   1      10.935  -4.843  -6.042  0.00  0.00     0.065 H 
ATOM     53  C   LIG d   1       8.640  -3.301  -4.085  0.00  0.00    -0.019 A 
ATOM     54  C   LIG d   1       7.497  -3.900  -4.565  0.00  0.00    -0.051 A 
ATOM     55  H   LIG d   1       8.574  -2.566  -3.297  0.00  0.00     0.065 H 
ATOM     56  H   LIG d   1       6.533  -3.635  -4.155  0.00  0.00     0.062 H 
BRANCH  51  57
ATOM     57  O   LIG d   1      11.003  -3.043  -4.143  0.00  0.00    -0.495 OA
BRANCH  57  58
ATOM     58  C   LIG d   1      11.966  -3.885  -3.507  0.00  0.00     0.079 C 
ATOM     59  H   LIG d   1      11.661  -4.074  -2.478  0.00  0.00     0.066 H 
ATOM     60  H   LIG d   1      12.032  -4.831  -4.045  0.00  0.00     0.066 H 
ATOM     61  H   LIG d   1      12.939  -3.395  -3.514  0.00  0.00     0.066 H 
ENDBRANCH  57  58
ENDBRANCH  51  57
ENDBRANCH  39  47
ENDBRANCH   1  32
TORSDOF 12
ENDMDL
MODEL 7
REMARK VINA RESULT:      -7.2      1.863      2.784
REMARK  12 active torsions:
REMARK  status: ('A' for Active; 'I' for Inactive)
REMARK    1  A    between atoms: C_1  and  C_2 
REMARK    2  A    between atoms: C_2  and  C_3 
REMARK    3  A    between atoms: C_3  and  C_5 
REMARK    4  A    between atoms: C_3  and  N_27 
REMARK    5  A    between atoms: C_5  and  O_7 
REMARK    6  A    between atoms: O_7  and  C_8 
REMARK    7  A    between atoms: C_12  and  C_19 
REMARK    8  A    between atoms: C_22  and  O_25 
REMARK    9  A    between atoms: O_25  and  C_26 
REMARK   10  A    between atoms: N_27  and  S_28 
REMARK   11  A    between atoms: S_28  and  C_31 
REMARK   12  A    between atoms: C_34  and  C_37 
ROOT
ATOM      1  O   LIG d   1       7.302  -0.202  -5.400  0.00  0.00    -0.425 OA
ENDROOT
BRANCH   1   2
ATOM      2  C   LIG d   1       7.992  -1.309  -5.078  0.00  0.00     0.331 C 
ATOM      3  O   LIG d   1       9.180  -1.362  -5.288  0.00  0.00    -0.249 OA
BRANCH   2   4
ATOM      4  C   LIG d   1       7.283  -2.485  -4.457  0.00  0.00     0.126 C 
ATOM      5  H   LIG d   1       6.830  -3.092  -5.241  0.00  0.00     0.059 H 
BRANCH   4   6
ATOM      6  C   LIG d   1       8.289  -3.330  -3.673  0.00  0.00    -0.028 C 
ATOM      7  H   LIG d   1       7.952  -3.433  -2.643  0.00  0.00     0.028 H 
ATOM      8  H   LIG d   1       9.264  -2.843  -3.690  0.00  0.00     0.028 H 
BRANCH   6   9
ATOM      9  C   LIG d   1       8.400  -4.715  -4.315  0.00  0.00    -0.063 C 
ATOM     10  H   LIG d   1       8.228  -5.481  -3.558  0.00  0.00     0.023 H 
ATOM     11  H   LIG d   1       7.654  -4.811  -5.104  0.00  0.00     0.023 H 
ATOM     12  H   LIG d   1       9.396  -4.841  -4.738  0.00  0.00     0.023 H 
ENDBRANCH   6   9
ENDBRANCH   4   6
BRANCH   4  13
ATOM     13  N   LIG d   1       6.239  -2.002  -3.550  0.00  0.00    -0.176 N 
ATOM     14  H   LIG d   1       6.476  -1.453  -2.786  0.00  0.00     0.149 HD
BRANCH  13  15
ATOM     15  S   LIG d   1       4.654  -2.393  -3.828  0.00  0.00     0.059 S 
ATOM     16  O   LIG d   1       4.646  -3.728  -4.318  0.00  0.00    -0.153 OA
ATOM     17  O   LIG d   1       3.930  -2.003  -2.669  0.00  0.00    -0.153 OA
BRANCH  15  18
ATOM     18  C   LIG d   1       4.087  -1.370  -5.145  0.00  0.00     0.105 A 
ATOM     19  C   LIG d   1       4.409  -1.683  -6.452  0.00  0.00    -0.035 A 
ATOM     20  C   LIG d   1       3.964  -0.880  -7.485  0.00  0.00    -0.057 A 
ATOM     21  H   LIG d   1       5.009  -2.556  -6.667  0.00  0.00     0.064 H 
ATOM     22  C   LIG d   1       3.197   0.237  -7.212  0.00  0.00    -0.050 A 
ATOM     23  H   LIG d   1       4.217  -1.125  -8.506  0.00  0.00     0.062 H 
ATOM     24  C   LIG d   1       2.874   0.551  -5.905  0.00  0.00    -0.057 A 
ATOM     25  C   LIG d   1       3.316  -0.256  -4.871  0.00  0.00    -0.035 A 
ATOM     26  H   LIG d   1       2.275   1.423  -5.691  0.00  0.00     0.062 H 
ATOM     27  H   LIG d   1       3.061  -0.013  -3.851  0.00  0.00     0.064 H 
BRANCH  22  28
ATOM     28  C   LIG d   1       2.712   1.112  -8.338  0.00  0.00    -0.040 C 
ATOM     29  H   LIG d   1       2.509   2.113  -7.960  0.00  0.00     0.028 H 
ATOM     30  H   LIG d   1       3.478   1.164  -9.112  0.00  0.00     0.028 H 
ATOM     31  H   LIG d   1       1.799   0.690  -8.759  0.00  0.00     0.028 H 
ENDBRANCH  22  28
ENDBRANCH  15  18
ENDBRANCH  13  15
ENDBRANCH   4  13
ENDBRANCH   2   4
ENDBRANCH   1   2
BRANCH   1  32
ATOM     32  C   LIG d   1       7.923   0.990  -5.202  0.00  0.00     0.135 A 
ATOM     33  C   LIG d   1       8.379   1.715  -6.290  0.00  0.00     0.024 A 
ATOM     34  C   LIG d   1       9.013   2.933  -6.089  0.00  0.00     0.143 A 
ATOM     35  H   LIG d   1       8.242   1.334  -7.291  0.00  0.00     0.069 H 
ATOM     36  C   LIG d   1       9.182   3.414  -4.780  0.00  0.00     0.025 A 
ATOM     37  O   LIG d   1       9.465   3.654  -7.137  0.00  0.00    -0.422 OA
ATOM     38  C   LIG d   1       8.717   2.670  -3.694  0.00  0.00    -0.047 A 
ATOM     39  C   LIG d   1       9.857   4.708  -4.580  0.00  0.00    -0.001 A 
ATOM     40  C   LIG d   1       8.090   1.476  -3.908  0.00  0.00    -0.018 A 
ATOM     41  H   LIG d   1       8.847   3.041  -2.688  0.00  0.00     0.063 H 
ATOM     42  H   LIG d   1       7.725   0.903  -3.067  0.00  0.00     0.065 H 
ATOM     43  C   LIG d   1      10.294   5.390  -5.702  0.00  0.00     0.031 A 
ATOM     44  C   LIG d   1      10.082   4.835  -6.974  0.00  0.00     0.338 A 
ATOM     45  H   LIG d   1      10.794   6.341  -5.599  0.00  0.00     0.070 H 
ATOM     46  O   LIG d   1      10.471   5.442  -7.957  0.00  0.00    -0.245 OA
BRANCH  39  47
ATOM     47  C   LIG d   1      10.062   5.260  -3.224  0.00  0.00    -0.017 A 
ATOM     48  C   LIG d   1       9.377   6.410  -2.824  0.00  0.00    -0.051 A 
ATOM     49  C   LIG d   1       9.571   6.921  -1.561  0.00  0.00    -0.019 A 
ATOM     50  H   LIG d   1       8.697   6.899  -3.507  0.00  0.00     0.062 H 
ATOM     51  C   LIG d   1      10.446   6.293  -0.682  0.00  0.00     0.120 A 
ATOM     52  H   LIG d   1       9.042   7.810  -1.250  0.00  0.00     0.065 H 
ATOM     53  C   LIG d   1      11.129   5.148  -1.075  0.00  0.00    -0.019 A 
ATOM     54  C   LIG d   1      10.937   4.629  -2.336  0.00  0.00    -0.051 A 
ATOM     55  H   LIG d   1      11.808   4.664  -0.390  0.00  0.00     0.065 H 
ATOM     56  H   LIG d   1      11.465   3.737  -2.640  0.00  0.00     0.062 H 
BRANCH  51  57
ATOM     57  O   LIG d   1      10.635   6.799   0.564  0.00  0.00    -0.495 OA
BRANCH  57  58
ATOM     58  C   LIG d   1      11.027   5.881   1.585  0.00  0.00     0.079 C 
ATOM     59  H   LIG d   1      10.501   6.120   2.510  0.00  0.00     0.066 H 
ATOM     60  H   LIG d   1      10.776   4.866   1.277  0.00  0.00     0.066 H 
ATOM     61  H   LIG d   1      12.102   5.956   1.749  0.00  0.00     0.066 H 
ENDBRANCH  57  58
ENDBRANCH  51  57
ENDBRANCH  39  47
ENDBRANCH   1  32
TORSDOF 12
ENDMDL
MODEL 8
REMARK VINA RESULT:      -7.2      5.757      9.750
REMARK  12 active torsions:
REMARK  status: ('A' for Active; 'I' for Inactive)
REMARK    1  A    between atoms: C_1  and  C_2 
REMARK    2  A    between atoms: C_2  and  C_3 
REMARK    3  A    between atoms: C_3  and  C_5 
REMARK    4  A    between atoms: C_3  and  N_27 
REMARK    5  A    between atoms: C_5  and  O_7 
REMARK    6  A    between atoms: O_7  and  C_8 
REMARK    7  A    between atoms: C_12  and  C_19 
REMARK    8  A    between atoms: C_22  and  O_25 
REMARK    9  A    between atoms: O_25  and  C_26 
REMARK   10  A    between atoms: N_27  and  S_28 
REMARK   11  A    between atoms: S_28  and  C_31 
REMARK   12  A    between atoms: C_34  and  C_37 
ROOT
ATOM      1  O   LIG d   1       3.828   0.628  -6.381  0.00  0.00    -0.425 OA
ENDROOT
BRANCH   1   2
ATOM      2  C   LIG d   1       3.173   0.049  -5.362  0.00  0.00     0.331 C 
ATOM      3  O   LIG d   1       2.019   0.334  -5.146  0.00  0.00    -0.249 OA
BRANCH   2   4
ATOM      4  C   LIG d   1       3.878  -0.957  -4.487  0.00  0.00     0.126 C 
ATOM      5  H   LIG d   1       4.882  -0.599  -4.259  0.00  0.00     0.059 H 
BRANCH   4   6
ATOM      6  C   LIG d   1       3.093  -1.139  -3.187  0.00  0.00    -0.028 C 
ATOM      7  H   LIG d   1       2.100  -1.528  -3.413  0.00  0.00     0.028 H 
ATOM      8  H   LIG d   1       3.001  -0.179  -2.680  0.00  0.00     0.028 H 
BRANCH   6   9
ATOM      9  C   LIG d   1       3.832  -2.126  -2.280  0.00  0.00    -0.063 C 
ATOM     10  H   LIG d   1       3.559  -3.145  -2.554  0.00  0.00     0.023 H 
ATOM     11  H   LIG d   1       4.907  -1.993  -2.399  0.00  0.00     0.023 H 
ATOM     12  H   LIG d   1       3.555  -1.942  -1.242  0.00  0.00     0.023 H 
ENDBRANCH   6   9
ENDBRANCH   4   6
BRANCH   4  13
ATOM     13  N   LIG d   1       3.964  -2.239  -5.191  0.00  0.00    -0.176 N 
ATOM     14  H   LIG d   1       3.163  -2.763  -5.344  0.00  0.00     0.149 HD
BRANCH  13  15
ATOM     15  S   LIG d   1       5.431  -2.795  -5.723  0.00  0.00     0.059 S 
ATOM     16  O   LIG d   1       6.276  -1.658  -5.844  0.00  0.00    -0.153 OA
ATOM     17  O   LIG d   1       5.764  -3.907  -4.904  0.00  0.00    -0.153 OA
BRANCH  15  18
ATOM     18  C   LIG d   1       5.192  -3.421  -7.352  0.00  0.00     0.105 A 
ATOM     19  C   LIG d   1       6.217  -3.349  -8.277  0.00  0.00    -0.035 A 
ATOM     20  C   LIG d   1       6.030  -3.840  -9.555  0.00  0.00    -0.057 A 
ATOM     21  H   LIG d   1       7.165  -2.910  -8.001  0.00  0.00     0.064 H 
ATOM     22  C   LIG d   1       4.817  -4.404  -9.909  0.00  0.00    -0.050 A 
ATOM     23  H   LIG d   1       6.831  -3.784 -10.278  0.00  0.00     0.062 H 
ATOM     24  C   LIG d   1       3.793  -4.475  -8.984  0.00  0.00    -0.057 A 
ATOM     25  C   LIG d   1       3.982  -3.988  -7.704  0.00  0.00    -0.035 A 
ATOM     26  H   LIG d   1       2.846  -4.915  -9.260  0.00  0.00     0.062 H 
ATOM     27  H   LIG d   1       3.183  -4.047  -6.980  0.00  0.00     0.064 H 
BRANCH  22  28
ATOM     28  C   LIG d   1       4.614  -4.940 -11.302  0.00  0.00    -0.040 C 
ATOM     29  H   LIG d   1       4.352  -4.121 -11.971  0.00  0.00     0.028 H 
ATOM     30  H   LIG d   1       5.534  -5.412 -11.647  0.00  0.00     0.028 H 
ATOM     31  H   LIG d   1       3.810  -5.675 -11.294  0.00  0.00     0.028 H 
ENDBRANCH  22  28
ENDBRANCH  15  18
ENDBRANCH  13  15
ENDBRANCH   4  13
ENDBRANCH   2   4
ENDBRANCH   1   2
BRANCH   1  32
ATOM     32  C   LIG d   1       3.634   0.100  -7.618  0.00  0.00     0.135 A 
ATOM     33  C   LIG d   1       4.669   0.106  -8.537  0.00  0.00     0.024 A 
ATOM     34  C   LIG d   1       4.471  -0.434  -9.800  0.00  0.00     0.143 A 
ATOM     35  H   LIG d   1       5.627   0.528  -8.273  0.00  0.00     0.069 H 
ATOM     36  C   LIG d   1       3.219  -0.980 -10.128  0.00  0.00     0.025 A 
ATOM     37  O   LIG d   1       5.468  -0.437 -10.711  0.00  0.00    -0.422 OA
ATOM     38  C   LIG d   1       2.185  -0.977  -9.189  0.00  0.00    -0.047 A 
ATOM     39  C   LIG d   1       3.021  -1.549 -11.472  0.00  0.00    -0.001 A 
ATOM     40  C   LIG d   1       2.397  -0.448  -7.948  0.00  0.00    -0.018 A 
ATOM     41  H   LIG d   1       1.222  -1.397  -9.442  0.00  0.00     0.063 H 
ATOM     42  H   LIG d   1       1.598  -0.450  -7.220  0.00  0.00     0.065 H 
ATOM     43  C   LIG d   1       4.089  -1.517 -12.352  0.00  0.00     0.031 A 
ATOM     44  C   LIG d   1       5.306  -0.952 -11.940  0.00  0.00     0.338 A 
ATOM     45  H   LIG d   1       3.985  -1.922 -13.347  0.00  0.00     0.070 H 
ATOM     46  O   LIG d   1       6.241  -0.927 -12.721  0.00  0.00    -0.245 OA
BRANCH  39  47
ATOM     47  C   LIG d   1       1.723  -2.135 -11.869  0.00  0.00    -0.017 A 
ATOM     48  C   LIG d   1       1.412  -3.452 -11.520  0.00  0.00    -0.051 A 
ATOM     49  C   LIG d   1       0.203  -3.993 -11.892  0.00  0.00    -0.019 A 
ATOM     50  H   LIG d   1       2.121  -4.044 -10.960  0.00  0.00     0.062 H 
ATOM     51  C   LIG d   1      -0.710  -3.232 -12.612  0.00  0.00     0.120 A 
ATOM     52  H   LIG d   1      -0.039  -5.011 -11.623  0.00  0.00     0.065 H 
ATOM     53  C   LIG d   1      -0.405  -1.922 -12.961  0.00  0.00    -0.019 A 
ATOM     54  C   LIG d   1       0.801  -1.372 -12.589  0.00  0.00    -0.051 A 
ATOM     55  H   LIG d   1      -1.117  -1.334 -13.521  0.00  0.00     0.065 H 
ATOM     56  H   LIG d   1       1.036  -0.352 -12.857  0.00  0.00     0.062 H 
BRANCH  51  57
ATOM     57  O   LIG d   1      -1.902  -3.770 -12.977  0.00  0.00    -0.495 OA
BRANCH  57  58
ATOM     58  C   LIG d   1      -2.455  -4.769 -12.118  0.00  0.00     0.079 C 
ATOM     59  H   LIG d   1      -1.648  -5.349 -11.670  0.00  0.00     0.066 H 
ATOM     60  H   LIG d   1      -3.037  -4.289 -11.332  0.00  0.00     0.066 H 
ATOM     61  H   LIG d   1      -3.099  -5.430 -12.697  0.00  0.00     0.066 H 
ENDBRANCH  57  58
ENDBRANCH  51  57
ENDBRANCH  39  47
ENDBRANCH   1  32
TORSDOF 12
ENDMDL
MODEL 9
REMARK VINA RESULT:      -7.1      5.345      7.835
REMARK  12 active torsions:
REMARK  status: ('A' for Active; 'I' for Inactive)
REMARK    1  A    between atoms: C_1  and  C_2 
REMARK    2  A    between atoms: C_2  and  C_3 
REMARK    3  A    between atoms: C_3  and  C_5 
REMARK    4  A    between atoms: C_3  and  N_27 
REMARK    5  A    between atoms: C_5  and  O_7 
REMARK    6  A    between atoms: O_7  and  C_8 
REMARK    7  A    between atoms: C_12  and  C_19 
REMARK    8  A    between atoms: C_22  and  O_25 
REMARK    9  A    between atoms: O_25  and  C_26 
REMARK   10  A    between atoms: N_27  and  S_28 
REMARK   11  A    between atoms: S_28  and  C_31 
REMARK   12  A    between atoms: C_34  and  C_37 
ROOT
ATOM      1  O   LIG d   1       3.795  -4.662 -10.005  0.00  0.00    -0.425 OA
ENDROOT
BRANCH   1   2
ATOM      2  C   LIG d   1       2.595  -5.263  -9.954  0.00  0.00     0.331 C 
ATOM      3  O   LIG d   1       2.397  -6.151  -9.160  0.00  0.00    -0.249 OA
BRANCH   2   4
ATOM      4  C   LIG d   1       1.495  -4.830 -10.889  0.00  0.00     0.126 C 
ATOM      5  H   LIG d   1       1.815  -4.979 -11.920  0.00  0.00     0.059 H 
BRANCH   4   6
ATOM      6  C   LIG d   1       0.240  -5.662 -10.619  0.00  0.00    -0.028 C 
ATOM      7  H   LIG d   1       0.405  -6.296  -9.748  0.00  0.00     0.028 H 
ATOM      8  H   LIG d   1       0.021  -6.284 -11.486  0.00  0.00     0.028 H 
BRANCH   6   9
ATOM      9  C   LIG d   1      -0.943  -4.727 -10.352  0.00  0.00    -0.063 C 
ATOM     10  H   LIG d   1      -1.313  -4.331 -11.298  0.00  0.00     0.023 H 
ATOM     11  H   LIG d   1      -1.738  -5.281  -9.854  0.00  0.00     0.023 H 
ATOM     12  H   LIG d   1      -0.619  -3.904  -9.716  0.00  0.00     0.023 H 
ENDBRANCH   6   9
ENDBRANCH   4   6
BRANCH   4  13
ATOM     13  N   LIG d   1       1.198  -3.412 -10.670  0.00  0.00    -0.176 N 
ATOM     14  H   LIG d   1       0.798  -3.124  -9.836  0.00  0.00     0.149 HD
BRANCH  13  15
ATOM     15  S   LIG d   1       1.547  -2.301 -11.849  0.00  0.00     0.059 S 
ATOM     16  O   LIG d   1       2.571  -2.872 -12.653  0.00  0.00    -0.153 OA
ATOM     17  O   LIG d   1       0.302  -1.878 -12.388  0.00  0.00    -0.153 OA
BRANCH  15  18
ATOM     18  C   LIG d   1       2.254  -0.899 -11.052  0.00  0.00     0.105 A 
ATOM     19  C   LIG d   1       1.790  -0.501  -9.813  0.00  0.00    -0.035 A 
ATOM     20  C   LIG d   1       2.344   0.600  -9.187  0.00  0.00    -0.057 A 
ATOM     21  H   LIG d   1       0.992  -1.050  -9.332  0.00  0.00     0.064 H 
ATOM     22  C   LIG d   1       3.365   1.303  -9.801  0.00  0.00    -0.050 A 
ATOM     23  H   LIG d   1       1.980   0.910  -8.219  0.00  0.00     0.062 H 
ATOM     24  C   LIG d   1       3.829   0.905 -11.040  0.00  0.00    -0.057 A 
ATOM     25  C   LIG d   1       3.277  -0.199 -11.664  0.00  0.00    -0.035 A 
ATOM     26  H   LIG d   1       4.626   1.453 -11.519  0.00  0.00     0.062 H 
ATOM     27  H   LIG d   1       3.643  -0.512 -12.630  0.00  0.00     0.064 H 
BRANCH  22  28
ATOM     28  C   LIG d   1       3.969   2.502  -9.118  0.00  0.00    -0.040 C 
ATOM     29  H   LIG d   1       3.628   3.411  -9.611  0.00  0.00     0.028 H 
ATOM     30  H   LIG d   1       3.662   2.517  -8.073  0.00  0.00     0.028 H 
ATOM     31  H   LIG d   1       5.056   2.442  -9.176  0.00  0.00     0.028 H 
ENDBRANCH  22  28
ENDBRANCH  15  18
ENDBRANCH  13  15
ENDBRANCH   4  13
ENDBRANCH   2   4
ENDBRANCH   1   2
BRANCH   1  32
ATOM     32  C   LIG d   1       4.410  -4.414  -8.819  0.00  0.00     0.135 A 
ATOM     33  C   LIG d   1       5.518  -5.158  -8.452  0.00  0.00     0.024 A 
ATOM     34  C   LIG d   1       6.148  -4.904  -7.242  0.00  0.00     0.143 A 
ATOM     35  H   LIG d   1       5.892  -5.933  -9.106  0.00  0.00     0.069 H 
ATOM     36  C   LIG d   1       5.650  -3.893  -6.404  0.00  0.00     0.025 A 
ATOM     37  O   LIG d   1       7.230  -5.620  -6.866  0.00  0.00    -0.422 OA
ATOM     38  C   LIG d   1       4.530  -3.152  -6.789  0.00  0.00    -0.047 A 
ATOM     39  C   LIG d   1       6.326  -3.633  -5.122  0.00  0.00    -0.001 A 
ATOM     40  C   LIG d   1       3.925  -3.408  -7.986  0.00  0.00    -0.018 A 
ATOM     41  H   LIG d   1       4.148  -2.374  -6.145  0.00  0.00     0.063 H 
ATOM     42  H   LIG d   1       3.062  -2.832  -8.286  0.00  0.00     0.065 H 
ATOM     43  C   LIG d   1       7.429  -4.407  -4.804  0.00  0.00     0.031 A 
ATOM     44  C   LIG d   1       7.859  -5.398  -5.701  0.00  0.00     0.338 A 
ATOM     45  H   LIG d   1       7.953  -4.251  -3.874  0.00  0.00     0.070 H 
ATOM     46  O   LIG d   1       8.831  -6.075  -5.414  0.00  0.00    -0.245 OA
BRANCH  39  47
ATOM     47  C   LIG d   1       5.842  -2.582  -4.203  0.00  0.00    -0.017 A 
ATOM     48  C   LIG d   1       6.581  -1.409  -4.029  0.00  0.00    -0.051 A 
ATOM     49  C   LIG d   1       6.127  -0.432  -3.172  0.00  0.00    -0.019 A 
ATOM     50  H   LIG d   1       7.509  -1.270  -4.565  0.00  0.00     0.062 H 
ATOM     51  C   LIG d   1       4.935  -0.610  -2.481  0.00  0.00     0.120 A 
ATOM     52  H   LIG d   1       6.698   0.476  -3.036  0.00  0.00     0.065 H 
ATOM     53  C   LIG d   1       4.196  -1.775  -2.652  0.00  0.00    -0.019 A 
ATOM     54  C   LIG d   1       4.642  -2.755  -3.510  0.00  0.00    -0.051 A 
ATOM     55  H   LIG d   1       3.270  -1.910  -2.113  0.00  0.00     0.065 H 
ATOM     56  H   LIG d   1       4.065  -3.659  -3.646  0.00  0.00     0.062 H 
BRANCH  51  57
ATOM     57  O   LIG d   1       4.490   0.356  -1.637  0.00  0.00    -0.495 OA
BRANCH  57  58
ATOM     58  C   LIG d   1       3.686   1.393  -2.202  0.00  0.00     0.079 C 
ATOM     59  H   LIG d   1       2.937   1.710  -1.475  0.00  0.00     0.066 H 
ATOM     60  H   LIG d   1       4.319   2.241  -2.463  0.00  0.00     0.066 H 
ATOM     61  H   LIG d   1       3.189   1.021  -3.097  0.00  0.00     0.066 H 
ENDBRANCH  57  58
ENDBRANCH  51  57
ENDBRANCH  39  47
ENDBRANCH   1  32
TORSDOF 12
ENDMDL
