MODEL 1
REMARK VINA RESULT:      -5.9      0.000      0.000
REMARK  9 active torsions:
REMARK  status: ('A' for Active; 'I' for Inactive)
REMARK    1  A    between atoms: C_1  and  N_2 
REMARK    2  A    between atoms: C_9  and  O_34 
REMARK    3  A    between atoms: C_11  and  C_13 
REMARK    4  A    between atoms: C_13  and  N_14 
REMARK    5  A    between atoms: C_15  and  C_16 
REMARK    6  A    between atoms: N_23  and  C_26 
REMARK    7  A    between atoms: C_29  and  O_32 
REMARK    8  A    between atoms: O_32  and  C_33 
REMARK    9  A    between atoms: O_34  and  C_35 
ROOT
ATOM      1  C   LIG d   1       4.192  -3.200 -10.951  0.00  0.00     0.056 C 
ATOM      2  H   LIG d   1       3.669  -3.952 -11.559  0.00  0.00     0.052 H 
ATOM      3  H   LIG d   1       5.188  -3.011 -11.377  0.00  0.00     0.052 H 
ENDROOT
BRANCH   1   4
ATOM      4  C   LIG d   1       3.385  -1.899 -10.943  0.00  0.00     0.024 C 
ATOM      5  N   LIG d   1       2.071  -2.149 -10.344  0.00  0.00     0.240 N 
ATOM      6  C   LIG d   1       1.342  -0.884 -10.168  0.00  0.00    -0.027 C 
ATOM      7  H   LIG d   1       2.224  -2.606  -9.356  0.00  0.00     0.204 HD
ATOM      8  C   LIG d   1       2.008  -0.101  -9.032  0.00  0.00     0.013 C 
ATOM      9  H   LIG d   1       1.383  -0.303 -11.102  0.00  0.00     0.082 H 
ATOM     10  H   LIG d   1       0.292  -1.096  -9.914  0.00  0.00     0.082 H 
ATOM     11  C   LIG d   1       3.493  -0.012  -9.274  0.00  0.00    -0.027 A 
ATOM     12  H   LIG d   1       1.586   0.914  -8.989  0.00  0.00     0.036 H 
ATOM     13  H   LIG d   1       1.827  -0.615  -8.077  0.00  0.00     0.036 H 
ATOM     14  C   LIG d   1       4.133  -0.855 -10.158  0.00  0.00     0.050 A 
ATOM     15  C   LIG d   1       4.217   0.948  -8.583  0.00  0.00    -0.012 A 
ATOM     16  C   LIG d   1       5.509  -0.750 -10.340  0.00  0.00     0.174 A 
ATOM     17  C   LIG d   1       6.236   0.210  -9.650  0.00  0.00     0.208 A 
ATOM     18  C   LIG d   1       5.585   1.063  -8.766  0.00  0.00     0.170 A 
ATOM     19  O   LIG d   1       7.567   0.518  -9.655  0.00  0.00    -0.449 OA
ATOM     20  O   LIG d   1       6.506   1.908  -8.216  0.00  0.00    -0.453 OA
ATOM     21  C   LIG d   1       7.659   1.833  -9.076  0.00  0.00     0.233 C 
ATOM     22  H   LIG d   1       8.602   1.923  -8.517  0.00  0.00     0.117 H 
ATOM     23  H   LIG d   1       7.633   2.588  -9.876  0.00  0.00     0.117 H 
ATOM     24  H   LIG d   1       3.712   1.610  -7.897  0.00  0.00     0.066 H 
ATOM     25  H   LIG d   1       3.207  -1.526 -11.963  0.00  0.00     0.092 H 
BRANCH   5  26
ATOM     26  C   LIG d   1       1.293  -3.096 -11.156  0.00  0.00    -0.042 C 
ATOM     27  H   LIG d   1       0.296  -2.676 -11.353  0.00  0.00     0.078 H 
ATOM     28  H   LIG d   1       1.190  -4.046 -10.611  0.00  0.00     0.078 H 
ATOM     29  H   LIG d   1       1.812  -3.274 -12.109  0.00  0.00     0.078 H 
ENDBRANCH   5  26
BRANCH  16  30
ATOM     30  O   LIG d   1       6.142  -1.587 -11.204  0.00  0.00    -0.491 OA
BRANCH  30  31
ATOM     31  C   LIG d   1       6.623  -1.018 -12.425  0.00  0.00     0.079 C 
ATOM     32  H   LIG d   1       5.783  -0.878 -13.120  0.00  0.00     0.066 H 
ATOM     33  H   LIG d   1       7.365  -1.692 -12.876  0.00  0.00     0.066 H 
ATOM     34  H   LIG d   1       7.092  -0.045 -12.216  0.00  0.00     0.066 H 
ENDBRANCH  30  31
ENDBRANCH  16  30
ENDBRANCH   1   4
BRANCH   1  35
ATOM     35  N   LIG d   1       4.333  -3.694  -9.579  0.00  0.00    -0.343 N 
ATOM     36  C   LIG d   1       5.294  -4.484  -9.279  0.00  0.00     0.007 C 
ATOM     37  H   LIG d   1       6.013  -4.792 -10.052  0.00  0.00     0.079 H 
ATOM     38  H   LIG d   1       3.613  -3.386  -8.806  0.00  0.00     0.146 HD
BRANCH  36  39
ATOM     39  C   LIG d   1       5.439  -4.993  -7.867  0.00  0.00     0.113 C 
ATOM     40  C   LIG d   1       4.055  -5.081  -7.255  0.00  0.00     0.265 C 
ATOM     41  N   LIG d   1       5.461  -3.447  -5.962  0.00  0.00    -0.190 N 
ATOM     42  O   LIG d   1       3.188  -5.765  -7.756  0.00  0.00    -0.269 OA
ATOM     43  C   LIG d   1       6.761  -3.713  -5.801  0.00  0.00     0.320 C 
ATOM     44  N   LIG d   1       7.470  -4.552  -6.565  0.00  0.00    -0.235 N 
ATOM     45  O   LIG d   1       7.342  -3.151  -4.894  0.00  0.00    -0.251 OA
ATOM     46  C   LIG d   1       6.914  -5.220  -7.597  0.00  0.00     0.258 C 
ATOM     47  H   LIG d   1       8.537  -4.688  -6.331  0.00  0.00     0.159 HD
ATOM     48  O   LIG d   1       7.569  -5.978  -8.281  0.00  0.00    -0.270 OA
BRANCH  41  49
ATOM     49  C   LIG d   1       4.836  -2.545  -5.089  0.00  0.00     0.046 A 
ATOM     50  C   LIG d   1       4.561  -2.922  -3.781  0.00  0.00    -0.036 A 
ATOM     51  C   LIG d   1       3.946  -2.033  -2.922  0.00  0.00    -0.018 A 
ATOM     52  H   LIG d   1       4.828  -3.910  -3.437  0.00  0.00     0.064 H 
ATOM     53  C   LIG d   1       3.604  -0.764  -3.363  0.00  0.00     0.120 A 
ATOM     54  H   LIG d   1       3.732  -2.327  -1.904  0.00  0.00     0.066 H 
ATOM     55  C   LIG d   1       3.879  -0.386  -4.669  0.00  0.00    -0.018 A 
ATOM     56  C   LIG d   1       4.498  -1.272  -5.529  0.00  0.00    -0.036 A 
ATOM     57  H   LIG d   1       3.612   0.603  -5.013  0.00  0.00     0.066 H 
ATOM     58  H   LIG d   1       4.716  -0.977  -6.544  0.00  0.00     0.064 H 
BRANCH  53  59
ATOM     59  O   LIG d   1       3.000   0.111  -2.515  0.00  0.00    -0.495 OA
BRANCH  59  60
ATOM     60  C   LIG d   1       3.680   1.342  -2.261  0.00  0.00     0.079 C 
ATOM     61  H   LIG d   1       4.199   1.281  -1.294  0.00  0.00     0.066 H 
ATOM     62  H   LIG d   1       2.951   2.166  -2.235  0.00  0.00     0.066 H 
ATOM     63  H   LIG d   1       4.414   1.527  -3.060  0.00  0.00     0.066 H 
ENDBRANCH  59  60
ENDBRANCH  53  59
ENDBRANCH  41  49
ENDBRANCH  36  39
ENDBRANCH   1  35
TORSDOF 9
ENDMDL
MODEL 2
REMARK VINA RESULT:      -5.9      4.080      6.579
REMARK  9 active torsions:
REMARK  status: ('A' for Active; 'I' for Inactive)
REMARK    1  A    between atoms: C_1  and  N_2 
REMARK    2  A    between atoms: C_9  and  O_34 
REMARK    3  A    between atoms: C_11  and  C_13 
REMARK    4  A    between atoms: C_13  and  N_14 
REMARK    5  A    between atoms: C_15  and  C_16 
REMARK    6  A    between atoms: N_23  and  C_26 
REMARK    7  A    between atoms: C_29  and  O_32 
REMARK    8  A    between atoms: O_32  and  C_33 
REMARK    9  A    between atoms: O_34  and  C_35 
ROOT
ATOM      1  C   LIG d   1       5.485  -1.402  -7.993  0.00  0.00     0.056 C 
ATOM      2  H   LIG d   1       5.502  -1.689  -9.054  0.00  0.00     0.052 H 
ATOM      3  H   LIG d   1       5.053  -0.396  -7.892  0.00  0.00     0.052 H 
ENDROOT
BRANCH   1   4
ATOM      4  C   LIG d   1       4.636  -2.404  -7.207  0.00  0.00     0.024 C 
ATOM      5  N   LIG d   1       5.252  -3.732  -7.293  0.00  0.00     0.240 N 
ATOM      6  C   LIG d   1       4.553  -4.676  -6.408  0.00  0.00    -0.027 C 
ATOM      7  H   LIG d   1       6.297  -3.650  -6.962  0.00  0.00     0.204 HD
ATOM      8  C   LIG d   1       4.896  -4.317  -4.958  0.00  0.00     0.013 C 
ATOM      9  H   LIG d   1       3.467  -4.597  -6.569  0.00  0.00     0.082 H 
ATOM     10  H   LIG d   1       4.883  -5.701  -6.630  0.00  0.00     0.082 H 
ATOM     11  C   LIG d   1       4.656  -2.847  -4.724  0.00  0.00    -0.027 A 
ATOM     12  H   LIG d   1       4.262  -4.902  -4.275  0.00  0.00     0.036 H 
ATOM     13  H   LIG d   1       5.954  -4.547  -4.764  0.00  0.00     0.036 H 
ATOM     14  C   LIG d   1       4.544  -1.958  -5.772  0.00  0.00     0.050 A 
ATOM     15  C   LIG d   1       4.548  -2.397  -3.417  0.00  0.00    -0.012 A 
ATOM     16  C   LIG d   1       4.338  -0.606  -5.511  0.00  0.00     0.174 A 
ATOM     17  C   LIG d   1       4.229  -0.152  -4.204  0.00  0.00     0.208 A 
ATOM     18  C   LIG d   1       4.335  -1.055  -3.151  0.00  0.00     0.170 A 
ATOM     19  O   LIG d   1       4.024   1.097  -3.691  0.00  0.00    -0.449 OA
ATOM     20  O   LIG d   1       4.195  -0.374  -1.976  0.00  0.00    -0.453 OA
ATOM     21  C   LIG d   1       3.597   0.887  -2.331  0.00  0.00     0.233 C 
ATOM     22  H   LIG d   1       3.960   1.713  -1.702  0.00  0.00     0.117 H 
ATOM     23  H   LIG d   1       2.498   0.853  -2.294  0.00  0.00     0.117 H 
ATOM     24  H   LIG d   1       4.630  -3.098  -2.600  0.00  0.00     0.066 H 
ATOM     25  H   LIG d   1       3.622  -2.492  -7.624  0.00  0.00     0.092 H 
BRANCH   5  26
ATOM     26  C   LIG d   1       5.260  -4.219  -8.679  0.00  0.00    -0.042 C 
ATOM     27  H   LIG d   1       4.806  -3.465  -9.336  0.00  0.00     0.078 H 
ATOM     28  H   LIG d   1       4.686  -5.155  -8.741  0.00  0.00     0.078 H 
ATOM     29  H   LIG d   1       6.298  -4.405  -8.996  0.00  0.00     0.078 H 
ENDBRANCH   5  26
BRANCH  16  30
ATOM     30  O   LIG d   1       4.236   0.274  -6.543  0.00  0.00    -0.491 OA
BRANCH  30  31
ATOM     31  C   LIG d   1       2.919   0.683  -6.920  0.00  0.00     0.079 C 
ATOM     32  H   LIG d   1       2.969   1.263  -7.853  0.00  0.00     0.066 H 
ATOM     33  H   LIG d   1       2.487   1.306  -6.124  0.00  0.00     0.066 H 
ATOM     34  H   LIG d   1       2.289  -0.206  -7.073  0.00  0.00     0.066 H 
ENDBRANCH  30  31
ENDBRANCH  16  30
ENDBRANCH   1   4
BRANCH   1  35
ATOM     35  N   LIG d   1       6.853  -1.401  -7.466  0.00  0.00    -0.343 N 
ATOM     36  C   LIG d   1       7.457  -0.294  -7.256  0.00  0.00     0.007 C 
ATOM     37  H   LIG d   1       6.950   0.658  -7.472  0.00  0.00     0.079 H 
ATOM     38  H   LIG d   1       7.359  -2.354  -7.251  0.00  0.00     0.146 HD
BRANCH  36  39
ATOM     39  C   LIG d   1       8.864  -0.294  -6.714  0.00  0.00     0.113 C 
ATOM     40  C   LIG d   1       8.789  -0.479  -5.211  0.00  0.00     0.265 C 
ATOM     41  N   LIG d   1       9.848   1.736  -5.750  0.00  0.00    -0.190 N 
ATOM     42  O   LIG d   1       8.256  -1.452  -4.723  0.00  0.00    -0.269 OA
ATOM     43  C   LIG d   1      10.650   1.817  -6.817  0.00  0.00     0.320 C 
ATOM     44  N   LIG d   1      10.653   0.952  -7.838  0.00  0.00    -0.235 N 
ATOM     45  O   LIG d   1      11.435   2.743  -6.862  0.00  0.00    -0.251 OA
ATOM     46  C   LIG d   1       9.818  -0.107  -7.879  0.00  0.00     0.258 C 
ATOM     47  H   LIG d   1      11.363   1.125  -8.660  0.00  0.00     0.159 HD
ATOM     48  O   LIG d   1       9.831  -0.883  -8.810  0.00  0.00    -0.270 OA
BRANCH  41  49
ATOM     49  C   LIG d   1       9.947   2.712  -4.747  0.00  0.00     0.046 A 
ATOM     50  C   LIG d   1       9.429   3.982  -4.960  0.00  0.00    -0.036 A 
ATOM     51  C   LIG d   1       9.527   4.942  -3.972  0.00  0.00    -0.018 A 
ATOM     52  H   LIG d   1       8.949   4.219  -5.898  0.00  0.00     0.064 H 
ATOM     53  C   LIG d   1      10.142   4.638  -2.767  0.00  0.00     0.120 A 
ATOM     54  H   LIG d   1       9.123   5.930  -4.138  0.00  0.00     0.066 H 
ATOM     55  C   LIG d   1      10.660   3.368  -2.554  0.00  0.00    -0.018 A 
ATOM     56  C   LIG d   1      10.559   2.406  -3.539  0.00  0.00    -0.036 A 
ATOM     57  H   LIG d   1      11.140   3.132  -1.615  0.00  0.00     0.066 H 
ATOM     58  H   LIG d   1      10.958   1.417  -3.371  0.00  0.00     0.064 H 
BRANCH  53  59
ATOM     59  O   LIG d   1      10.237   5.583  -1.794  0.00  0.00    -0.495 OA
BRANCH  59  60
ATOM     60  C   LIG d   1       9.528   6.806  -2.008  0.00  0.00     0.079 C 
ATOM     61  H   LIG d   1       8.447   6.621  -1.928  0.00  0.00     0.066 H 
ATOM     62  H   LIG d   1       9.760   7.195  -3.010  0.00  0.00     0.066 H 
ATOM     63  H   LIG d   1       9.832   7.543  -1.249  0.00  0.00     0.066 H 
ENDBRANCH  59  60
ENDBRANCH  53  59
ENDBRANCH  41  49
ENDBRANCH  36  39
ENDBRANCH   1  35
TORSDOF 9
ENDMDL
MODEL 3
REMARK VINA RESULT:      -5.7      4.753      7.777
REMARK  9 active torsions:
REMARK  status: ('A' for Active; 'I' for Inactive)
REMARK    1  A    between atoms: C_1  and  N_2 
REMARK    2  A    between atoms: C_9  and  O_34 
REMARK    3  A    between atoms: C_11  and  C_13 
REMARK    4  A    between atoms: C_13  and  N_14 
REMARK    5  A    between atoms: C_15  and  C_16 
REMARK    6  A    between atoms: N_23  and  C_26 
REMARK    7  A    between atoms: C_29  and  O_32 
REMARK    8  A    between atoms: O_32  and  C_33 
REMARK    9  A    between atoms: O_34  and  C_35 
ROOT
ATOM      1  C   LIG d   1       6.880  -0.581  -7.565  0.00  0.00     0.056 C 
ATOM      2  H   LIG d   1       7.545  -0.612  -8.439  0.00  0.00     0.052 H 
ATOM      3  H   LIG d   1       6.081   0.154  -7.737  0.00  0.00     0.052 H 
ENDROOT
BRANCH   1   4
ATOM      4  C   LIG d   1       6.263  -1.964  -7.343  0.00  0.00     0.024 C 
ATOM      5  N   LIG d   1       7.329  -2.970  -7.316  0.00  0.00     0.240 N 
ATOM      6  C   LIG d   1       6.783  -4.282  -6.935  0.00  0.00    -0.027 C 
ATOM      7  H   LIG d   1       8.071  -2.667  -6.563  0.00  0.00     0.204 HD
ATOM      8  C   LIG d   1       6.422  -4.236  -5.447  0.00  0.00     0.013 C 
ATOM      9  H   LIG d   1       5.885  -4.495  -7.535  0.00  0.00     0.082 H 
ATOM     10  H   LIG d   1       7.538  -5.061  -7.116  0.00  0.00     0.082 H 
ATOM     11  C   LIG d   1       5.568  -3.027  -5.164  0.00  0.00    -0.027 A 
ATOM     12  H   LIG d   1       5.864  -5.145  -5.176  0.00  0.00     0.036 H 
ATOM     13  H   LIG d   1       7.342  -4.178  -4.848  0.00  0.00     0.036 H 
ATOM     14  C   LIG d   1       5.502  -1.967  -6.044  0.00  0.00     0.050 A 
ATOM     15  C   LIG d   1       4.838  -2.995  -3.986  0.00  0.00    -0.012 A 
ATOM     16  C   LIG d   1       4.714  -0.862  -5.737  0.00  0.00     0.174 A 
ATOM     17  C   LIG d   1       3.982  -0.828  -4.559  0.00  0.00     0.208 A 
ATOM     18  C   LIG d   1       4.045  -1.903  -3.678  0.00  0.00     0.170 A 
ATOM     19  O   LIG d   1       3.144   0.116  -4.037  0.00  0.00    -0.449 OA
ATOM     20  O   LIG d   1       3.246  -1.635  -2.604  0.00  0.00    -0.453 OA
ATOM     21  C   LIG d   1       2.377  -0.567  -3.027  0.00  0.00     0.233 C 
ATOM     22  H   LIG d   1       2.145   0.130  -2.209  0.00  0.00     0.117 H 
ATOM     23  H   LIG d   1       1.441  -0.941  -3.468  0.00  0.00     0.117 H 
ATOM     24  H   LIG d   1       4.887  -3.830  -3.302  0.00  0.00     0.066 H 
ATOM     25  H   LIG d   1       5.582  -2.241  -8.161  0.00  0.00     0.092 H 
BRANCH   5  26
ATOM     26  C   LIG d   1       8.017  -3.044  -8.613  0.00  0.00    -0.042 C 
ATOM     27  H   LIG d   1       9.089  -2.842  -8.471  0.00  0.00     0.078 H 
ATOM     28  H   LIG d   1       7.589  -2.297  -9.297  0.00  0.00     0.078 H 
ATOM     29  H   LIG d   1       7.887  -4.050  -9.040  0.00  0.00     0.078 H 
ENDBRANCH   5  26
BRANCH  16  30
ATOM     30  O   LIG d   1       4.656   0.188  -6.600  0.00  0.00    -0.491 OA
BRANCH  30  31
ATOM     31  C   LIG d   1       3.459   0.331  -7.368  0.00  0.00     0.079 C 
ATOM     32  H   LIG d   1       3.083   1.360  -7.275  0.00  0.00     0.066 H 
ATOM     33  H   LIG d   1       2.699  -0.372  -6.997  0.00  0.00     0.066 H 
ATOM     34  H   LIG d   1       3.673   0.113  -8.425  0.00  0.00     0.066 H 
ENDBRANCH  30  31
ENDBRANCH  16  30
ENDBRANCH   1   4
BRANCH   1  35
ATOM     35  N   LIG d   1       7.651  -0.195  -6.379  0.00  0.00    -0.343 N 
ATOM     36  C   LIG d   1       8.126   0.989  -6.283  0.00  0.00     0.007 C 
ATOM     37  H   LIG d   1       7.957   1.716  -7.091  0.00  0.00     0.079 H 
ATOM     38  H   LIG d   1       7.820  -0.923  -5.572  0.00  0.00     0.146 HD
BRANCH  36  39
ATOM     39  C   LIG d   1       8.918   1.386  -5.064  0.00  0.00     0.113 C 
ATOM     40  C   LIG d   1       8.020   2.216  -4.168  0.00  0.00     0.265 C 
ATOM     41  N   LIG d   1       9.990   3.587  -4.913  0.00  0.00    -0.190 N 
ATOM     42  O   LIG d   1       6.974   1.773  -3.742  0.00  0.00    -0.269 OA
ATOM     43  C   LIG d   1      11.177   2.984  -5.037  0.00  0.00     0.320 C 
ATOM     44  N   LIG d   1      11.353   1.665  -5.172  0.00  0.00    -0.235 N 
ATOM     45  O   LIG d   1      12.168   3.685  -5.024  0.00  0.00    -0.251 OA
ATOM     46  C   LIG d   1      10.313   0.805  -5.198  0.00  0.00     0.258 C 
ATOM     47  H   LIG d   1      12.382   1.287  -5.264  0.00  0.00     0.159 HD
ATOM     48  O   LIG d   1      10.488  -0.389  -5.321  0.00  0.00    -0.270 OA
BRANCH  41  49
ATOM     49  C   LIG d   1       9.945   4.983  -4.777  0.00  0.00     0.046 A 
ATOM     50  C   LIG d   1       9.870   5.788  -5.906  0.00  0.00    -0.036 A 
ATOM     51  C   LIG d   1       9.826   7.161  -5.772  0.00  0.00    -0.018 A 
ATOM     52  H   LIG d   1       9.846   5.340  -6.888  0.00  0.00     0.064 H 
ATOM     53  C   LIG d   1       9.856   7.738  -4.511  0.00  0.00     0.120 A 
ATOM     54  H   LIG d   1       9.767   7.788  -6.650  0.00  0.00     0.066 H 
ATOM     55  C   LIG d   1       9.930   6.933  -3.383  0.00  0.00    -0.018 A 
ATOM     56  C   LIG d   1       9.970   5.559  -3.515  0.00  0.00    -0.036 A 
ATOM     57  H   LIG d   1       9.954   7.383  -2.400  0.00  0.00     0.066 H 
ATOM     58  H   LIG d   1      10.024   4.933  -2.636  0.00  0.00     0.064 H 
BRANCH  53  59
ATOM     59  O   LIG d   1       9.811   9.090  -4.380  0.00  0.00    -0.495 OA
BRANCH  59  60
ATOM     60  C   LIG d   1       9.470   9.843  -5.547  0.00  0.00     0.079 C 
ATOM     61  H   LIG d   1       8.895   9.209  -6.236  0.00  0.00     0.066 H 
ATOM     62  H   LIG d   1      10.389  10.186  -6.043  0.00  0.00     0.066 H 
ATOM     63  H   LIG d   1       8.863  10.714  -5.256  0.00  0.00     0.066 H 
ENDBRANCH  59  60
ENDBRANCH  53  59
ENDBRANCH  41  49
ENDBRANCH  36  39
ENDBRANCH   1  35
TORSDOF 9
ENDMDL
MODEL 4
REMARK VINA RESULT:      -5.7      2.225      7.269
REMARK  9 active torsions:
REMARK  status: ('A' for Active; 'I' for Inactive)
REMARK    1  A    between atoms: C_1  and  N_2 
REMARK    2  A    between atoms: C_9  and  O_34 
REMARK    3  A    between atoms: C_11  and  C_13 
REMARK    4  A    between atoms: C_13  and  N_14 
REMARK    5  A    between atoms: C_15  and  C_16 
REMARK    6  A    between atoms: N_23  and  C_26 
REMARK    7  A    between atoms: C_29  and  O_32 
REMARK    8  A    between atoms: O_32  and  C_33 
REMARK    9  A    between atoms: O_34  and  C_35 
ROOT
ATOM      1  C   LIG d   1       6.820  -0.031  -5.524  0.00  0.00     0.056 C 
ATOM      2  H   LIG d   1       7.299   0.900  -5.187  0.00  0.00     0.052 H 
ATOM      3  H   LIG d   1       7.511  -0.582  -6.180  0.00  0.00     0.052 H 
ENDROOT
BRANCH   1   4
ATOM      4  C   LIG d   1       6.471  -0.894  -4.310  0.00  0.00     0.024 C 
ATOM      5  N   LIG d   1       5.377  -0.262  -3.567  0.00  0.00     0.240 N 
ATOM      6  C   LIG d   1       4.907  -1.154  -2.496  0.00  0.00    -0.027 C 
ATOM      7  H   LIG d   1       4.545  -0.083  -4.263  0.00  0.00     0.204 HD
ATOM      8  C   LIG d   1       4.152  -2.322  -3.140  0.00  0.00     0.013 C 
ATOM      9  H   LIG d   1       5.770  -1.531  -1.926  0.00  0.00     0.082 H 
ATOM     10  H   LIG d   1       4.237  -0.598  -1.822  0.00  0.00     0.082 H 
ATOM     11  C   LIG d   1       4.994  -2.937  -4.228  0.00  0.00    -0.027 A 
ATOM     12  H   LIG d   1       3.932  -3.082  -2.377  0.00  0.00     0.036 H 
ATOM     13  H   LIG d   1       3.210  -1.954  -3.574  0.00  0.00     0.036 H 
ATOM     14  C   LIG d   1       6.068  -2.268  -4.777  0.00  0.00     0.050 A 
ATOM     15  C   LIG d   1       4.667  -4.208  -4.675  0.00  0.00    -0.012 A 
ATOM     16  C   LIG d   1       6.809  -2.866  -5.791  0.00  0.00     0.174 A 
ATOM     17  C   LIG d   1       6.485  -4.138  -6.241  0.00  0.00     0.208 A 
ATOM     18  C   LIG d   1       5.406  -4.813  -5.679  0.00  0.00     0.170 A 
ATOM     19  O   LIG d   1       7.047  -4.934  -7.199  0.00  0.00    -0.449 OA
ATOM     20  O   LIG d   1       5.290  -6.031  -6.282  0.00  0.00    -0.453 OA
ATOM     21  C   LIG d   1       6.555  -6.261  -6.932  0.00  0.00     0.233 C 
ATOM     22  H   LIG d   1       6.442  -6.807  -7.881  0.00  0.00     0.117 H 
ATOM     23  H   LIG d   1       7.267  -6.792  -6.285  0.00  0.00     0.117 H 
ATOM     24  H   LIG d   1       3.830  -4.731  -4.239  0.00  0.00     0.066 H 
ATOM     25  H   LIG d   1       7.320  -0.983  -3.617  0.00  0.00     0.092 H 
BRANCH   5  26
ATOM     26  C   LIG d   1       5.790   1.039  -3.024  0.00  0.00    -0.042 C 
ATOM     27  H   LIG d   1       5.545   1.084  -1.954  0.00  0.00     0.078 H 
ATOM     28  H   LIG d   1       5.261   1.843  -3.557  0.00  0.00     0.078 H 
ATOM     29  H   LIG d   1       6.876   1.163  -3.158  0.00  0.00     0.078 H 
ENDBRANCH   5  26
BRANCH  16  30
ATOM     30  O   LIG d   1       7.863  -2.203  -6.339  0.00  0.00    -0.491 OA
BRANCH  30  31
ATOM     31  C   LIG d   1       9.170  -2.693  -6.031  0.00  0.00     0.079 C 
ATOM     32  H   LIG d   1       9.303  -3.689  -6.478  0.00  0.00     0.066 H 
ATOM     33  H   LIG d   1       9.287  -2.763  -4.939  0.00  0.00     0.066 H 
ATOM     34  H   LIG d   1       9.925  -2.004  -6.437  0.00  0.00     0.066 H 
ENDBRANCH  30  31
ENDBRANCH  16  30
ENDBRANCH   1   4
BRANCH   1  35
ATOM     35  N   LIG d   1       5.597   0.290  -6.264  0.00  0.00    -0.343 N 
ATOM     36  C   LIG d   1       5.603   0.286  -7.543  0.00  0.00     0.007 C 
ATOM     37  H   LIG d   1       6.527   0.044  -8.088  0.00  0.00     0.079 H 
ATOM     38  H   LIG d   1       4.673   0.533  -5.719  0.00  0.00     0.146 HD
BRANCH  36  39
ATOM     39  C   LIG d   1       4.343   0.617  -8.304  0.00  0.00     0.113 C 
ATOM     40  C   LIG d   1       3.173  -0.006  -7.569  0.00  0.00     0.265 C 
ATOM     41  N   LIG d   1       3.357  -0.989  -9.875  0.00  0.00    -0.190 N 
ATOM     42  O   LIG d   1       2.934   0.274  -6.413  0.00  0.00    -0.269 OA
ATOM     43  C   LIG d   1       3.735  -0.191 -10.879  0.00  0.00     0.320 C 
ATOM     44  N   LIG d   1       4.385   0.968 -10.731  0.00  0.00    -0.235 N 
ATOM     45  O   LIG d   1       3.468  -0.545 -12.010  0.00  0.00    -0.251 OA
ATOM     46  C   LIG d   1       4.727   1.445  -9.515  0.00  0.00     0.258 C 
ATOM     47  H   LIG d   1       4.642   1.537 -11.637  0.00  0.00     0.159 HD
ATOM     48  O   LIG d   1       5.317   2.497  -9.396  0.00  0.00    -0.270 OA
BRANCH  41  49
ATOM     49  C   LIG d   1       2.679  -2.181 -10.169  0.00  0.00     0.046 A 
ATOM     50  C   LIG d   1       1.294  -2.185 -10.271  0.00  0.00    -0.036 A 
ATOM     51  C   LIG d   1       0.627  -3.358 -10.561  0.00  0.00    -0.018 A 
ATOM     52  H   LIG d   1       0.739  -1.270 -10.124  0.00  0.00     0.064 H 
ATOM     53  C   LIG d   1       1.339  -4.533 -10.751  0.00  0.00     0.120 A 
ATOM     54  H   LIG d   1      -0.450  -3.361 -10.641  0.00  0.00     0.066 H 
ATOM     55  C   LIG d   1       2.723  -4.530 -10.650  0.00  0.00    -0.018 A 
ATOM     56  C   LIG d   1       3.392  -3.356 -10.364  0.00  0.00    -0.036 A 
ATOM     57  H   LIG d   1       3.277  -5.445 -10.798  0.00  0.00     0.066 H 
ATOM     58  H   LIG d   1       4.469  -3.352 -10.290  0.00  0.00     0.064 H 
BRANCH  53  59
ATOM     59  O   LIG d   1       0.681  -5.688 -11.038  0.00  0.00    -0.495 OA
BRANCH  59  60
ATOM     60  C   LIG d   1      -0.746  -5.658 -10.962  0.00  0.00     0.079 C 
ATOM     61  H   LIG d   1      -1.158  -5.362 -11.937  0.00  0.00     0.066 H 
ATOM     62  H   LIG d   1      -1.056  -4.931 -10.196  0.00  0.00     0.066 H 
ATOM     63  H   LIG d   1      -1.120  -6.657 -10.692  0.00  0.00     0.066 H 
ENDBRANCH  59  60
ENDBRANCH  53  59
ENDBRANCH  41  49
ENDBRANCH  36  39
ENDBRANCH   1  35
TORSDOF 9
ENDMDL
MODEL 5
REMARK VINA RESULT:      -5.7      1.346      2.051
REMARK  9 active torsions:
REMARK  status: ('A' for Active; 'I' for Inactive)
REMARK    1  A    between atoms: C_1  and  N_2 
REMARK    2  A    between atoms: C_9  and  O_34 
REMARK    3  A    between atoms: C_11  and  C_13 
REMARK    4  A    between atoms: C_13  and  N_14 
REMARK    5  A    between atoms: C_15  and  C_16 
REMARK    6  A    between atoms: N_23  and  C_26 
REMARK    7  A    between atoms: C_29  and  O_32 
REMARK    8  A    between atoms: O_32  and  C_33 
REMARK    9  A    between atoms: O_34  and  C_35 
ROOT
ATOM      1  C   LIG d   1       5.238  -3.656 -10.664  0.00  0.00     0.056 C 
ATOM      2  H   LIG d   1       5.646  -4.500 -11.238  0.00  0.00     0.052 H 
ATOM      3  H   LIG d   1       5.919  -2.796 -10.740  0.00  0.00     0.052 H 
ENDROOT
BRANCH   1   4
ATOM      4  C   LIG d   1       3.867  -3.273 -11.225  0.00  0.00     0.024 C 
ATOM      5  N   LIG d   1       2.914  -4.354 -10.952  0.00  0.00     0.240 N 
ATOM      6  C   LIG d   1       1.553  -3.940 -11.327  0.00  0.00    -0.027 C 
ATOM      7  H   LIG d   1       2.931  -4.564  -9.873  0.00  0.00     0.204 HD
ATOM      8  C   LIG d   1       1.072  -2.897 -10.312  0.00  0.00     0.013 C 
ATOM      9  H   LIG d   1       1.566  -3.504 -12.337  0.00  0.00     0.082 H 
ATOM     10  H   LIG d   1       0.886  -4.815 -11.313  0.00  0.00     0.082 H 
ATOM     11  C   LIG d   1       2.106  -1.811 -10.165  0.00  0.00    -0.027 A 
ATOM     12  H   LIG d   1       0.127  -2.455 -10.660  0.00  0.00     0.036 H 
ATOM     13  H   LIG d   1       0.914  -3.381  -9.337  0.00  0.00     0.036 H 
ATOM     14  C   LIG d   1       3.408  -1.991 -10.583  0.00  0.00     0.050 A 
ATOM     15  C   LIG d   1       1.722  -0.607  -9.595  0.00  0.00    -0.012 A 
ATOM     16  C   LIG d   1       4.335  -0.967 -10.415  0.00  0.00     0.174 A 
ATOM     17  C   LIG d   1       3.953   0.239  -9.844  0.00  0.00     0.208 A 
ATOM     18  C   LIG d   1       2.637   0.419  -9.432  0.00  0.00     0.170 A 
ATOM     19  O   LIG d   1       4.655   1.381  -9.579  0.00  0.00    -0.449 OA
ATOM     20  O   LIG d   1       2.511   1.673  -8.909  0.00  0.00    -0.453 OA
ATOM     21  C   LIG d   1       3.661   2.403  -9.377  0.00  0.00     0.233 C 
ATOM     22  H   LIG d   1       4.025   3.128  -8.634  0.00  0.00     0.117 H 
ATOM     23  H   LIG d   1       3.468   2.920 -10.328  0.00  0.00     0.117 H 
ATOM     24  H   LIG d   1       0.700  -0.468  -9.274  0.00  0.00     0.066 H 
ATOM     25  H   LIG d   1       3.897  -3.141 -12.316  0.00  0.00     0.092 H 
BRANCH   5  26
ATOM     26  C   LIG d   1       3.300  -5.587 -11.652  0.00  0.00    -0.042 C 
ATOM     27  H   LIG d   1       3.549  -5.352 -12.696  0.00  0.00     0.078 H 
ATOM     28  H   LIG d   1       2.463  -6.300 -11.624  0.00  0.00     0.078 H 
ATOM     29  H   LIG d   1       4.176  -6.031 -11.155  0.00  0.00     0.078 H 
ENDBRANCH   5  26
BRANCH  16  30
ATOM     30  O   LIG d   1       5.622  -1.146 -10.818  0.00  0.00    -0.491 OA
BRANCH  30  31
ATOM     31  C   LIG d   1       6.009  -0.528 -12.047  0.00  0.00     0.079 C 
ATOM     32  H   LIG d   1       6.822  -1.106 -12.509  0.00  0.00     0.066 H 
ATOM     33  H   LIG d   1       6.356   0.497 -11.848  0.00  0.00     0.066 H 
ATOM     34  H   LIG d   1       5.147  -0.497 -12.730  0.00  0.00     0.066 H 
ENDBRANCH  30  31
ENDBRANCH  16  30
ENDBRANCH   1   4
BRANCH   1  35
ATOM     35  N   LIG d   1       5.099  -4.045  -9.257  0.00  0.00    -0.343 N 
ATOM     36  C   LIG d   1       5.777  -5.027  -8.795  0.00  0.00     0.007 C 
ATOM     37  H   LIG d   1       6.462  -5.580  -9.453  0.00  0.00     0.079 H 
ATOM     38  H   LIG d   1       4.412  -3.492  -8.599  0.00  0.00     0.146 HD
BRANCH  36  39
ATOM     39  C   LIG d   1       5.633  -5.426  -7.348  0.00  0.00     0.113 C 
ATOM     40  C   LIG d   1       4.193  -5.189  -6.935  0.00  0.00     0.265 C 
ATOM     41  N   LIG d   1       5.728  -3.751  -5.559  0.00  0.00    -0.190 N 
ATOM     42  O   LIG d   1       3.276  -5.732  -7.512  0.00  0.00    -0.269 OA
ATOM     43  C   LIG d   1       6.915  -4.249  -5.197  0.00  0.00     0.320 C 
ATOM     44  N   LIG d   1       7.528  -5.274  -5.799  0.00  0.00    -0.235 N 
ATOM     45  O   LIG d   1       7.478  -3.733  -4.253  0.00  0.00    -0.251 OA
ATOM     46  C   LIG d   1       6.983  -5.911  -6.856  0.00  0.00     0.258 C 
ATOM     47  H   LIG d   1       8.505  -5.595  -5.408  0.00  0.00     0.159 HD
ATOM     48  O   LIG d   1       7.550  -6.840  -7.392  0.00  0.00    -0.270 OA
BRANCH  41  49
ATOM     49  C   LIG d   1       5.195  -2.670  -4.840  0.00  0.00     0.046 A 
ATOM     50  C   LIG d   1       5.361  -1.374  -5.312  0.00  0.00    -0.036 A 
ATOM     51  C   LIG d   1       4.836  -0.311  -4.605  0.00  0.00    -0.018 A 
ATOM     52  H   LIG d   1       5.900  -1.199  -6.231  0.00  0.00     0.064 H 
ATOM     53  C   LIG d   1       4.143  -0.535  -3.425  0.00  0.00     0.120 A 
ATOM     54  H   LIG d   1       4.965   0.697  -4.972  0.00  0.00     0.066 H 
ATOM     55  C   LIG d   1       3.977  -1.829  -2.954  0.00  0.00    -0.018 A 
ATOM     56  C   LIG d   1       4.497  -2.895  -3.662  0.00  0.00    -0.036 A 
ATOM     57  H   LIG d   1       3.437  -2.004  -2.034  0.00  0.00     0.066 H 
ATOM     58  H   LIG d   1       4.364  -3.903  -3.297  0.00  0.00     0.064 H 
BRANCH  53  59
ATOM     59  O   LIG d   1       3.625   0.513  -2.730  0.00  0.00    -0.495 OA
BRANCH  59  60
ATOM     60  C   LIG d   1       4.436   1.065  -1.690  0.00  0.00     0.079 C 
ATOM     61  H   LIG d   1       5.444   0.630  -1.742  0.00  0.00     0.066 H 
ATOM     62  H   LIG d   1       3.987   0.835  -0.713  0.00  0.00     0.066 H 
ATOM     63  H   LIG d   1       4.500   2.157  -1.816  0.00  0.00     0.066 H 
ENDBRANCH  59  60
ENDBRANCH  53  59
ENDBRANCH  41  49
ENDBRANCH  36  39
ENDBRANCH   1  35
TORSDOF 9
ENDMDL
MODEL 6
REMARK VINA RESULT:      -5.6      3.546      6.136
REMARK  9 active torsions:
REMARK  status: ('A' for Active; 'I' for Inactive)
REMARK    1  A    between atoms: C_1  and  N_2 
REMARK    2  A    between atoms: C_9  and  O_34 
REMARK    3  A    between atoms: C_11  and  C_13 
REMARK    4  A    between atoms: C_13  and  N_14 
REMARK    5  A    between atoms: C_15  and  C_16 
REMARK    6  A    between atoms: N_23  and  C_26 
REMARK    7  A    between atoms: C_29  and  O_32 
REMARK    8  A    between atoms: O_32  and  C_33 
REMARK    9  A    between atoms: O_34  and  C_35 
ROOT
ATOM      1  C   LIG d   1       6.156  -2.124  -7.731  0.00  0.00     0.056 C 
ATOM      2  H   LIG d   1       6.515  -2.388  -8.736  0.00  0.00     0.052 H 
ATOM      3  H   LIG d   1       7.006  -2.097  -7.034  0.00  0.00     0.052 H 
ENDROOT
BRANCH   1   4
ATOM      4  C   LIG d   1       5.486  -0.749  -7.774  0.00  0.00     0.024 C 
ATOM      5  N   LIG d   1       4.558  -0.699  -8.908  0.00  0.00     0.240 N 
ATOM      6  C   LIG d   1       3.776   0.546  -8.872  0.00  0.00    -0.027 C 
ATOM      7  H   LIG d   1       3.866  -1.550  -8.826  0.00  0.00     0.204 HD
ATOM      8  C   LIG d   1       2.777   0.451  -7.714  0.00  0.00     0.013 C 
ATOM      9  H   LIG d   1       4.451   1.401  -8.717  0.00  0.00     0.082 H 
ATOM     10  H   LIG d   1       3.238   0.671  -9.824  0.00  0.00     0.082 H 
ATOM     11  C   LIG d   1       3.494   0.052  -6.450  0.00  0.00    -0.027 A 
ATOM     12  H   LIG d   1       2.293   1.428  -7.564  0.00  0.00     0.036 H 
ATOM     13  H   LIG d   1       2.012  -0.304  -7.951  0.00  0.00     0.036 H 
ATOM     14  C   LIG d   1       4.751  -0.514  -6.481  0.00  0.00     0.050 A 
ATOM     15  C   LIG d   1       2.860   0.266  -5.236  0.00  0.00    -0.012 A 
ATOM     16  C   LIG d   1       5.372  -0.883  -5.291  0.00  0.00     0.174 A 
ATOM     17  C   LIG d   1       4.740  -0.670  -4.075  0.00  0.00     0.208 A 
ATOM     18  C   LIG d   1       3.475  -0.091  -4.048  0.00  0.00     0.170 A 
ATOM     19  O   LIG d   1       5.129  -0.930  -2.791  0.00  0.00    -0.449 OA
ATOM     20  O   LIG d   1       3.070   0.013  -2.749  0.00  0.00    -0.453 OA
ATOM     21  C   LIG d   1       4.266  -0.131  -1.959  0.00  0.00     0.233 C 
ATOM     22  H   LIG d   1       4.078  -0.658  -1.012  0.00  0.00     0.117 H 
ATOM     23  H   LIG d   1       4.748   0.835  -1.752  0.00  0.00     0.117 H 
ATOM     24  H   LIG d   1       1.878   0.715  -5.216  0.00  0.00     0.066 H 
ATOM     25  H   LIG d   1       6.220   0.056  -7.924  0.00  0.00     0.092 H 
BRANCH   5  26
ATOM     26  C   LIG d   1       5.276  -0.831 -10.183  0.00  0.00    -0.042 C 
ATOM     27  H   LIG d   1       5.079   0.051 -10.808  0.00  0.00     0.078 H 
ATOM     28  H   LIG d   1       4.932  -1.736 -10.705  0.00  0.00     0.078 H 
ATOM     29  H   LIG d   1       6.357  -0.909  -9.989  0.00  0.00     0.078 H 
ENDBRANCH   5  26
BRANCH  16  30
ATOM     30  O   LIG d   1       6.608  -1.449  -5.321  0.00  0.00    -0.491 OA
BRANCH  30  31
ATOM     31  C   LIG d   1       7.692  -0.670  -4.809  0.00  0.00     0.079 C 
ATOM     32  H   LIG d   1       8.171  -1.208  -3.979  0.00  0.00     0.066 H 
ATOM     33  H   LIG d   1       7.310   0.296  -4.449  0.00  0.00     0.066 H 
ATOM     34  H   LIG d   1       8.429  -0.498  -5.608  0.00  0.00     0.066 H 
ENDBRANCH  30  31
ENDBRANCH  16  30
ENDBRANCH   1   4
BRANCH   1  35
ATOM     35  N   LIG d   1       5.187  -3.126  -7.280  0.00  0.00    -0.343 N 
ATOM     36  C   LIG d   1       5.547  -4.345  -7.136  0.00  0.00     0.007 C 
ATOM     37  H   LIG d   1       6.584  -4.641  -7.352  0.00  0.00     0.079 H 
ATOM     38  H   LIG d   1       4.150  -2.830  -7.065  0.00  0.00     0.146 HD
BRANCH  36  39
ATOM     39  C   LIG d   1       4.549  -5.376  -6.672  0.00  0.00     0.113 C 
ATOM     40  C   LIG d   1       4.501  -5.336  -5.157  0.00  0.00     0.265 C 
ATOM     41  N   LIG d   1       5.278  -7.598  -5.930  0.00  0.00    -0.190 N 
ATOM     42  O   LIG d   1       4.214  -4.318  -4.563  0.00  0.00    -0.269 OA
ATOM     43  C   LIG d   1       4.739  -8.111  -7.041  0.00  0.00     0.320 C 
ATOM     44  N   LIG d   1       4.115  -7.400  -7.987  0.00  0.00    -0.235 N 
ATOM     45  O   LIG d   1       4.823  -9.312  -7.204  0.00  0.00    -0.251 OA
ATOM     46  C   LIG d   1       3.974  -6.061  -7.897  0.00  0.00     0.258 C 
ATOM     47  H   LIG d   1       3.712  -7.938  -8.857  0.00  0.00     0.159 HD
ATOM     48  O   LIG d   1       3.406  -5.429  -8.762  0.00  0.00    -0.270 OA
BRANCH  41  49
ATOM     49  C   LIG d   1       5.906  -8.458  -5.017  0.00  0.00     0.046 A 
ATOM     50  C   LIG d   1       7.290  -8.455  -4.900  0.00  0.00    -0.036 A 
ATOM     51  C   LIG d   1       7.907  -9.302  -4.000  0.00  0.00    -0.018 A 
ATOM     52  H   LIG d   1       7.882  -7.793  -5.512  0.00  0.00     0.064 H 
ATOM     53  C   LIG d   1       7.146 -10.153  -3.212  0.00  0.00     0.120 A 
ATOM     54  H   LIG d   1       8.983  -9.300  -3.909  0.00  0.00     0.066 H 
ATOM     55  C   LIG d   1       5.763 -10.155  -3.329  0.00  0.00    -0.018 A 
ATOM     56  C   LIG d   1       5.144  -9.306  -4.225  0.00  0.00    -0.036 A 
ATOM     57  H   LIG d   1       5.171 -10.819  -2.716  0.00  0.00     0.066 H 
ATOM     58  H   LIG d   1       4.068  -9.304  -4.312  0.00  0.00     0.064 H 
BRANCH  53  59
ATOM     59  O   LIG d   1       7.755 -10.985  -2.326  0.00  0.00    -0.495 OA
BRANCH  59  60
ATOM     60  C   LIG d   1       7.331 -10.902  -0.963  0.00  0.00     0.079 C 
ATOM     61  H   LIG d   1       8.213 -10.882  -0.307  0.00  0.00     0.066 H 
ATOM     62  H   LIG d   1       6.711 -11.777  -0.718  0.00  0.00     0.066 H 
ATOM     63  H   LIG d   1       6.743  -9.983  -0.817  0.00  0.00     0.066 H 
ENDBRANCH  59  60
ENDBRANCH  53  59
ENDBRANCH  41  49
ENDBRANCH  36  39
ENDBRANCH   1  35
TORSDOF 9
ENDMDL
MODEL 7
REMARK VINA RESULT:      -5.6      5.138      8.890
REMARK  9 active torsions:
REMARK  status: ('A' for Active; 'I' for Inactive)
REMARK    1  A    between atoms: C_1  and  N_2 
REMARK    2  A    between atoms: C_9  and  O_34 
REMARK    3  A    between atoms: C_11  and  C_13 
REMARK    4  A    between atoms: C_13  and  N_14 
REMARK    5  A    between atoms: C_15  and  C_16 
REMARK    6  A    between atoms: N_23  and  C_26 
REMARK    7  A    between atoms: C_29  and  O_32 
REMARK    8  A    between atoms: O_32  and  C_33 
REMARK    9  A    between atoms: O_34  and  C_35 
ROOT
ATOM      1  C   LIG d   1       7.570  -9.170  -5.462  0.00  0.00     0.056 C 
ATOM      2  H   LIG d   1       8.525  -9.530  -5.053  0.00  0.00     0.052 H 
ATOM      3  H   LIG d   1       7.225  -9.858  -6.247  0.00  0.00     0.052 H 
ENDROOT
BRANCH   1   4
ATOM      4  C   LIG d   1       6.528  -9.106  -4.344  0.00  0.00     0.024 C 
ATOM      5  N   LIG d   1       5.292  -9.750  -4.798  0.00  0.00     0.240 N 
ATOM      6  C   LIG d   1       4.334  -9.854  -3.686  0.00  0.00    -0.027 C 
ATOM      7  H   LIG d   1       5.538 -10.764  -5.144  0.00  0.00     0.204 HD
ATOM      8  C   LIG d   1       4.846 -10.918  -2.710  0.00  0.00     0.013 C 
ATOM      9  H   LIG d   1       4.254  -8.882  -3.177  0.00  0.00     0.082 H 
ATOM     10  H   LIG d   1       3.347 -10.145  -4.077  0.00  0.00     0.082 H 
ATOM     11  C   LIG d   1       6.284 -10.637  -2.355  0.00  0.00    -0.027 A 
ATOM     12  H   LIG d   1       4.236 -10.901  -1.795  0.00  0.00     0.036 H 
ATOM     13  H   LIG d   1       4.775 -11.910  -3.179  0.00  0.00     0.036 H 
ATOM     14  C   LIG d   1       7.067  -9.800  -3.122  0.00  0.00     0.050 A 
ATOM     15  C   LIG d   1       6.815 -11.244  -1.228  0.00  0.00    -0.012 A 
ATOM     16  C   LIG d   1       8.395  -9.581  -2.767  0.00  0.00     0.174 A 
ATOM     17  C   LIG d   1       8.929 -10.186  -1.639  0.00  0.00     0.208 A 
ATOM     18  C   LIG d   1       8.133 -11.024  -0.865  0.00  0.00     0.170 A 
ATOM     19  O   LIG d   1      10.176 -10.130  -1.082  0.00  0.00    -0.449 OA
ATOM     20  O   LIG d   1       8.878 -11.493   0.179  0.00  0.00    -0.453 OA
ATOM     21  C   LIG d   1      10.016 -10.615   0.264  0.00  0.00     0.233 C 
ATOM     22  H   LIG d   1      10.929 -11.145   0.574  0.00  0.00     0.117 H 
ATOM     23  H   LIG d   1       9.838  -9.766   0.941  0.00  0.00     0.117 H 
ATOM     24  H   LIG d   1       6.197 -11.894  -0.627  0.00  0.00     0.066 H 
ATOM     25  H   LIG d   1       6.273  -8.067  -4.086  0.00  0.00     0.092 H 
BRANCH   5  26
ATOM     26  C   LIG d   1       4.704  -9.023  -5.932  0.00  0.00    -0.042 C 
ATOM     27  H   LIG d   1       3.846  -9.587  -6.323  0.00  0.00     0.078 H 
ATOM     28  H   LIG d   1       5.460  -8.907  -6.723  0.00  0.00     0.078 H 
ATOM     29  H   LIG d   1       4.369  -8.029  -5.596  0.00  0.00     0.078 H 
ENDBRANCH   5  26
BRANCH  16  30
ATOM     30  O   LIG d   1       9.171  -8.762  -3.527  0.00  0.00    -0.491 OA
BRANCH  30  31
ATOM     31  C   LIG d   1       9.693  -7.591  -2.895  0.00  0.00     0.079 C 
ATOM     32  H   LIG d   1      10.769  -7.722  -2.711  0.00  0.00     0.066 H 
ATOM     33  H   LIG d   1       9.174  -7.429  -1.939  0.00  0.00     0.066 H 
ATOM     34  H   LIG d   1       9.536  -6.721  -3.550  0.00  0.00     0.066 H 
ENDBRANCH  30  31
ENDBRANCH  16  30
ENDBRANCH   1   4
BRANCH   1  35
ATOM     35  N   LIG d   1       7.757  -7.833  -6.033  0.00  0.00    -0.343 N 
ATOM     36  C   LIG d   1       7.134  -6.833  -5.537  0.00  0.00     0.007 C 
ATOM     37  H   LIG d   1       6.456  -6.976  -4.683  0.00  0.00     0.079 H 
ATOM     38  H   LIG d   1       8.434  -7.691  -6.888  0.00  0.00     0.146 HD
BRANCH  36  39
ATOM     39  C   LIG d   1       7.327  -5.458  -6.125  0.00  0.00     0.113 C 
ATOM     40  C   LIG d   1       8.229  -4.670  -5.195  0.00  0.00     0.265 C 
ATOM     41  N   LIG d   1       5.983  -3.555  -5.358  0.00  0.00    -0.190 N 
ATOM     42  O   LIG d   1       9.343  -5.062  -4.919  0.00  0.00    -0.269 OA
ATOM     43  C   LIG d   1       5.348  -3.568  -6.535  0.00  0.00     0.320 C 
ATOM     44  N   LIG d   1       5.599  -4.428  -7.528  0.00  0.00    -0.235 N 
ATOM     45  O   LIG d   1       4.479  -2.738  -6.715  0.00  0.00    -0.251 OA
ATOM     46  C   LIG d   1       6.543  -5.386  -7.422  0.00  0.00     0.258 C 
ATOM     47  H   LIG d   1       5.008  -4.338  -8.452  0.00  0.00     0.159 HD
ATOM     48  O   LIG d   1       6.760  -6.158  -8.331  0.00  0.00    -0.270 OA
BRANCH  41  49
ATOM     49  C   LIG d   1       5.621  -2.596  -4.399  0.00  0.00     0.046 A 
ATOM     50  C   LIG d   1       4.490  -2.789  -3.618  0.00  0.00    -0.036 A 
ATOM     51  C   LIG d   1       4.135  -1.845  -2.674  0.00  0.00    -0.018 A 
ATOM     52  H   LIG d   1       3.888  -3.676  -3.748  0.00  0.00     0.064 H 
ATOM     53  C   LIG d   1       4.908  -0.706  -2.506  0.00  0.00     0.120 A 
ATOM     54  H   LIG d   1       3.255  -1.995  -2.066  0.00  0.00     0.066 H 
ATOM     55  C   LIG d   1       6.038  -0.514  -3.286  0.00  0.00    -0.018 A 
ATOM     56  C   LIG d   1       6.398  -1.458  -4.227  0.00  0.00    -0.036 A 
ATOM     57  H   LIG d   1       6.640   0.374  -3.155  0.00  0.00     0.066 H 
ATOM     58  H   LIG d   1       7.280  -1.310  -4.831  0.00  0.00     0.064 H 
BRANCH  53  59
ATOM     59  O   LIG d   1       4.557   0.222  -1.575  0.00  0.00    -0.495 OA
BRANCH  59  60
ATOM     60  C   LIG d   1       3.856   1.376  -2.043  0.00  0.00     0.079 C 
ATOM     61  H   LIG d   1       2.795   1.126  -2.186  0.00  0.00     0.066 H 
ATOM     62  H   LIG d   1       4.288   1.706  -2.999  0.00  0.00     0.066 H 
ATOM     63  H   LIG d   1       3.946   2.185  -1.301  0.00  0.00     0.066 H 
ENDBRANCH  59  60
ENDBRANCH  53  59
ENDBRANCH  41  49
ENDBRANCH  36  39
ENDBRANCH   1  35
TORSDOF 9
ENDMDL
MODEL 8
REMARK VINA RESULT:      -5.5      3.601      7.465
REMARK  9 active torsions:
REMARK  status: ('A' for Active; 'I' for Inactive)
REMARK    1  A    between atoms: C_1  and  N_2 
REMARK    2  A    between atoms: C_9  and  O_34 
REMARK    3  A    between atoms: C_11  and  C_13 
REMARK    4  A    between atoms: C_13  and  N_14 
REMARK    5  A    between atoms: C_15  and  C_16 
REMARK    6  A    between atoms: N_23  and  C_26 
REMARK    7  A    between atoms: C_29  and  O_32 
REMARK    8  A    between atoms: O_32  and  C_33 
REMARK    9  A    between atoms: O_34  and  C_35 
ROOT
ATOM      1  C   LIG d   1       5.407  -1.284  -8.021  0.00  0.00     0.056 C 
ATOM      2  H   LIG d   1       5.586  -1.715  -9.017  0.00  0.00     0.052 H 
ATOM      3  H   LIG d   1       4.675  -0.468  -8.101  0.00  0.00     0.052 H 
ENDROOT
BRANCH   1   4
ATOM      4  C   LIG d   1       4.865  -2.368  -7.087  0.00  0.00     0.024 C 
ATOM      5  N   LIG d   1       5.716  -3.558  -7.181  0.00  0.00     0.240 N 
ATOM      6  C   LIG d   1       5.320  -4.549  -6.169  0.00  0.00    -0.027 C 
ATOM      7  H   LIG d   1       6.755  -3.255  -6.986  0.00  0.00     0.204 HD
ATOM      8  C   LIG d   1       5.744  -4.026  -4.793  0.00  0.00     0.013 C 
ATOM      9  H   LIG d   1       4.228  -4.690  -6.200  0.00  0.00     0.082 H 
ATOM     10  H   LIG d   1       5.819  -5.508  -6.378  0.00  0.00     0.082 H 
ATOM     11  C   LIG d   1       5.246  -2.616  -4.606  0.00  0.00    -0.027 A 
ATOM     12  H   LIG d   1       5.317  -4.669  -4.008  0.00  0.00     0.036 H 
ATOM     13  H   LIG d   1       6.841  -4.036  -4.719  0.00  0.00     0.036 H 
ATOM     14  C   LIG d   1       4.846  -1.843  -5.676  0.00  0.00     0.050 A 
ATOM     15  C   LIG d   1       5.197  -2.099  -3.320  0.00  0.00    -0.012 A 
ATOM     16  C   LIG d   1       4.408  -0.539  -5.461  0.00  0.00     0.174 A 
ATOM     17  C   LIG d   1       4.357  -0.020  -4.175  0.00  0.00     0.208 A 
ATOM     18  C   LIG d   1       4.755  -0.805  -3.098  0.00  0.00     0.170 A 
ATOM     19  O   LIG d   1       3.968   1.203  -3.704  0.00  0.00    -0.449 OA
ATOM     20  O   LIG d   1       4.615  -0.079  -1.952  0.00  0.00    -0.453 OA
ATOM     21  C   LIG d   1       3.744   1.016  -2.294  0.00  0.00     0.233 C 
ATOM     22  H   LIG d   1       4.005   1.940  -1.756  0.00  0.00     0.117 H 
ATOM     23  H   LIG d   1       2.685   0.777  -2.120  0.00  0.00     0.117 H 
ATOM     24  H   LIG d   1       5.506  -2.709  -2.485  0.00  0.00     0.066 H 
ATOM     25  H   LIG d   1       3.848  -2.678  -7.371  0.00  0.00     0.092 H 
BRANCH   5  26
ATOM     26  C   LIG d   1       5.667  -4.136  -8.531  0.00  0.00    -0.042 C 
ATOM     27  H   LIG d   1       4.753  -3.800  -9.040  0.00  0.00     0.078 H 
ATOM     28  H   LIG d   1       5.666  -5.234  -8.459  0.00  0.00     0.078 H 
ATOM     29  H   LIG d   1       6.548  -3.807  -9.102  0.00  0.00     0.078 H 
ENDBRANCH   5  26
BRANCH  16  30
ATOM     30  O   LIG d   1       4.021   0.226  -6.516  0.00  0.00    -0.491 OA
BRANCH  30  31
ATOM     31  C   LIG d   1       2.616   0.400  -6.711  0.00  0.00     0.079 C 
ATOM     32  H   LIG d   1       2.166   0.808  -5.795  0.00  0.00     0.066 H 
ATOM     33  H   LIG d   1       2.156  -0.571  -6.944  0.00  0.00     0.066 H 
ATOM     34  H   LIG d   1       2.445   1.096  -7.546  0.00  0.00     0.066 H 
ENDBRANCH  30  31
ENDBRANCH  16  30
ENDBRANCH   1   4
BRANCH   1  35
ATOM     35  N   LIG d   1       6.665  -0.760  -7.483  0.00  0.00    -0.343 N 
ATOM     36  C   LIG d   1       7.202   0.277  -8.005  0.00  0.00     0.007 C 
ATOM     37  H   LIG d   1       6.720   0.774  -8.859  0.00  0.00     0.079 H 
ATOM     38  H   LIG d   1       7.148  -1.259  -6.629  0.00  0.00     0.146 HD
BRANCH  36  39
ATOM     39  C   LIG d   1       8.497   0.815  -7.451  0.00  0.00     0.113 C 
ATOM     40  C   LIG d   1       8.162   1.826  -6.372  0.00  0.00     0.265 C 
ATOM     41  N   LIG d   1       9.418   2.948  -8.237  0.00  0.00    -0.190 N 
ATOM     42  O   LIG d   1       7.501   1.517  -5.403  0.00  0.00    -0.269 OA
ATOM     43  C   LIG d   1      10.391   2.266  -8.851  0.00  0.00     0.320 C 
ATOM     44  N   LIG d   1      10.516   0.935  -8.839  0.00  0.00    -0.235 N 
ATOM     45  O   LIG d   1      11.223   2.903  -9.466  0.00  0.00    -0.251 OA
ATOM     46  C   LIG d   1       9.641   0.142  -8.185  0.00  0.00     0.258 C 
ATOM     47  H   LIG d   1      11.361   0.489  -9.382  0.00  0.00     0.159 HD
ATOM     48  O   LIG d   1       9.766  -1.064  -8.182  0.00  0.00    -0.270 OA
BRANCH  41  49
ATOM     49  C   LIG d   1       9.404   4.348  -8.330  0.00  0.00     0.046 A 
ATOM     50  C   LIG d   1       9.956   5.117  -7.313  0.00  0.00    -0.036 A 
ATOM     51  C   LIG d   1       9.942   6.494  -7.406  0.00  0.00    -0.018 A 
ATOM     52  H   LIG d   1      10.396   4.637  -6.452  0.00  0.00     0.064 H 
ATOM     53  C   LIG d   1       9.378   7.111  -8.512  0.00  0.00     0.120 A 
ATOM     54  H   LIG d   1      10.372   7.092  -6.615  0.00  0.00     0.066 H 
ATOM     55  C   LIG d   1       8.827   6.343  -9.528  0.00  0.00    -0.018 A 
ATOM     56  C   LIG d   1       8.844   4.965  -9.440  0.00  0.00    -0.036 A 
ATOM     57  H   LIG d   1       8.387   6.824 -10.390  0.00  0.00     0.066 H 
ATOM     58  H   LIG d   1       8.419   4.368 -10.233  0.00  0.00     0.064 H 
BRANCH  53  59
ATOM     59  O   LIG d   1       9.366   8.468  -8.602  0.00  0.00    -0.495 OA
BRANCH  59  60
ATOM     60  C   LIG d   1       9.480   9.200  -7.379  0.00  0.00     0.079 C 
ATOM     61  H   LIG d   1       9.673  10.258  -7.603  0.00  0.00     0.066 H 
ATOM     62  H   LIG d   1      10.311   8.793  -6.785  0.00  0.00     0.066 H 
ATOM     63  H   LIG d   1       8.543   9.109  -6.810  0.00  0.00     0.066 H 
ENDBRANCH  59  60
ENDBRANCH  53  59
ENDBRANCH  41  49
ENDBRANCH  36  39
ENDBRANCH   1  35
TORSDOF 9
ENDMDL
MODEL 9
REMARK VINA RESULT:      -5.4      3.075      6.112
REMARK  9 active torsions:
REMARK  status: ('A' for Active; 'I' for Inactive)
REMARK    1  A    between atoms: C_1  and  N_2 
REMARK    2  A    between atoms: C_9  and  O_34 
REMARK    3  A    between atoms: C_11  and  C_13 
REMARK    4  A    between atoms: C_13  and  N_14 
REMARK    5  A    between atoms: C_15  and  C_16 
REMARK    6  A    between atoms: N_23  and  C_26 
REMARK    7  A    between atoms: C_29  and  O_32 
REMARK    8  A    between atoms: O_32  and  C_33 
REMARK    9  A    between atoms: O_34  and  C_35 
ROOT
ATOM      1  C   LIG d   1       4.979  -1.381  -8.173  0.00  0.00     0.056 C 
ATOM      2  H   LIG d   1       4.795  -1.661  -9.220  0.00  0.00     0.052 H 
ATOM      3  H   LIG d   1       4.575  -0.376  -7.985  0.00  0.00     0.052 H 
ENDROOT
BRANCH   1   4
ATOM      4  C   LIG d   1       4.293  -2.388  -7.248  0.00  0.00     0.024 C 
ATOM      5  N   LIG d   1       4.914  -3.705  -7.421  0.00  0.00     0.240 N 
ATOM      6  C   LIG d   1       4.391  -4.650  -6.423  0.00  0.00    -0.027 C 
ATOM      7  H   LIG d   1       5.997  -3.598  -7.268  0.00  0.00     0.204 HD
ATOM      8  C   LIG d   1       4.960  -4.266  -5.054  0.00  0.00     0.013 C 
ATOM      9  H   LIG d   1       3.292  -4.595  -6.404  0.00  0.00     0.082 H 
ATOM     10  H   LIG d   1       4.701  -5.673  -6.687  0.00  0.00     0.082 H 
ATOM     11  C   LIG d   1       4.731  -2.798  -4.798  0.00  0.00    -0.027 A 
ATOM     12  H   LIG d   1       4.460  -4.854  -4.270  0.00  0.00     0.036 H 
ATOM     13  H   LIG d   1       6.041  -4.473  -5.035  0.00  0.00     0.036 H 
ATOM     14  C   LIG d   1       4.429  -1.925  -5.821  0.00  0.00     0.050 A 
ATOM     15  C   LIG d   1       4.830  -2.333  -3.496  0.00  0.00    -0.012 A 
ATOM     16  C   LIG d   1       4.240  -0.574  -5.544  0.00  0.00     0.174 A 
ATOM     17  C   LIG d   1       4.339  -0.105  -4.242  0.00  0.00     0.208 A 
ATOM     18  C   LIG d   1       4.636  -0.991  -3.211  0.00  0.00     0.170 A 
ATOM     19  O   LIG d   1       4.194   1.147  -3.714  0.00  0.00    -0.449 OA
ATOM     20  O   LIG d   1       4.677  -0.297  -2.037  0.00  0.00    -0.453 OA
ATOM     21  C   LIG d   1       4.002   0.947  -2.300  0.00  0.00     0.233 C 
ATOM     22  H   LIG d   1       4.447   1.788  -1.748  0.00  0.00     0.117 H 
ATOM     23  H   LIG d   1       2.926   0.892  -2.081  0.00  0.00     0.117 H 
ATOM     24  H   LIG d   1       5.061  -3.020  -2.696  0.00  0.00     0.066 H 
ATOM     25  H   LIG d   1       3.226  -2.502  -7.490  0.00  0.00     0.092 H 
BRANCH   5  26
ATOM     26  C   LIG d   1       4.704  -4.211  -8.785  0.00  0.00    -0.042 C 
ATOM     27  H   LIG d   1       3.897  -3.641  -9.267  0.00  0.00     0.078 H 
ATOM     28  H   LIG d   1       4.428  -5.275  -8.742  0.00  0.00     0.078 H 
ATOM     29  H   LIG d   1       5.632  -4.097  -9.365  0.00  0.00     0.078 H 
ENDBRANCH   5  26
BRANCH  16  30
ATOM     30  O   LIG d   1       3.951   0.290  -6.554  0.00  0.00    -0.491 OA
BRANCH  30  31
ATOM     31  C   LIG d   1       2.587   0.696  -6.690  0.00  0.00     0.079 C 
ATOM     32  H   LIG d   1       1.985   0.232  -5.895  0.00  0.00     0.066 H 
ATOM     33  H   LIG d   1       2.206   0.377  -7.671  0.00  0.00     0.066 H 
ATOM     34  H   LIG d   1       2.521   1.791  -6.608  0.00  0.00     0.066 H 
ENDBRANCH  30  31
ENDBRANCH  16  30
ENDBRANCH   1   4
BRANCH   1  35
ATOM     35  N   LIG d   1       6.421  -1.384  -7.914  0.00  0.00    -0.343 N 
ATOM     36  C   LIG d   1       7.150  -0.423  -8.342  0.00  0.00     0.007 C 
ATOM     37  H   LIG d   1       6.694   0.404  -8.904  0.00  0.00     0.079 H 
ATOM     38  H   LIG d   1       6.877  -2.212  -7.352  0.00  0.00     0.146 HD
BRANCH  36  39
ATOM     39  C   LIG d   1       8.634  -0.426  -8.075  0.00  0.00     0.113 C 
ATOM     40  C   LIG d   1       9.158  -1.822  -8.351  0.00  0.00     0.265 C 
ATOM     41  N   LIG d   1       9.533  -1.226  -5.938  0.00  0.00    -0.190 N 
ATOM     42  O   LIG d   1       9.025  -2.341  -9.439  0.00  0.00    -0.269 OA
ATOM     43  C   LIG d   1       9.852   0.036  -5.635  0.00  0.00     0.320 C 
ATOM     44  N   LIG d   1       9.627   1.092  -6.424  0.00  0.00    -0.235 N 
ATOM     45  O   LIG d   1      10.388   0.239  -4.563  0.00  0.00    -0.251 OA
ATOM     46  C   LIG d   1       9.037   0.967  -7.632  0.00  0.00     0.258 C 
ATOM     47  H   LIG d   1       9.937   2.084  -6.064  0.00  0.00     0.159 HD
ATOM     48  O   LIG d   1       8.839   1.933  -8.337  0.00  0.00    -0.270 OA
BRANCH  41  49
ATOM     49  C   LIG d   1       9.826  -2.244  -5.017  0.00  0.00     0.046 A 
ATOM     50  C   LIG d   1       8.803  -2.834  -4.286  0.00  0.00    -0.036 A 
ATOM     51  C   LIG d   1       9.092  -3.835  -3.380  0.00  0.00    -0.018 A 
ATOM     52  H   LIG d   1       7.783  -2.510  -4.426  0.00  0.00     0.064 H 
ATOM     53  C   LIG d   1      10.403  -4.253  -3.201  0.00  0.00     0.120 A 
ATOM     54  H   LIG d   1       8.297  -4.294  -2.812  0.00  0.00     0.066 H 
ATOM     55  C   LIG d   1      11.424  -3.664  -3.931  0.00  0.00    -0.018 A 
ATOM     56  C   LIG d   1      11.137  -2.665  -4.841  0.00  0.00    -0.036 A 
ATOM     57  H   LIG d   1      12.445  -3.989  -3.791  0.00  0.00     0.066 H 
ATOM     58  H   LIG d   1      11.931  -2.210  -5.413  0.00  0.00     0.064 H 
BRANCH  53  59
ATOM     59  O   LIG d   1      10.686  -5.240  -2.309  0.00  0.00    -0.495 OA
BRANCH  59  60
ATOM     60  C   LIG d   1       9.630  -6.152  -1.996  0.00  0.00     0.079 C 
ATOM     61  H   LIG d   1       9.197  -6.544  -2.927  0.00  0.00     0.066 H 
ATOM     62  H   LIG d   1       8.852  -5.629  -1.421  0.00  0.00     0.066 H 
ATOM     63  H   LIG d   1      10.031  -6.984  -1.398  0.00  0.00     0.066 H 
ENDBRANCH  59  60
ENDBRANCH  53  59
ENDBRANCH  41  49
ENDBRANCH  36  39
ENDBRANCH   1  35
TORSDOF 9
ENDMDL
MODEL 10
REMARK VINA RESULT:      -5.3      2.585      6.358
REMARK  9 active torsions:
REMARK  status: ('A' for Active; 'I' for Inactive)
REMARK    1  A    between atoms: C_1  and  N_2 
REMARK    2  A    between atoms: C_9  and  O_34 
REMARK    3  A    between atoms: C_11  and  C_13 
REMARK    4  A    between atoms: C_13  and  N_14 
REMARK    5  A    between atoms: C_15  and  C_16 
REMARK    6  A    between atoms: N_23  and  C_26 
REMARK    7  A    between atoms: C_29  and  O_32 
REMARK    8  A    between atoms: O_32  and  C_33 
REMARK    9  A    between atoms: O_34  and  C_35 
ROOT
ATOM      1  C   LIG d   1       8.403  -2.061  -4.202  0.00  0.00     0.056 C 
ATOM      2  H   LIG d   1       8.535  -2.819  -3.417  0.00  0.00     0.052 H 
ATOM      3  H   LIG d   1       8.721  -1.080  -3.822  0.00  0.00     0.052 H 
ENDROOT
BRANCH   1   4
ATOM      4  C   LIG d   1       9.248  -2.436  -5.422  0.00  0.00     0.024 C 
ATOM      5  N   LIG d   1       8.929  -3.808  -5.827  0.00  0.00     0.240 N 
ATOM      6  C   LIG d   1       9.599  -4.133  -7.096  0.00  0.00    -0.027 C 
ATOM      7  H   LIG d   1       7.842  -3.880  -5.977  0.00  0.00     0.204 HD
ATOM      8  C   LIG d   1       8.904  -3.355  -8.218  0.00  0.00     0.013 C 
ATOM      9  H   LIG d   1      10.659  -3.844  -7.037  0.00  0.00     0.082 H 
ATOM     10  H   LIG d   1       9.524  -5.214  -7.285  0.00  0.00     0.082 H 
ATOM     11  C   LIG d   1       8.805  -1.898  -7.846  0.00  0.00    -0.027 A 
ATOM     12  H   LIG d   1       9.484  -3.454  -9.148  0.00  0.00     0.036 H 
ATOM     13  H   LIG d   1       7.892  -3.759  -8.373  0.00  0.00     0.036 H 
ATOM     14  C   LIG d   1       8.957  -1.473  -6.542  0.00  0.00     0.050 A 
ATOM     15  C   LIG d   1       8.555  -0.976  -8.850  0.00  0.00    -0.012 A 
ATOM     16  C   LIG d   1       8.843  -0.120  -6.239  0.00  0.00     0.174 A 
ATOM     17  C   LIG d   1       8.593   0.805  -7.242  0.00  0.00     0.208 A 
ATOM     18  C   LIG d   1       8.449   0.374  -8.556  0.00  0.00     0.170 A 
ATOM     19  O   LIG d   1       8.446   2.163  -7.209  0.00  0.00    -0.449 OA
ATOM     20  O   LIG d   1       8.212   1.459  -9.350  0.00  0.00    -0.453 OA
ATOM     21  C   LIG d   1       8.618   2.600  -8.571  0.00  0.00     0.233 C 
ATOM     22  H   LIG d   1       7.982   3.479  -8.757  0.00  0.00     0.117 H 
ATOM     23  H   LIG d   1       9.671   2.868  -8.740  0.00  0.00     0.117 H 
ATOM     24  H   LIG d   1       8.443  -1.311  -9.870  0.00  0.00     0.066 H 
ATOM     25  H   LIG d   1      10.324  -2.411  -5.193  0.00  0.00     0.092 H 
BRANCH   5  26
ATOM     26  C   LIG d   1       9.298  -4.768  -4.778  0.00  0.00    -0.042 C 
ATOM     27  H   LIG d   1      10.048  -5.469  -5.169  0.00  0.00     0.078 H 
ATOM     28  H   LIG d   1       8.404  -5.325  -4.461  0.00  0.00     0.078 H 
ATOM     29  H   LIG d   1       9.716  -4.225  -3.916  0.00  0.00     0.078 H 
ENDBRANCH   5  26
BRANCH  16  30
ATOM     30  O   LIG d   1       8.984   0.299  -4.953  0.00  0.00    -0.491 OA
BRANCH  30  31
ATOM     31  C   LIG d   1      10.130   1.099  -4.652  0.00  0.00     0.079 C 
ATOM     32  H   LIG d   1      10.752   0.583  -3.907  0.00  0.00     0.066 H 
ATOM     33  H   LIG d   1       9.804   2.069  -4.249  0.00  0.00     0.066 H 
ATOM     34  H   LIG d   1      10.715   1.261  -5.570  0.00  0.00     0.066 H 
ENDBRANCH  30  31
ENDBRANCH  16  30
ENDBRANCH   1   4
BRANCH   1  35
ATOM     35  N   LIG d   1       6.990  -2.000  -4.587  0.00  0.00    -0.343 N 
ATOM     36  C   LIG d   1       6.081  -2.012  -3.688  0.00  0.00     0.007 C 
ATOM     37  H   LIG d   1       6.359  -2.068  -2.626  0.00  0.00     0.079 H 
ATOM     38  H   LIG d   1       6.712  -1.945  -5.650  0.00  0.00     0.146 HD
BRANCH  36  39
ATOM     39  C   LIG d   1       4.627  -1.949  -4.085  0.00  0.00     0.113 C 
ATOM     40  C   LIG d   1       4.427  -2.858  -5.281  0.00  0.00     0.265 C 
ATOM     41  N   LIG d   1       3.875  -0.487  -5.905  0.00  0.00    -0.190 N 
ATOM     42  O   LIG d   1       4.695  -4.040  -5.226  0.00  0.00    -0.269 OA
ATOM     43  C   LIG d   1       3.281   0.290  -4.993  0.00  0.00     0.320 C 
ATOM     44  N   LIG d   1       3.288   0.065  -3.675  0.00  0.00    -0.235 N 
ATOM     45  O   LIG d   1       2.689   1.274  -5.392  0.00  0.00    -0.251 OA
ATOM     46  C   LIG d   1       3.919  -1.000  -3.137  0.00  0.00     0.258 C 
ATOM     47  H   LIG d   1       2.761   0.778  -3.025  0.00  0.00     0.159 HD
ATOM     48  O   LIG d   1       3.918  -1.192  -1.940  0.00  0.00    -0.270 OA
BRANCH  41  49
ATOM     49  C   LIG d   1       3.790  -0.135  -7.260  0.00  0.00     0.046 A 
ATOM     50  C   LIG d   1       4.844   0.531  -7.872  0.00  0.00    -0.036 A 
ATOM     51  C   LIG d   1       4.760   0.877  -9.206  0.00  0.00    -0.018 A 
ATOM     52  H   LIG d   1       5.728   0.779  -7.305  0.00  0.00     0.064 H 
ATOM     53  C   LIG d   1       3.624   0.558  -9.936  0.00  0.00     0.120 A 
ATOM     54  H   LIG d   1       5.579   1.395  -9.682  0.00  0.00     0.066 H 
ATOM     55  C   LIG d   1       2.572  -0.108  -9.325  0.00  0.00    -0.018 A 
ATOM     56  C   LIG d   1       2.656  -0.459  -7.992  0.00  0.00    -0.036 A 
ATOM     57  H   LIG d   1       1.687  -0.356  -9.894  0.00  0.00     0.066 H 
ATOM     58  H   LIG d   1       1.838  -0.981  -7.518  0.00  0.00     0.064 H 
BRANCH  53  59
ATOM     59  O   LIG d   1       3.543   0.897 -11.251  0.00  0.00    -0.495 OA
BRANCH  59  60
ATOM     60  C   LIG d   1       3.959  -0.086 -12.201  0.00  0.00     0.079 C 
ATOM     61  H   LIG d   1       3.944   0.350 -13.209  0.00  0.00     0.066 H 
ATOM     62  H   LIG d   1       3.274  -0.946 -12.163  0.00  0.00     0.066 H 
ATOM     63  H   LIG d   1       4.980  -0.420 -11.960  0.00  0.00     0.066 H 
ENDBRANCH  59  60
ENDBRANCH  53  59
ENDBRANCH  41  49
ENDBRANCH  36  39
ENDBRANCH   1  35
TORSDOF 9
ENDMDL
