MODEL 1
REMARK VINA RESULT:      -4.3      0.000      0.000
REMARK  6 active torsions:
REMARK  status: ('A' for Active; 'I' for Inactive)
REMARK    1  A    between atoms: C_1  and  C_2 
REMARK    2  A    between atoms: C_2  and  C_3 
REMARK    3  A    between atoms: C_3  and  C_4 
REMARK    4  A    between atoms: C_4  and  C_5 
REMARK    5  A    between atoms: C_6  and  C_7 
REMARK    6  A    between atoms: C_7  and  O_8 
ROOT
ATOM      1  C   LIG d   1       4.007  -1.470  -2.191  0.00  0.00    -0.035 C 
ATOM      2  H   LIG d   1       3.679  -1.803  -1.206  0.00  0.00     0.031 H 
ATOM      3  H   LIG d   1       4.968  -0.964  -2.103  0.00  0.00     0.031 H 
ENDROOT
BRANCH   1   4
ATOM      4  C   LIG d   1       2.972  -0.504  -2.773  0.00  0.00    -0.050 C 
ATOM      5  H   LIG d   1       2.867  -0.685  -3.842  0.00  0.00     0.027 H 
ATOM      6  H   LIG d   1       2.013  -0.660  -2.281  0.00  0.00     0.027 H 
BRANCH   4   7
ATOM      7  C   LIG d   1       3.434   0.936  -2.542  0.00  0.00    -0.056 C 
ATOM      8  H   LIG d   1       3.688   1.395  -3.497  0.00  0.00     0.026 H 
ATOM      9  H   LIG d   1       2.632   1.504  -2.070  0.00  0.00     0.026 H 
BRANCH   7  10
ATOM     10  C   LIG d   1       4.664   0.938  -1.633  0.00  0.00    -0.065 C 
ATOM     11  H   LIG d   1       4.928  -0.088  -1.377  0.00  0.00     0.023 H 
ATOM     12  H   LIG d   1       5.499   1.410  -2.150  0.00  0.00     0.023 H 
ATOM     13  H   LIG d   1       4.441   1.494  -0.721  0.00  0.00     0.023 H 
ENDBRANCH   7  10
ENDBRANCH   4   7
ENDBRANCH   1   4
BRANCH   1  14
ATOM     14  C   LIG d   1       4.149  -2.663  -3.102  0.00  0.00    -0.086 C 
ATOM     15  C   LIG d   1       4.987  -2.623  -4.107  0.00  0.00    -0.063 C 
ATOM     16  H   LIG d   1       5.577  -1.736  -4.283  0.00  0.00     0.059 H 
ATOM     17  H   LIG d   1       3.558  -3.550  -2.926  0.00  0.00     0.057 H 
BRANCH  15  18
ATOM     18  C   LIG d   1       5.128  -3.815  -5.018  0.00  0.00     0.062 C 
ATOM     19  H   LIG d   1       5.383  -4.695  -4.427  0.00  0.00     0.060 H 
ATOM     20  H   LIG d   1       5.918  -3.625  -5.745  0.00  0.00     0.060 H 
BRANCH  18  21
ATOM     21  O   LIG d   1       3.895  -4.040  -5.703  0.00  0.00    -0.391 OA
ATOM     22  H   LIG d   1       3.113  -3.968  -5.139  0.00  0.00     0.210 HD
ENDBRANCH  18  21
ENDBRANCH  15  18
ENDBRANCH   1  14
TORSDOF 6
ENDMDL
MODEL 2
REMARK VINA RESULT:      -4.2      2.802      4.045
REMARK  6 active torsions:
REMARK  status: ('A' for Active; 'I' for Inactive)
REMARK    1  A    between atoms: C_1  and  C_2 
REMARK    2  A    between atoms: C_2  and  C_3 
REMARK    3  A    between atoms: C_3  and  C_4 
REMARK    4  A    between atoms: C_4  and  C_5 
REMARK    5  A    between atoms: C_6  and  C_7 
REMARK    6  A    between atoms: C_7  and  O_8 
ROOT
ATOM      1  C   LIG d   1       4.237   0.530  -1.920  0.00  0.00    -0.035 C 
ATOM      2  H   LIG d   1       4.076   0.925  -0.916  0.00  0.00     0.031 H 
ATOM      3  H   LIG d   1       3.324   0.645  -2.506  0.00  0.00     0.031 H 
ENDROOT
BRANCH   1   4
ATOM      4  C   LIG d   1       4.603  -0.953  -1.833  0.00  0.00    -0.050 C 
ATOM      5  H   LIG d   1       5.577  -1.114  -2.293  0.00  0.00     0.027 H 
ATOM      6  H   LIG d   1       4.641  -1.256  -0.786  0.00  0.00     0.027 H 
BRANCH   4   7
ATOM      7  C   LIG d   1       3.548  -1.783  -2.566  0.00  0.00    -0.056 C 
ATOM      8  H   LIG d   1       4.031  -2.395  -3.327  0.00  0.00     0.026 H 
ATOM      9  H   LIG d   1       3.034  -2.429  -1.853  0.00  0.00     0.026 H 
BRANCH   7  10
ATOM     10  C   LIG d   1       2.535  -0.849  -3.230  0.00  0.00    -0.065 C 
ATOM     11  H   LIG d   1       1.959  -0.333  -2.462  0.00  0.00     0.023 H 
ATOM     12  H   LIG d   1       3.061  -0.118  -3.842  0.00  0.00     0.023 H 
ATOM     13  H   LIG d   1       1.861  -1.431  -3.859  0.00  0.00     0.023 H 
ENDBRANCH   7  10
ENDBRANCH   4   7
ENDBRANCH   1   4
BRANCH   1  14
ATOM     14  C   LIG d   1       5.358   1.288  -2.583  0.00  0.00    -0.086 C 
ATOM     15  C   LIG d   1       6.313   0.637  -3.198  0.00  0.00    -0.063 C 
ATOM     16  H   LIG d   1       6.297  -0.442  -3.231  0.00  0.00     0.059 H 
ATOM     17  H   LIG d   1       5.374   2.367  -2.550  0.00  0.00     0.057 H 
BRANCH  15  18
ATOM     18  C   LIG d   1       7.436   1.394  -3.860  0.00  0.00     0.062 C 
ATOM     19  H   LIG d   1       8.385   0.908  -3.634  0.00  0.00     0.060 H 
ATOM     20  H   LIG d   1       7.454   2.418  -3.486  0.00  0.00     0.060 H 
BRANCH  18  21
ATOM     21  O   LIG d   1       7.233   1.408  -5.275  0.00  0.00    -0.391 OA
ATOM     22  H   LIG d   1       7.587   2.193  -5.715  0.00  0.00     0.210 HD
ENDBRANCH  18  21
ENDBRANCH  15  18
ENDBRANCH   1  14
TORSDOF 6
ENDMDL
MODEL 3
REMARK VINA RESULT:      -4.2      3.020      3.601
REMARK  6 active torsions:
REMARK  status: ('A' for Active; 'I' for Inactive)
REMARK    1  A    between atoms: C_1  and  C_2 
REMARK    2  A    between atoms: C_2  and  C_3 
REMARK    3  A    between atoms: C_3  and  C_4 
REMARK    4  A    between atoms: C_4  and  C_5 
REMARK    5  A    between atoms: C_6  and  C_7 
REMARK    6  A    between atoms: C_7  and  O_8 
ROOT
ATOM      1  C   LIG d   1       2.799  -0.017  -3.380  0.00  0.00    -0.035 C 
ATOM      2  H   LIG d   1       1.892  -0.220  -2.810  0.00  0.00     0.031 H 
ATOM      3  H   LIG d   1       3.446  -0.895  -3.357  0.00  0.00     0.031 H 
ENDROOT
BRANCH   1   4
ATOM      4  C   LIG d   1       3.534   1.174  -2.761  0.00  0.00    -0.050 C 
ATOM      5  H   LIG d   1       4.042   1.734  -3.545  0.00  0.00     0.027 H 
ATOM      6  H   LIG d   1       2.815   1.822  -2.259  0.00  0.00     0.027 H 
BRANCH   4   7
ATOM      7  C   LIG d   1       4.561   0.669  -1.746  0.00  0.00    -0.056 C 
ATOM      8  H   LIG d   1       5.555   1.005  -2.036  0.00  0.00     0.026 H 
ATOM      9  H   LIG d   1       4.319   1.063  -0.758  0.00  0.00     0.026 H 
BRANCH   7  10
ATOM     10  C   LIG d   1       4.530  -0.859  -1.707  0.00  0.00    -0.065 C 
ATOM     11  H   LIG d   1       4.966  -1.208  -0.771  0.00  0.00     0.023 H 
ATOM     12  H   LIG d   1       3.500  -1.205  -1.778  0.00  0.00     0.023 H 
ATOM     13  H   LIG d   1       5.105  -1.257  -2.545  0.00  0.00     0.023 H 
ENDBRANCH   7  10
ENDBRANCH   4   7
ENDBRANCH   1   4
BRANCH   1  14
ATOM     14  C   LIG d   1       2.434   0.302  -4.806  0.00  0.00    -0.086 C 
ATOM     15  C   LIG d   1       3.246  -0.030  -5.779  0.00  0.00    -0.063 C 
ATOM     16  H   LIG d   1       4.175  -0.533  -5.559  0.00  0.00     0.059 H 
ATOM     17  H   LIG d   1       1.504   0.805  -5.026  0.00  0.00     0.057 H 
BRANCH  15  18
ATOM     18  C   LIG d   1       2.882   0.290  -7.207  0.00  0.00     0.062 C 
ATOM     19  H   LIG d   1       1.840   0.022  -7.384  0.00  0.00     0.060 H 
ATOM     20  H   LIG d   1       3.523  -0.277  -7.881  0.00  0.00     0.060 H 
BRANCH  18  21
ATOM     21  O   LIG d   1       3.061   1.688  -7.442  0.00  0.00    -0.391 OA
ATOM     22  H   LIG d   1       3.506   2.155  -6.721  0.00  0.00     0.210 HD
ENDBRANCH  18  21
ENDBRANCH  15  18
ENDBRANCH   1  14
TORSDOF 6
ENDMDL
MODEL 4
REMARK VINA RESULT:      -4.1      0.954      1.501
REMARK  6 active torsions:
REMARK  status: ('A' for Active; 'I' for Inactive)
REMARK    1  A    between atoms: C_1  and  C_2 
REMARK    2  A    between atoms: C_2  and  C_3 
REMARK    3  A    between atoms: C_3  and  C_4 
REMARK    4  A    between atoms: C_4  and  C_5 
REMARK    5  A    between atoms: C_6  and  C_7 
REMARK    6  A    between atoms: C_7  and  O_8 
ROOT
ATOM      1  C   LIG d   1       5.033  -2.253  -3.148  0.00  0.00    -0.035 C 
ATOM      2  H   LIG d   1       5.377  -3.125  -2.591  0.00  0.00     0.031 H 
ATOM      3  H   LIG d   1       5.860  -1.555  -3.276  0.00  0.00     0.031 H 
ENDROOT
BRANCH   1   4
ATOM      4  C   LIG d   1       3.902  -1.569  -2.378  0.00  0.00    -0.050 C 
ATOM      5  H   LIG d   1       3.070  -1.372  -3.053  0.00  0.00     0.027 H 
ATOM      6  H   LIG d   1       3.568  -2.220  -1.570  0.00  0.00     0.027 H 
BRANCH   4   7
ATOM      7  C   LIG d   1       4.408  -0.250  -1.792  0.00  0.00    -0.056 C 
ATOM      8  H   LIG d   1       4.271  -0.255  -0.711  0.00  0.00     0.026 H 
ATOM      9  H   LIG d   1       5.468  -0.134  -2.022  0.00  0.00     0.026 H 
BRANCH   7  10
ATOM     10  C   LIG d   1       3.624   0.913  -2.401  0.00  0.00    -0.065 C 
ATOM     11  H   LIG d   1       3.772   1.807  -1.796  0.00  0.00     0.023 H 
ATOM     12  H   LIG d   1       3.976   1.099  -3.415  0.00  0.00     0.023 H 
ATOM     13  H   LIG d   1       2.562   0.663  -2.425  0.00  0.00     0.023 H 
ENDBRANCH   7  10
ENDBRANCH   4   7
ENDBRANCH   1   4
BRANCH   1  14
ATOM     14  C   LIG d   1       4.530  -2.690  -4.500  0.00  0.00    -0.086 C 
ATOM     15  C   LIG d   1       4.890  -3.850  -4.989  0.00  0.00    -0.063 C 
ATOM     16  H   LIG d   1       5.546  -4.494  -4.424  0.00  0.00     0.059 H 
ATOM     17  H   LIG d   1       3.874  -2.044  -5.065  0.00  0.00     0.057 H 
BRANCH  15  18
ATOM     18  C   LIG d   1       4.388  -4.286  -6.342  0.00  0.00     0.062 C 
ATOM     19  H   LIG d   1       5.155  -4.877  -6.841  0.00  0.00     0.060 H 
ATOM     20  H   LIG d   1       4.158  -3.407  -6.944  0.00  0.00     0.060 H 
BRANCH  18  21
ATOM     21  O   LIG d   1       3.207  -5.075  -6.181  0.00  0.00    -0.391 OA
ATOM     22  H   LIG d   1       2.846  -5.416  -7.010  0.00  0.00     0.210 HD
ENDBRANCH  18  21
ENDBRANCH  15  18
ENDBRANCH   1  14
TORSDOF 6
ENDMDL
MODEL 5
REMARK VINA RESULT:      -4.0      2.273      2.337
REMARK  6 active torsions:
REMARK  status: ('A' for Active; 'I' for Inactive)
REMARK    1  A    between atoms: C_1  and  C_2 
REMARK    2  A    between atoms: C_2  and  C_3 
REMARK    3  A    between atoms: C_3  and  C_4 
REMARK    4  A    between atoms: C_4  and  C_5 
REMARK    5  A    between atoms: C_6  and  C_7 
REMARK    6  A    between atoms: C_7  and  O_8 
ROOT
ATOM      1  C   LIG d   1       4.398  -1.607  -2.119  0.00  0.00    -0.035 C 
ATOM      2  H   LIG d   1       4.088  -2.464  -1.520  0.00  0.00     0.031 H 
ATOM      3  H   LIG d   1       4.969  -0.917  -1.498  0.00  0.00     0.031 H 
ENDROOT
BRANCH   1   4
ATOM      4  C   LIG d   1       3.159  -0.895  -2.668  0.00  0.00    -0.050 C 
ATOM      5  H   LIG d   1       2.996  -1.196  -3.702  0.00  0.00     0.027 H 
ATOM      6  H   LIG d   1       2.290  -1.164  -2.068  0.00  0.00     0.027 H 
BRANCH   4   7
ATOM      7  C   LIG d   1       3.372   0.619  -2.604  0.00  0.00    -0.056 C 
ATOM      8  H   LIG d   1       3.613   0.995  -3.598  0.00  0.00     0.026 H 
ATOM      9  H   LIG d   1       2.462   1.099  -2.245  0.00  0.00     0.026 H 
BRANCH   7  10
ATOM     10  C   LIG d   1       4.524   0.932  -1.648  0.00  0.00    -0.065 C 
ATOM     11  H   LIG d   1       4.421   1.952  -1.276  0.00  0.00     0.023 H 
ATOM     12  H   LIG d   1       4.502   0.236  -0.810  0.00  0.00     0.023 H 
ATOM     13  H   LIG d   1       5.473   0.834  -2.177  0.00  0.00     0.023 H 
ENDBRANCH   7  10
ENDBRANCH   4   7
ENDBRANCH   1   4
BRANCH   1  14
ATOM     14  C   LIG d   1       5.255  -2.081  -3.264  0.00  0.00    -0.086 C 
ATOM     15  C   LIG d   1       6.534  -1.802  -3.283  0.00  0.00    -0.063 C 
ATOM     16  H   LIG d   1       6.975  -1.234  -2.477  0.00  0.00     0.059 H 
ATOM     17  H   LIG d   1       4.814  -2.648  -4.070  0.00  0.00     0.057 H 
BRANCH  15  18
ATOM     18  C   LIG d   1       7.392  -2.274  -4.429  0.00  0.00     0.062 C 
ATOM     19  H   LIG d   1       7.181  -1.671  -5.312  0.00  0.00     0.060 H 
ATOM     20  H   LIG d   1       7.169  -3.320  -4.642  0.00  0.00     0.060 H 
BRANCH  18  21
ATOM     21  O   LIG d   1       8.771  -2.142  -4.079  0.00  0.00    -0.391 OA
ATOM     22  H   LIG d   1       8.949  -1.438  -3.441  0.00  0.00     0.210 HD
ENDBRANCH  18  21
ENDBRANCH  15  18
ENDBRANCH   1  14
TORSDOF 6
ENDMDL
MODEL 6
REMARK VINA RESULT:      -3.7      2.527      4.451
REMARK  6 active torsions:
REMARK  status: ('A' for Active; 'I' for Inactive)
REMARK    1  A    between atoms: C_1  and  C_2 
REMARK    2  A    between atoms: C_2  and  C_3 
REMARK    3  A    between atoms: C_3  and  C_4 
REMARK    4  A    between atoms: C_4  and  C_5 
REMARK    5  A    between atoms: C_6  and  C_7 
REMARK    6  A    between atoms: C_7  and  O_8 
ROOT
ATOM      1  C   LIG d   1       3.929  -2.345  -2.551  0.00  0.00    -0.035 C 
ATOM      2  H   LIG d   1       4.604  -2.432  -1.699  0.00  0.00     0.031 H 
ATOM      3  H   LIG d   1       3.053  -2.972  -2.386  0.00  0.00     0.031 H 
ENDROOT
BRANCH   1   4
ATOM      4  C   LIG d   1       4.650  -2.798  -3.822  0.00  0.00    -0.050 C 
ATOM      5  H   LIG d   1       4.572  -3.881  -3.916  0.00  0.00     0.027 H 
ATOM      6  H   LIG d   1       4.191  -2.323  -4.688  0.00  0.00     0.027 H 
BRANCH   4   7
ATOM      7  C   LIG d   1       6.125  -2.397  -3.742  0.00  0.00    -0.056 C 
ATOM      8  H   LIG d   1       6.217  -1.321  -3.884  0.00  0.00     0.026 H 
ATOM      9  H   LIG d   1       6.523  -2.670  -2.765  0.00  0.00     0.026 H 
BRANCH   7  10
ATOM     10  C   LIG d   1       6.911  -3.124  -4.834  0.00  0.00    -0.065 C 
ATOM     11  H   LIG d   1       7.973  -3.105  -4.591  0.00  0.00     0.023 H 
ATOM     12  H   LIG d   1       6.572  -4.157  -4.900  0.00  0.00     0.023 H 
ATOM     13  H   LIG d   1       6.749  -2.627  -5.792  0.00  0.00     0.023 H 
ENDBRANCH   7  10
ENDBRANCH   4   7
ENDBRANCH   1   4
BRANCH   1  14
ATOM     14  C   LIG d   1       3.497  -0.909  -2.702  0.00  0.00    -0.086 C 
ATOM     15  C   LIG d   1       4.119   0.035  -2.041  0.00  0.00    -0.063 C 
ATOM     16  H   LIG d   1       4.941  -0.215  -1.388  0.00  0.00     0.059 H 
ATOM     17  H   LIG d   1       2.674  -0.659  -3.356  0.00  0.00     0.057 H 
BRANCH  15  18
ATOM     18  C   LIG d   1       3.685   1.471  -2.192  0.00  0.00     0.062 C 
ATOM     19  H   LIG d   1       3.945   2.025  -1.290  0.00  0.00     0.060 H 
ATOM     20  H   LIG d   1       2.607   1.511  -2.346  0.00  0.00     0.060 H 
BRANCH  18  21
ATOM     21  O   LIG d   1       4.348   2.053  -3.316  0.00  0.00    -0.391 OA
ATOM     22  H   LIG d   1       3.843   2.753  -3.751  0.00  0.00     0.210 HD
ENDBRANCH  18  21
ENDBRANCH  15  18
ENDBRANCH   1  14
TORSDOF 6
ENDMDL
MODEL 7
REMARK VINA RESULT:      -3.5      3.571      4.784
REMARK  6 active torsions:
REMARK  status: ('A' for Active; 'I' for Inactive)
REMARK    1  A    between atoms: C_1  and  C_2 
REMARK    2  A    between atoms: C_2  and  C_3 
REMARK    3  A    between atoms: C_3  and  C_4 
REMARK    4  A    between atoms: C_4  and  C_5 
REMARK    5  A    between atoms: C_6  and  C_7 
REMARK    6  A    between atoms: C_7  and  O_8 
ROOT
ATOM      1  C   LIG d   1       2.376   0.445  -4.964  0.00  0.00    -0.035 C 
ATOM      2  H   LIG d   1       1.463  -0.142  -5.066  0.00  0.00     0.031 H 
ATOM      3  H   LIG d   1       2.143   1.503  -5.083  0.00  0.00     0.031 H 
ENDROOT
BRANCH   1   4
ATOM      4  C   LIG d   1       3.378   0.019  -6.040  0.00  0.00    -0.050 C 
ATOM      5  H   LIG d   1       4.226   0.703  -6.037  0.00  0.00     0.027 H 
ATOM      6  H   LIG d   1       3.727  -0.992  -5.830  0.00  0.00     0.027 H 
BRANCH   4   7
ATOM      7  C   LIG d   1       2.700   0.051  -7.410  0.00  0.00    -0.056 C 
ATOM      8  H   LIG d   1       3.098  -0.750  -8.032  0.00  0.00     0.026 H 
ATOM      9  H   LIG d   1       1.625  -0.086  -7.287  0.00  0.00     0.026 H 
BRANCH   7  10
ATOM     10  C   LIG d   1       2.968   1.398  -8.082  0.00  0.00    -0.065 C 
ATOM     11  H   LIG d   1       3.759   1.283  -8.824  0.00  0.00     0.023 H 
ATOM     12  H   LIG d   1       2.060   1.749  -8.571  0.00  0.00     0.023 H 
ATOM     13  H   LIG d   1       3.279   2.124  -7.330  0.00  0.00     0.023 H 
ENDBRANCH   7  10
ENDBRANCH   4   7
ENDBRANCH   1   4
BRANCH   1  14
ATOM     14  C   LIG d   1       2.973   0.212  -3.600  0.00  0.00    -0.086 C 
ATOM     15  C   LIG d   1       3.856   1.051  -3.120  0.00  0.00    -0.063 C 
ATOM     16  H   LIG d   1       4.157   1.910  -3.702  0.00  0.00     0.059 H 
ATOM     17  H   LIG d   1       2.672  -0.647  -3.019  0.00  0.00     0.057 H 
BRANCH  15  18
ATOM     18  C   LIG d   1       4.454   0.818  -1.757  0.00  0.00     0.062 C 
ATOM     19  H   LIG d   1       3.840   1.310  -1.002  0.00  0.00     0.060 H 
ATOM     20  H   LIG d   1       5.463   1.228  -1.727  0.00  0.00     0.060 H 
BRANCH  18  21
ATOM     21  O   LIG d   1       4.502  -0.586  -1.491  0.00  0.00    -0.391 OA
ATOM     22  H   LIG d   1       4.521  -0.807  -0.550  0.00  0.00     0.210 HD
ENDBRANCH  18  21
ENDBRANCH  15  18
ENDBRANCH   1  14
TORSDOF 6
ENDMDL
MODEL 8
REMARK VINA RESULT:      -3.4      5.164      5.727
REMARK  6 active torsions:
REMARK  status: ('A' for Active; 'I' for Inactive)
REMARK    1  A    between atoms: C_1  and  C_2 
REMARK    2  A    between atoms: C_2  and  C_3 
REMARK    3  A    between atoms: C_3  and  C_4 
REMARK    4  A    between atoms: C_4  and  C_5 
REMARK    5  A    between atoms: C_6  and  C_7 
REMARK    6  A    between atoms: C_7  and  O_8 
ROOT
ATOM      1  C   LIG d   1       3.040   0.570  -8.119  0.00  0.00    -0.035 C 
ATOM      2  H   LIG d   1       4.029   0.294  -8.488  0.00  0.00     0.031 H 
ATOM      3  H   LIG d   1       2.286  -0.049  -8.605  0.00  0.00     0.031 H 
ENDROOT
BRANCH   1   4
ATOM      4  C   LIG d   1       2.771   2.043  -8.433  0.00  0.00    -0.050 C 
ATOM      5  H   LIG d   1       1.768   2.149  -8.844  0.00  0.00     0.027 H 
ATOM      6  H   LIG d   1       2.853   2.630  -7.518  0.00  0.00     0.027 H 
BRANCH   4   7
ATOM      7  C   LIG d   1       3.797   2.543  -9.452  0.00  0.00    -0.056 C 
ATOM      8  H   LIG d   1       3.473   3.502  -9.855  0.00  0.00     0.026 H 
ATOM      9  H   LIG d   1       4.765   2.662  -8.965  0.00  0.00     0.026 H 
BRANCH   7  10
ATOM     10  C   LIG d   1       3.920   1.528 -10.590  0.00  0.00    -0.065 C 
ATOM     11  H   LIG d   1       3.361   1.883 -11.456  0.00  0.00     0.023 H 
ATOM     12  H   LIG d   1       4.969   1.410 -10.860  0.00  0.00     0.023 H 
ATOM     13  H   LIG d   1       3.518   0.568 -10.268  0.00  0.00     0.023 H 
ENDBRANCH   7  10
ENDBRANCH   4   7
ENDBRANCH   1   4
BRANCH   1  14
ATOM     14  C   LIG d   1       2.983   0.354  -6.629  0.00  0.00    -0.086 C 
ATOM     15  C   LIG d   1       3.885  -0.391  -6.040  0.00  0.00    -0.063 C 
ATOM     16  H   LIG d   1       4.670  -0.850  -6.622  0.00  0.00     0.059 H 
ATOM     17  H   LIG d   1       2.198   0.813  -6.047  0.00  0.00     0.057 H 
BRANCH  15  18
ATOM     18  C   LIG d   1       3.828  -0.607  -4.549  0.00  0.00     0.062 C 
ATOM     19  H   LIG d   1       3.187   0.150  -4.097  0.00  0.00     0.060 H 
ATOM     20  H   LIG d   1       4.831  -0.530  -4.132  0.00  0.00     0.060 H 
BRANCH  18  21
ATOM     21  O   LIG d   1       3.297  -1.906  -4.276  0.00  0.00    -0.391 OA
ATOM     22  H   LIG d   1       3.722  -2.356  -3.533  0.00  0.00     0.210 HD
ENDBRANCH  18  21
ENDBRANCH  15  18
ENDBRANCH   1  14
TORSDOF 6
ENDMDL
MODEL 9
REMARK VINA RESULT:      -3.1      8.549      9.312
REMARK  6 active torsions:
REMARK  status: ('A' for Active; 'I' for Inactive)
REMARK    1  A    between atoms: C_1  and  C_2 
REMARK    2  A    between atoms: C_2  and  C_3 
REMARK    3  A    between atoms: C_3  and  C_4 
REMARK    4  A    between atoms: C_4  and  C_5 
REMARK    5  A    between atoms: C_6  and  C_7 
REMARK    6  A    between atoms: C_7  and  O_8 
ROOT
ATOM      1  C   LIG d   1       6.800  -9.450  -3.383  0.00  0.00    -0.035 C 
ATOM      2  H   LIG d   1       7.394  -9.927  -4.164  0.00  0.00     0.031 H 
ATOM      3  H   LIG d   1       6.509  -8.451  -3.707  0.00  0.00     0.031 H 
ENDROOT
BRANCH   1   4
ATOM      4  C   LIG d   1       7.629  -9.349  -2.101  0.00  0.00    -0.050 C 
ATOM      5  H   LIG d   1       8.683  -9.494  -2.338  0.00  0.00     0.027 H 
ATOM      6  H   LIG d   1       7.488  -8.365  -1.655  0.00  0.00     0.027 H 
BRANCH   4   7
ATOM      7  C   LIG d   1       7.175 -10.426  -1.114  0.00  0.00    -0.056 C 
ATOM      8  H   LIG d   1       6.670  -9.957  -0.270  0.00  0.00     0.026 H 
ATOM      9  H   LIG d   1       6.487 -11.109  -1.613  0.00  0.00     0.026 H 
BRANCH   7  10
ATOM     10  C   LIG d   1       8.392 -11.204  -0.612  0.00  0.00    -0.065 C 
ATOM     11  H   LIG d   1       8.071 -12.171  -0.224  0.00  0.00     0.023 H 
ATOM     12  H   LIG d   1       9.091 -11.357  -1.434  0.00  0.00     0.023 H 
ATOM     13  H   LIG d   1       8.883 -10.640   0.182  0.00  0.00     0.023 H 
ENDBRANCH   7  10
ENDBRANCH   4   7
ENDBRANCH   1   4
BRANCH   1  14
ATOM     14  C   LIG d   1       5.565 -10.273  -3.120  0.00  0.00    -0.086 C 
ATOM     15  C   LIG d   1       4.420  -9.923  -3.652  0.00  0.00    -0.063 C 
ATOM     16  H   LIG d   1       4.361  -9.046  -4.279  0.00  0.00     0.059 H 
ATOM     17  H   LIG d   1       5.624 -11.150  -2.493  0.00  0.00     0.057 H 
BRANCH  15  18
ATOM     18  C   LIG d   1       3.184 -10.745  -3.388  0.00  0.00     0.062 C 
ATOM     19  H   LIG d   1       3.390 -11.465  -2.596  0.00  0.00     0.060 H 
ATOM     20  H   LIG d   1       2.901 -11.276  -4.297  0.00  0.00     0.060 H 
BRANCH  18  21
ATOM     21  O   LIG d   1       2.116  -9.885  -2.986  0.00  0.00    -0.391 OA
ATOM     22  H   LIG d   1       1.711  -9.395  -3.714  0.00  0.00     0.210 HD
ENDBRANCH  18  21
ENDBRANCH  15  18
ENDBRANCH   1  14
TORSDOF 6
ENDMDL
MODEL 10
REMARK VINA RESULT:      -3.0     11.078     12.709
REMARK  6 active torsions:
REMARK  status: ('A' for Active; 'I' for Inactive)
REMARK    1  A    between atoms: C_1  and  C_2 
REMARK    2  A    between atoms: C_2  and  C_3 
REMARK    3  A    between atoms: C_3  and  C_4 
REMARK    4  A    between atoms: C_4  and  C_5 
REMARK    5  A    between atoms: C_6  and  C_7 
REMARK    6  A    between atoms: C_7  and  O_8 
ROOT
ATOM      1  C   LIG d   1       9.689   8.601  -0.543  0.00  0.00    -0.035 C 
ATOM      2  H   LIG d   1      10.757   8.711  -0.352  0.00  0.00     0.031 H 
ATOM      3  H   LIG d   1       9.174   8.379   0.391  0.00  0.00     0.031 H 
ENDROOT
BRANCH   1   4
ATOM      4  C   LIG d   1       9.463   7.458  -1.535  0.00  0.00    -0.050 C 
ATOM      5  H   LIG d   1       8.408   7.190  -1.546  0.00  0.00     0.027 H 
ATOM      6  H   LIG d   1       9.767   7.778  -2.532  0.00  0.00     0.027 H 
BRANCH   4   7
ATOM      7  C   LIG d   1      10.295   6.245  -1.114  0.00  0.00    -0.056 C 
ATOM      8  H   LIG d   1       9.645   5.378  -1.004  0.00  0.00     0.026 H 
ATOM      9  H   LIG d   1      11.048   6.039  -1.875  0.00  0.00     0.026 H 
BRANCH   7  10
ATOM     10  C   LIG d   1      10.984   6.538   0.219  0.00  0.00    -0.065 C 
ATOM     11  H   LIG d   1      10.233   6.637   1.003  0.00  0.00     0.023 H 
ATOM     12  H   LIG d   1      11.661   5.720   0.467  0.00  0.00     0.023 H 
ATOM     13  H   LIG d   1      11.551   7.467   0.141  0.00  0.00     0.023 H 
ENDBRANCH   7  10
ENDBRANCH   4   7
ENDBRANCH   1   4
BRANCH   1  14
ATOM     14  C   LIG d   1       9.150   9.884  -1.121  0.00  0.00    -0.086 C 
ATOM     15  C   LIG d   1       9.566  10.300  -2.291  0.00  0.00    -0.063 C 
ATOM     16  H   LIG d   1      10.295   9.725  -2.841  0.00  0.00     0.059 H 
ATOM     17  H   LIG d   1       8.421  10.460  -0.570  0.00  0.00     0.057 H 
BRANCH  15  18
ATOM     18  C   LIG d   1       9.027  11.584  -2.869  0.00  0.00     0.062 C 
ATOM     19  H   LIG d   1       9.476  11.759  -3.847  0.00  0.00     0.060 H 
ATOM     20  H   LIG d   1       9.271  12.412  -2.203  0.00  0.00     0.060 H 
BRANCH  18  21
ATOM     21  O   LIG d   1       7.608  11.487  -3.007  0.00  0.00    -0.391 OA
ATOM     22  H   LIG d   1       7.190  12.287  -3.353  0.00  0.00     0.210 HD
ENDBRANCH  18  21
ENDBRANCH  15  18
ENDBRANCH   1  14
TORSDOF 6
ENDMDL
