MODEL 1
REMARK VINA RESULT:      -6.6      0.000      0.000
REMARK  3 active torsions:
REMARK  status: ('A' for Active; 'I' for Inactive)
REMARK    1  A    between atoms: C_1  and  O_2 
REMARK    2  A    between atoms: O_2  and  C_3 
REMARK    3  A    between atoms: C_12  and  C_15 
ROOT
ATOM      1  C   LIG d   1       4.331   0.220 -10.473  0.00  0.00     0.134 A 
ATOM      2  C   LIG d   1       3.903   1.484 -10.848  0.00  0.00    -0.019 A 
ATOM      3  C   LIG d   1       3.414   2.361  -9.898  0.00  0.00    -0.055 A 
ATOM      4  C   LIG d   1       3.341   1.995  -8.566  0.00  0.00    -0.019 A 
ATOM      5  C   LIG d   1       3.761   0.736  -8.164  0.00  0.00     0.135 A 
ATOM      6  C   LIG d   1       4.266  -0.157  -9.125  0.00  0.00     0.101 A 
ATOM      7  C   LIG d   1       4.726  -1.485  -8.692  0.00  0.00     0.174 C 
ATOM      8  O   LIG d   1       5.364  -2.209  -9.427  0.00  0.00    -0.292 OA
ATOM      9  C   LIG d   1       4.361  -1.903  -7.279  0.00  0.00     0.052 C 
ATOM     10  C   LIG d   1       4.526  -0.667  -6.383  0.00  0.00     0.132 C 
ATOM     11  H   LIG d   1       5.565  -0.335  -6.408  0.00  0.00     0.079 H 
ATOM     12  O   LIG d   1       3.681   0.380  -6.861  0.00  0.00    -0.483 OA
ATOM     13  H   LIG d   1       3.952   1.785 -11.885  0.00  0.00     0.065 H 
ATOM     14  H   LIG d   1       3.086   3.346 -10.199  0.00  0.00     0.062 H 
ATOM     15  H   LIG d   1       2.957   2.692  -7.837  0.00  0.00     0.065 H 
ATOM     16  H   LIG d   1       4.967  -2.640  -6.983  0.00  0.00     0.038 H 
ATOM     17  H   LIG d   1       3.327  -2.247  -7.250  0.00  0.00     0.038 H 
ENDROOT
BRANCH  10  18
ATOM     18  C   LIG d   1       4.143  -1.016  -4.969  0.00  0.00    -0.007 A 
ATOM     19  C   LIG d   1       4.707  -2.117  -4.352  0.00  0.00    -0.055 A 
ATOM     20  C   LIG d   1       4.358  -2.438  -3.054  0.00  0.00    -0.061 A 
ATOM     21  H   LIG d   1       5.422  -2.727  -4.885  0.00  0.00     0.062 H 
ATOM     22  C   LIG d   1       3.443  -1.658  -2.372  0.00  0.00    -0.062 A 
ATOM     23  H   LIG d   1       4.799  -3.299  -2.573  0.00  0.00     0.062 H 
ATOM     24  C   LIG d   1       2.882  -0.555  -2.987  0.00  0.00    -0.061 A 
ATOM     25  H   LIG d   1       3.169  -1.909  -1.358  0.00  0.00     0.062 H 
ATOM     26  C   LIG d   1       3.228  -0.237  -4.287  0.00  0.00    -0.055 A 
ATOM     27  H   LIG d   1       2.169   0.057  -2.453  0.00  0.00     0.062 H 
ATOM     28  H   LIG d   1       2.787   0.624  -4.768  0.00  0.00     0.062 H 
ENDBRANCH  10  18
BRANCH   1  29
ATOM     29  O   LIG d   1       4.810  -0.644 -11.402  0.00  0.00    -0.494 OA
BRANCH  29  30
ATOM     30  C   LIG d   1       4.358  -0.466 -12.746  0.00  0.00     0.079 C 
ATOM     31  H   LIG d   1       4.549  -1.375 -13.317  0.00  0.00     0.066 H 
ATOM     32  H   LIG d   1       3.288  -0.258 -12.745  0.00  0.00     0.066 H 
ATOM     33  H   LIG d   1       4.890   0.368 -13.202  0.00  0.00     0.066 H 
ENDBRANCH  29  30
ENDBRANCH   1  29
TORSDOF 3
ENDMDL
MODEL 2
REMARK VINA RESULT:      -6.2      1.937      6.668
REMARK  3 active torsions:
REMARK  status: ('A' for Active; 'I' for Inactive)
REMARK    1  A    between atoms: C_1  and  O_2 
REMARK    2  A    between atoms: O_2  and  C_3 
REMARK    3  A    between atoms: C_12  and  C_15 
ROOT
ATOM      1  C   LIG d   1       4.146  -0.718  -3.391  0.00  0.00     0.134 A 
ATOM      2  C   LIG d   1       4.964  -1.752  -2.963  0.00  0.00    -0.019 A 
ATOM      3  C   LIG d   1       5.483  -2.651  -3.876  0.00  0.00    -0.055 A 
ATOM      4  C   LIG d   1       5.194  -2.537  -5.224  0.00  0.00    -0.019 A 
ATOM      5  C   LIG d   1       4.377  -1.514  -5.679  0.00  0.00     0.135 A 
ATOM      6  C   LIG d   1       3.852  -0.593  -4.756  0.00  0.00     0.101 A 
ATOM      7  C   LIG d   1       3.000   0.500  -5.244  0.00  0.00     0.174 C 
ATOM      8  O   LIG d   1       2.700   1.440  -4.537  0.00  0.00    -0.292 OA
ATOM      9  C   LIG d   1       2.515   0.394  -6.679  0.00  0.00     0.052 C 
ATOM     10  C   LIG d   1       3.684  -0.145  -7.515  0.00  0.00     0.132 C 
ATOM     11  H   LIG d   1       4.520   0.554  -7.465  0.00  0.00     0.079 H 
ATOM     12  O   LIG d   1       4.091  -1.412  -6.998  0.00  0.00    -0.483 OA
ATOM     13  H   LIG d   1       5.198  -1.856  -1.913  0.00  0.00     0.065 H 
ATOM     14  H   LIG d   1       6.123  -3.451  -3.533  0.00  0.00     0.062 H 
ATOM     15  H   LIG d   1       5.607  -3.247  -5.924  0.00  0.00     0.065 H 
ATOM     16  H   LIG d   1       2.232   1.296  -7.002  0.00  0.00     0.038 H 
ATOM     17  H   LIG d   1       1.671  -0.294  -6.734  0.00  0.00     0.038 H 
ENDROOT
BRANCH  10  18
ATOM     18  C   LIG d   1       3.247  -0.303  -8.948  0.00  0.00    -0.007 A 
ATOM     19  C   LIG d   1       2.040  -0.911  -9.239  0.00  0.00    -0.055 A 
ATOM     20  C   LIG d   1       1.638  -1.056 -10.554  0.00  0.00    -0.061 A 
ATOM     21  H   LIG d   1       1.411  -1.273  -8.439  0.00  0.00     0.062 H 
ATOM     22  C   LIG d   1       2.443  -0.593 -11.578  0.00  0.00    -0.062 A 
ATOM     23  H   LIG d   1       0.695  -1.531 -10.781  0.00  0.00     0.062 H 
ATOM     24  C   LIG d   1       3.648   0.019 -11.286  0.00  0.00    -0.061 A 
ATOM     25  H   LIG d   1       2.130  -0.707 -12.605  0.00  0.00     0.062 H 
ATOM     26  C   LIG d   1       4.052   0.159  -9.972  0.00  0.00    -0.055 A 
ATOM     27  H   LIG d   1       4.276   0.384 -12.086  0.00  0.00     0.062 H 
ATOM     28  H   LIG d   1       4.995   0.634  -9.744  0.00  0.00     0.062 H 
ENDBRANCH  10  18
BRANCH   1  29
ATOM     29  O   LIG d   1       3.634   0.164  -2.497  0.00  0.00    -0.494 OA
BRANCH  29  30
ATOM     30  C   LIG d   1       4.568   0.890  -1.696  0.00  0.00     0.079 C 
ATOM     31  H   LIG d   1       4.958   0.239  -0.913  0.00  0.00     0.066 H 
ATOM     32  H   LIG d   1       5.390   1.238  -2.321  0.00  0.00     0.066 H 
ATOM     33  H   LIG d   1       4.070   1.746  -1.241  0.00  0.00     0.066 H 
ENDBRANCH  29  30
ENDBRANCH   1  29
TORSDOF 3
ENDMDL
MODEL 3
REMARK VINA RESULT:      -6.1      1.634      2.121
REMARK  3 active torsions:
REMARK  status: ('A' for Active; 'I' for Inactive)
REMARK    1  A    between atoms: C_1  and  O_2 
REMARK    2  A    between atoms: O_2  and  C_3 
REMARK    3  A    between atoms: C_12  and  C_15 
ROOT
ATOM      1  C   LIG d   1       4.236   0.296  -9.958  0.00  0.00     0.134 A 
ATOM      2  C   LIG d   1       5.474   0.471 -10.557  0.00  0.00    -0.019 A 
ATOM      3  C   LIG d   1       6.620   0.505  -9.784  0.00  0.00    -0.055 A 
ATOM      4  C   LIG d   1       6.552   0.367  -8.410  0.00  0.00    -0.019 A 
ATOM      5  C   LIG d   1       5.327   0.193  -7.785  0.00  0.00     0.135 A 
ATOM      6  C   LIG d   1       4.159   0.152  -8.566  0.00  0.00     0.101 A 
ATOM      7  C   LIG d   1       2.864  -0.050  -7.901  0.00  0.00     0.174 C 
ATOM      8  O   LIG d   1       1.858  -0.310  -8.529  0.00  0.00    -0.292 OA
ATOM      9  C   LIG d   1       2.848   0.083  -6.389  0.00  0.00     0.052 C 
ATOM     10  C   LIG d   1       4.130  -0.577  -5.862  0.00  0.00     0.132 C 
ATOM     11  H   LIG d   1       4.134  -1.633  -6.134  0.00  0.00     0.079 H 
ATOM     12  O   LIG d   1       5.265   0.067  -6.439  0.00  0.00    -0.483 OA
ATOM     13  H   LIG d   1       5.543   0.582 -11.629  0.00  0.00     0.065 H 
ATOM     14  H   LIG d   1       7.581   0.638 -10.261  0.00  0.00     0.062 H 
ATOM     15  H   LIG d   1       7.457   0.396  -7.821  0.00  0.00     0.065 H 
ATOM     16  H   LIG d   1       2.037  -0.372  -6.023  0.00  0.00     0.038 H 
ATOM     17  H   LIG d   1       2.831   1.137  -6.109  0.00  0.00     0.038 H 
ENDROOT
BRANCH  10  18
ATOM     18  C   LIG d   1       4.184  -0.445  -4.362  0.00  0.00    -0.007 A 
ATOM     19  C   LIG d   1       4.608  -1.510  -3.589  0.00  0.00    -0.055 A 
ATOM     20  C   LIG d   1       4.658  -1.389  -2.214  0.00  0.00    -0.061 A 
ATOM     21  H   LIG d   1       4.899  -2.437  -4.061  0.00  0.00     0.062 H 
ATOM     22  C   LIG d   1       4.284  -0.203  -1.609  0.00  0.00    -0.062 A 
ATOM     23  H   LIG d   1       4.989  -2.221  -1.610  0.00  0.00     0.062 H 
ATOM     24  C   LIG d   1       3.864   0.863  -2.382  0.00  0.00    -0.061 A 
ATOM     25  H   LIG d   1       4.322  -0.109  -0.535  0.00  0.00     0.062 H 
ATOM     26  C   LIG d   1       3.809   0.741  -3.758  0.00  0.00    -0.055 A 
ATOM     27  H   LIG d   1       3.575   1.791  -1.911  0.00  0.00     0.062 H 
ATOM     28  H   LIG d   1       3.478   1.573  -4.362  0.00  0.00     0.062 H 
ENDBRANCH  10  18
BRANCH   1  29
ATOM     29  O   LIG d   1       3.109   0.265 -10.712  0.00  0.00    -0.494 OA
BRANCH  29  30
ATOM     30  C   LIG d   1       3.105  -0.618 -11.835  0.00  0.00     0.079 C 
ATOM     31  H   LIG d   1       3.686  -0.178 -12.645  0.00  0.00     0.066 H 
ATOM     32  H   LIG d   1       3.548  -1.572 -11.548  0.00  0.00     0.066 H 
ATOM     33  H   LIG d   1       2.080  -0.779 -12.168  0.00  0.00     0.066 H 
ENDBRANCH  29  30
ENDBRANCH   1  29
TORSDOF 3
ENDMDL
MODEL 4
REMARK VINA RESULT:      -5.9      4.980      7.190
REMARK  3 active torsions:
REMARK  status: ('A' for Active; 'I' for Inactive)
REMARK    1  A    between atoms: C_1  and  O_2 
REMARK    2  A    between atoms: O_2  and  C_3 
REMARK    3  A    between atoms: C_12  and  C_15 
ROOT
ATOM      1  C   LIG d   1       5.556  -1.569  -3.305  0.00  0.00     0.134 A 
ATOM      2  C   LIG d   1       4.487  -1.335  -2.454  0.00  0.00    -0.019 A 
ATOM      3  C   LIG d   1       4.269  -0.069  -1.944  0.00  0.00    -0.055 A 
ATOM      4  C   LIG d   1       5.111   0.979  -2.270  0.00  0.00    -0.019 A 
ATOM      5  C   LIG d   1       6.189   0.773  -3.116  0.00  0.00     0.135 A 
ATOM      6  C   LIG d   1       6.411  -0.511  -3.643  0.00  0.00     0.101 A 
ATOM      7  C   LIG d   1       7.545  -0.723  -4.554  0.00  0.00     0.174 C 
ATOM      8  O   LIG d   1       7.660  -1.741  -5.204  0.00  0.00    -0.292 OA
ATOM      9  C   LIG d   1       8.565   0.398  -4.640  0.00  0.00     0.052 C 
ATOM     10  C   LIG d   1       7.788   1.722  -4.622  0.00  0.00     0.132 C 
ATOM     11  H   LIG d   1       7.125   1.767  -5.487  0.00  0.00     0.079 H 
ATOM     12  O   LIG d   1       7.014   1.800  -3.425  0.00  0.00    -0.483 OA
ATOM     13  H   LIG d   1       3.821  -2.144  -2.189  0.00  0.00     0.065 H 
ATOM     14  H   LIG d   1       3.431   0.105  -1.285  0.00  0.00     0.062 H 
ATOM     15  H   LIG d   1       4.927   1.963  -1.863  0.00  0.00     0.065 H 
ATOM     16  H   LIG d   1       9.091   0.306  -5.484  0.00  0.00     0.038 H 
ATOM     17  H   LIG d   1       9.239   0.352  -3.784  0.00  0.00     0.038 H 
ENDROOT
BRANCH  10  18
ATOM     18  C   LIG d   1       8.757   2.875  -4.672  0.00  0.00    -0.007 A 
ATOM     19  C   LIG d   1       9.234   3.427  -3.498  0.00  0.00    -0.055 A 
ATOM     20  C   LIG d   1      10.123   4.484  -3.543  0.00  0.00    -0.061 A 
ATOM     21  H   LIG d   1       8.912   3.032  -2.545  0.00  0.00     0.062 H 
ATOM     22  C   LIG d   1      10.535   4.990  -4.761  0.00  0.00    -0.062 A 
ATOM     23  H   LIG d   1      10.496   4.916  -2.626  0.00  0.00     0.062 H 
ATOM     24  C   LIG d   1      10.060   4.436  -5.935  0.00  0.00    -0.061 A 
ATOM     25  H   LIG d   1      11.228   5.817  -4.797  0.00  0.00     0.062 H 
ATOM     26  C   LIG d   1       9.167   3.382  -5.890  0.00  0.00    -0.055 A 
ATOM     27  H   LIG d   1      10.384   4.829  -6.888  0.00  0.00     0.062 H 
ATOM     28  H   LIG d   1       8.794   2.950  -6.808  0.00  0.00     0.062 H 
ENDBRANCH  10  18
BRANCH   1  29
ATOM     29  O   LIG d   1       5.774  -2.811  -3.805  0.00  0.00    -0.494 OA
BRANCH  29  30
ATOM     30  C   LIG d   1       4.734  -3.378  -4.605  0.00  0.00     0.079 C 
ATOM     31  H   LIG d   1       4.274  -4.207  -4.068  0.00  0.00     0.066 H 
ATOM     32  H   LIG d   1       3.981  -2.619  -4.815  0.00  0.00     0.066 H 
ATOM     33  H   LIG d   1       5.154  -3.742  -5.543  0.00  0.00     0.066 H 
ENDBRANCH  29  30
ENDBRANCH   1  29
TORSDOF 3
ENDMDL
MODEL 5
REMARK VINA RESULT:      -5.9      5.320      6.012
REMARK  3 active torsions:
REMARK  status: ('A' for Active; 'I' for Inactive)
REMARK    1  A    between atoms: C_1  and  O_2 
REMARK    2  A    between atoms: O_2  and  C_3 
REMARK    3  A    between atoms: C_12  and  C_15 
ROOT
ATOM      1  C   LIG d   1      10.283   2.989  -6.007  0.00  0.00     0.134 A 
ATOM      2  C   LIG d   1      10.913   4.013  -5.317  0.00  0.00    -0.019 A 
ATOM      3  C   LIG d   1      10.530   4.318  -4.024  0.00  0.00    -0.055 A 
ATOM      4  C   LIG d   1       9.516   3.613  -3.402  0.00  0.00    -0.019 A 
ATOM      5  C   LIG d   1       8.867   2.586  -4.069  0.00  0.00     0.135 A 
ATOM      6  C   LIG d   1       9.257   2.267  -5.382  0.00  0.00     0.101 A 
ATOM      7  C   LIG d   1       8.579   1.167  -6.080  0.00  0.00     0.174 C 
ATOM      8  O   LIG d   1       9.010   0.707  -7.117  0.00  0.00    -0.292 OA
ATOM      9  C   LIG d   1       7.310   0.634  -5.438  0.00  0.00     0.052 C 
ATOM     10  C   LIG d   1       7.551   0.593  -3.922  0.00  0.00     0.132 C 
ATOM     11  H   LIG d   1       8.380  -0.081  -3.704  0.00  0.00     0.079 H 
ATOM     12  O   LIG d   1       7.870   1.905  -3.458  0.00  0.00    -0.483 OA
ATOM     13  H   LIG d   1      11.706   4.574  -5.790  0.00  0.00     0.065 H 
ATOM     14  H   LIG d   1      11.030   5.115  -3.493  0.00  0.00     0.062 H 
ATOM     15  H   LIG d   1       9.228   3.864  -2.391  0.00  0.00     0.065 H 
ATOM     16  H   LIG d   1       7.116  -0.280  -5.792  0.00  0.00     0.038 H 
ATOM     17  H   LIG d   1       6.474   1.297  -5.663  0.00  0.00     0.038 H 
ENDROOT
BRANCH  10  18
ATOM     18  C   LIG d   1       6.308   0.102  -3.228  0.00  0.00    -0.007 A 
ATOM     19  C   LIG d   1       6.023  -1.250  -3.196  0.00  0.00    -0.055 A 
ATOM     20  C   LIG d   1       4.882  -1.702  -2.559  0.00  0.00    -0.061 A 
ATOM     21  H   LIG d   1       6.691  -1.955  -3.669  0.00  0.00     0.062 H 
ATOM     22  C   LIG d   1       4.026  -0.801  -1.954  0.00  0.00    -0.062 A 
ATOM     23  H   LIG d   1       4.660  -2.759  -2.534  0.00  0.00     0.062 H 
ATOM     24  C   LIG d   1       4.313   0.550  -1.983  0.00  0.00    -0.061 A 
ATOM     25  H   LIG d   1       3.134  -1.154  -1.457  0.00  0.00     0.062 H 
ATOM     26  C   LIG d   1       5.450   1.002  -2.624  0.00  0.00    -0.055 A 
ATOM     27  H   LIG d   1       3.646   1.254  -1.507  0.00  0.00     0.062 H 
ATOM     28  H   LIG d   1       5.673   2.059  -2.649  0.00  0.00     0.062 H 
ENDBRANCH  10  18
BRANCH   1  29
ATOM     29  O   LIG d   1      10.655   2.689  -7.276  0.00  0.00    -0.494 OA
BRANCH  29  30
ATOM     30  C   LIG d   1      10.571   3.739  -8.242  0.00  0.00     0.079 C 
ATOM     31  H   LIG d   1      11.107   4.614  -7.874  0.00  0.00     0.066 H 
ATOM     32  H   LIG d   1      11.018   3.407  -9.179  0.00  0.00     0.066 H 
ATOM     33  H   LIG d   1       9.526   3.997  -8.409  0.00  0.00     0.066 H 
ENDBRANCH  29  30
ENDBRANCH   1  29
TORSDOF 3
ENDMDL
MODEL 6
REMARK VINA RESULT:      -5.8      3.325      5.652
REMARK  3 active torsions:
REMARK  status: ('A' for Active; 'I' for Inactive)
REMARK    1  A    between atoms: C_1  and  O_2 
REMARK    2  A    between atoms: O_2  and  C_3 
REMARK    3  A    between atoms: C_12  and  C_15 
ROOT
ATOM      1  C   LIG d   1       3.713  -0.178  -5.097  0.00  0.00     0.134 A 
ATOM      2  C   LIG d   1       2.709  -0.098  -4.145  0.00  0.00    -0.019 A 
ATOM      3  C   LIG d   1       2.778  -0.863  -2.995  0.00  0.00    -0.055 A 
ATOM      4  C   LIG d   1       3.842  -1.718  -2.777  0.00  0.00    -0.019 A 
ATOM      5  C   LIG d   1       4.860  -1.820  -3.713  0.00  0.00     0.135 A 
ATOM      6  C   LIG d   1       4.798  -1.039  -4.881  0.00  0.00     0.101 A 
ATOM      7  C   LIG d   1       5.887  -1.137  -5.863  0.00  0.00     0.174 C 
ATOM      8  O   LIG d   1       5.999  -0.342  -6.772  0.00  0.00    -0.292 OA
ATOM      9  C   LIG d   1       6.864  -2.286  -5.682  0.00  0.00     0.052 C 
ATOM     10  C   LIG d   1       7.129  -2.423  -4.176  0.00  0.00     0.132 C 
ATOM     11  H   LIG d   1       7.576  -1.502  -3.800  0.00  0.00     0.079 H 
ATOM     12  O   LIG d   1       5.896  -2.664  -3.499  0.00  0.00    -0.483 OA
ATOM     13  H   LIG d   1       1.869   0.565  -4.301  0.00  0.00     0.065 H 
ATOM     14  H   LIG d   1       1.992  -0.790  -2.258  0.00  0.00     0.062 H 
ATOM     15  H   LIG d   1       3.882  -2.309  -1.874  0.00  0.00     0.065 H 
ATOM     16  H   LIG d   1       7.709  -2.084  -6.175  0.00  0.00     0.038 H 
ATOM     17  H   LIG d   1       6.428  -3.207  -6.068  0.00  0.00     0.038 H 
ENDROOT
BRANCH  10  18
ATOM     18  C   LIG d   1       8.070  -3.574  -3.934  0.00  0.00    -0.007 A 
ATOM     19  C   LIG d   1       8.046  -4.674  -4.771  0.00  0.00    -0.055 A 
ATOM     20  C   LIG d   1       8.910  -5.730  -4.549  0.00  0.00    -0.061 A 
ATOM     21  H   LIG d   1       7.352  -4.708  -5.598  0.00  0.00     0.062 H 
ATOM     22  C   LIG d   1       9.797  -5.687  -3.490  0.00  0.00    -0.062 A 
ATOM     23  H   LIG d   1       8.891  -6.590  -5.203  0.00  0.00     0.062 H 
ATOM     24  C   LIG d   1       9.824  -4.585  -2.656  0.00  0.00    -0.061 A 
ATOM     25  H   LIG d   1      10.471  -6.512  -3.317  0.00  0.00     0.062 H 
ATOM     26  C   LIG d   1       8.957  -3.531  -2.875  0.00  0.00    -0.055 A 
ATOM     27  H   LIG d   1      10.520  -4.549  -1.831  0.00  0.00     0.062 H 
ATOM     28  H   LIG d   1       8.975  -2.672  -2.221  0.00  0.00     0.062 H 
ENDBRANCH  10  18
BRANCH   1  29
ATOM     29  O   LIG d   1       3.647   0.569  -6.226  0.00  0.00    -0.494 OA
BRANCH  29  30
ATOM     30  C   LIG d   1       2.677   0.185  -7.202  0.00  0.00     0.079 C 
ATOM     31  H   LIG d   1       2.257   1.076  -7.668  0.00  0.00     0.066 H 
ATOM     32  H   LIG d   1       3.152  -0.433  -7.964  0.00  0.00     0.066 H 
ATOM     33  H   LIG d   1       1.880  -0.382  -6.720  0.00  0.00     0.066 H 
ENDBRANCH  29  30
ENDBRANCH   1  29
TORSDOF 3
ENDMDL
MODEL 7
REMARK VINA RESULT:      -5.8      4.585      6.274
REMARK  3 active torsions:
REMARK  status: ('A' for Active; 'I' for Inactive)
REMARK    1  A    between atoms: C_1  and  O_2 
REMARK    2  A    between atoms: O_2  and  C_3 
REMARK    3  A    between atoms: C_12  and  C_15 
ROOT
ATOM      1  C   LIG d   1       7.425  -5.389  -5.332  0.00  0.00     0.134 A 
ATOM      2  C   LIG d   1       6.613  -6.354  -5.908  0.00  0.00    -0.019 A 
ATOM      3  C   LIG d   1       5.251  -6.141  -6.016  0.00  0.00    -0.055 A 
ATOM      4  C   LIG d   1       4.678  -4.971  -5.552  0.00  0.00    -0.019 A 
ATOM      5  C   LIG d   1       5.467  -3.990  -4.970  0.00  0.00     0.135 A 
ATOM      6  C   LIG d   1       6.853  -4.198  -4.864  0.00  0.00     0.101 A 
ATOM      7  C   LIG d   1       7.688  -3.149  -4.262  0.00  0.00     0.174 C 
ATOM      8  O   LIG d   1       8.899  -3.175  -4.339  0.00  0.00    -0.292 OA
ATOM      9  C   LIG d   1       6.958  -2.031  -3.539  0.00  0.00     0.052 C 
ATOM     10  C   LIG d   1       5.716  -1.687  -4.374  0.00  0.00     0.132 C 
ATOM     11  H   LIG d   1       6.025  -1.340  -5.361  0.00  0.00     0.079 H 
ATOM     12  O   LIG d   1       4.901  -2.850  -4.511  0.00  0.00    -0.483 OA
ATOM     13  H   LIG d   1       7.045  -7.275  -6.273  0.00  0.00     0.065 H 
ATOM     14  H   LIG d   1       4.627  -6.897  -6.470  0.00  0.00     0.062 H 
ATOM     15  H   LIG d   1       3.613  -4.820  -5.644  0.00  0.00     0.065 H 
ATOM     16  H   LIG d   1       7.561  -1.239  -3.455  0.00  0.00     0.038 H 
ATOM     17  H   LIG d   1       6.656  -2.367  -2.547  0.00  0.00     0.038 H 
ENDROOT
BRANCH  10  18
ATOM     18  C   LIG d   1       4.932  -0.601  -3.683  0.00  0.00    -0.007 A 
ATOM     19  C   LIG d   1       5.322  -0.154  -2.435  0.00  0.00    -0.055 A 
ATOM     20  C   LIG d   1       4.604   0.843  -1.802  0.00  0.00    -0.061 A 
ATOM     21  H   LIG d   1       6.189  -0.583  -1.955  0.00  0.00     0.062 H 
ATOM     22  C   LIG d   1       3.494   1.392  -2.416  0.00  0.00    -0.062 A 
ATOM     23  H   LIG d   1       4.909   1.193  -0.827  0.00  0.00     0.062 H 
ATOM     24  C   LIG d   1       3.106   0.947  -3.666  0.00  0.00    -0.061 A 
ATOM     25  H   LIG d   1       2.932   2.169  -1.921  0.00  0.00     0.062 H 
ATOM     26  C   LIG d   1       3.821  -0.053  -4.297  0.00  0.00    -0.055 A 
ATOM     27  H   LIG d   1       2.240   1.378  -4.148  0.00  0.00     0.062 H 
ATOM     28  H   LIG d   1       3.516  -0.402  -5.273  0.00  0.00     0.062 H 
ENDBRANCH  10  18
BRANCH   1  29
ATOM     29  O   LIG d   1       8.761  -5.596  -5.223  0.00  0.00    -0.494 OA
BRANCH  29  30
ATOM     30  C   LIG d   1       9.184  -6.657  -4.364  0.00  0.00     0.079 C 
ATOM     31  H   LIG d   1       9.933  -7.261  -4.877  0.00  0.00     0.066 H 
ATOM     32  H   LIG d   1       9.617  -6.238  -3.455  0.00  0.00     0.066 H 
ATOM     33  H   LIG d   1       8.329  -7.280  -4.106  0.00  0.00     0.066 H 
ENDBRANCH  29  30
ENDBRANCH   1  29
TORSDOF 3
ENDMDL
MODEL 8
REMARK VINA RESULT:      -5.7     11.989     13.794
REMARK  3 active torsions:
REMARK  status: ('A' for Active; 'I' for Inactive)
REMARK    1  A    between atoms: C_1  and  O_2 
REMARK    2  A    between atoms: O_2  and  C_3 
REMARK    3  A    between atoms: C_12  and  C_15 
ROOT
ATOM      1  C   LIG d   1      11.740   9.070   2.007  0.00  0.00     0.134 A 
ATOM      2  C   LIG d   1      11.894  10.433   1.806  0.00  0.00    -0.019 A 
ATOM      3  C   LIG d   1      11.636  10.985   0.565  0.00  0.00    -0.055 A 
ATOM      4  C   LIG d   1      11.224  10.192  -0.491  0.00  0.00    -0.019 A 
ATOM      5  C   LIG d   1      11.063   8.826  -0.318  0.00  0.00     0.135 A 
ATOM      6  C   LIG d   1      11.318   8.261   0.944  0.00  0.00     0.101 A 
ATOM      7  C   LIG d   1      11.130   6.815   1.129  0.00  0.00     0.174 C 
ATOM      8  O   LIG d   1      11.123   6.308   2.231  0.00  0.00    -0.292 OA
ATOM      9  C   LIG d   1      10.946   5.987  -0.131  0.00  0.00     0.052 C 
ATOM     10  C   LIG d   1      10.050   6.797  -1.079  0.00  0.00     0.132 C 
ATOM     11  H   LIG d   1       9.080   6.964  -0.608  0.00  0.00     0.079 H 
ATOM     12  O   LIG d   1      10.667   8.053  -1.356  0.00  0.00    -0.483 OA
ATOM     13  H   LIG d   1      12.217  11.066   2.620  0.00  0.00     0.065 H 
ATOM     14  H   LIG d   1      11.756  12.049   0.418  0.00  0.00     0.062 H 
ATOM     15  H   LIG d   1      11.026  10.639  -1.454  0.00  0.00     0.065 H 
ATOM     16  H   LIG d   1      10.519   5.114   0.103  0.00  0.00     0.038 H 
ATOM     17  H   LIG d   1      11.913   5.806  -0.600  0.00  0.00     0.038 H 
ENDROOT
BRANCH  10  18
ATOM     18  C   LIG d   1       9.860   6.035  -2.364  0.00  0.00    -0.007 A 
ATOM     19  C   LIG d   1       9.428   6.694  -3.500  0.00  0.00    -0.055 A 
ATOM     20  C   LIG d   1       9.254   5.996  -4.680  0.00  0.00    -0.061 A 
ATOM     21  H   LIG d   1       9.226   7.754  -3.466  0.00  0.00     0.062 H 
ATOM     22  C   LIG d   1       9.511   4.638  -4.725  0.00  0.00    -0.062 A 
ATOM     23  H   LIG d   1       8.917   6.510  -5.568  0.00  0.00     0.062 H 
ATOM     24  C   LIG d   1       9.946   3.980  -3.590  0.00  0.00    -0.061 A 
ATOM     25  H   LIG d   1       9.374   4.092  -5.646  0.00  0.00     0.062 H 
ATOM     26  C   LIG d   1      10.116   4.677  -2.409  0.00  0.00    -0.055 A 
ATOM     27  H   LIG d   1      10.151   2.920  -3.625  0.00  0.00     0.062 H 
ATOM     28  H   LIG d   1      10.453   4.163  -1.521  0.00  0.00     0.062 H 
ENDBRANCH  10  18
BRANCH   1  29
ATOM     29  O   LIG d   1      11.995   8.525   3.223  0.00  0.00    -0.494 OA
BRANCH  29  30
ATOM     30  C   LIG d   1      12.410   9.417   4.259  0.00  0.00     0.079 C 
ATOM     31  H   LIG d   1      12.805   8.842   5.096  0.00  0.00     0.066 H 
ATOM     32  H   LIG d   1      13.186  10.081   3.877  0.00  0.00     0.066 H 
ATOM     33  H   LIG d   1      11.558  10.009   4.594  0.00  0.00     0.066 H 
ENDBRANCH  29  30
ENDBRANCH   1  29
TORSDOF 3
ENDMDL
MODEL 9
REMARK VINA RESULT:      -5.7      5.004      6.124
REMARK  3 active torsions:
REMARK  status: ('A' for Active; 'I' for Inactive)
REMARK    1  A    between atoms: C_1  and  O_2 
REMARK    2  A    between atoms: O_2  and  C_3 
REMARK    3  A    between atoms: C_12  and  C_15 
ROOT
ATOM      1  C   LIG d   1       6.874  -5.798  -5.880  0.00  0.00     0.134 A 
ATOM      2  C   LIG d   1       8.249  -5.969  -5.899  0.00  0.00    -0.019 A 
ATOM      3  C   LIG d   1       9.074  -5.026  -5.315  0.00  0.00    -0.055 A 
ATOM      4  C   LIG d   1       8.545  -3.901  -4.708  0.00  0.00    -0.019 A 
ATOM      5  C   LIG d   1       7.173  -3.704  -4.677  0.00  0.00     0.135 A 
ATOM      6  C   LIG d   1       6.329  -4.664  -5.264  0.00  0.00     0.101 A 
ATOM      7  C   LIG d   1       4.874  -4.460  -5.214  0.00  0.00     0.174 C 
ATOM      8  O   LIG d   1       4.096  -5.345  -5.504  0.00  0.00    -0.292 OA
ATOM      9  C   LIG d   1       4.395  -3.086  -4.780  0.00  0.00     0.052 C 
ATOM     10  C   LIG d   1       5.308  -2.628  -3.634  0.00  0.00     0.132 C 
ATOM     11  H   LIG d   1       5.220  -3.324  -2.799  0.00  0.00     0.079 H 
ATOM     12  O   LIG d   1       6.660  -2.599  -4.089  0.00  0.00    -0.483 OA
ATOM     13  H   LIG d   1       8.678  -6.842  -6.370  0.00  0.00     0.065 H 
ATOM     14  H   LIG d   1      10.144  -5.169  -5.331  0.00  0.00     0.062 H 
ATOM     15  H   LIG d   1       9.202  -3.174  -4.256  0.00  0.00     0.065 H 
ATOM     16  H   LIG d   1       3.445  -3.146  -4.477  0.00  0.00     0.038 H 
ATOM     17  H   LIG d   1       4.468  -2.388  -5.615  0.00  0.00     0.038 H 
ENDROOT
BRANCH  10  18
ATOM     18  C   LIG d   1       4.897  -1.250  -3.185  0.00  0.00    -0.007 A 
ATOM     19  C   LIG d   1       3.568  -0.975  -2.926  0.00  0.00    -0.055 A 
ATOM     20  C   LIG d   1       3.190   0.289  -2.514  0.00  0.00    -0.061 A 
ATOM     21  H   LIG d   1       2.823  -1.748  -3.047  0.00  0.00     0.062 H 
ATOM     22  C   LIG d   1       4.143   1.279  -2.359  0.00  0.00    -0.062 A 
ATOM     23  H   LIG d   1       2.151   0.504  -2.311  0.00  0.00     0.062 H 
ATOM     24  C   LIG d   1       5.473   1.003  -2.614  0.00  0.00    -0.061 A 
ATOM     25  H   LIG d   1       3.848   2.266  -2.038  0.00  0.00     0.062 H 
ATOM     26  C   LIG d   1       5.850  -0.260  -3.032  0.00  0.00    -0.055 A 
ATOM     27  H   LIG d   1       6.218   1.775  -2.490  0.00  0.00     0.062 H 
ATOM     28  H   LIG d   1       6.889  -0.475  -3.234  0.00  0.00     0.062 H 
ENDBRANCH  10  18
BRANCH   1  29
ATOM     29  O   LIG d   1       6.062  -6.721  -6.454  0.00  0.00    -0.494 OA
BRANCH  29  30
ATOM     30  C   LIG d   1       6.621  -7.512  -7.505  0.00  0.00     0.079 C 
ATOM     31  H   LIG d   1       7.618  -7.143  -7.746  0.00  0.00     0.066 H 
ATOM     32  H   LIG d   1       6.686  -8.551  -7.183  0.00  0.00     0.066 H 
ATOM     33  H   LIG d   1       5.986  -7.445  -8.388  0.00  0.00     0.066 H 
ENDBRANCH  29  30
ENDBRANCH   1  29
TORSDOF 3
ENDMDL
MODEL 10
REMARK VINA RESULT:      -5.4      5.202      6.030
REMARK  3 active torsions:
REMARK  status: ('A' for Active; 'I' for Inactive)
REMARK    1  A    between atoms: C_1  and  O_2 
REMARK    2  A    between atoms: O_2  and  C_3 
REMARK    3  A    between atoms: C_12  and  C_15 
ROOT
ATOM      1  C   LIG d   1      10.022   3.175  -6.642  0.00  0.00     0.134 A 
ATOM      2  C   LIG d   1       9.826   3.112  -8.013  0.00  0.00    -0.019 A 
ATOM      3  C   LIG d   1       8.751   2.412  -8.530  0.00  0.00    -0.055 A 
ATOM      4  C   LIG d   1       7.860   1.766  -7.694  0.00  0.00    -0.019 A 
ATOM      5  C   LIG d   1       8.033   1.810  -6.319  0.00  0.00     0.135 A 
ATOM      6  C   LIG d   1       9.120   2.526  -5.788  0.00  0.00     0.101 A 
ATOM      7  C   LIG d   1       9.291   2.585  -4.330  0.00  0.00     0.174 C 
ATOM      8  O   LIG d   1      10.070   3.356  -3.809  0.00  0.00    -0.292 OA
ATOM      9  C   LIG d   1       8.440   1.634  -3.507  0.00  0.00     0.052 C 
ATOM     10  C   LIG d   1       7.047   1.599  -4.149  0.00  0.00     0.132 C 
ATOM     11  H   LIG d   1       6.607   2.597  -4.120  0.00  0.00     0.079 H 
ATOM     12  O   LIG d   1       7.162   1.169  -5.506  0.00  0.00    -0.483 OA
ATOM     13  H   LIG d   1      10.515   3.611  -8.680  0.00  0.00     0.065 H 
ATOM     14  H   LIG d   1       8.605   2.372  -9.600  0.00  0.00     0.062 H 
ATOM     15  H   LIG d   1       7.025   1.223  -8.113  0.00  0.00     0.065 H 
ATOM     16  H   LIG d   1       8.390   1.963  -2.564  0.00  0.00     0.038 H 
ATOM     17  H   LIG d   1       8.881   0.637  -3.521  0.00  0.00     0.038 H 
ENDROOT
BRANCH  10  18
ATOM     18  C   LIG d   1       6.167   0.640  -3.390  0.00  0.00    -0.007 A 
ATOM     19  C   LIG d   1       5.218   1.123  -2.508  0.00  0.00    -0.055 A 
ATOM     20  C   LIG d   1       4.410   0.244  -1.812  0.00  0.00    -0.061 A 
ATOM     21  H   LIG d   1       5.109   2.188  -2.363  0.00  0.00     0.062 H 
ATOM     22  C   LIG d   1       4.551  -1.118  -1.997  0.00  0.00    -0.062 A 
ATOM     23  H   LIG d   1       3.669   0.622  -1.123  0.00  0.00     0.062 H 
ATOM     24  C   LIG d   1       5.496  -1.601  -2.882  0.00  0.00    -0.061 A 
ATOM     25  H   LIG d   1       3.920  -1.805  -1.452  0.00  0.00     0.062 H 
ATOM     26  C   LIG d   1       6.308  -0.723  -3.574  0.00  0.00    -0.055 A 
ATOM     27  H   LIG d   1       5.604  -2.666  -3.029  0.00  0.00     0.062 H 
ATOM     28  H   LIG d   1       7.049  -1.100  -4.263  0.00  0.00     0.062 H 
ENDBRANCH  10  18
BRANCH   1  29
ATOM     29  O   LIG d   1      11.076   3.858  -6.132  0.00  0.00    -0.494 OA
BRANCH  29  30
ATOM     30  C   LIG d   1      12.379   3.439  -6.542  0.00  0.00     0.079 C 
ATOM     31  H   LIG d   1      12.850   2.877  -5.735  0.00  0.00     0.066 H 
ATOM     32  H   LIG d   1      12.297   2.806  -7.425  0.00  0.00     0.066 H 
ATOM     33  H   LIG d   1      12.986   4.313  -6.777  0.00  0.00     0.066 H 
ENDBRANCH  29  30
ENDBRANCH   1  29
TORSDOF 3
ENDMDL
