MODEL 1
REMARK VINA RESULT:      -7.2      0.000      0.000
REMARK  8 active torsions:
REMARK  status: ('A' for Active; 'I' for Inactive)
REMARK    1  A    between atoms: C_1  and  N_2 
REMARK    2  A    between atoms: N_2  and  C_3 
REMARK    3  A    between atoms: N_2  and  C_4 
REMARK    4  A    between atoms: C_7  and  C_10 
REMARK    5  A    between atoms: N_14  and  C_15 
REMARK    6  A    between atoms: C_25  and  N_61 
REMARK    7  A    between atoms: C_27  and  C_28 
REMARK    8  A    between atoms: C_27  and  N_61 
ROOT
ATOM      1  C   LIG d   1       5.461  -0.786  -8.976  0.00  0.00     0.108 C 
ATOM      2  H   LIG d   1       5.670  -1.273  -9.929  0.00  0.00     0.060 H 
ATOM      3  C   LIG d   1       6.741  -0.688  -8.129  0.00  0.00     0.073 C 
ATOM      4  O   LIG d   1       6.424  -1.090  -6.797  0.00  0.00    -0.366 OA
ATOM      5  C   LIG d   1       5.045  -1.446  -6.681  0.00  0.00     0.131 C 
ATOM      6  H   LIG d   1       4.466  -0.707  -6.126  0.00  0.00     0.068 H 
ATOM      7  C   LIG d   1       4.513  -1.652  -8.124  0.00  0.00     0.115 C 
ATOM      8  H   LIG d   1       3.464  -1.375  -8.234  0.00  0.00     0.065 H 
ATOM      9  O   LIG d   1       4.753  -3.045  -8.405  0.00  0.00    -0.366 OA
ATOM     10  C   LIG d   1       4.399  -3.742  -7.191  0.00  0.00     0.093 C 
ATOM     11  C   LIG d   1       4.950  -2.856  -6.052  0.00  0.00     0.030 C 
ATOM     12  H   LIG d   1       5.936  -3.202  -5.741  0.00  0.00     0.090 H 
ATOM     13  H   LIG d   1       7.506  -1.348  -8.540  0.00  0.00     0.058 H 
ATOM     14  H   LIG d   1       7.104   0.339  -8.127  0.00  0.00     0.058 H 
ATOM     15  H   LIG d   1       4.866  -4.726  -7.167  0.00  0.00     0.062 H 
ATOM     16  H   LIG d   1       3.315  -3.835  -7.109  0.00  0.00     0.062 H 
ENDROOT
BRANCH   1  17
ATOM     17  N   LIG d   1       4.886   0.544  -9.194  0.00  0.00    -0.217 N 
ATOM     18  C   LIG d   1       3.892   0.881 -10.051  0.00  0.00     0.182 A 
ATOM     19  N   LIG d   1       3.693   2.177  -9.921  0.00  0.00    -0.108 NA
ATOM     20  N   LIG d   1       4.493   2.668  -9.045  0.00  0.00    -0.023 NA
ATOM     21  N   LIG d   1       5.245   1.743  -8.553  0.00  0.00    -0.043 NA
BRANCH  18  22
ATOM     22  C   LIG d   1       3.167  -0.033 -10.960  0.00  0.00     0.021 A 
ATOM     23  C   LIG d   1       1.900  -0.506 -10.611  0.00  0.00    -0.049 A 
ATOM     24  C   LIG d   1       1.228  -1.358 -11.460  0.00  0.00    -0.040 A 
ATOM     25  H   LIG d   1       1.450  -0.206  -9.678  0.00  0.00     0.062 H 
ATOM     26  C   LIG d   1       1.809  -1.746 -12.663  0.00  0.00     0.029 A 
ATOM     27  H   LIG d   1       0.249  -1.725 -11.191  0.00  0.00     0.064 H 
ATOM     28  C   LIG d   1       3.070  -1.276 -13.012  0.00  0.00    -0.040 A 
ATOM     29  C   LIG d   1       3.745  -0.419 -12.170  0.00  0.00    -0.049 A 
ATOM     30  H   LIG d   1       3.518  -1.577 -13.947  0.00  0.00     0.064 H 
ATOM     31  H   LIG d   1       4.722  -0.051 -12.445  0.00  0.00     0.062 H 
BRANCH  26  32
ATOM     32  N   LIG d   1       1.125  -2.607 -13.519  0.00  0.00    -0.336 N 
BRANCH  32  33
ATOM     33  C   LIG d   1       0.082  -3.491 -12.991  0.00  0.00     0.000 C 
ATOM     34  H   LIG d   1       0.352  -3.811 -11.985  0.00  0.00     0.043 H 
ATOM     35  H   LIG d   1      -0.866  -2.954 -12.960  0.00  0.00     0.043 H 
ATOM     36  H   LIG d   1      -0.015  -4.363 -13.638  0.00  0.00     0.043 H 
ENDBRANCH  32  33
BRANCH  32  37
ATOM     37  C   LIG d   1       1.449  -2.629 -14.949  0.00  0.00     0.000 C 
ATOM     38  H   LIG d   1       1.271  -1.643 -15.376  0.00  0.00     0.043 H 
ATOM     39  H   LIG d   1       2.497  -2.899 -15.080  0.00  0.00     0.043 H 
ATOM     40  H   LIG d   1       0.820  -3.363 -15.452  0.00  0.00     0.043 H 
ENDBRANCH  32  37
ENDBRANCH  26  32
ENDBRANCH  18  22
ENDBRANCH   1  17
BRANCH  11  41
ATOM     41  N   LIG d   1       4.016  -2.843  -4.911  0.00  0.00     0.233 N 
ATOM     42  H   LIG d   1       3.435  -3.689  -4.938  0.00  0.00     0.202 HD
ATOM     43  H   LIG d   1       3.415  -2.013  -4.974  0.00  0.00     0.202 HD
BRANCH  41  44
ATOM     44  C   LIG d   1       4.763  -2.806  -3.639  0.00  0.00    -0.030 C 
ATOM     45  H   LIG d   1       4.572  -3.719  -3.076  0.00  0.00     0.082 H 
ATOM     46  H   LIG d   1       5.830  -2.720  -3.843  0.00  0.00     0.082 H 
BRANCH  44  47
ATOM     47  C   LIG d   1       4.301  -1.598  -2.821  0.00  0.00    -0.001 C 
ATOM     48  C   LIG d   1       5.434  -0.573  -2.740  0.00  0.00    -0.045 C 
ATOM     49  C   LIG d   1       4.972   0.635  -1.922  0.00  0.00    -0.053 C 
ATOM     50  H   LIG d   1       6.301  -1.027  -2.260  0.00  0.00     0.027 H 
ATOM     51  H   LIG d   1       5.704  -0.249  -3.746  0.00  0.00     0.027 H 
ATOM     52  C   LIG d   1       3.755   1.272  -2.597  0.00  0.00    -0.053 C 
ATOM     53  H   LIG d   1       4.704   0.311  -0.917  0.00  0.00     0.026 H 
ATOM     54  H   LIG d   1       5.780   1.364  -1.865  0.00  0.00     0.026 H 
ATOM     55  C   LIG d   1       2.623   0.247  -2.677  0.00  0.00    -0.053 C 
ATOM     56  H   LIG d   1       3.427   2.133  -2.014  0.00  0.00     0.026 H 
ATOM     57  H   LIG d   1       4.026   1.595  -3.602  0.00  0.00     0.026 H 
ATOM     58  C   LIG d   1       3.084  -0.961  -3.496  0.00  0.00    -0.045 C 
ATOM     59  H   LIG d   1       2.353  -0.076  -1.672  0.00  0.00     0.026 H 
ATOM     60  H   LIG d   1       1.756   0.702  -3.158  0.00  0.00     0.026 H 
ATOM     61  H   LIG d   1       3.354  -0.637  -4.500  0.00  0.00     0.027 H 
ATOM     62  H   LIG d   1       2.277  -1.690  -3.552  0.00  0.00     0.027 H 
ATOM     63  H   LIG d   1       4.032  -1.921  -1.815  0.00  0.00     0.035 H 
ENDBRANCH  44  47
ENDBRANCH  41  44
ENDBRANCH  11  41
TORSDOF 8
ENDMDL
MODEL 2
REMARK VINA RESULT:      -7.0      7.546     10.183
REMARK  8 active torsions:
REMARK  status: ('A' for Active; 'I' for Inactive)
REMARK    1  A    between atoms: C_1  and  N_2 
REMARK    2  A    between atoms: N_2  and  C_3 
REMARK    3  A    between atoms: N_2  and  C_4 
REMARK    4  A    between atoms: C_7  and  C_10 
REMARK    5  A    between atoms: N_14  and  C_15 
REMARK    6  A    between atoms: C_25  and  N_61 
REMARK    7  A    between atoms: C_27  and  C_28 
REMARK    8  A    between atoms: C_27  and  N_61 
ROOT
ATOM      1  C   LIG d   1      10.806   4.809  -3.679  0.00  0.00     0.108 C 
ATOM      2  H   LIG d   1      11.583   5.165  -4.356  0.00  0.00     0.060 H 
ATOM      3  C   LIG d   1      11.331   3.647  -2.820  0.00  0.00     0.073 C 
ATOM      4  O   LIG d   1      10.343   2.617  -2.812  0.00  0.00    -0.366 OA
ATOM      5  C   LIG d   1       9.203   2.992  -3.591  0.00  0.00     0.131 C 
ATOM      6  H   LIG d   1       8.333   3.224  -2.977  0.00  0.00     0.068 H 
ATOM      7  C   LIG d   1       9.641   4.190  -4.475  0.00  0.00     0.115 C 
ATOM      8  H   LIG d   1       8.830   4.894  -4.668  0.00  0.00     0.065 H 
ATOM      9  O   LIG d   1      10.150   3.586  -5.681  0.00  0.00    -0.366 OA
ATOM     10  C   LIG d   1       9.233   2.512  -5.982  0.00  0.00     0.093 C 
ATOM     11  C   LIG d   1       8.915   1.869  -4.615  0.00  0.00     0.030 C 
ATOM     12  H   LIG d   1       9.564   1.012  -4.435  0.00  0.00     0.090 H 
ATOM     13  H   LIG d   1      12.258   3.263  -3.246  0.00  0.00     0.058 H 
ATOM     14  H   LIG d   1      11.509   3.993  -1.802  0.00  0.00     0.058 H 
ATOM     15  H   LIG d   1       9.703   1.785  -6.644  0.00  0.00     0.062 H 
ATOM     16  H   LIG d   1       8.323   2.907  -6.437  0.00  0.00     0.062 H 
ENDROOT
BRANCH   1  17
ATOM     17  N   LIG d   1      10.325   5.900  -2.828  0.00  0.00    -0.217 N 
ATOM     18  C   LIG d   1      10.106   7.189  -3.188  0.00  0.00     0.182 A 
ATOM     19  N   LIG d   1       9.678   7.821  -2.115  0.00  0.00    -0.108 NA
ATOM     20  N   LIG d   1       9.615   7.018  -1.115  0.00  0.00    -0.023 NA
ATOM     21  N   LIG d   1       9.985   5.833  -1.466  0.00  0.00    -0.043 NA
BRANCH  18  22
ATOM     22  C   LIG d   1      10.310   7.775  -4.530  0.00  0.00     0.021 A 
ATOM     23  C   LIG d   1       9.281   7.737  -5.473  0.00  0.00    -0.049 A 
ATOM     24  C   LIG d   1       9.475   8.282  -6.723  0.00  0.00    -0.040 A 
ATOM     25  H   LIG d   1       8.336   7.280  -5.223  0.00  0.00     0.062 H 
ATOM     26  C   LIG d   1      10.693   8.871  -7.047  0.00  0.00     0.029 A 
ATOM     27  H   LIG d   1       8.679   8.253  -7.453  0.00  0.00     0.064 H 
ATOM     28  C   LIG d   1      11.719   8.910  -6.109  0.00  0.00    -0.040 A 
ATOM     29  C   LIG d   1      11.530   8.371  -4.856  0.00  0.00    -0.049 A 
ATOM     30  H   LIG d   1      12.664   9.368  -6.362  0.00  0.00     0.064 H 
ATOM     31  H   LIG d   1      12.326   8.406  -4.127  0.00  0.00     0.062 H 
BRANCH  26  32
ATOM     32  N   LIG d   1      10.884   9.422  -8.312  0.00  0.00    -0.336 N 
BRANCH  32  33
ATOM     33  C   LIG d   1      10.531   8.654  -9.508  0.00  0.00     0.000 C 
ATOM     34  H   LIG d   1      11.381   8.630 -10.190  0.00  0.00     0.043 H 
ATOM     35  H   LIG d   1      10.267   7.636  -9.221  0.00  0.00     0.043 H 
ATOM     36  H   LIG d   1       9.681   9.124 -10.003  0.00  0.00     0.043 H 
ENDBRANCH  32  33
BRANCH  32  37
ATOM     37  C   LIG d   1      11.439  10.773  -8.447  0.00  0.00     0.000 C 
ATOM     38  H   LIG d   1      10.831  11.346  -9.147  0.00  0.00     0.043 H 
ATOM     39  H   LIG d   1      11.437  11.265  -7.475  0.00  0.00     0.043 H 
ATOM     40  H   LIG d   1      12.461  10.709  -8.819  0.00  0.00     0.043 H 
ENDBRANCH  32  37
ENDBRANCH  26  32
ENDBRANCH  18  22
ENDBRANCH   1  17
BRANCH  11  41
ATOM     41  N   LIG d   1       7.496   1.472  -4.548  0.00  0.00     0.233 N 
ATOM     42  H   LIG d   1       7.041   1.688  -5.444  0.00  0.00     0.202 HD
ATOM     43  H   LIG d   1       7.033   1.994  -3.796  0.00  0.00     0.202 HD
BRANCH  41  44
ATOM     44  C   LIG d   1       7.381   0.026  -4.280  0.00  0.00    -0.030 C 
ATOM     45  H   LIG d   1       7.025  -0.485  -5.174  0.00  0.00     0.082 H 
ATOM     46  H   LIG d   1       8.354  -0.373  -3.996  0.00  0.00     0.082 H 
BRANCH  44  47
ATOM     47  C   LIG d   1       6.387  -0.194  -3.138  0.00  0.00    -0.001 C 
ATOM     48  C   LIG d   1       5.557   1.075  -2.932  0.00  0.00    -0.045 C 
ATOM     49  C   LIG d   1       4.563   0.855  -1.789  0.00  0.00    -0.053 C 
ATOM     50  H   LIG d   1       6.218   1.906  -2.683  0.00  0.00     0.027 H 
ATOM     51  H   LIG d   1       5.012   1.306  -3.848  0.00  0.00     0.027 H 
ATOM     52  C   LIG d   1       3.635  -0.311  -2.138  0.00  0.00    -0.053 C 
ATOM     53  H   LIG d   1       5.108   0.625  -0.873  0.00  0.00     0.026 H 
ATOM     54  H   LIG d   1       3.973   1.759  -1.643  0.00  0.00     0.026 H 
ATOM     55  C   LIG d   1       4.465  -1.578  -2.344  0.00  0.00    -0.053 C 
ATOM     56  H   LIG d   1       2.927  -0.467  -1.325  0.00  0.00     0.026 H 
ATOM     57  H   LIG d   1       3.091  -0.079  -3.054  0.00  0.00     0.026 H 
ATOM     58  C   LIG d   1       5.459  -1.359  -3.487  0.00  0.00    -0.045 C 
ATOM     59  H   LIG d   1       5.009  -1.810  -1.428  0.00  0.00     0.026 H 
ATOM     60  H   LIG d   1       3.803  -2.409  -2.592  0.00  0.00     0.026 H 
ATOM     61  H   LIG d   1       4.914  -1.128  -4.402  0.00  0.00     0.027 H 
ATOM     62  H   LIG d   1       6.050  -2.263  -3.632  0.00  0.00     0.027 H 
ATOM     63  H   LIG d   1       6.931  -0.424  -2.221  0.00  0.00     0.035 H 
ENDBRANCH  44  47
ENDBRANCH  41  44
ENDBRANCH  11  41
TORSDOF 8
ENDMDL
MODEL 3
REMARK VINA RESULT:      -6.6      1.559      2.104
REMARK  8 active torsions:
REMARK  status: ('A' for Active; 'I' for Inactive)
REMARK    1  A    between atoms: C_1  and  N_2 
REMARK    2  A    between atoms: N_2  and  C_3 
REMARK    3  A    between atoms: N_2  and  C_4 
REMARK    4  A    between atoms: C_7  and  C_10 
REMARK    5  A    between atoms: N_14  and  C_15 
REMARK    6  A    between atoms: C_25  and  N_61 
REMARK    7  A    between atoms: C_27  and  C_28 
REMARK    8  A    between atoms: C_27  and  N_61 
ROOT
ATOM      1  C   LIG d   1       6.398  -0.743  -9.136  0.00  0.00     0.108 C 
ATOM      2  H   LIG d   1       5.947  -1.385  -9.893  0.00  0.00     0.060 H 
ATOM      3  C   LIG d   1       7.929  -0.732  -9.282  0.00  0.00     0.073 C 
ATOM      4  O   LIG d   1       8.501  -0.888  -7.984  0.00  0.00    -0.366 OA
ATOM      5  C   LIG d   1       7.485  -1.001  -6.984  0.00  0.00     0.131 C 
ATOM      6  H   LIG d   1       7.408  -0.110  -6.362  0.00  0.00     0.068 H 
ATOM      7  C   LIG d   1       6.160  -1.320  -7.728  0.00  0.00     0.115 C 
ATOM      8  H   LIG d   1       5.284  -0.899  -7.233  0.00  0.00     0.065 H 
ATOM      9  O   LIG d   1       6.119  -2.759  -7.799  0.00  0.00    -0.366 OA
ATOM     10  C   LIG d   1       6.578  -3.215  -6.507  0.00  0.00     0.093 C 
ATOM     11  C   LIG d   1       7.752  -2.277  -6.152  0.00  0.00     0.030 C 
ATOM     12  H   LIG d   1       8.703  -2.728  -6.438  0.00  0.00     0.090 H 
ATOM     13  H   LIG d   1       8.243  -1.555  -9.924  0.00  0.00     0.058 H 
ATOM     14  H   LIG d   1       8.251   0.215  -9.715  0.00  0.00     0.058 H 
ATOM     15  H   LIG d   1       6.921  -4.247  -6.568  0.00  0.00     0.062 H 
ATOM     16  H   LIG d   1       5.781  -3.122  -5.768  0.00  0.00     0.062 H 
ENDROOT
BRANCH   1  17
ATOM     17  N   LIG d   1       5.864   0.618  -9.231  0.00  0.00    -0.217 N 
ATOM     18  C   LIG d   1       4.658   0.997  -9.722  0.00  0.00     0.182 A 
ATOM     19  N   LIG d   1       4.593   2.308  -9.615  0.00  0.00    -0.108 NA
ATOM     20  N   LIG d   1       5.671   2.771  -9.093  0.00  0.00    -0.023 NA
ATOM     21  N   LIG d   1       6.489   1.810  -8.826  0.00  0.00    -0.043 NA
BRANCH  18  22
ATOM     22  C   LIG d   1       3.614   0.107 -10.274  0.00  0.00     0.021 A 
ATOM     23  C   LIG d   1       3.642  -0.252 -11.623  0.00  0.00    -0.049 A 
ATOM     24  C   LIG d   1       2.668  -1.081 -12.133  0.00  0.00    -0.040 A 
ATOM     25  H   LIG d   1       4.426   0.120 -12.264  0.00  0.00     0.062 H 
ATOM     26  C   LIG d   1       1.657  -1.561 -11.308  0.00  0.00     0.029 A 
ATOM     27  H   LIG d   1       2.689  -1.359 -13.177  0.00  0.00     0.064 H 
ATOM     28  C   LIG d   1       1.626  -1.205  -9.964  0.00  0.00    -0.040 A 
ATOM     29  C   LIG d   1       2.601  -0.381  -9.446  0.00  0.00    -0.049 A 
ATOM     30  H   LIG d   1       0.841  -1.579  -9.324  0.00  0.00     0.064 H 
ATOM     31  H   LIG d   1       2.579  -0.109  -8.401  0.00  0.00     0.062 H 
BRANCH  26  32
ATOM     32  N   LIG d   1       0.673  -2.400 -11.828  0.00  0.00    -0.336 N 
BRANCH  32  33
ATOM     33  C   LIG d   1       0.456  -3.726 -11.244  0.00  0.00     0.000 C 
ATOM     34  H   LIG d   1       0.510  -4.481 -12.028  0.00  0.00     0.043 H 
ATOM     35  H   LIG d   1       1.224  -3.923 -10.496  0.00  0.00     0.043 H 
ATOM     36  H   LIG d   1      -0.526  -3.758 -10.774  0.00  0.00     0.043 H 
ENDBRANCH  32  33
BRANCH  32  37
ATOM     37  C   LIG d   1      -0.146  -1.955 -12.960  0.00  0.00     0.000 C 
ATOM     38  H   LIG d   1      -1.136  -2.405 -12.890  0.00  0.00     0.043 H 
ATOM     39  H   LIG d   1      -0.237  -0.869 -12.938  0.00  0.00     0.043 H 
ATOM     40  H   LIG d   1       0.328  -2.261 -13.892  0.00  0.00     0.043 H 
ENDBRANCH  32  37
ENDBRANCH  26  32
ENDBRANCH  18  22
ENDBRANCH   1  17
BRANCH  11  41
ATOM     41  N   LIG d   1       7.740  -1.957  -4.712  0.00  0.00     0.233 N 
ATOM     42  H   LIG d   1       8.682  -2.093  -4.326  0.00  0.00     0.202 HD
ATOM     43  H   LIG d   1       7.081  -2.580  -4.232  0.00  0.00     0.202 HD
BRANCH  41  44
ATOM     44  C   LIG d   1       7.326  -0.557  -4.503  0.00  0.00    -0.030 C 
ATOM     45  H   LIG d   1       8.207   0.066  -4.349  0.00  0.00     0.082 H 
ATOM     46  H   LIG d   1       6.777  -0.202  -5.375  0.00  0.00     0.082 H 
BRANCH  44  47
ATOM     47  C   LIG d   1       6.426  -0.479  -3.268  0.00  0.00    -0.001 C 
ATOM     48  C   LIG d   1       5.780   0.905  -3.193  0.00  0.00    -0.045 C 
ATOM     49  C   LIG d   1       4.880   0.983  -1.958  0.00  0.00    -0.053 C 
ATOM     50  H   LIG d   1       6.558   1.666  -3.124  0.00  0.00     0.027 H 
ATOM     51  H   LIG d   1       5.183   1.077  -4.089  0.00  0.00     0.027 H 
ATOM     52  C   LIG d   1       3.788  -0.085  -2.055  0.00  0.00    -0.053 C 
ATOM     53  H   LIG d   1       5.478   0.812  -1.062  0.00  0.00     0.026 H 
ATOM     54  H   LIG d   1       4.421   1.970  -1.905  0.00  0.00     0.026 H 
ATOM     55  C   LIG d   1       4.435  -1.469  -2.129  0.00  0.00    -0.053 C 
ATOM     56  H   LIG d   1       3.147  -0.029  -1.175  0.00  0.00     0.026 H 
ATOM     57  H   LIG d   1       3.192   0.087  -2.951  0.00  0.00     0.026 H 
ATOM     58  C   LIG d   1       5.334  -1.547  -3.365  0.00  0.00    -0.045 C 
ATOM     59  H   LIG d   1       5.031  -1.640  -1.233  0.00  0.00     0.026 H 
ATOM     60  H   LIG d   1       3.656  -2.229  -2.198  0.00  0.00     0.026 H 
ATOM     61  H   LIG d   1       4.737  -1.375  -4.260  0.00  0.00     0.027 H 
ATOM     62  H   LIG d   1       5.794  -2.533  -3.417  0.00  0.00     0.027 H 
ATOM     63  H   LIG d   1       7.023  -0.650  -2.371  0.00  0.00     0.035 H 
ENDBRANCH  44  47
ENDBRANCH  41  44
ENDBRANCH  11  41
TORSDOF 8
ENDMDL
MODEL 4
REMARK VINA RESULT:      -6.5      1.596      2.004
REMARK  8 active torsions:
REMARK  status: ('A' for Active; 'I' for Inactive)
REMARK    1  A    between atoms: C_1  and  N_2 
REMARK    2  A    between atoms: N_2  and  C_3 
REMARK    3  A    between atoms: N_2  and  C_4 
REMARK    4  A    between atoms: C_7  and  C_10 
REMARK    5  A    between atoms: N_14  and  C_15 
REMARK    6  A    between atoms: C_25  and  N_61 
REMARK    7  A    between atoms: C_27  and  C_28 
REMARK    8  A    between atoms: C_27  and  N_61 
ROOT
ATOM      1  C   LIG d   1       5.456  -0.914  -8.690  0.00  0.00     0.108 C 
ATOM      2  H   LIG d   1       5.212  -1.640  -9.466  0.00  0.00     0.060 H 
ATOM      3  C   LIG d   1       6.811  -0.248  -8.982  0.00  0.00     0.073 C 
ATOM      4  O   LIG d   1       7.567  -0.227  -7.772  0.00  0.00    -0.366 OA
ATOM      5  C   LIG d   1       6.835  -0.820  -6.697  0.00  0.00     0.131 C 
ATOM      6  H   LIG d   1       6.482  -0.085  -5.973  0.00  0.00     0.068 H 
ATOM      7  C   LIG d   1       5.671  -1.623  -7.338  0.00  0.00     0.115 C 
ATOM      8  H   LIG d   1       4.776  -1.644  -6.716  0.00  0.00     0.065 H 
ATOM      9  O   LIG d   1       6.219  -2.937  -7.567  0.00  0.00    -0.366 OA
ATOM     10  C   LIG d   1       6.995  -3.234  -6.386  0.00  0.00     0.093 C 
ATOM     11  C   LIG d   1       7.714  -1.911  -6.043  0.00  0.00     0.030 C 
ATOM     12  H   LIG d   1       8.717  -1.899  -6.470  0.00  0.00     0.090 H 
ATOM     13  H   LIG d   1       7.347  -0.820  -9.740  0.00  0.00     0.058 H 
ATOM     14  H   LIG d   1       6.651   0.771  -9.334  0.00  0.00     0.058 H 
ATOM     15  H   LIG d   1       7.721  -4.018  -6.596  0.00  0.00     0.062 H 
ATOM     16  H   LIG d   1       6.340  -3.533  -5.567  0.00  0.00     0.062 H 
ENDROOT
BRANCH   1  17
ATOM     17  N   LIG d   1       4.400   0.095  -8.578  0.00  0.00    -0.217 N 
ATOM     18  C   LIG d   1       3.476   0.428  -9.513  0.00  0.00     0.182 A 
ATOM     19  N   LIG d   1       2.727   1.378  -8.993  0.00  0.00    -0.108 NA
ATOM     20  N   LIG d   1       3.120   1.660  -7.804  0.00  0.00    -0.023 NA
ATOM     21  N   LIG d   1       4.126   0.923  -7.475  0.00  0.00    -0.043 NA
BRANCH  18  22
ATOM     22  C   LIG d   1       3.336  -0.165 -10.860  0.00  0.00     0.021 A 
ATOM     23  C   LIG d   1       2.247  -0.989 -11.152  0.00  0.00    -0.049 A 
ATOM     24  C   LIG d   1       2.119  -1.540 -12.407  0.00  0.00    -0.040 A 
ATOM     25  H   LIG d   1       1.506  -1.193 -10.393  0.00  0.00     0.062 H 
ATOM     26  C   LIG d   1       3.073  -1.277 -13.385  0.00  0.00     0.029 A 
ATOM     27  H   LIG d   1       1.277  -2.177 -12.633  0.00  0.00     0.064 H 
ATOM     28  C   LIG d   1       4.159  -0.458 -13.097  0.00  0.00    -0.040 A 
ATOM     29  C   LIG d   1       4.289   0.101 -11.844  0.00  0.00    -0.049 A 
ATOM     30  H   LIG d   1       4.898  -0.254 -13.857  0.00  0.00     0.064 H 
ATOM     31  H   LIG d   1       5.130   0.741 -11.623  0.00  0.00     0.062 H 
BRANCH  26  32
ATOM     32  N   LIG d   1       2.940  -1.836 -14.655  0.00  0.00    -0.336 N 
BRANCH  32  33
ATOM     33  C   LIG d   1       1.698  -2.516 -15.030  0.00  0.00     0.000 C 
ATOM     34  H   LIG d   1       1.813  -3.590 -14.885  0.00  0.00     0.043 H 
ATOM     35  H   LIG d   1       0.881  -2.150 -14.408  0.00  0.00     0.043 H 
ATOM     36  H   LIG d   1       1.476  -2.312 -16.078  0.00  0.00     0.043 H 
ENDBRANCH  32  33
BRANCH  32  37
ATOM     37  C   LIG d   1       4.044  -1.744 -15.615  0.00  0.00     0.000 C 
ATOM     38  H   LIG d   1       4.862  -2.386 -15.290  0.00  0.00     0.043 H 
ATOM     39  H   LIG d   1       3.698  -2.065 -16.598  0.00  0.00     0.043 H 
ATOM     40  H   LIG d   1       4.390  -0.712 -15.671  0.00  0.00     0.043 H 
ENDBRANCH  32  37
ENDBRANCH  26  32
ENDBRANCH  18  22
ENDBRANCH   1  17
BRANCH  11  41
ATOM     41  N   LIG d   1       7.766  -1.715  -4.582  0.00  0.00     0.233 N 
ATOM     42  H   LIG d   1       8.720  -1.903  -4.248  0.00  0.00     0.202 HD
ATOM     43  H   LIG d   1       7.112  -2.363  -4.130  0.00  0.00     0.202 HD
BRANCH  41  44
ATOM     44  C   LIG d   1       7.395  -0.330  -4.238  0.00  0.00    -0.030 C 
ATOM     45  H   LIG d   1       8.286   0.225  -3.941  0.00  0.00     0.082 H 
ATOM     46  H   LIG d   1       6.937   0.152  -5.102  0.00  0.00     0.082 H 
BRANCH  44  47
ATOM     47  C   LIG d   1       6.398  -0.351  -3.078  0.00  0.00    -0.001 C 
ATOM     48  C   LIG d   1       5.650   0.982  -3.023  0.00  0.00    -0.045 C 
ATOM     49  C   LIG d   1       4.653   0.960  -1.863  0.00  0.00    -0.053 C 
ATOM     50  H   LIG d   1       6.363   1.793  -2.875  0.00  0.00     0.027 H 
ATOM     51  H   LIG d   1       5.114   1.136  -3.960  0.00  0.00     0.027 H 
ATOM     52  C   LIG d   1       3.652  -0.179  -2.071  0.00  0.00    -0.053 C 
ATOM     53  H   LIG d   1       5.189   0.807  -0.926  0.00  0.00     0.026 H 
ATOM     54  H   LIG d   1       4.120   1.910  -1.824  0.00  0.00     0.026 H 
ATOM     55  C   LIG d   1       4.401  -1.511  -2.125  0.00  0.00    -0.053 C 
ATOM     56  H   LIG d   1       2.942  -0.193  -1.245  0.00  0.00     0.026 H 
ATOM     57  H   LIG d   1       3.117  -0.024  -3.008  0.00  0.00     0.026 H 
ATOM     58  C   LIG d   1       5.398  -1.490  -3.286  0.00  0.00    -0.045 C 
ATOM     59  H   LIG d   1       4.937  -1.666  -1.189  0.00  0.00     0.026 H 
ATOM     60  H   LIG d   1       3.688  -2.322  -2.274  0.00  0.00     0.026 H 
ATOM     61  H   LIG d   1       4.862  -1.336  -4.222  0.00  0.00     0.027 H 
ATOM     62  H   LIG d   1       5.931  -2.439  -3.324  0.00  0.00     0.027 H 
ATOM     63  H   LIG d   1       6.934  -0.505  -2.140  0.00  0.00     0.035 H 
ENDBRANCH  44  47
ENDBRANCH  41  44
ENDBRANCH  11  41
TORSDOF 8
ENDMDL
MODEL 5
REMARK VINA RESULT:      -6.5      8.067     11.178
REMARK  8 active torsions:
REMARK  status: ('A' for Active; 'I' for Inactive)
REMARK    1  A    between atoms: C_1  and  N_2 
REMARK    2  A    between atoms: N_2  and  C_3 
REMARK    3  A    between atoms: N_2  and  C_4 
REMARK    4  A    between atoms: C_7  and  C_10 
REMARK    5  A    between atoms: N_14  and  C_15 
REMARK    6  A    between atoms: C_25  and  N_61 
REMARK    7  A    between atoms: C_27  and  C_28 
REMARK    8  A    between atoms: C_27  and  N_61 
ROOT
ATOM      1  C   LIG d   1      10.782   5.223  -3.303  0.00  0.00     0.108 C 
ATOM      2  H   LIG d   1      10.893   5.973  -4.087  0.00  0.00     0.060 H 
ATOM      3  C   LIG d   1      12.013   4.303  -3.260  0.00  0.00     0.073 C 
ATOM      4  O   LIG d   1      11.557   2.954  -3.160  0.00  0.00    -0.366 OA
ATOM      5  C   LIG d   1      10.129   2.894  -3.132  0.00  0.00     0.131 C 
ATOM      6  H   LIG d   1       9.739   2.636  -2.148  0.00  0.00     0.068 H 
ATOM      7  C   LIG d   1       9.615   4.272  -3.629  0.00  0.00     0.115 C 
ATOM      8  H   LIG d   1       8.675   4.569  -3.160  0.00  0.00     0.065 H 
ATOM      9  O   LIG d   1       9.499   4.125  -5.058  0.00  0.00    -0.366 OA
ATOM     10  C   LIG d   1       8.936   2.810  -5.258  0.00  0.00     0.093 C 
ATOM     11  C   LIG d   1       9.654   1.912  -4.228  0.00  0.00     0.030 C 
ATOM     12  H   LIG d   1      10.507   1.410  -4.686  0.00  0.00     0.090 H 
ATOM     13  H   LIG d   1      12.598   4.426  -4.172  0.00  0.00     0.058 H 
ATOM     14  H   LIG d   1      12.627   4.548  -2.393  0.00  0.00     0.058 H 
ATOM     15  H   LIG d   1       9.135   2.461  -6.271  0.00  0.00     0.062 H 
ATOM     16  H   LIG d   1       7.862   2.825  -5.066  0.00  0.00     0.062 H 
ENDROOT
BRANCH   1  17
ATOM     17  N   LIG d   1      10.575   5.865  -2.002  0.00  0.00    -0.217 N 
ATOM     18  C   LIG d   1      10.308   7.172  -1.762  0.00  0.00     0.182 A 
ATOM     19  N   LIG d   1      10.197   7.310  -0.457  0.00  0.00    -0.108 NA
ATOM     20  N   LIG d   1      10.376   6.182   0.130  0.00  0.00    -0.023 NA
ATOM     21  N   LIG d   1      10.605   5.255  -0.736  0.00  0.00    -0.043 NA
BRANCH  18  22
ATOM     22  C   LIG d   1      10.168   8.242  -2.774  0.00  0.00     0.021 A 
ATOM     23  C   LIG d   1      10.033   9.572  -2.372  0.00  0.00    -0.049 A 
ATOM     24  C   LIG d   1       9.902  10.565  -3.317  0.00  0.00    -0.040 A 
ATOM     25  H   LIG d   1      10.030   9.821  -1.322  0.00  0.00     0.062 H 
ATOM     26  C   LIG d   1       9.905  10.246  -4.671  0.00  0.00     0.029 A 
ATOM     27  H   LIG d   1       9.797  11.594  -3.006  0.00  0.00     0.064 H 
ATOM     28  C   LIG d   1      10.039   8.921  -5.074  0.00  0.00    -0.040 A 
ATOM     29  C   LIG d   1      10.176   7.924  -4.133  0.00  0.00    -0.049 A 
ATOM     30  H   LIG d   1      10.042   8.675  -6.125  0.00  0.00     0.064 H 
ATOM     31  H   LIG d   1      10.285   6.896  -4.448  0.00  0.00     0.062 H 
BRANCH  26  32
ATOM     32  N   LIG d   1       9.773  11.253  -5.624  0.00  0.00    -0.336 N 
BRANCH  32  33
ATOM     33  C   LIG d   1       9.929  10.942  -7.047  0.00  0.00     0.000 C 
ATOM     34  H   LIG d   1      10.313   9.928  -7.157  0.00  0.00     0.043 H 
ATOM     35  H   LIG d   1       8.962  11.020  -7.544  0.00  0.00     0.043 H 
ATOM     36  H   LIG d   1      10.627  11.647  -7.498  0.00  0.00     0.043 H 
ENDBRANCH  32  33
BRANCH  32  37
ATOM     37  C   LIG d   1       9.477  12.626  -5.203  0.00  0.00     0.000 C 
ATOM     38  H   LIG d   1       9.040  13.175  -6.037  0.00  0.00     0.043 H 
ATOM     39  H   LIG d   1       8.773  12.608  -4.371  0.00  0.00     0.043 H 
ATOM     40  H   LIG d   1      10.398  13.115  -4.888  0.00  0.00     0.043 H 
ENDBRANCH  32  37
ENDBRANCH  26  32
ENDBRANCH  18  22
ENDBRANCH   1  17
BRANCH  11  41
ATOM     41  N   LIG d   1       8.715   0.928  -3.657  0.00  0.00     0.233 N 
ATOM     42  H   LIG d   1       8.846   0.885  -2.639  0.00  0.00     0.202 HD
ATOM     43  H   LIG d   1       8.901   0.005  -4.064  0.00  0.00     0.202 HD
BRANCH  41  44
ATOM     44  C   LIG d   1       7.323   1.318  -3.952  0.00  0.00    -0.030 C 
ATOM     45  H   LIG d   1       7.207   2.393  -3.815  0.00  0.00     0.082 H 
ATOM     46  H   LIG d   1       7.079   1.054  -4.981  0.00  0.00     0.082 H 
BRANCH  44  47
ATOM     47  C   LIG d   1       6.382   0.577  -3.000  0.00  0.00    -0.001 C 
ATOM     48  C   LIG d   1       5.111   1.403  -2.793  0.00  0.00    -0.045 C 
ATOM     49  C   LIG d   1       4.170   0.662  -1.841  0.00  0.00    -0.053 C 
ATOM     50  H   LIG d   1       5.372   2.372  -2.367  0.00  0.00     0.027 H 
ATOM     51  H   LIG d   1       4.614   1.551  -3.753  0.00  0.00     0.027 H 
ATOM     52  C   LIG d   1       3.804  -0.697  -2.441  0.00  0.00    -0.053 C 
ATOM     53  H   LIG d   1       4.667   0.515  -0.882  0.00  0.00     0.026 H 
ATOM     54  H   LIG d   1       3.265   1.252  -1.694  0.00  0.00     0.026 H 
ATOM     55  C   LIG d   1       5.075  -1.522  -2.646  0.00  0.00    -0.053 C 
ATOM     56  H   LIG d   1       3.133  -1.224  -1.762  0.00  0.00     0.026 H 
ATOM     57  H   LIG d   1       3.307  -0.548  -3.399  0.00  0.00     0.026 H 
ATOM     58  C   LIG d   1       6.016  -0.782  -3.600  0.00  0.00    -0.045 C 
ATOM     59  H   LIG d   1       5.571  -1.671  -1.687  0.00  0.00     0.026 H 
ATOM     60  H   LIG d   1       4.813  -2.491  -3.074  0.00  0.00     0.026 H 
ATOM     61  H   LIG d   1       5.519  -0.634  -4.558  0.00  0.00     0.027 H 
ATOM     62  H   LIG d   1       6.921  -1.370  -3.745  0.00  0.00     0.027 H 
ATOM     63  H   LIG d   1       6.879   0.429  -2.040  0.00  0.00     0.035 H 
ENDBRANCH  44  47
ENDBRANCH  41  44
ENDBRANCH  11  41
TORSDOF 8
ENDMDL
MODEL 6
REMARK VINA RESULT:      -6.0      1.777      2.620
REMARK  8 active torsions:
REMARK  status: ('A' for Active; 'I' for Inactive)
REMARK    1  A    between atoms: C_1  and  N_2 
REMARK    2  A    between atoms: N_2  and  C_3 
REMARK    3  A    between atoms: N_2  and  C_4 
REMARK    4  A    between atoms: C_7  and  C_10 
REMARK    5  A    between atoms: N_14  and  C_15 
REMARK    6  A    between atoms: C_25  and  N_61 
REMARK    7  A    between atoms: C_27  and  C_28 
REMARK    8  A    between atoms: C_27  and  N_61 
ROOT
ATOM      1  C   LIG d   1       4.836  -2.528  -9.483  0.00  0.00     0.108 C 
ATOM      2  H   LIG d   1       4.983  -3.329 -10.207  0.00  0.00     0.060 H 
ATOM      3  C   LIG d   1       6.179  -2.109  -8.863  0.00  0.00     0.073 C 
ATOM      4  O   LIG d   1       6.002  -1.995  -7.451  0.00  0.00    -0.366 OA
ATOM      5  C   LIG d   1       4.657  -2.301  -7.075  0.00  0.00     0.131 C 
ATOM      6  H   LIG d   1       4.094  -1.418  -6.774  0.00  0.00     0.068 H 
ATOM      7  C   LIG d   1       4.011  -3.031  -8.283  0.00  0.00     0.115 C 
ATOM      8  H   LIG d   1       2.943  -2.829  -8.380  0.00  0.00     0.065 H 
ATOM      9  O   LIG d   1       4.292  -4.427  -8.058  0.00  0.00    -0.366 OA
ATOM     10  C   LIG d   1       4.082  -4.632  -6.643  0.00  0.00     0.093 C 
ATOM     11  C   LIG d   1       4.687  -3.382  -5.969  0.00  0.00     0.030 C 
ATOM     12  H   LIG d   1       5.712  -3.576  -5.653  0.00  0.00     0.090 H 
ATOM     13  H   LIG d   1       6.936  -2.864  -9.078  0.00  0.00     0.058 H 
ATOM     14  H   LIG d   1       6.490  -1.148  -9.273  0.00  0.00     0.058 H 
ATOM     15  H   LIG d   1       4.597  -5.532  -6.309  0.00  0.00     0.062 H 
ATOM     16  H   LIG d   1       3.015  -4.702  -6.425  0.00  0.00     0.062 H 
ENDROOT
BRANCH   1  17
ATOM     17  N   LIG d   1       4.180  -1.379 -10.112  0.00  0.00    -0.217 N 
ATOM     18  C   LIG d   1       3.057  -1.387 -10.871  0.00  0.00     0.182 A 
ATOM     19  N   LIG d   1       2.825  -0.141 -11.229  0.00  0.00    -0.108 NA
ATOM     20  N   LIG d   1       3.723   0.640 -10.746  0.00  0.00    -0.023 NA
ATOM     21  N   LIG d   1       4.578  -0.032 -10.053  0.00  0.00    -0.043 NA
BRANCH  18  22
ATOM     22  C   LIG d   1       2.246  -2.570 -11.231  0.00  0.00     0.021 A 
ATOM     23  C   LIG d   1       2.564  -3.318 -12.366  0.00  0.00    -0.049 A 
ATOM     24  C   LIG d   1       1.807  -4.419 -12.698  0.00  0.00    -0.040 A 
ATOM     25  H   LIG d   1       3.403  -3.032 -12.983  0.00  0.00     0.062 H 
ATOM     26  C   LIG d   1       0.725  -4.787 -11.905  0.00  0.00     0.029 A 
ATOM     27  H   LIG d   1       2.053  -4.997 -13.576  0.00  0.00     0.064 H 
ATOM     28  C   LIG d   1       0.406  -4.044 -10.773  0.00  0.00    -0.040 A 
ATOM     29  C   LIG d   1       1.164  -2.945 -10.433  0.00  0.00    -0.049 A 
ATOM     30  H   LIG d   1      -0.433  -4.332 -10.158  0.00  0.00     0.064 H 
ATOM     31  H   LIG d   1       0.918  -2.372  -9.551  0.00  0.00     0.062 H 
BRANCH  26  32
ATOM     32  N   LIG d   1      -0.038  -5.902 -12.243  0.00  0.00    -0.336 N 
BRANCH  32  33
ATOM     33  C   LIG d   1       0.177  -6.576 -13.527  0.00  0.00     0.000 C 
ATOM     34  H   LIG d   1      -0.590  -6.263 -14.235  0.00  0.00     0.043 H 
ATOM     35  H   LIG d   1       1.160  -6.311 -13.916  0.00  0.00     0.043 H 
ATOM     36  H   LIG d   1       0.122  -7.655 -13.383  0.00  0.00     0.043 H 
ENDBRANCH  32  33
BRANCH  32  37
ATOM     37  C   LIG d   1      -1.057  -6.402 -11.316  0.00  0.00     0.000 C 
ATOM     38  H   LIG d   1      -2.048  -6.163 -11.702  0.00  0.00     0.043 H 
ATOM     39  H   LIG d   1      -0.958  -7.483 -11.214  0.00  0.00     0.043 H 
ATOM     40  H   LIG d   1      -0.923  -5.932 -10.342  0.00  0.00     0.043 H 
ENDBRANCH  32  37
ENDBRANCH  26  32
ENDBRANCH  18  22
ENDBRANCH   1  17
BRANCH  11  41
ATOM     41  N   LIG d   1       3.859  -2.961  -4.824  0.00  0.00     0.233 N 
ATOM     42  H   LIG d   1       3.229  -3.729  -4.560  0.00  0.00     0.202 HD
ATOM     43  H   LIG d   1       3.303  -2.140  -5.091  0.00  0.00     0.202 HD
BRANCH  41  44
ATOM     44  C   LIG d   1       4.714  -2.616  -3.673  0.00  0.00    -0.030 C 
ATOM     45  H   LIG d   1       4.352  -3.128  -2.781  0.00  0.00     0.082 H 
ATOM     46  H   LIG d   1       5.741  -2.919  -3.875  0.00  0.00     0.082 H 
BRANCH  44  47
ATOM     47  C   LIG d   1       4.665  -1.103  -3.447  0.00  0.00    -0.001 C 
ATOM     48  C   LIG d   1       3.362  -0.544  -4.021  0.00  0.00    -0.045 C 
ATOM     49  C   LIG d   1       3.312   0.969  -3.795  0.00  0.00    -0.053 C 
ATOM     50  H   LIG d   1       3.315  -0.754  -5.090  0.00  0.00     0.027 H 
ATOM     51  H   LIG d   1       2.513  -1.013  -3.521  0.00  0.00     0.027 H 
ATOM     52  C   LIG d   1       3.377   1.263  -2.295  0.00  0.00    -0.053 C 
ATOM     53  H   LIG d   1       4.160   1.438  -4.296  0.00  0.00     0.026 H 
ATOM     54  H   LIG d   1       2.384   1.366  -4.205  0.00  0.00     0.026 H 
ATOM     55  C   LIG d   1       4.681   0.704  -1.723  0.00  0.00    -0.053 C 
ATOM     56  H   LIG d   1       3.342   2.340  -2.135  0.00  0.00     0.026 H 
ATOM     57  H   LIG d   1       2.530   0.793  -1.796  0.00  0.00     0.026 H 
ATOM     58  C   LIG d   1       4.730  -0.809  -1.947  0.00  0.00    -0.045 C 
ATOM     59  H   LIG d   1       5.528   1.174  -2.221  0.00  0.00     0.026 H 
ATOM     60  H   LIG d   1       4.727   0.914  -0.653  0.00  0.00     0.026 H 
ATOM     61  H   LIG d   1       3.882  -1.278  -1.448  0.00  0.00     0.027 H 
ATOM     62  H   LIG d   1       5.658  -1.206  -1.539  0.00  0.00     0.027 H 
ATOM     63  H   LIG d   1       5.513  -0.633  -3.947  0.00  0.00     0.035 H 
ENDBRANCH  44  47
ENDBRANCH  41  44
ENDBRANCH  11  41
TORSDOF 8
ENDMDL
MODEL 7
REMARK VINA RESULT:      -5.9      6.637     10.535
REMARK  8 active torsions:
REMARK  status: ('A' for Active; 'I' for Inactive)
REMARK    1  A    between atoms: C_1  and  N_2 
REMARK    2  A    between atoms: N_2  and  C_3 
REMARK    3  A    between atoms: N_2  and  C_4 
REMARK    4  A    between atoms: C_7  and  C_10 
REMARK    5  A    between atoms: N_14  and  C_15 
REMARK    6  A    between atoms: C_25  and  N_61 
REMARK    7  A    between atoms: C_27  and  C_28 
REMARK    8  A    between atoms: C_27  and  N_61 
ROOT
ATOM      1  C   LIG d   1       8.508  -6.919  -5.102  0.00  0.00     0.108 C 
ATOM      2  H   LIG d   1       9.340  -7.621  -5.054  0.00  0.00     0.060 H 
ATOM      3  C   LIG d   1       8.590  -6.072  -6.383  0.00  0.00     0.073 C 
ATOM      4  O   LIG d   1       8.350  -4.710  -6.032  0.00  0.00    -0.366 OA
ATOM      5  C   LIG d   1       8.114  -4.574  -4.629  0.00  0.00     0.131 C 
ATOM      6  H   LIG d   1       7.070  -4.358  -4.398  0.00  0.00     0.068 H 
ATOM      7  C   LIG d   1       8.608  -5.886  -3.963  0.00  0.00     0.115 C 
ATOM      8  H   LIG d   1       8.027  -6.160  -3.082  0.00  0.00     0.065 H 
ATOM      9  O   LIG d   1       9.995  -5.640  -3.658  0.00  0.00    -0.366 OA
ATOM     10  C   LIG d   1      10.038  -4.285  -3.157  0.00  0.00     0.093 C 
ATOM     11  C   LIG d   1       9.073  -3.497  -4.069  0.00  0.00     0.030 C 
ATOM     12  H   LIG d   1       9.620  -3.014  -4.879  0.00  0.00     0.090 H 
ATOM     13  H   LIG d   1       9.582  -6.169  -6.825  0.00  0.00     0.058 H 
ATOM     14  H   LIG d   1       7.836  -6.407  -7.095  0.00  0.00     0.058 H 
ATOM     15  H   LIG d   1      11.048  -3.883  -3.235  0.00  0.00     0.062 H 
ATOM     16  H   LIG d   1       9.695  -4.253  -2.123  0.00  0.00     0.062 H 
ENDROOT
BRANCH   1  17
ATOM     17  N   LIG d   1       7.229  -7.631  -5.038  0.00  0.00    -0.217 N 
ATOM     18  C   LIG d   1       6.930  -8.720  -4.288  0.00  0.00     0.182 A 
ATOM     19  N   LIG d   1       5.674  -9.027  -4.538  0.00  0.00    -0.108 NA
ATOM     20  N   LIG d   1       5.172  -8.208  -5.389  0.00  0.00    -0.023 NA
ATOM     21  N   LIG d   1       6.048  -7.328  -5.738  0.00  0.00    -0.043 NA
BRANCH  18  22
ATOM     22  C   LIG d   1       7.841  -9.429  -3.364  0.00  0.00     0.021 A 
ATOM     23  C   LIG d   1       8.689 -10.428  -3.847  0.00  0.00    -0.049 A 
ATOM     24  C   LIG d   1       9.536 -11.086  -2.983  0.00  0.00    -0.040 A 
ATOM     25  H   LIG d   1       8.680 -10.683  -4.896  0.00  0.00     0.062 H 
ATOM     26  C   LIG d   1       9.548 -10.759  -1.632  0.00  0.00     0.029 A 
ATOM     27  H   LIG d   1      10.192 -11.859  -3.357  0.00  0.00     0.064 H 
ATOM     28  C   LIG d   1       8.704  -9.765  -1.148  0.00  0.00    -0.040 A 
ATOM     29  C   LIG d   1       7.859  -9.099  -2.008  0.00  0.00    -0.049 A 
ATOM     30  H   LIG d   1       8.715  -9.511  -0.098  0.00  0.00     0.064 H 
ATOM     31  H   LIG d   1       7.207  -8.323  -1.632  0.00  0.00     0.062 H 
BRANCH  26  32
ATOM     32  N   LIG d   1      10.407 -11.427  -0.761  0.00  0.00    -0.336 N 
BRANCH  32  33
ATOM     33  C   LIG d   1      11.662 -10.798  -0.343  0.00  0.00     0.000 C 
ATOM     34  H   LIG d   1      12.466 -11.115  -1.006  0.00  0.00     0.043 H 
ATOM     35  H   LIG d   1      11.558  -9.714  -0.390  0.00  0.00     0.043 H 
ATOM     36  H   LIG d   1      11.894 -11.097   0.679  0.00  0.00     0.043 H 
ENDBRANCH  32  33
BRANCH  32  37
ATOM     37  C   LIG d   1      10.054 -12.760  -0.263  0.00  0.00     0.000 C 
ATOM     38  H   LIG d   1      10.698 -13.504  -0.732  0.00  0.00     0.043 H 
ATOM     39  H   LIG d   1      10.189 -12.792   0.818  0.00  0.00     0.043 H 
ATOM     40  H   LIG d   1       9.014 -12.974  -0.506  0.00  0.00     0.043 H 
ENDBRANCH  32  37
ENDBRANCH  26  32
ENDBRANCH  18  22
ENDBRANCH   1  17
BRANCH  11  41
ATOM     41  N   LIG d   1       8.318  -2.502  -3.284  0.00  0.00     0.233 N 
ATOM     42  H   LIG d   1       8.923  -1.695  -3.087  0.00  0.00     0.202 HD
ATOM     43  H   LIG d   1       8.016  -2.927  -2.399  0.00  0.00     0.202 HD
BRANCH  41  44
ATOM     44  C   LIG d   1       7.133  -2.049  -4.035  0.00  0.00    -0.030 C 
ATOM     45  H   LIG d   1       7.393  -1.181  -4.641  0.00  0.00     0.082 H 
ATOM     46  H   LIG d   1       6.780  -2.852  -4.683  0.00  0.00     0.082 H 
BRANCH  44  47
ATOM     47  C   LIG d   1       6.028  -1.669  -3.048  0.00  0.00    -0.001 C 
ATOM     48  C   LIG d   1       5.880  -0.147  -3.008  0.00  0.00    -0.045 C 
ATOM     49  C   LIG d   1       4.776   0.234  -2.020  0.00  0.00    -0.053 C 
ATOM     50  H   LIG d   1       6.822   0.302  -2.690  0.00  0.00     0.027 H 
ATOM     51  H   LIG d   1       5.621   0.220  -4.002  0.00  0.00     0.027 H 
ATOM     52  C   LIG d   1       3.454  -0.395  -2.466  0.00  0.00    -0.053 C 
ATOM     53  H   LIG d   1       5.036  -0.132  -1.026  0.00  0.00     0.026 H 
ATOM     54  H   LIG d   1       4.672   1.318  -1.992  0.00  0.00     0.026 H 
ATOM     55  C   LIG d   1       3.602  -1.917  -2.505  0.00  0.00    -0.053 C 
ATOM     56  H   LIG d   1       2.667  -0.124  -1.763  0.00  0.00     0.026 H 
ATOM     57  H   LIG d   1       3.195  -0.029  -3.460  0.00  0.00     0.026 H 
ATOM     58  C   LIG d   1       4.706  -2.298  -3.494  0.00  0.00    -0.045 C 
ATOM     59  H   LIG d   1       3.861  -2.283  -1.512  0.00  0.00     0.026 H 
ATOM     60  H   LIG d   1       2.660  -2.365  -2.823  0.00  0.00     0.026 H 
ATOM     61  H   LIG d   1       4.447  -1.932  -4.487  0.00  0.00     0.027 H 
ATOM     62  H   LIG d   1       4.811  -3.382  -3.521  0.00  0.00     0.027 H 
ATOM     63  H   LIG d   1       6.287  -2.034  -2.053  0.00  0.00     0.035 H 
ENDBRANCH  44  47
ENDBRANCH  41  44
ENDBRANCH  11  41
TORSDOF 8
ENDMDL
MODEL 8
REMARK VINA RESULT:      -5.8      3.905      8.141
REMARK  8 active torsions:
REMARK  status: ('A' for Active; 'I' for Inactive)
REMARK    1  A    between atoms: C_1  and  N_2 
REMARK    2  A    between atoms: N_2  and  C_3 
REMARK    3  A    between atoms: N_2  and  C_4 
REMARK    4  A    between atoms: C_7  and  C_10 
REMARK    5  A    between atoms: N_14  and  C_15 
REMARK    6  A    between atoms: C_25  and  N_61 
REMARK    7  A    between atoms: C_27  and  C_28 
REMARK    8  A    between atoms: C_27  and  N_61 
ROOT
ATOM      1  C   LIG d   1       7.191  -1.047  -4.901  0.00  0.00     0.108 C 
ATOM      2  H   LIG d   1       8.271  -0.994  -4.758  0.00  0.00     0.060 H 
ATOM      3  C   LIG d   1       6.670  -2.451  -4.555  0.00  0.00     0.073 C 
ATOM      4  O   LIG d   1       5.770  -2.859  -5.586  0.00  0.00    -0.366 OA
ATOM      5  C   LIG d   1       5.645  -1.847  -6.589  0.00  0.00     0.131 C 
ATOM      6  H   LIG d   1       4.681  -1.339  -6.554  0.00  0.00     0.068 H 
ATOM      7  C   LIG d   1       6.835  -0.871  -6.390  0.00  0.00     0.115 C 
ATOM      8  H   LIG d   1       6.589   0.158  -6.655  0.00  0.00     0.065 H 
ATOM      9  O   LIG d   1       7.893  -1.416  -7.204  0.00  0.00    -0.366 OA
ATOM     10  C   LIG d   1       7.249  -1.839  -8.426  0.00  0.00     0.093 C 
ATOM     11  C   LIG d   1       5.922  -2.485  -7.970  0.00  0.00     0.030 C 
ATOM     12  H   LIG d   1       6.034  -3.565  -7.876  0.00  0.00     0.090 H 
ATOM     13  H   LIG d   1       7.505  -3.151  -4.499  0.00  0.00     0.058 H 
ATOM     14  H   LIG d   1       6.147  -2.425  -3.600  0.00  0.00     0.058 H 
ATOM     15  H   LIG d   1       7.867  -2.569  -8.948  0.00  0.00     0.062 H 
ATOM     16  H   LIG d   1       7.052  -0.980  -9.068  0.00  0.00     0.062 H 
ENDROOT
BRANCH   1  17
ATOM     17  N   LIG d   1       6.514  -0.033  -4.088  0.00  0.00    -0.217 N 
ATOM     18  C   LIG d   1       6.932   1.231  -3.833  0.00  0.00     0.182 A 
ATOM     19  N   LIG d   1       6.022   1.790  -3.062  0.00  0.00    -0.108 NA
ATOM     20  N   LIG d   1       5.069   0.963  -2.820  0.00  0.00    -0.023 NA
ATOM     21  N   LIG d   1       5.289  -0.162  -3.410  0.00  0.00    -0.043 NA
BRANCH  18  22
ATOM     22  C   LIG d   1       8.174   1.863  -4.326  0.00  0.00     0.021 A 
ATOM     23  C   LIG d   1       8.315   2.165  -5.682  0.00  0.00    -0.049 A 
ATOM     24  C   LIG d   1       9.473   2.753  -6.139  0.00  0.00    -0.040 A 
ATOM     25  H   LIG d   1       7.516   1.936  -6.372  0.00  0.00     0.062 H 
ATOM     26  C   LIG d   1      10.503   3.047  -5.251  0.00  0.00     0.029 A 
ATOM     27  H   LIG d   1       9.582   2.986  -7.187  0.00  0.00     0.064 H 
ATOM     28  C   LIG d   1      10.366   2.748  -3.900  0.00  0.00    -0.040 A 
ATOM     29  C   LIG d   1       9.207   2.165  -3.437  0.00  0.00    -0.049 A 
ATOM     30  H   LIG d   1      11.166   2.978  -3.213  0.00  0.00     0.064 H 
ATOM     31  H   LIG d   1       9.100   1.937  -2.386  0.00  0.00     0.062 H 
BRANCH  26  32
ATOM     32  N   LIG d   1      11.674   3.643  -5.717  0.00  0.00    -0.336 N 
BRANCH  32  33
ATOM     33  C   LIG d   1      12.385   4.614  -4.881  0.00  0.00     0.000 C 
ATOM     34  H   LIG d   1      12.667   4.145  -3.939  0.00  0.00     0.043 H 
ATOM     35  H   LIG d   1      13.282   4.952  -5.401  0.00  0.00     0.043 H 
ATOM     36  H   LIG d   1      11.736   5.467  -4.684  0.00  0.00     0.043 H 
ENDBRANCH  32  33
BRANCH  32  37
ATOM     37  C   LIG d   1      12.195   3.298  -7.043  0.00  0.00     0.000 C 
ATOM     38  H   LIG d   1      11.881   4.053  -7.764  0.00  0.00     0.043 H 
ATOM     39  H   LIG d   1      13.283   3.258  -7.008  0.00  0.00     0.043 H 
ATOM     40  H   LIG d   1      11.806   2.325  -7.343  0.00  0.00     0.043 H 
ENDBRANCH  32  37
ENDBRANCH  26  32
ENDBRANCH  18  22
ENDBRANCH   1  17
BRANCH  11  41
ATOM     41  N   LIG d   1       4.836  -2.152  -8.911  0.00  0.00     0.233 N 
ATOM     42  H   LIG d   1       4.538  -3.005  -9.400  0.00  0.00     0.202 HD
ATOM     43  H   LIG d   1       5.178  -1.469  -9.596  0.00  0.00     0.202 HD
BRANCH  41  44
ATOM     44  C   LIG d   1       3.687  -1.580  -8.185  0.00  0.00    -0.030 C 
ATOM     45  H   LIG d   1       2.849  -2.276  -8.219  0.00  0.00     0.082 H 
ATOM     46  H   LIG d   1       3.964  -1.395  -7.148  0.00  0.00     0.082 H 
BRANCH  44  47
ATOM     47  C   LIG d   1       3.282  -0.262  -8.848  0.00  0.00    -0.001 C 
ATOM     48  C   LIG d   1       3.198   0.838  -7.788  0.00  0.00    -0.045 C 
ATOM     49  C   LIG d   1       2.793   2.156  -8.450  0.00  0.00    -0.053 C 
ATOM     50  H   LIG d   1       2.456   0.564  -7.038  0.00  0.00     0.027 H 
ATOM     51  H   LIG d   1       4.171   0.956  -7.309  0.00  0.00     0.027 H 
ATOM     52  C   LIG d   1       3.836   2.540  -9.502  0.00  0.00    -0.053 C 
ATOM     53  H   LIG d   1       1.820   2.038  -8.928  0.00  0.00     0.026 H 
ATOM     54  H   LIG d   1       2.734   2.939  -7.694  0.00  0.00     0.026 H 
ATOM     55  C   LIG d   1       3.918   1.440 -10.562  0.00  0.00    -0.053 C 
ATOM     56  H   LIG d   1       3.547   3.479  -9.974  0.00  0.00     0.026 H 
ATOM     57  H   LIG d   1       4.808   2.657  -9.024  0.00  0.00     0.026 H 
ATOM     58  C   LIG d   1       4.324   0.122  -9.900  0.00  0.00    -0.045 C 
ATOM     59  H   LIG d   1       2.946   1.323 -11.041  0.00  0.00     0.026 H 
ATOM     60  H   LIG d   1       4.661   1.714 -11.312  0.00  0.00     0.026 H 
ATOM     61  H   LIG d   1       5.296   0.240  -9.422  0.00  0.00     0.027 H 
ATOM     62  H   LIG d   1       4.383  -0.661 -10.656  0.00  0.00     0.027 H 
ATOM     63  H   LIG d   1       2.308  -0.379  -9.326  0.00  0.00     0.035 H 
ENDBRANCH  44  47
ENDBRANCH  41  44
ENDBRANCH  11  41
TORSDOF 8
ENDMDL
MODEL 9
REMARK VINA RESULT:      -5.7      3.950      5.003
REMARK  8 active torsions:
REMARK  status: ('A' for Active; 'I' for Inactive)
REMARK    1  A    between atoms: C_1  and  N_2 
REMARK    2  A    between atoms: N_2  and  C_3 
REMARK    3  A    between atoms: N_2  and  C_4 
REMARK    4  A    between atoms: C_7  and  C_10 
REMARK    5  A    between atoms: N_14  and  C_15 
REMARK    6  A    between atoms: C_25  and  N_61 
REMARK    7  A    between atoms: C_27  and  C_28 
REMARK    8  A    between atoms: C_27  and  N_61 
ROOT
ATOM      1  C   LIG d   1       5.913  -0.485  -6.743  0.00  0.00     0.108 C 
ATOM      2  H   LIG d   1       5.823  -1.418  -7.298  0.00  0.00     0.060 H 
ATOM      3  C   LIG d   1       6.403   0.645  -7.664  0.00  0.00     0.073 C 
ATOM      4  O   LIG d   1       7.432   1.361  -6.982  0.00  0.00    -0.366 OA
ATOM      5  C   LIG d   1       7.670   0.808  -5.685  0.00  0.00     0.131 C 
ATOM      6  H   LIG d   1       7.301   1.446  -4.882  0.00  0.00     0.068 H 
ATOM      7  C   LIG d   1       7.014  -0.598  -5.671  0.00  0.00     0.115 C 
ATOM      8  H   LIG d   1       6.631  -0.879  -4.690  0.00  0.00     0.065 H 
ATOM      9  O   LIG d   1       8.048  -1.487  -6.138  0.00  0.00    -0.366 OA
ATOM     10  C   LIG d   1       9.257  -1.034  -5.491  0.00  0.00     0.093 C 
ATOM     11  C   LIG d   1       9.181   0.507  -5.547  0.00  0.00     0.030 C 
ATOM     12  H   LIG d   1       9.726   0.886  -6.412  0.00  0.00     0.090 H 
ATOM     13  H   LIG d   1       6.800   0.222  -8.587  0.00  0.00     0.058 H 
ATOM     14  H   LIG d   1       5.576   1.318  -7.893  0.00  0.00     0.058 H 
ATOM     15  H   LIG d   1      10.134  -1.391  -6.030  0.00  0.00     0.062 H 
ATOM     16  H   LIG d   1       9.284  -1.375  -4.455  0.00  0.00     0.062 H 
ENDROOT
BRANCH   1  17
ATOM     17  N   LIG d   1       4.632  -0.127  -6.127  0.00  0.00    -0.217 N 
ATOM     18  C   LIG d   1       3.412  -0.108  -6.717  0.00  0.00     0.182 A 
ATOM     19  N   LIG d   1       2.546   0.270  -5.800  0.00  0.00    -0.108 NA
ATOM     20  N   LIG d   1       3.141   0.489  -4.683  0.00  0.00    -0.023 NA
ATOM     21  N   LIG d   1       4.406   0.265  -4.796  0.00  0.00    -0.043 NA
BRANCH  18  22
ATOM     22  C   LIG d   1       3.110  -0.449  -8.125  0.00  0.00     0.021 A 
ATOM     23  C   LIG d   1       2.792   0.561  -9.035  0.00  0.00    -0.049 A 
ATOM     24  C   LIG d   1       2.510   0.240 -10.345  0.00  0.00    -0.040 A 
ATOM     25  H   LIG d   1       2.766   1.590  -8.713  0.00  0.00     0.062 H 
ATOM     26  C   LIG d   1       2.542  -1.087 -10.761  0.00  0.00     0.029 A 
ATOM     27  H   LIG d   1       2.264   1.020 -11.050  0.00  0.00     0.064 H 
ATOM     28  C   LIG d   1       2.858  -2.094  -9.856  0.00  0.00    -0.040 A 
ATOM     29  C   LIG d   1       3.146  -1.779  -8.546  0.00  0.00    -0.049 A 
ATOM     30  H   LIG d   1       2.884  -3.124 -10.181  0.00  0.00     0.064 H 
ATOM     31  H   LIG d   1       3.396  -2.562  -7.845  0.00  0.00     0.062 H 
BRANCH  26  32
ATOM     32  N   LIG d   1       2.258  -1.407 -12.087  0.00  0.00    -0.336 N 
BRANCH  32  33
ATOM     33  C   LIG d   1       3.309  -1.323 -13.104  0.00  0.00     0.000 C 
ATOM     34  H   LIG d   1       3.294  -0.334 -13.561  0.00  0.00     0.043 H 
ATOM     35  H   LIG d   1       4.280  -1.493 -12.637  0.00  0.00     0.043 H 
ATOM     36  H   LIG d   1       3.136  -2.081 -13.868  0.00  0.00     0.043 H 
ENDBRANCH  32  33
BRANCH  32  37
ATOM     37  C   LIG d   1       0.905  -1.829 -12.465  0.00  0.00     0.000 C 
ATOM     38  H   LIG d   1       0.879  -2.048 -13.532  0.00  0.00     0.043 H 
ATOM     39  H   LIG d   1       0.633  -2.722 -11.903  0.00  0.00     0.043 H 
ATOM     40  H   LIG d   1       0.200  -1.029 -12.240  0.00  0.00     0.043 H 
ENDBRANCH  32  37
ENDBRANCH  26  32
ENDBRANCH  18  22
ENDBRANCH   1  17
BRANCH  11  41
ATOM     41  N   LIG d   1       9.705   1.096  -4.300  0.00  0.00     0.233 N 
ATOM     42  H   LIG d   1      10.551   1.640  -4.511  0.00  0.00     0.202 HD
ATOM     43  H   LIG d   1       9.939   0.344  -3.642  0.00  0.00     0.202 HD
BRANCH  41  44
ATOM     44  C   LIG d   1       8.697   1.982  -3.689  0.00  0.00    -0.030 C 
ATOM     45  H   LIG d   1       7.867   2.124  -4.381  0.00  0.00     0.082 H 
ATOM     46  H   LIG d   1       8.329   1.537  -2.765  0.00  0.00     0.082 H 
BRANCH  44  47
ATOM     47  C   LIG d   1       9.341   3.336  -3.381  0.00  0.00    -0.001 C 
ATOM     48  C   LIG d   1      10.750   3.117  -2.828  0.00  0.00    -0.045 C 
ATOM     49  C   LIG d   1      11.394   4.471  -2.520  0.00  0.00    -0.053 C 
ATOM     50  H   LIG d   1      10.695   2.524  -1.915  0.00  0.00     0.027 H 
ATOM     51  H   LIG d   1      11.353   2.588  -3.567  0.00  0.00     0.027 H 
ATOM     52  C   LIG d   1      11.472   5.302  -3.803  0.00  0.00    -0.053 C 
ATOM     53  H   LIG d   1      10.792   4.999  -1.780  0.00  0.00     0.026 H 
ATOM     54  H   LIG d   1      12.398   4.314  -2.126  0.00  0.00     0.026 H 
ATOM     55  C   LIG d   1      10.063   5.520  -4.354  0.00  0.00    -0.053 C 
ATOM     56  H   LIG d   1      11.931   6.265  -3.583  0.00  0.00     0.026 H 
ATOM     57  H   LIG d   1      12.074   4.772  -4.541  0.00  0.00     0.026 H 
ATOM     58  C   LIG d   1       9.419   4.167  -4.664  0.00  0.00    -0.045 C 
ATOM     59  H   LIG d   1       9.461   6.049  -3.616  0.00  0.00     0.026 H 
ATOM     60  H   LIG d   1      10.119   6.113  -5.269  0.00  0.00     0.026 H 
ATOM     61  H   LIG d   1      10.021   3.639  -5.402  0.00  0.00     0.027 H 
ATOM     62  H   LIG d   1       8.416   4.324  -5.057  0.00  0.00     0.027 H 
ATOM     63  H   LIG d   1       8.739   3.865  -2.641  0.00  0.00     0.035 H 
ENDBRANCH  44  47
ENDBRANCH  41  44
ENDBRANCH  11  41
TORSDOF 8
ENDMDL
MODEL 10
REMARK VINA RESULT:      -5.6      2.991      4.674
REMARK  8 active torsions:
REMARK  status: ('A' for Active; 'I' for Inactive)
REMARK    1  A    between atoms: C_1  and  N_2 
REMARK    2  A    between atoms: N_2  and  C_3 
REMARK    3  A    between atoms: N_2  and  C_4 
REMARK    4  A    between atoms: C_7  and  C_10 
REMARK    5  A    between atoms: N_14  and  C_15 
REMARK    6  A    between atoms: C_25  and  N_61 
REMARK    7  A    between atoms: C_27  and  C_28 
REMARK    8  A    between atoms: C_27  and  N_61 
ROOT
ATOM      1  C   LIG d   1       2.736  -0.800 -11.274  0.00  0.00     0.108 C 
ATOM      2  H   LIG d   1       2.678  -0.191 -12.176  0.00  0.00     0.060 H 
ATOM      3  C   LIG d   1       1.383  -0.811 -10.543  0.00  0.00     0.073 C 
ATOM      4  O   LIG d   1       1.626  -0.601  -9.153  0.00  0.00    -0.366 OA
ATOM      5  C   LIG d   1       3.023  -0.452  -8.891  0.00  0.00     0.131 C 
ATOM      6  H   LIG d   1       3.451  -1.318  -8.386  0.00  0.00     0.068 H 
ATOM      7  C   LIG d   1       3.705  -0.169 -10.257  0.00  0.00     0.115 C 
ATOM      8  H   LIG d   1       4.716  -0.573 -10.318  0.00  0.00     0.065 H 
ATOM      9  O   LIG d   1       3.673   1.267 -10.389  0.00  0.00    -0.366 OA
ATOM     10  C   LIG d   1       4.001   1.775  -9.078  0.00  0.00     0.093 C 
ATOM     11  C   LIG d   1       3.240   0.857  -8.097  0.00  0.00     0.030 C 
ATOM     12  H   LIG d   1       2.283   1.300  -7.822  0.00  0.00     0.090 H 
ATOM     13  H   LIG d   1       0.749  -0.013 -10.930  0.00  0.00     0.058 H 
ATOM     14  H   LIG d   1       0.893  -1.773 -10.689  0.00  0.00     0.058 H 
ATOM     15  H   LIG d   1       3.663   2.806  -8.975  0.00  0.00     0.062 H 
ATOM     16  H   LIG d   1       5.076   1.709  -8.904  0.00  0.00     0.062 H 
ENDROOT
BRANCH   1  17
ATOM     17  N   LIG d   1       3.153  -2.166 -11.601  0.00  0.00    -0.217 N 
ATOM     18  C   LIG d   1       3.750  -2.594 -12.741  0.00  0.00     0.182 A 
ATOM     19  N   LIG d   1       3.948  -3.889 -12.611  0.00  0.00    -0.108 NA
ATOM     20  N   LIG d   1       3.517  -4.297 -11.472  0.00  0.00    -0.023 NA
ATOM     21  N   LIG d   1       3.026  -3.313 -10.798  0.00  0.00    -0.043 NA
BRANCH  18  22
ATOM     22  C   LIG d   1       4.110  -1.763 -13.911  0.00  0.00     0.021 A 
ATOM     23  C   LIG d   1       3.181  -1.552 -14.931  0.00  0.00    -0.049 A 
ATOM     24  C   LIG d   1       3.520  -0.778 -16.019  0.00  0.00    -0.040 A 
ATOM     25  H   LIG d   1       2.199  -1.995 -14.868  0.00  0.00     0.062 H 
ATOM     26  C   LIG d   1       4.785  -0.206 -16.102  0.00  0.00     0.029 A 
ATOM     27  H   LIG d   1       2.802  -0.615 -16.809  0.00  0.00     0.064 H 
ATOM     28  C   LIG d   1       5.712  -0.415 -15.087  0.00  0.00    -0.040 A 
ATOM     29  C   LIG d   1       5.377  -1.184 -13.994  0.00  0.00    -0.049 A 
ATOM     30  H   LIG d   1       6.694   0.030 -15.153  0.00  0.00     0.064 H 
ATOM     31  H   LIG d   1       6.096  -1.341 -13.203  0.00  0.00     0.062 H 
BRANCH  26  32
ATOM     32  N   LIG d   1       5.124   0.576 -17.204  0.00  0.00    -0.336 N 
BRANCH  32  33
ATOM     33  C   LIG d   1       6.347   1.383 -17.183  0.00  0.00     0.000 C 
ATOM     34  H   LIG d   1       6.856   1.296 -18.142  0.00  0.00     0.043 H 
ATOM     35  H   LIG d   1       6.091   2.426 -17.000  0.00  0.00     0.043 H 
ATOM     36  H   LIG d   1       7.003   1.025 -16.389  0.00  0.00     0.043 H 
ENDBRANCH  32  33
BRANCH  32  37
ATOM     37  C   LIG d   1       4.256   0.593 -18.386  0.00  0.00     0.000 C 
ATOM     38  H   LIG d   1       3.226   0.766 -18.077  0.00  0.00     0.043 H 
ATOM     39  H   LIG d   1       4.574   1.389 -19.059  0.00  0.00     0.043 H 
ATOM     40  H   LIG d   1       4.326  -0.365 -18.900  0.00  0.00     0.043 H 
ENDBRANCH  32  37
ENDBRANCH  26  32
ENDBRANCH  18  22
ENDBRANCH   1  17
BRANCH  11  41
ATOM     41  N   LIG d   1       4.057   0.595  -6.897  0.00  0.00     0.233 N 
ATOM     42  H   LIG d   1       4.424   1.483  -6.535  0.00  0.00     0.202 HD
ATOM     43  H   LIG d   1       4.840  -0.021  -7.147  0.00  0.00     0.202 HD
BRANCH  41  44
ATOM     44  C   LIG d   1       3.241  -0.056  -5.854  0.00  0.00    -0.030 C 
ATOM     45  H   LIG d   1       2.349   0.540  -5.663  0.00  0.00     0.082 H 
ATOM     46  H   LIG d   1       2.950  -1.052  -6.185  0.00  0.00     0.082 H 
BRANCH  44  47
ATOM     47  C   LIG d   1       4.065  -0.166  -4.570  0.00  0.00    -0.001 C 
ATOM     48  C   LIG d   1       3.370   0.612  -3.450  0.00  0.00    -0.045 C 
ATOM     49  C   LIG d   1       4.194   0.501  -2.165  0.00  0.00    -0.053 C 
ATOM     50  H   LIG d   1       3.282   1.660  -3.736  0.00  0.00     0.027 H 
ATOM     51  H   LIG d   1       2.376   0.196  -3.281  0.00  0.00     0.027 H 
ATOM     52  C   LIG d   1       4.318  -0.970  -1.763  0.00  0.00    -0.053 C 
ATOM     53  H   LIG d   1       5.187   0.918  -2.334  0.00  0.00     0.026 H 
ATOM     54  H   LIG d   1       3.699   1.056  -1.368  0.00  0.00     0.026 H 
ATOM     55  C   LIG d   1       5.012  -1.746  -2.883  0.00  0.00    -0.053 C 
ATOM     56  H   LIG d   1       4.904  -1.048  -0.848  0.00  0.00     0.026 H 
ATOM     57  H   LIG d   1       3.324  -1.385  -1.595  0.00  0.00     0.026 H 
ATOM     58  C   LIG d   1       4.188  -1.637  -4.168  0.00  0.00    -0.045 C 
ATOM     59  H   LIG d   1       6.006  -1.332  -3.051  0.00  0.00     0.026 H 
ATOM     60  H   LIG d   1       5.100  -2.795  -2.596  0.00  0.00     0.026 H 
ATOM     61  H   LIG d   1       3.196  -2.052  -3.999  0.00  0.00     0.027 H 
ATOM     62  H   LIG d   1       4.684  -2.191  -4.965  0.00  0.00     0.027 H 
ATOM     63  H   LIG d   1       5.059   0.250  -4.738  0.00  0.00     0.035 H 
ENDBRANCH  44  47
ENDBRANCH  41  44
ENDBRANCH  11  41
TORSDOF 8
ENDMDL
