MODEL 1
REMARK VINA RESULT:      -6.7      0.000      0.000
REMARK  3 active torsions:
REMARK  status: ('A' for Active; 'I' for Inactive)
REMARK    1  A    between atoms: C_1  and  C_2 
REMARK    2  A    between atoms: C_5  and  S_8 
REMARK    3  A    between atoms: S_8  and  N_11 
ROOT
ATOM      1  S   LIG d   1       5.259  -2.558  -5.940  0.00  0.00     0.084 S 
ATOM      2  O   LIG d   1       6.438  -3.016  -6.588  0.00  0.00    -0.148 OA
ATOM      3  O   LIG d   1       4.487  -3.391  -5.086  0.00  0.00    -0.148 OA
ENDROOT
BRANCH   1   4
ATOM      4  C   LIG d   1       4.174  -1.994  -7.208  0.00  0.00     0.111 A 
ATOM      5  C   LIG d   1       3.692  -0.699  -7.180  0.00  0.00    -0.035 A 
ATOM      6  C   LIG d   1       2.841  -0.256  -8.175  0.00  0.00    -0.057 A 
ATOM      7  H   LIG d   1       3.982  -0.033  -6.381  0.00  0.00     0.064 H 
ATOM      8  C   LIG d   1       2.472  -1.109  -9.198  0.00  0.00    -0.050 A 
ATOM      9  H   LIG d   1       2.464   0.756  -8.153  0.00  0.00     0.062 H 
ATOM     10  C   LIG d   1       2.953  -2.404  -9.227  0.00  0.00    -0.057 A 
ATOM     11  C   LIG d   1       3.808  -2.846  -8.234  0.00  0.00    -0.035 A 
ATOM     12  H   LIG d   1       2.664  -3.071 -10.026  0.00  0.00     0.062 H 
ATOM     13  H   LIG d   1       4.188  -3.856  -8.258  0.00  0.00     0.064 H 
BRANCH   8  14
ATOM     14  C   LIG d   1       1.542  -0.627 -10.283  0.00  0.00    -0.040 C 
ATOM     15  H   LIG d   1       0.938  -1.462 -10.640  0.00  0.00     0.028 H 
ATOM     16  H   LIG d   1       0.890   0.150  -9.884  0.00  0.00     0.028 H 
ATOM     17  H   LIG d   1       2.127  -0.223 -11.110  0.00  0.00     0.028 H 
ENDBRANCH   8  14
ENDBRANCH   1   4
BRANCH   1  18
ATOM     18  N   LIG d   1       5.694  -1.235  -5.043  0.00  0.00    -0.217 N 
ATOM     19  C   LIG d   1       4.902  -0.627  -4.095  0.00  0.00     0.073 A 
ATOM     20  C   LIG d   1       5.638   0.453  -3.572  0.00  0.00     0.016 A 
ATOM     21  C   LIG d   1       3.622  -0.877  -3.614  0.00  0.00    -0.036 A 
ATOM     22  C   LIG d   1       6.923   0.447  -4.273  0.00  0.00     0.045 A 
ATOM     23  C   LIG d   1       5.078   1.260  -2.578  0.00  0.00    -0.051 A 
ATOM     24  C   LIG d   1       6.895  -0.581  -5.136  0.00  0.00     0.044 A 
ATOM     25 BR   LIG d   1       8.353   1.657  -4.013  0.00  0.00    -0.048 Br
ATOM     26  H   LIG d   1       7.698  -0.854  -5.805  0.00  0.00     0.084 H 
ATOM     27  C   LIG d   1       3.818   0.996  -2.120  0.00  0.00    -0.061 A 
ATOM     28  H   LIG d   1       5.639   2.089  -2.174  0.00  0.00     0.062 H 
ATOM     29  C   LIG d   1       3.089  -0.068  -2.633  0.00  0.00    -0.060 A 
ATOM     30  H   LIG d   1       3.386   1.620  -1.352  0.00  0.00     0.062 H 
ATOM     31  H   LIG d   1       2.093  -0.261  -2.265  0.00  0.00     0.062 H 
ATOM     32  H   LIG d   1       3.046  -1.702  -4.007  0.00  0.00     0.064 H 
ENDBRANCH   1  18
TORSDOF 3
ENDMDL
MODEL 2
REMARK VINA RESULT:      -6.7      2.826      3.418
REMARK  3 active torsions:
REMARK  status: ('A' for Active; 'I' for Inactive)
REMARK    1  A    between atoms: C_1  and  C_2 
REMARK    2  A    between atoms: C_5  and  S_8 
REMARK    3  A    between atoms: S_8  and  N_11 
ROOT
ATOM      1  S   LIG d   1       3.981   0.456  -7.351  0.00  0.00     0.084 S 
ATOM      2  O   LIG d   1       2.967   1.250  -6.750  0.00  0.00    -0.148 OA
ATOM      3  O   LIG d   1       5.268   0.971  -7.663  0.00  0.00    -0.148 OA
ENDROOT
BRANCH   1   4
ATOM      4  C   LIG d   1       3.308  -0.164  -8.857  0.00  0.00     0.111 A 
ATOM      5  C   LIG d   1       1.990  -0.579  -8.907  0.00  0.00    -0.035 A 
ATOM      6  C   LIG d   1       1.462  -1.065 -10.088  0.00  0.00    -0.057 A 
ATOM      7  H   LIG d   1       1.374  -0.523  -8.022  0.00  0.00     0.064 H 
ATOM      8  C   LIG d   1       2.252  -1.135 -11.220  0.00  0.00    -0.050 A 
ATOM      9  H   LIG d   1       0.433  -1.389 -10.126  0.00  0.00     0.062 H 
ATOM     10  C   LIG d   1       3.570  -0.721 -11.171  0.00  0.00    -0.057 A 
ATOM     11  C   LIG d   1       4.097  -0.231  -9.990  0.00  0.00    -0.035 A 
ATOM     12  H   LIG d   1       4.187  -0.777 -12.055  0.00  0.00     0.062 H 
ATOM     13  H   LIG d   1       5.125   0.097  -9.953  0.00  0.00     0.064 H 
BRANCH   8  14
ATOM     14  C   LIG d   1       1.677  -1.667 -12.508  0.00  0.00    -0.040 C 
ATOM     15  H   LIG d   1       2.330  -1.392 -13.338  0.00  0.00     0.028 H 
ATOM     16  H   LIG d   1       1.599  -2.753 -12.451  0.00  0.00     0.028 H 
ATOM     17  H   LIG d   1       0.687  -1.239 -12.669  0.00  0.00     0.028 H 
ENDBRANCH   8  14
ENDBRANCH   1   4
BRANCH   1  18
ATOM     18  N   LIG d   1       4.221  -0.843  -6.351  0.00  0.00    -0.217 N 
ATOM     19  C   LIG d   1       4.043  -0.834  -4.986  0.00  0.00     0.073 A 
ATOM     20  C   LIG d   1       4.350  -2.126  -4.520  0.00  0.00     0.016 A 
ATOM     21  C   LIG d   1       3.649   0.142  -4.078  0.00  0.00    -0.036 A 
ATOM     22  C   LIG d   1       4.723  -2.907  -5.702  0.00  0.00     0.045 A 
ATOM     23  C   LIG d   1       4.257  -2.415  -3.157  0.00  0.00    -0.051 A 
ATOM     24  C   LIG d   1       4.626  -2.087  -6.760  0.00  0.00     0.044 A 
ATOM     25 BR   LIG d   1       5.242  -4.725  -5.732  0.00  0.00    -0.048 Br
ATOM     26  H   LIG d   1       4.836  -2.365  -7.783  0.00  0.00     0.084 H 
ATOM     27  C   LIG d   1       3.867  -1.439  -2.282  0.00  0.00    -0.061 A 
ATOM     28  H   LIG d   1       4.491  -3.405  -2.795  0.00  0.00     0.062 H 
ATOM     29  C   LIG d   1       3.563  -0.164  -2.737  0.00  0.00    -0.060 A 
ATOM     30  H   LIG d   1       3.795  -1.663  -1.228  0.00  0.00     0.062 H 
ATOM     31  H   LIG d   1       3.262   0.597  -2.034  0.00  0.00     0.062 H 
ATOM     32  H   LIG d   1       3.411   1.138  -4.422  0.00  0.00     0.064 H 
ENDBRANCH   1  18
TORSDOF 3
ENDMDL
MODEL 3
REMARK VINA RESULT:      -6.4      3.616      5.727
REMARK  3 active torsions:
REMARK  status: ('A' for Active; 'I' for Inactive)
REMARK    1  A    between atoms: C_1  and  C_2 
REMARK    2  A    between atoms: C_5  and  S_8 
REMARK    3  A    between atoms: S_8  and  N_11 
ROOT
ATOM      1  S   LIG d   1       7.133  -3.140  -5.409  0.00  0.00     0.084 S 
ATOM      2  O   LIG d   1       5.844  -3.737  -5.423  0.00  0.00    -0.148 OA
ATOM      3  O   LIG d   1       7.878  -2.908  -6.596  0.00  0.00    -0.148 OA
ENDROOT
BRANCH   1   4
ATOM      4  C   LIG d   1       8.142  -4.144  -4.370  0.00  0.00     0.111 A 
ATOM      5  C   LIG d   1       8.298  -5.489  -4.648  0.00  0.00    -0.035 A 
ATOM      6  C   LIG d   1       9.088  -6.276  -3.833  0.00  0.00    -0.057 A 
ATOM      7  H   LIG d   1       7.801  -5.924  -5.503  0.00  0.00     0.064 H 
ATOM      8  C   LIG d   1       9.724  -5.719  -2.739  0.00  0.00    -0.050 A 
ATOM      9  H   LIG d   1       9.210  -7.328  -4.050  0.00  0.00     0.062 H 
ATOM     10  C   LIG d   1       9.569  -4.374  -2.461  0.00  0.00    -0.057 A 
ATOM     11  C   LIG d   1       8.781  -3.585  -3.278  0.00  0.00    -0.035 A 
ATOM     12  H   LIG d   1      10.065  -3.939  -1.606  0.00  0.00     0.062 H 
ATOM     13  H   LIG d   1       8.663  -2.534  -3.063  0.00  0.00     0.064 H 
BRANCH   8  14
ATOM     14  C   LIG d   1      10.586  -6.578  -1.849  0.00  0.00    -0.040 C 
ATOM     15  H   LIG d   1      10.143  -7.571  -1.765  0.00  0.00     0.028 H 
ATOM     16  H   LIG d   1      11.584  -6.660  -2.279  0.00  0.00     0.028 H 
ATOM     17  H   LIG d   1      10.652  -6.124  -0.859  0.00  0.00     0.028 H 
ENDBRANCH   8  14
ENDBRANCH   1   4
BRANCH   1  18
ATOM     18  N   LIG d   1       6.968  -1.672  -4.659  0.00  0.00    -0.217 N 
ATOM     19  C   LIG d   1       6.014  -1.370  -3.713  0.00  0.00     0.073 A 
ATOM     20  C   LIG d   1       6.216  -0.030  -3.335  0.00  0.00     0.016 A 
ATOM     21  C   LIG d   1       4.984  -2.097  -3.126  0.00  0.00    -0.036 A 
ATOM     22  C   LIG d   1       7.357   0.447  -4.120  0.00  0.00     0.045 A 
ATOM     23  C   LIG d   1       5.385   0.556  -2.377  0.00  0.00    -0.051 A 
ATOM     24  C   LIG d   1       7.759  -0.577  -4.890  0.00  0.00     0.044 A 
ATOM     25 BR   LIG d   1       8.119   2.177  -4.062  0.00  0.00    -0.048 Br
ATOM     26  H   LIG d   1       8.583  -0.544  -5.587  0.00  0.00     0.084 H 
ATOM     27  C   LIG d   1       4.379  -0.178  -1.812  0.00  0.00    -0.061 A 
ATOM     28  H   LIG d   1       5.537   1.584  -2.083  0.00  0.00     0.062 H 
ATOM     29  C   LIG d   1       4.177  -1.500  -2.182  0.00  0.00    -0.060 A 
ATOM     30  H   LIG d   1       3.737   0.276  -1.072  0.00  0.00     0.062 H 
ATOM     31  H   LIG d   1       3.375  -2.064  -1.731  0.00  0.00     0.062 H 
ATOM     32  H   LIG d   1       4.818  -3.126  -3.407  0.00  0.00     0.064 H 
ENDBRANCH   1  18
TORSDOF 3
ENDMDL
MODEL 4
REMARK VINA RESULT:      -6.3      3.450      4.559
REMARK  3 active torsions:
REMARK  status: ('A' for Active; 'I' for Inactive)
REMARK    1  A    between atoms: C_1  and  C_2 
REMARK    2  A    between atoms: C_5  and  S_8 
REMARK    3  A    between atoms: S_8  and  N_11 
ROOT
ATOM      1  S   LIG d   1       6.965  -2.858  -5.484  0.00  0.00     0.084 S 
ATOM      2  O   LIG d   1       7.670  -2.669  -6.703  0.00  0.00    -0.148 OA
ATOM      3  O   LIG d   1       7.568  -2.646  -4.215  0.00  0.00    -0.148 OA
ENDROOT
BRANCH   1   4
ATOM      4  C   LIG d   1       6.383  -4.521  -5.492  0.00  0.00     0.111 A 
ATOM      5  C   LIG d   1       5.025  -4.778  -5.554  0.00  0.00    -0.035 A 
ATOM      6  C   LIG d   1       4.568  -6.082  -5.559  0.00  0.00    -0.057 A 
ATOM      7  H   LIG d   1       4.323  -3.959  -5.597  0.00  0.00     0.064 H 
ATOM      8  C   LIG d   1       5.469  -7.130  -5.505  0.00  0.00    -0.050 A 
ATOM      9  H   LIG d   1       3.508  -6.283  -5.608  0.00  0.00     0.062 H 
ATOM     10  C   LIG d   1       6.825  -6.874  -5.443  0.00  0.00    -0.057 A 
ATOM     11  C   LIG d   1       7.283  -5.569  -5.440  0.00  0.00    -0.035 A 
ATOM     12  H   LIG d   1       7.528  -7.692  -5.399  0.00  0.00     0.062 H 
ATOM     13  H   LIG d   1       8.343  -5.369  -5.397  0.00  0.00     0.064 H 
BRANCH   8  14
ATOM     14  C   LIG d   1       4.970  -8.553  -5.510  0.00  0.00    -0.040 C 
ATOM     15  H   LIG d   1       3.895  -8.562  -5.326  0.00  0.00     0.028 H 
ATOM     16  H   LIG d   1       5.177  -9.007  -6.479  0.00  0.00     0.028 H 
ATOM     17  H   LIG d   1       5.477  -9.119  -4.727  0.00  0.00     0.028 H 
ENDBRANCH   8  14
ENDBRANCH   1   4
BRANCH   1  18
ATOM     18  N   LIG d   1       5.635  -1.874  -5.547  0.00  0.00    -0.217 N 
ATOM     19  C   LIG d   1       4.812  -1.586  -4.481  0.00  0.00     0.073 A 
ATOM     20  C   LIG d   1       3.809  -0.720  -4.954  0.00  0.00     0.016 A 
ATOM     21  C   LIG d   1       4.807  -1.969  -3.145  0.00  0.00    -0.036 A 
ATOM     22  C   LIG d   1       4.089  -0.512  -6.377  0.00  0.00     0.045 A 
ATOM     23  C   LIG d   1       2.821  -0.256  -4.082  0.00  0.00    -0.051 A 
ATOM     24  C   LIG d   1       5.188  -1.225  -6.668  0.00  0.00     0.044 A 
ATOM     25 BR   LIG d   1       3.093   0.560  -7.575  0.00  0.00    -0.048 Br
ATOM     26  H   LIG d   1       5.653  -1.280  -7.642  0.00  0.00     0.084 H 
ATOM     27  C   LIG d   1       2.836  -0.646  -2.772  0.00  0.00    -0.061 A 
ATOM     28  H   LIG d   1       2.049   0.408  -4.441  0.00  0.00     0.062 H 
ATOM     29  C   LIG d   1       3.824  -1.499  -2.301  0.00  0.00    -0.060 A 
ATOM     30  H   LIG d   1       2.073  -0.287  -2.098  0.00  0.00     0.062 H 
ATOM     31  H   LIG d   1       3.820  -1.802  -1.265  0.00  0.00     0.062 H 
ATOM     32  H   LIG d   1       5.572  -2.633  -2.768  0.00  0.00     0.064 H 
ENDBRANCH   1  18
TORSDOF 3
ENDMDL
MODEL 5
REMARK VINA RESULT:      -6.1      2.845      5.913
REMARK  3 active torsions:
REMARK  status: ('A' for Active; 'I' for Inactive)
REMARK    1  A    between atoms: C_1  and  C_2 
REMARK    2  A    between atoms: C_5  and  S_8 
REMARK    3  A    between atoms: S_8  and  N_11 
ROOT
ATOM      1  S   LIG d   1       5.745  -1.852  -6.780  0.00  0.00     0.084 S 
ATOM      2  O   LIG d   1       5.541  -3.227  -6.486  0.00  0.00    -0.148 OA
ATOM      3  O   LIG d   1       6.993  -1.348  -7.235  0.00  0.00    -0.148 OA
ENDROOT
BRANCH   1   4
ATOM      4  C   LIG d   1       5.345  -0.959  -5.315  0.00  0.00     0.111 A 
ATOM      5  C   LIG d   1       6.353  -0.507  -4.483  0.00  0.00    -0.035 A 
ATOM      6  C   LIG d   1       6.039   0.193  -3.334  0.00  0.00    -0.057 A 
ATOM      7  H   LIG d   1       7.385  -0.702  -4.732  0.00  0.00     0.064 H 
ATOM      8  C   LIG d   1       4.717   0.442  -3.016  0.00  0.00    -0.050 A 
ATOM      9  H   LIG d   1       6.827   0.545  -2.684  0.00  0.00     0.062 H 
ATOM     10  C   LIG d   1       3.709  -0.009  -3.847  0.00  0.00    -0.057 A 
ATOM     11  C   LIG d   1       4.023  -0.707  -4.999  0.00  0.00    -0.035 A 
ATOM     12  H   LIG d   1       2.676   0.185  -3.599  0.00  0.00     0.062 H 
ATOM     13  H   LIG d   1       3.236  -1.055  -5.651  0.00  0.00     0.064 H 
BRANCH   8  14
ATOM     14  C   LIG d   1       4.374   1.205  -1.762  0.00  0.00    -0.040 C 
ATOM     15  H   LIG d   1       5.292   1.533  -1.274  0.00  0.00     0.028 H 
ATOM     16  H   LIG d   1       3.768   2.074  -2.019  0.00  0.00     0.028 H 
ATOM     17  H   LIG d   1       3.814   0.559  -1.085  0.00  0.00     0.028 H 
ENDBRANCH   8  14
ENDBRANCH   1   4
BRANCH   1  18
ATOM     18  N   LIG d   1       4.622  -1.441  -7.926  0.00  0.00    -0.217 N 
ATOM     19  C   LIG d   1       4.520  -0.206  -8.526  0.00  0.00     0.073 A 
ATOM     20  C   LIG d   1       3.444  -0.273  -9.431  0.00  0.00     0.016 A 
ATOM     21  C   LIG d   1       5.232   0.982  -8.399  0.00  0.00    -0.036 A 
ATOM     22  C   LIG d   1       2.912  -1.634  -9.330  0.00  0.00     0.045 A 
ATOM     23  C   LIG d   1       3.103   0.848 -10.191  0.00  0.00    -0.051 A 
ATOM     24  C   LIG d   1       3.656  -2.279  -8.417  0.00  0.00     0.044 A 
ATOM     25 BR   LIG d   1       1.454  -2.347 -10.300  0.00  0.00    -0.048 Br
ATOM     26  H   LIG d   1       3.514  -3.306  -8.114  0.00  0.00     0.084 H 
ATOM     27  C   LIG d   1       3.818   2.006 -10.050  0.00  0.00    -0.061 A 
ATOM     28  H   LIG d   1       2.279   0.801 -10.886  0.00  0.00     0.062 H 
ATOM     29  C   LIG d   1       4.879   2.076  -9.159  0.00  0.00    -0.060 A 
ATOM     30  H   LIG d   1       3.553   2.872 -10.638  0.00  0.00     0.062 H 
ATOM     31  H   LIG d   1       5.430   2.998  -9.056  0.00  0.00     0.062 H 
ATOM     32  H   LIG d   1       6.059   1.047  -7.708  0.00  0.00     0.064 H 
ENDBRANCH   1  18
TORSDOF 3
ENDMDL
MODEL 6
REMARK VINA RESULT:      -5.9      3.946      6.195
REMARK  3 active torsions:
REMARK  status: ('A' for Active; 'I' for Inactive)
REMARK    1  A    between atoms: C_1  and  C_2 
REMARK    2  A    between atoms: C_5  and  S_8 
REMARK    3  A    between atoms: S_8  and  N_11 
ROOT
ATOM      1  S   LIG d   1       5.182  -3.567  -5.466  0.00  0.00     0.084 S 
ATOM      2  O   LIG d   1       5.354  -2.992  -6.753  0.00  0.00    -0.148 OA
ATOM      3  O   LIG d   1       4.153  -4.505  -5.182  0.00  0.00    -0.148 OA
ENDROOT
BRANCH   1   4
ATOM      4  C   LIG d   1       4.967  -2.228  -4.341  0.00  0.00     0.111 A 
ATOM      5  C   LIG d   1       5.376  -0.956  -4.693  0.00  0.00    -0.035 A 
ATOM      6  C   LIG d   1       5.207   0.094  -3.811  0.00  0.00    -0.057 A 
ATOM      7  H   LIG d   1       5.827  -0.783  -5.659  0.00  0.00     0.064 H 
ATOM      8  C   LIG d   1       4.629  -0.128  -2.575  0.00  0.00    -0.050 A 
ATOM      9  H   LIG d   1       5.527   1.089  -4.087  0.00  0.00     0.062 H 
ATOM     10  C   LIG d   1       4.219  -1.400  -2.222  0.00  0.00    -0.057 A 
ATOM     11  C   LIG d   1       4.385  -2.450  -3.106  0.00  0.00    -0.035 A 
ATOM     12  H   LIG d   1       3.769  -1.573  -1.256  0.00  0.00     0.062 H 
ATOM     13  H   LIG d   1       4.061  -3.443  -2.832  0.00  0.00     0.064 H 
BRANCH   8  14
ATOM     14  C   LIG d   1       4.446   1.017  -1.612  0.00  0.00    -0.040 C 
ATOM     15  H   LIG d   1       5.380   1.573  -1.528  0.00  0.00     0.028 H 
ATOM     16  H   LIG d   1       3.661   1.679  -1.978  0.00  0.00     0.028 H 
ATOM     17  H   LIG d   1       4.166   0.628  -0.632  0.00  0.00     0.028 H 
ENDBRANCH   8  14
ENDBRANCH   1   4
BRANCH   1  18
ATOM     18  N   LIG d   1       6.615  -4.304  -5.081  0.00  0.00    -0.217 N 
ATOM     19  C   LIG d   1       6.958  -5.593  -5.421  0.00  0.00     0.073 A 
ATOM     20  C   LIG d   1       8.246  -5.829  -4.907  0.00  0.00     0.016 A 
ATOM     21  C   LIG d   1       6.307  -6.604  -6.120  0.00  0.00    -0.036 A 
ATOM     22  C   LIG d   1       8.649  -4.590  -4.236  0.00  0.00     0.045 A 
ATOM     23  C   LIG d   1       8.858  -7.069  -5.103  0.00  0.00    -0.051 A 
ATOM     24  C   LIG d   1       7.634  -3.722  -4.374  0.00  0.00     0.044 A 
ATOM     25 BR   LIG d   1      10.286  -4.274  -3.345  0.00  0.00    -0.048 Br
ATOM     26  H   LIG d   1       7.623  -2.714  -3.987  0.00  0.00     0.084 H 
ATOM     27  C   LIG d   1       8.200  -8.048  -5.794  0.00  0.00    -0.061 A 
ATOM     28  H   LIG d   1       9.847  -7.253  -4.710  0.00  0.00     0.062 H 
ATOM     29  C   LIG d   1       6.929  -7.820  -6.302  0.00  0.00    -0.060 A 
ATOM     30  H   LIG d   1       8.674  -9.007  -5.945  0.00  0.00     0.062 H 
ATOM     31  H   LIG d   1       6.421  -8.605  -6.841  0.00  0.00     0.062 H 
ATOM     32  H   LIG d   1       5.318  -6.437  -6.520  0.00  0.00     0.064 H 
ENDBRANCH   1  18
TORSDOF 3
ENDMDL
MODEL 7
REMARK VINA RESULT:      -5.7      4.127      6.548
REMARK  3 active torsions:
REMARK  status: ('A' for Active; 'I' for Inactive)
REMARK    1  A    between atoms: C_1  and  C_2 
REMARK    2  A    between atoms: C_5  and  S_8 
REMARK    3  A    between atoms: S_8  and  N_11 
ROOT
ATOM      1  S   LIG d   1       7.858   1.480  -5.090  0.00  0.00     0.084 S 
ATOM      2  O   LIG d   1       7.803   1.554  -6.508  0.00  0.00    -0.148 OA
ATOM      3  O   LIG d   1       7.347   2.507  -4.253  0.00  0.00    -0.148 OA
ENDROOT
BRANCH   1   4
ATOM      4  C   LIG d   1       9.556   1.280  -4.662  0.00  0.00     0.111 A 
ATOM      5  C   LIG d   1      10.149   2.147  -3.763  0.00  0.00    -0.035 A 
ATOM      6  C   LIG d   1      11.481   1.991  -3.428  0.00  0.00    -0.057 A 
ATOM      7  H   LIG d   1       9.571   2.946  -3.323  0.00  0.00     0.064 H 
ATOM      8  C   LIG d   1      12.219   0.967  -3.992  0.00  0.00    -0.050 A 
ATOM      9  H   LIG d   1      11.944   2.669  -2.726  0.00  0.00     0.062 H 
ATOM     10  C   LIG d   1      11.627   0.100  -4.890  0.00  0.00    -0.057 A 
ATOM     11  C   LIG d   1      10.294   0.254  -5.223  0.00  0.00    -0.035 A 
ATOM     12  H   LIG d   1      12.204  -0.698  -5.331  0.00  0.00     0.062 H 
ATOM     13  H   LIG d   1       9.830  -0.425  -5.922  0.00  0.00     0.064 H 
BRANCH   8  14
ATOM     14  C   LIG d   1      13.672   0.797  -3.627  0.00  0.00    -0.040 C 
ATOM     15  H   LIG d   1      14.063  -0.103  -4.103  0.00  0.00     0.028 H 
ATOM     16  H   LIG d   1      14.237   1.664  -3.970  0.00  0.00     0.028 H 
ATOM     17  H   LIG d   1      13.768   0.706  -2.545  0.00  0.00     0.028 H 
ENDBRANCH   8  14
ENDBRANCH   1   4
BRANCH   1  18
ATOM     18  N   LIG d   1       7.078   0.084  -4.658  0.00  0.00    -0.217 N 
ATOM     19  C   LIG d   1       6.146  -0.022  -3.649  0.00  0.00     0.073 A 
ATOM     20  C   LIG d   1       5.731  -1.366  -3.608  0.00  0.00     0.016 A 
ATOM     21  C   LIG d   1       5.600   0.889  -2.752  0.00  0.00    -0.036 A 
ATOM     22  C   LIG d   1       6.480  -2.055  -4.662  0.00  0.00     0.045 A 
ATOM     23  C   LIG d   1       4.779  -1.772  -2.671  0.00  0.00    -0.051 A 
ATOM     24  C   LIG d   1       7.264  -1.137  -5.250  0.00  0.00     0.044 A 
ATOM     25 BR   LIG d   1       6.363  -3.888  -5.111  0.00  0.00    -0.048 Br
ATOM     26  H   LIG d   1       7.941  -1.332  -6.069  0.00  0.00     0.084 H 
ATOM     27  C   LIG d   1       4.254  -0.860  -1.798  0.00  0.00    -0.061 A 
ATOM     28  H   LIG d   1       4.458  -2.802  -2.636  0.00  0.00     0.062 H 
ATOM     29  C   LIG d   1       4.661   0.467  -1.835  0.00  0.00    -0.060 A 
ATOM     30  H   LIG d   1       3.518  -1.174  -1.074  0.00  0.00     0.062 H 
ATOM     31  H   LIG d   1       4.241   1.174  -1.137  0.00  0.00     0.062 H 
ATOM     32  H   LIG d   1       5.909   1.923  -2.772  0.00  0.00     0.064 H 
ENDBRANCH   1  18
TORSDOF 3
ENDMDL
MODEL 8
REMARK VINA RESULT:      -5.7      3.521      6.761
REMARK  3 active torsions:
REMARK  status: ('A' for Active; 'I' for Inactive)
REMARK    1  A    between atoms: C_1  and  C_2 
REMARK    2  A    between atoms: C_5  and  S_8 
REMARK    3  A    between atoms: S_8  and  N_11 
ROOT
ATOM      1  S   LIG d   1       3.943   0.355  -7.770  0.00  0.00     0.084 S 
ATOM      2  O   LIG d   1       5.271   0.821  -7.969  0.00  0.00    -0.148 OA
ATOM      3  O   LIG d   1       2.812   1.208  -7.883  0.00  0.00    -0.148 OA
ENDROOT
BRANCH   1   4
ATOM      4  C   LIG d   1       3.891  -0.339  -6.152  0.00  0.00     0.111 A 
ATOM      5  C   LIG d   1       2.922   0.069  -5.254  0.00  0.00    -0.035 A 
ATOM      6  C   LIG d   1       2.881  -0.475  -3.985  0.00  0.00    -0.057 A 
ATOM      7  H   LIG d   1       2.196   0.814  -5.547  0.00  0.00     0.064 H 
ATOM      8  C   LIG d   1       3.809  -1.429  -3.612  0.00  0.00    -0.050 A 
ATOM      9  H   LIG d   1       2.123  -0.155  -3.284  0.00  0.00     0.062 H 
ATOM     10  C   LIG d   1       4.778  -1.838  -4.508  0.00  0.00    -0.057 A 
ATOM     11  C   LIG d   1       4.817  -1.296  -5.780  0.00  0.00    -0.035 A 
ATOM     12  H   LIG d   1       5.504  -2.582  -4.217  0.00  0.00     0.062 H 
ATOM     13  H   LIG d   1       5.572  -1.618  -6.482  0.00  0.00     0.064 H 
BRANCH   8  14
ATOM     14  C   LIG d   1       3.766  -2.022  -2.227  0.00  0.00    -0.040 C 
ATOM     15  H   LIG d   1       2.782  -1.849  -1.789  0.00  0.00     0.028 H 
ATOM     16  H   LIG d   1       3.956  -3.094  -2.284  0.00  0.00     0.028 H 
ATOM     17  H   LIG d   1       4.527  -1.550  -1.605  0.00  0.00     0.028 H 
ENDBRANCH   8  14
ENDBRANCH   1   4
BRANCH   1  18
ATOM     18  N   LIG d   1       3.711  -0.885  -8.842  0.00  0.00    -0.217 N 
ATOM     19  C   LIG d   1       3.806  -0.776 -10.212  0.00  0.00     0.073 A 
ATOM     20  C   LIG d   1       3.537  -2.049 -10.749  0.00  0.00     0.016 A 
ATOM     21  C   LIG d   1       4.095   0.279 -11.070  0.00  0.00    -0.036 A 
ATOM     22  C   LIG d   1       3.275  -2.925  -9.605  0.00  0.00     0.045 A 
ATOM     23  C   LIG d   1       3.564  -2.241 -12.132  0.00  0.00    -0.051 A 
ATOM     24  C   LIG d   1       3.393  -2.173  -8.499  0.00  0.00     0.044 A 
ATOM     25 BR   LIG d   1       2.851  -4.767  -9.672  0.00  0.00    -0.048 Br
ATOM     26  H   LIG d   1       3.259  -2.530  -7.488  0.00  0.00     0.084 H 
ATOM     27  C   LIG d   1       3.850  -1.189 -12.957  0.00  0.00    -0.061 A 
ATOM     28  H   LIG d   1       3.358  -3.216 -12.548  0.00  0.00     0.062 H 
ATOM     29  C   LIG d   1       4.116   0.068 -12.432  0.00  0.00    -0.060 A 
ATOM     30  H   LIG d   1       3.871  -1.338 -14.026  0.00  0.00     0.062 H 
ATOM     31  H   LIG d   1       4.336   0.889 -13.096  0.00  0.00     0.062 H 
ATOM     32  H   LIG d   1       4.303   1.261 -10.671  0.00  0.00     0.064 H 
ENDBRANCH   1  18
TORSDOF 3
ENDMDL
MODEL 9
REMARK VINA RESULT:      -5.5      2.794      5.471
REMARK  3 active torsions:
REMARK  status: ('A' for Active; 'I' for Inactive)
REMARK    1  A    between atoms: C_1  and  C_2 
REMARK    2  A    between atoms: C_5  and  S_8 
REMARK    3  A    between atoms: S_8  and  N_11 
ROOT
ATOM      1  S   LIG d   1       4.697  -1.619  -6.094  0.00  0.00     0.084 S 
ATOM      2  O   LIG d   1       3.870  -0.992  -5.124  0.00  0.00    -0.148 OA
ATOM      3  O   LIG d   1       4.218  -2.638  -6.961  0.00  0.00    -0.148 OA
ENDROOT
BRANCH   1   4
ATOM      4  C   LIG d   1       6.067  -2.302  -5.222  0.00  0.00     0.111 A 
ATOM      5  C   LIG d   1       6.455  -1.762  -4.010  0.00  0.00    -0.035 A 
ATOM      6  C   LIG d   1       7.530  -2.297  -3.326  0.00  0.00    -0.057 A 
ATOM      7  H   LIG d   1       5.917  -0.920  -3.598  0.00  0.00     0.064 H 
ATOM      8  C   LIG d   1       8.217  -3.375  -3.854  0.00  0.00    -0.050 A 
ATOM      9  H   LIG d   1       7.833  -1.875  -2.379  0.00  0.00     0.062 H 
ATOM     10  C   LIG d   1       7.830  -3.916  -5.065  0.00  0.00    -0.057 A 
ATOM     11  C   LIG d   1       6.752  -3.382  -5.748  0.00  0.00    -0.035 A 
ATOM     12  H   LIG d   1       8.367  -4.757  -5.478  0.00  0.00     0.062 H 
ATOM     13  H   LIG d   1       6.447  -3.807  -6.692  0.00  0.00     0.064 H 
BRANCH   8  14
ATOM     14  C   LIG d   1       9.390  -3.959  -3.109  0.00  0.00    -0.040 C 
ATOM     15  H   LIG d   1      10.228  -3.262  -3.149  0.00  0.00     0.028 H 
ATOM     16  H   LIG d   1       9.111  -4.133  -2.070  0.00  0.00     0.028 H 
ATOM     17  H   LIG d   1       9.681  -4.903  -3.571  0.00  0.00     0.028 H 
ENDBRANCH   8  14
ENDBRANCH   1   4
BRANCH   1  18
ATOM     18  N   LIG d   1       5.287  -0.412  -7.063  0.00  0.00    -0.217 N 
ATOM     19  C   LIG d   1       4.519   0.422  -7.845  0.00  0.00     0.073 A 
ATOM     20  C   LIG d   1       5.400   1.298  -8.506  0.00  0.00     0.016 A 
ATOM     21  C   LIG d   1       3.151   0.533  -8.068  0.00  0.00    -0.036 A 
ATOM     22  C   LIG d   1       6.747   0.929  -8.065  0.00  0.00     0.045 A 
ATOM     23  C   LIG d   1       4.896   2.266  -9.377  0.00  0.00    -0.051 A 
ATOM     24  C   LIG d   1       6.612  -0.095  -7.208  0.00  0.00     0.044 A 
ATOM     25 BR   LIG d   1       8.369   1.741  -8.601  0.00  0.00    -0.048 Br
ATOM     26  H   LIG d   1       7.427  -0.596  -6.705  0.00  0.00     0.084 H 
ATOM     27  C   LIG d   1       3.547   2.358  -9.582  0.00  0.00    -0.061 A 
ATOM     28  H   LIG d   1       5.568   2.940  -9.886  0.00  0.00     0.062 H 
ATOM     29  C   LIG d   1       2.675   1.496  -8.931  0.00  0.00    -0.060 A 
ATOM     30  H   LIG d   1       3.158   3.107 -10.255  0.00  0.00     0.062 H 
ATOM     31  H   LIG d   1       1.613   1.578  -9.107  0.00  0.00     0.062 H 
ATOM     32  H   LIG d   1       2.464  -0.132  -7.568  0.00  0.00     0.064 H 
ENDBRANCH   1  18
TORSDOF 3
ENDMDL
