MODEL 1
REMARK VINA RESULT:      -7.2      0.000      0.000
REMARK  4 active torsions:
REMARK  status: ('A' for Active; 'I' for Inactive)
REMARK    1  A    between atoms: C_1  and  C_2 
REMARK    2  A    between atoms: C_3  and  C_26 
REMARK    3  A    between atoms: C_12  and  C_13 
REMARK    4  A    between atoms: N_16  and  C_18 
ROOT
ATOM      1  C   LIG d   1      10.943   5.042  -3.563  0.00  0.00    -0.030 A 
ATOM      2  C   LIG d   1      11.751   5.852  -4.298  0.00  0.00     0.037 A 
ATOM      3  C   LIG d   1      11.730   5.766  -5.703  0.00  0.00     0.340 A 
ATOM      4  O   LIG d   1      12.462   6.500  -6.343  0.00  0.00    -0.245 OA
ATOM      5  O   LIG d   1      10.942   4.913  -6.366  0.00  0.00    -0.422 OA
ATOM      6  C   LIG d   1      10.120   4.085  -5.692  0.00  0.00     0.146 A 
ATOM      7  C   LIG d   1      10.074   4.110  -4.286  0.00  0.00     0.022 A 
ATOM      8  C   LIG d   1       9.222   3.242  -3.597  0.00  0.00    -0.043 A 
ATOM      9  C   LIG d   1       8.422   2.376  -4.288  0.00  0.00     0.013 A 
ATOM     10  C   LIG d   1       8.455   2.350  -5.680  0.00  0.00     0.134 A 
ATOM     11  C   LIG d   1       9.302   3.199  -6.378  0.00  0.00     0.035 A 
ATOM     12  O   LIG d   1       7.661   1.495  -6.378  0.00  0.00    -0.473 OA
ATOM     13  C   LIG d   1       7.085   0.404  -5.654  0.00  0.00     0.157 C 
ATOM     14  N   LIG d   1       6.471   0.928  -4.424  0.00  0.00    -0.293 NA
ATOM     15  C   LIG d   1       7.507   1.452  -3.523  0.00  0.00     0.044 C 
ATOM     16  H   LIG d   1       9.191   3.260  -2.517  0.00  0.00     0.063 H 
ATOM     17  H   LIG d   1       7.863  -0.315  -5.397  0.00  0.00     0.091 H 
ATOM     18  H   LIG d   1       6.324  -0.082  -6.265  0.00  0.00     0.091 H 
ATOM     19  H   LIG d   1       8.087   0.624  -3.116  0.00  0.00     0.051 H 
ATOM     20  H   LIG d   1       7.036   2.001  -2.708  0.00  0.00     0.051 H 
ENDROOT
BRANCH  14  21
ATOM     21  C   LIG d   1       5.705  -0.054  -3.789  0.00  0.00     0.035 A 
ATOM     22  C   LIG d   1       5.565  -1.308  -4.368  0.00  0.00    -0.002 A 
ATOM     23  C   LIG d   1       4.810  -2.280  -3.736  0.00  0.00     0.160 A 
ATOM     24  H   LIG d   1       6.046  -1.526  -5.310  0.00  0.00     0.067 H 
ATOM     25  C   LIG d   1       4.186  -1.998  -2.529  0.00  0.00     0.159 A 
ATOM     26  F   LIG d   1       4.676  -3.502  -4.296  0.00  0.00    -0.202 F 
ATOM     27  C   LIG d   1       4.322  -0.746  -1.954  0.00  0.00    -0.022 A 
ATOM     28  F   LIG d   1       3.446  -2.946  -1.915  0.00  0.00    -0.203 F 
ATOM     29  C   LIG d   1       5.080   0.224  -2.580  0.00  0.00    -0.038 A 
ATOM     30  H   LIG d   1       3.837  -0.529  -1.015  0.00  0.00     0.065 H 
ATOM     31  H   LIG d   1       5.185   1.201  -2.131  0.00  0.00     0.064 H 
ENDBRANCH  14  21
BRANCH  11  32
ATOM     32  C   LIG d   1       9.331   3.160  -7.884  0.00  0.00    -0.033 C 
ATOM     33  H   LIG d   1      10.308   2.811  -8.220  0.00  0.00     0.028 H 
ATOM     34  H   LIG d   1       8.560   2.481  -8.245  0.00  0.00     0.028 H 
ATOM     35  H   LIG d   1       9.149   4.160  -8.278  0.00  0.00     0.028 H 
ENDBRANCH  11  32
BRANCH   1  36
ATOM     36  C   LIG d   1      10.936   5.105  -2.058  0.00  0.00    -0.039 C 
ATOM     37  H   LIG d   1      10.669   4.129  -1.654  0.00  0.00     0.028 H 
ATOM     38  H   LIG d   1      11.926   5.388  -1.701  0.00  0.00     0.028 H 
ATOM     39  H   LIG d   1      10.207   5.846  -1.728  0.00  0.00     0.028 H 
ENDBRANCH   1  36
BRANCH   2  40
ATOM     40  C   LIG d   1      12.663   6.836  -3.612  0.00  0.00    -0.033 C 
ATOM     41  H   LIG d   1      13.170   6.344  -2.782  0.00  0.00     0.028 H 
ATOM     42  H   LIG d   1      13.402   7.202  -4.323  0.00  0.00     0.028 H 
ATOM     43  H   LIG d   1      12.075   7.673  -3.234  0.00  0.00     0.028 H 
ENDBRANCH   2  40
TORSDOF 4
ENDMDL
MODEL 2
REMARK VINA RESULT:      -6.4      5.158      7.699
REMARK  4 active torsions:
REMARK  status: ('A' for Active; 'I' for Inactive)
REMARK    1  A    between atoms: C_1  and  C_2 
REMARK    2  A    between atoms: C_3  and  C_26 
REMARK    3  A    between atoms: C_12  and  C_13 
REMARK    4  A    between atoms: N_16  and  C_18 
ROOT
ATOM      1  C   LIG d   1       9.588   6.438  -8.361  0.00  0.00    -0.030 A 
ATOM      2  C   LIG d   1       9.321   5.651  -9.437  0.00  0.00     0.037 A 
ATOM      3  C   LIG d   1       9.155   4.263  -9.261  0.00  0.00     0.340 A 
ATOM      4  O   LIG d   1       8.916   3.576 -10.238  0.00  0.00    -0.245 OA
ATOM      5  O   LIG d   1       9.251   3.667  -8.068  0.00  0.00    -0.422 OA
ATOM      6  C   LIG d   1       9.514   4.394  -6.965  0.00  0.00     0.146 A 
ATOM      7  C   LIG d   1       9.687   5.788  -7.051  0.00  0.00     0.022 A 
ATOM      8  C   LIG d   1       9.967   6.532  -5.901  0.00  0.00    -0.043 A 
ATOM      9  C   LIG d   1      10.061   5.909  -4.688  0.00  0.00     0.013 A 
ATOM     10  C   LIG d   1       9.884   4.531  -4.593  0.00  0.00     0.134 A 
ATOM     11  C   LIG d   1       9.614   3.778  -5.726  0.00  0.00     0.035 A 
ATOM     12  O   LIG d   1       9.972   3.901  -3.391  0.00  0.00    -0.473 OA
ATOM     13  C   LIG d   1      10.597   4.619  -2.324  0.00  0.00     0.157 C 
ATOM     14  N   LIG d   1      10.011   5.967  -2.256  0.00  0.00    -0.293 NA
ATOM     15  C   LIG d   1      10.360   6.733  -3.461  0.00  0.00     0.044 C 
ATOM     16  H   LIG d   1      10.104   7.602  -5.970  0.00  0.00     0.063 H 
ATOM     17  H   LIG d   1      11.669   4.695  -2.514  0.00  0.00     0.091 H 
ATOM     18  H   LIG d   1      10.429   4.098  -1.381  0.00  0.00     0.091 H 
ATOM     19  H   LIG d   1      11.421   6.980  -3.439  0.00  0.00     0.051 H 
ATOM     20  H   LIG d   1       9.774   7.652  -3.489  0.00  0.00     0.051 H 
ENDROOT
BRANCH  14  21
ATOM     21  C   LIG d   1      10.424   6.635  -1.100  0.00  0.00     0.035 A 
ATOM     22  C   LIG d   1      10.638   5.926   0.074  0.00  0.00    -0.002 A 
ATOM     23  C   LIG d   1      11.050   6.589   1.216  0.00  0.00     0.160 A 
ATOM     24  H   LIG d   1      10.484   4.857   0.095  0.00  0.00     0.067 H 
ATOM     25  C   LIG d   1      11.241   7.962   1.190  0.00  0.00     0.159 A 
ATOM     26  F   LIG d   1      11.263   5.898   2.358  0.00  0.00    -0.202 F 
ATOM     27  C   LIG d   1      11.023   8.670   0.021  0.00  0.00    -0.022 A 
ATOM     28  F   LIG d   1      11.640   8.609   2.307  0.00  0.00    -0.203 F 
ATOM     29  C   LIG d   1      10.616   8.011  -1.122  0.00  0.00    -0.038 A 
ATOM     30  H   LIG d   1      11.172   9.739   0.003  0.00  0.00     0.065 H 
ATOM     31  H   LIG d   1      10.446   8.565  -2.034  0.00  0.00     0.064 H 
ENDBRANCH  14  21
BRANCH  11  32
ATOM     32  C   LIG d   1       9.426   2.287  -5.611  0.00  0.00    -0.033 C 
ATOM     33  H   LIG d   1       8.929   1.913  -6.506  0.00  0.00     0.028 H 
ATOM     34  H   LIG d   1      10.398   1.805  -5.509  0.00  0.00     0.028 H 
ATOM     35  H   LIG d   1       8.816   2.063  -4.737  0.00  0.00     0.028 H 
ENDBRANCH  11  32
BRANCH   1  36
ATOM     36  C   LIG d   1       9.770   7.926  -8.508  0.00  0.00    -0.039 C 
ATOM     37  H   LIG d   1      10.753   8.131  -8.933  0.00  0.00     0.028 H 
ATOM     38  H   LIG d   1       8.999   8.323  -9.168  0.00  0.00     0.028 H 
ATOM     39  H   LIG d   1       9.690   8.401  -7.530  0.00  0.00     0.028 H 
ENDBRANCH   1  36
BRANCH   2  40
ATOM     40  C   LIG d   1       9.200   6.261 -10.809  0.00  0.00    -0.033 C 
ATOM     41  H   LIG d   1       8.166   6.559 -10.985  0.00  0.00     0.028 H 
ATOM     42  H   LIG d   1       9.847   7.135 -10.876  0.00  0.00     0.028 H 
ATOM     43  H   LIG d   1       9.499   5.528 -11.560  0.00  0.00     0.028 H 
ENDBRANCH   2  40
TORSDOF 4
ENDMDL
MODEL 3
REMARK VINA RESULT:      -6.4      1.426      1.980
REMARK  4 active torsions:
REMARK  status: ('A' for Active; 'I' for Inactive)
REMARK    1  A    between atoms: C_1  and  C_2 
REMARK    2  A    between atoms: C_3  and  C_26 
REMARK    3  A    between atoms: C_12  and  C_13 
REMARK    4  A    between atoms: N_16  and  C_18 
ROOT
ATOM      1  C   LIG d   1      10.747   6.307  -5.068  0.00  0.00    -0.030 A 
ATOM      2  C   LIG d   1      11.585   6.948  -5.926  0.00  0.00     0.037 A 
ATOM      3  C   LIG d   1      11.914   6.348  -7.157  0.00  0.00     0.340 A 
ATOM      4  O   LIG d   1      12.666   6.939  -7.911  0.00  0.00    -0.245 OA
ATOM      5  O   LIG d   1      11.437   5.157  -7.533  0.00  0.00    -0.422 OA
ATOM      6  C   LIG d   1      10.603   4.473  -6.726  0.00  0.00     0.146 A 
ATOM      7  C   LIG d   1      10.218   5.004  -5.480  0.00  0.00     0.022 A 
ATOM      8  C   LIG d   1       9.358   4.283  -4.647  0.00  0.00    -0.043 A 
ATOM      9  C   LIG d   1       8.878   3.067  -5.046  0.00  0.00     0.013 A 
ATOM     10  C   LIG d   1       9.247   2.538  -6.279  0.00  0.00     0.134 A 
ATOM     11  C   LIG d   1      10.107   3.238  -7.114  0.00  0.00     0.035 A 
ATOM     12  O   LIG d   1       8.773   1.331  -6.688  0.00  0.00    -0.473 OA
ATOM     13  C   LIG d   1       8.202   0.484  -5.688  0.00  0.00     0.157 C 
ATOM     14  N   LIG d   1       7.242   1.272  -4.896  0.00  0.00    -0.293 NA
ATOM     15  C   LIG d   1       7.947   2.310  -4.131  0.00  0.00     0.044 C 
ATOM     16  H   LIG d   1       9.067   4.690  -3.689  0.00  0.00     0.063 H 
ATOM     17  H   LIG d   1       8.989   0.105  -5.035  0.00  0.00     0.091 H 
ATOM     18  H   LIG d   1       7.686  -0.351  -6.162  0.00  0.00     0.091 H 
ATOM     19  H   LIG d   1       8.524   1.843  -3.333  0.00  0.00     0.051 H 
ATOM     20  H   LIG d   1       7.221   2.999  -3.700  0.00  0.00     0.051 H 
ENDROOT
BRANCH  14  21
ATOM     21  C   LIG d   1       6.494   0.448  -4.051  0.00  0.00     0.035 A 
ATOM     22  C   LIG d   1       5.725   1.006  -3.039  0.00  0.00    -0.002 A 
ATOM     23  C   LIG d   1       4.982   0.188  -2.206  0.00  0.00     0.160 A 
ATOM     24  H   LIG d   1       5.705   2.077  -2.903  0.00  0.00     0.067 H 
ATOM     25  C   LIG d   1       5.013  -1.187  -2.376  0.00  0.00     0.159 A 
ATOM     26  F   LIG d   1       4.229   0.731  -1.223  0.00  0.00    -0.202 F 
ATOM     27  C   LIG d   1       5.784  -1.744  -3.382  0.00  0.00    -0.022 A 
ATOM     28  F   LIG d   1       4.290  -1.985  -1.560  0.00  0.00    -0.203 F 
ATOM     29  C   LIG d   1       6.522  -0.931  -4.219  0.00  0.00    -0.038 A 
ATOM     30  H   LIG d   1       5.806  -2.816  -3.514  0.00  0.00     0.065 H 
ATOM     31  H   LIG d   1       7.124  -1.366  -5.003  0.00  0.00     0.064 H 
ENDBRANCH  14  21
BRANCH  11  32
ATOM     32  C   LIG d   1      10.502   2.654  -8.446  0.00  0.00    -0.033 C 
ATOM     33  H   LIG d   1      11.354   1.987  -8.313  0.00  0.00     0.028 H 
ATOM     34  H   LIG d   1       9.664   2.093  -8.860  0.00  0.00     0.028 H 
ATOM     35  H   LIG d   1      10.774   3.458  -9.130  0.00  0.00     0.028 H 
ENDBRANCH  11  32
BRANCH   1  36
ATOM     36  C   LIG d   1      10.371   6.917  -3.743  0.00  0.00    -0.039 C 
ATOM     37  H   LIG d   1      10.089   7.960  -3.890  0.00  0.00     0.028 H 
ATOM     38  H   LIG d   1       9.531   6.370  -3.316  0.00  0.00     0.028 H 
ATOM     39  H   LIG d   1      11.222   6.863  -3.064  0.00  0.00     0.028 H 
ENDBRANCH   1  36
BRANCH   2  40
ATOM     40  C   LIG d   1      12.157   8.294  -5.562  0.00  0.00    -0.033 C 
ATOM     41  H   LIG d   1      11.592   8.715  -4.730  0.00  0.00     0.028 H 
ATOM     42  H   LIG d   1      13.200   8.178  -5.271  0.00  0.00     0.028 H 
ATOM     43  H   LIG d   1      12.090   8.961  -6.421  0.00  0.00     0.028 H 
ENDBRANCH   2  40
TORSDOF 4
ENDMDL
MODEL 4
REMARK VINA RESULT:      -6.1      3.261      5.156
REMARK  4 active torsions:
REMARK  status: ('A' for Active; 'I' for Inactive)
REMARK    1  A    between atoms: C_1  and  C_2 
REMARK    2  A    between atoms: C_3  and  C_26 
REMARK    3  A    between atoms: C_12  and  C_13 
REMARK    4  A    between atoms: N_16  and  C_18 
ROOT
ATOM      1  C   LIG d   1      11.012   7.211   0.257  0.00  0.00    -0.030 A 
ATOM      2  C   LIG d   1      11.316   8.505   0.539  0.00  0.00     0.037 A 
ATOM      3  C   LIG d   1      11.254   9.474  -0.481  0.00  0.00     0.340 A 
ATOM      4  O   LIG d   1      11.530  10.628  -0.208  0.00  0.00    -0.245 OA
ATOM      5  O   LIG d   1      10.906   9.181  -1.739  0.00  0.00    -0.422 OA
ATOM      6  C   LIG d   1      10.594   7.915  -2.079  0.00  0.00     0.146 A 
ATOM      7  C   LIG d   1      10.625   6.887  -1.119  0.00  0.00     0.022 A 
ATOM      8  C   LIG d   1      10.306   5.576  -1.484  0.00  0.00    -0.043 A 
ATOM      9  C   LIG d   1       9.952   5.292  -2.774  0.00  0.00     0.013 A 
ATOM     10  C   LIG d   1       9.911   6.304  -3.729  0.00  0.00     0.134 A 
ATOM     11  C   LIG d   1      10.233   7.609  -3.383  0.00  0.00     0.035 A 
ATOM     12  O   LIG d   1       9.556   6.033  -5.013  0.00  0.00    -0.473 OA
ATOM     13  C   LIG d   1       9.587   4.663  -5.422  0.00  0.00     0.157 C 
ATOM     14  N   LIG d   1       8.875   3.857  -4.417  0.00  0.00    -0.293 NA
ATOM     15  C   LIG d   1       9.608   3.870  -3.144  0.00  0.00     0.044 C 
ATOM     16  H   LIG d   1      10.335   4.787  -0.747  0.00  0.00     0.063 H 
ATOM     17  H   LIG d   1      10.622   4.326  -5.495  0.00  0.00     0.091 H 
ATOM     18  H   LIG d   1       9.098   4.557  -6.390  0.00  0.00     0.091 H 
ATOM     19  H   LIG d   1      10.525   3.291  -3.247  0.00  0.00     0.051 H 
ATOM     20  H   LIG d   1       8.987   3.432  -2.362  0.00  0.00     0.051 H 
ENDROOT
BRANCH  14  21
ATOM     21  C   LIG d   1       8.682   2.548  -4.870  0.00  0.00     0.035 A 
ATOM     22  C   LIG d   1       8.150   1.590  -4.019  0.00  0.00    -0.002 A 
ATOM     23  C   LIG d   1       7.956   0.296  -4.471  0.00  0.00     0.160 A 
ATOM     24  H   LIG d   1       7.885   1.853  -3.006  0.00  0.00     0.067 H 
ATOM     25  C   LIG d   1       8.302  -0.044  -5.770  0.00  0.00     0.159 A 
ATOM     26  F   LIG d   1       7.434  -0.637  -3.645  0.00  0.00    -0.202 F 
ATOM     27  C   LIG d   1       8.838   0.911  -6.618  0.00  0.00    -0.022 A 
ATOM     28  F   LIG d   1       8.116  -1.308  -6.209  0.00  0.00    -0.203 F 
ATOM     29  C   LIG d   1       9.027   2.204  -6.171  0.00  0.00    -0.038 A 
ATOM     30  H   LIG d   1       9.106   0.645  -7.629  0.00  0.00     0.065 H 
ATOM     31  H   LIG d   1       9.446   2.948  -6.833  0.00  0.00     0.064 H 
ENDBRANCH  14  21
BRANCH  11  32
ATOM     32  C   LIG d   1      10.188   8.695  -4.426  0.00  0.00    -0.033 C 
ATOM     33  H   LIG d   1      10.321   8.256  -5.415  0.00  0.00     0.028 H 
ATOM     34  H   LIG d   1       9.224   9.202  -4.381  0.00  0.00     0.028 H 
ATOM     35  H   LIG d   1      10.986   9.414  -4.238  0.00  0.00     0.028 H 
ENDBRANCH  11  32
BRANCH   1  36
ATOM     36  C   LIG d   1      11.066   6.147   1.322  0.00  0.00    -0.039 C 
ATOM     37  H   LIG d   1      12.030   5.639   1.279  0.00  0.00     0.028 H 
ATOM     38  H   LIG d   1      10.941   6.606   2.302  0.00  0.00     0.028 H 
ATOM     39  H   LIG d   1      10.268   5.424   1.155  0.00  0.00     0.028 H 
ENDBRANCH   1  36
BRANCH   2  40
ATOM     40  C   LIG d   1      11.716   8.902   1.937  0.00  0.00    -0.033 C 
ATOM     41  H   LIG d   1      12.613   8.354   2.228  0.00  0.00     0.028 H 
ATOM     42  H   LIG d   1      11.917   9.972   1.967  0.00  0.00     0.028 H 
ATOM     43  H   LIG d   1      10.906   8.665   2.627  0.00  0.00     0.028 H 
ENDBRANCH   2  40
TORSDOF 4
ENDMDL
MODEL 5
REMARK VINA RESULT:      -6.1      5.823      8.609
REMARK  4 active torsions:
REMARK  status: ('A' for Active; 'I' for Inactive)
REMARK    1  A    between atoms: C_1  and  C_2 
REMARK    2  A    between atoms: C_3  and  C_26 
REMARK    3  A    between atoms: C_12  and  C_13 
REMARK    4  A    between atoms: N_16  and  C_18 
ROOT
ATOM      1  C   LIG d   1       9.721   5.539  -7.482  0.00  0.00    -0.030 A 
ATOM      2  C   LIG d   1       9.487   4.445  -8.253  0.00  0.00     0.037 A 
ATOM      3  C   LIG d   1       9.331   3.184  -7.645  0.00  0.00     0.340 A 
ATOM      4  O   LIG d   1       9.122   2.216  -8.354  0.00  0.00    -0.245 OA
ATOM      5  O   LIG d   1       9.404   3.004  -6.322  0.00  0.00    -0.422 OA
ATOM      6  C   LIG d   1       9.634   4.051  -5.505  0.00  0.00     0.146 A 
ATOM      7  C   LIG d   1       9.795   5.346  -6.031  0.00  0.00     0.022 A 
ATOM      8  C   LIG d   1      10.040   6.424  -5.176  0.00  0.00    -0.043 A 
ATOM      9  C   LIG d   1      10.111   6.224  -3.825  0.00  0.00     0.013 A 
ATOM     10  C   LIG d   1       9.945   4.947  -3.296  0.00  0.00     0.134 A 
ATOM     11  C   LIG d   1       9.709   3.866  -4.133  0.00  0.00     0.035 A 
ATOM     12  O   LIG d   1      10.010   4.738  -1.954  0.00  0.00    -0.473 OA
ATOM     13  C   LIG d   1      10.603   5.769  -1.162  0.00  0.00     0.157 C 
ATOM     14  N   LIG d   1      10.002   7.058  -1.542  0.00  0.00    -0.293 NA
ATOM     15  C   LIG d   1      10.372   7.404  -2.922  0.00  0.00     0.044 C 
ATOM     16  H   LIG d   1      10.168   7.417  -5.581  0.00  0.00     0.063 H 
ATOM     17  H   LIG d   1      11.677   5.799  -1.345  0.00  0.00     0.091 H 
ATOM     18  H   LIG d   1      10.417   5.576  -0.106  0.00  0.00     0.091 H 
ATOM     19  H   LIG d   1      11.430   7.662  -2.959  0.00  0.00     0.051 H 
ATOM     20  H   LIG d   1       9.778   8.255  -3.255  0.00  0.00     0.051 H 
ENDROOT
BRANCH  14  21
ATOM     21  C   LIG d   1      10.380   8.069  -0.654  0.00  0.00     0.035 A 
ATOM     22  C   LIG d   1       9.996   9.382  -0.891  0.00  0.00    -0.002 A 
ATOM     23  C   LIG d   1      10.369  10.380  -0.008  0.00  0.00     0.160 A 
ATOM     24  H   LIG d   1       9.406   9.624  -1.762  0.00  0.00     0.067 H 
ATOM     25  C   LIG d   1      11.132  10.070   1.107  0.00  0.00     0.159 A 
ATOM     26  F   LIG d   1       9.992  11.658  -0.235  0.00  0.00    -0.202 F 
ATOM     27  C   LIG d   1      11.520   8.762   1.341  0.00  0.00    -0.022 A 
ATOM     28  F   LIG d   1      11.499  11.046   1.967  0.00  0.00    -0.203 F 
ATOM     29  C   LIG d   1      11.145   7.762   0.464  0.00  0.00    -0.038 A 
ATOM     30  H   LIG d   1      12.114   8.523   2.210  0.00  0.00     0.065 H 
ATOM     31  H   LIG d   1      11.448   6.742   0.647  0.00  0.00     0.064 H 
ENDBRANCH  14  21
BRANCH  11  32
ATOM     32  C   LIG d   1       9.534   2.488  -3.549  0.00  0.00    -0.033 C 
ATOM     33  H   LIG d   1       8.550   2.413  -3.083  0.00  0.00     0.028 H 
ATOM     34  H   LIG d   1       9.617   1.744  -4.341  0.00  0.00     0.028 H 
ATOM     35  H   LIG d   1      10.304   2.309  -2.799  0.00  0.00     0.028 H 
ENDBRANCH  11  32
BRANCH   1  36
ATOM     36  C   LIG d   1       9.892   6.904  -8.096  0.00  0.00    -0.039 C 
ATOM     37  H   LIG d   1       8.923   7.401  -8.151  0.00  0.00     0.028 H 
ATOM     38  H   LIG d   1      10.570   7.497  -7.482  0.00  0.00     0.028 H 
ATOM     39  H   LIG d   1      10.305   6.802  -9.099  0.00  0.00     0.028 H 
ENDBRANCH   1  36
BRANCH   2  40
ATOM     40  C   LIG d   1       9.394   4.580  -9.751  0.00  0.00    -0.033 C 
ATOM     41  H   LIG d   1       9.643   5.601 -10.040  0.00  0.00     0.028 H 
ATOM     42  H   LIG d   1      10.091   3.888 -10.222  0.00  0.00     0.028 H 
ATOM     43  H   LIG d   1       8.378   4.349 -10.074  0.00  0.00     0.028 H 
ENDBRANCH   2  40
TORSDOF 4
ENDMDL
MODEL 6
REMARK VINA RESULT:      -6.1      5.514      8.133
REMARK  4 active torsions:
REMARK  status: ('A' for Active; 'I' for Inactive)
REMARK    1  A    between atoms: C_1  and  C_2 
REMARK    2  A    between atoms: C_3  and  C_26 
REMARK    3  A    between atoms: C_12  and  C_13 
REMARK    4  A    between atoms: N_16  and  C_18 
ROOT
ATOM      1  C   LIG d   1       9.551   3.957  -7.317  0.00  0.00    -0.030 A 
ATOM      2  C   LIG d   1       9.285   4.019  -8.649  0.00  0.00     0.037 A 
ATOM      3  C   LIG d   1       9.162   5.275  -9.276  0.00  0.00     0.340 A 
ATOM      4  O   LIG d   1       8.924   5.310 -10.470  0.00  0.00    -0.245 OA
ATOM      5  O   LIG d   1       9.294   6.431  -8.617  0.00  0.00    -0.422 OA
ATOM      6  C   LIG d   1       9.557   6.432  -7.295  0.00  0.00     0.146 A 
ATOM      7  C   LIG d   1       9.702   5.221  -6.593  0.00  0.00     0.022 A 
ATOM      8  C   LIG d   1       9.969   5.234  -5.221  0.00  0.00    -0.043 A 
ATOM      9  C   LIG d   1      10.101   6.424  -4.560  0.00  0.00     0.013 A 
ATOM     10  C   LIG d   1       9.967   7.626  -5.249  0.00  0.00     0.134 A 
ATOM     11  C   LIG d   1       9.694   7.630  -6.609  0.00  0.00     0.035 A 
ATOM     12  O   LIG d   1      10.101   8.815  -4.602  0.00  0.00    -0.473 OA
ATOM     13  C   LIG d   1      10.017   8.794  -3.176  0.00  0.00     0.157 C 
ATOM     14  N   LIG d   1      10.898   7.730  -2.668  0.00  0.00    -0.293 NA
ATOM     15  C   LIG d   1      10.393   6.413  -3.080  0.00  0.00     0.044 C 
ATOM     16  H   LIG d   1      10.075   4.304  -4.682  0.00  0.00     0.063 H 
ATOM     17  H   LIG d   1       8.989   8.592  -2.873  0.00  0.00     0.091 H 
ATOM     18  H   LIG d   1      10.334   9.756  -2.773  0.00  0.00     0.091 H 
ATOM     19  H   LIG d   1       9.478   6.188  -2.532  0.00  0.00     0.051 H 
ATOM     20  H   LIG d   1      11.143   5.652  -2.864  0.00  0.00     0.051 H 
ENDROOT
BRANCH  14  21
ATOM     21  C   LIG d   1      11.026   7.805  -1.278  0.00  0.00     0.035 A 
ATOM     22  C   LIG d   1      10.896   6.659  -0.506  0.00  0.00    -0.002 A 
ATOM     23  C   LIG d   1      11.027   6.736   0.870  0.00  0.00     0.160 A 
ATOM     24  H   LIG d   1      10.696   5.709  -0.977  0.00  0.00     0.067 H 
ATOM     25  C   LIG d   1      11.278   7.957   1.476  0.00  0.00     0.159 A 
ATOM     26  F   LIG d   1      10.906   5.620   1.623  0.00  0.00    -0.202 F 
ATOM     27  C   LIG d   1      11.402   9.101   0.706  0.00  0.00    -0.022 A 
ATOM     28  F   LIG d   1      11.402   8.031   2.819  0.00  0.00    -0.203 F 
ATOM     29  C   LIG d   1      11.278   9.027  -0.668  0.00  0.00    -0.038 A 
ATOM     30  H   LIG d   1      11.598  10.051   1.180  0.00  0.00     0.065 H 
ATOM     31  H   LIG d   1      11.374   9.920  -1.268  0.00  0.00     0.064 H 
ENDBRANCH  14  21
BRANCH  11  32
ATOM     32  C   LIG d   1       9.549   8.938  -7.343  0.00  0.00    -0.033 C 
ATOM     33  H   LIG d   1       8.566   8.983  -7.815  0.00  0.00     0.028 H 
ATOM     34  H   LIG d   1       9.651   9.763  -6.639  0.00  0.00     0.028 H 
ATOM     35  H   LIG d   1      10.322   9.014  -8.108  0.00  0.00     0.028 H 
ENDBRANCH  11  32
BRANCH   1  36
ATOM     36  C   LIG d   1       9.691   2.633  -6.612  0.00  0.00    -0.039 C 
ATOM     37  H   LIG d   1      10.095   1.893  -7.304  0.00  0.00     0.028 H 
ATOM     38  H   LIG d   1      10.366   2.743  -5.763  0.00  0.00     0.028 H 
ATOM     39  H   LIG d   1       8.714   2.304  -6.259  0.00  0.00     0.028 H 
ENDBRANCH   1  36
BRANCH   2  40
ATOM     40  C   LIG d   1       9.125   2.754  -9.450  0.00  0.00    -0.033 C 
ATOM     41  H   LIG d   1       9.438   1.900  -8.847  0.00  0.00     0.028 H 
ATOM     42  H   LIG d   1       8.081   2.634  -9.735  0.00  0.00     0.028 H 
ATOM     43  H   LIG d   1       9.743   2.811 -10.347  0.00  0.00     0.028 H 
ENDBRANCH   2  40
TORSDOF 4
ENDMDL
MODEL 7
REMARK VINA RESULT:      -6.0      1.680      3.770
REMARK  4 active torsions:
REMARK  status: ('A' for Active; 'I' for Inactive)
REMARK    1  A    between atoms: C_1  and  C_2 
REMARK    2  A    between atoms: C_3  and  C_26 
REMARK    3  A    between atoms: C_12  and  C_13 
REMARK    4  A    between atoms: N_16  and  C_18 
ROOT
ATOM      1  C   LIG d   1       9.634   2.119  -9.560  0.00  0.00    -0.030 A 
ATOM      2  C   LIG d   1      10.518   3.036 -10.037  0.00  0.00     0.037 A 
ATOM      3  C   LIG d   1      11.056   4.003  -9.165  0.00  0.00     0.340 A 
ATOM      4  O   LIG d   1      11.846   4.815  -9.612  0.00  0.00    -0.245 OA
ATOM      5  O   LIG d   1      10.736   4.068  -7.868  0.00  0.00    -0.422 OA
ATOM      6  C   LIG d   1       9.865   3.187  -7.338  0.00  0.00     0.146 A 
ATOM      7  C   LIG d   1       9.286   2.185  -8.138  0.00  0.00     0.022 A 
ATOM      8  C   LIG d   1       8.379   1.279  -7.579  0.00  0.00    -0.043 A 
ATOM      9  C   LIG d   1       8.062   1.359  -6.252  0.00  0.00     0.013 A 
ATOM     10  C   LIG d   1       8.637   2.343  -5.452  0.00  0.00     0.134 A 
ATOM     11  C   LIG d   1       9.532   3.253  -5.994  0.00  0.00     0.035 A 
ATOM     12  O   LIG d   1       8.331   2.428  -4.130  0.00  0.00    -0.473 OA
ATOM     13  C   LIG d   1       7.162   1.736  -3.686  0.00  0.00     0.157 C 
ATOM     14  N   LIG d   1       7.203   0.360  -4.206  0.00  0.00    -0.293 NA
ATOM     15  C   LIG d   1       7.083   0.369  -5.671  0.00  0.00     0.044 C 
ATOM     16  H   LIG d   1       7.931   0.514  -8.196  0.00  0.00     0.063 H 
ATOM     17  H   LIG d   1       6.272   2.243  -4.061  0.00  0.00     0.091 H 
ATOM     18  H   LIG d   1       7.138   1.715  -2.596  0.00  0.00     0.091 H 
ATOM     19  H   LIG d   1       6.069   0.654  -5.951  0.00  0.00     0.051 H 
ATOM     20  H   LIG d   1       7.301  -0.627  -6.059  0.00  0.00     0.051 H 
ENDROOT
BRANCH  14  21
ATOM     21  C   LIG d   1       6.202  -0.425  -3.626  0.00  0.00     0.035 A 
ATOM     22  C   LIG d   1       5.939  -1.694  -4.124  0.00  0.00    -0.002 A 
ATOM     23  C   LIG d   1       4.951  -2.471  -3.546  0.00  0.00     0.160 A 
ATOM     24  H   LIG d   1       6.506  -2.075  -4.961  0.00  0.00     0.067 H 
ATOM     25  C   LIG d   1       4.218  -1.979  -2.477  0.00  0.00     0.159 A 
ATOM     26  F   LIG d   1       4.696  -3.708  -4.027  0.00  0.00    -0.202 F 
ATOM     27  C   LIG d   1       4.478  -0.712  -1.983  0.00  0.00    -0.022 A 
ATOM     28  F   LIG d   1       3.251  -2.737  -1.915  0.00  0.00    -0.203 F 
ATOM     29  C   LIG d   1       5.467   0.065  -2.555  0.00  0.00    -0.038 A 
ATOM     30  H   LIG d   1       3.907  -0.330  -1.150  0.00  0.00     0.065 H 
ATOM     31  H   LIG d   1       5.668   1.053  -2.169  0.00  0.00     0.064 H 
ENDBRANCH  14  21
BRANCH  11  32
ATOM     32  C   LIG d   1      10.146   4.315  -5.118  0.00  0.00    -0.033 C 
ATOM     33  H   LIG d   1      10.219   5.249  -5.677  0.00  0.00     0.028 H 
ATOM     34  H   LIG d   1       9.521   4.467  -4.239  0.00  0.00     0.028 H 
ATOM     35  H   LIG d   1      11.142   4.000  -4.807  0.00  0.00     0.028 H 
ENDBRANCH  11  32
BRANCH   1  36
ATOM     36  C   LIG d   1       9.038   1.069 -10.460  0.00  0.00    -0.039 C 
ATOM     37  H   LIG d   1       8.802   0.180  -9.875  0.00  0.00     0.028 H 
ATOM     38  H   LIG d   1       8.128   1.456 -10.917  0.00  0.00     0.028 H 
ATOM     39  H   LIG d   1       9.754   0.810 -11.241  0.00  0.00     0.028 H 
ENDBRANCH   1  36
BRANCH   2  40
ATOM     40  C   LIG d   1      10.920   3.016 -11.488  0.00  0.00    -0.033 C 
ATOM     41  H   LIG d   1      10.504   3.889 -11.992  0.00  0.00     0.028 H 
ATOM     42  H   LIG d   1      12.007   3.037 -11.564  0.00  0.00     0.028 H 
ATOM     43  H   LIG d   1      10.539   2.109 -11.958  0.00  0.00     0.028 H 
ENDBRANCH   2  40
TORSDOF 4
ENDMDL
MODEL 8
REMARK VINA RESULT:      -6.0      5.904      8.722
REMARK  4 active torsions:
REMARK  status: ('A' for Active; 'I' for Inactive)
REMARK    1  A    between atoms: C_1  and  C_2 
REMARK    2  A    between atoms: C_3  and  C_26 
REMARK    3  A    between atoms: C_12  and  C_13 
REMARK    4  A    between atoms: N_16  and  C_18 
ROOT
ATOM      1  C   LIG d   1      10.026   8.626  -3.218  0.00  0.00    -0.030 A 
ATOM      2  C   LIG d   1      10.044   8.113  -1.959  0.00  0.00     0.037 A 
ATOM      3  C   LIG d   1       9.969   6.718  -1.775  0.00  0.00     0.340 A 
ATOM      4  O   LIG d   1       9.987   6.279  -0.639  0.00  0.00    -0.245 OA
ATOM      5  O   LIG d   1       9.879   5.856  -2.793  0.00  0.00    -0.422 OA
ATOM      6  C   LIG d   1       9.857   6.306  -4.063  0.00  0.00     0.146 A 
ATOM      7  C   LIG d   1       9.933   7.684  -4.336  0.00  0.00     0.022 A 
ATOM      8  C   LIG d   1       9.902   8.140  -5.657  0.00  0.00    -0.043 A 
ATOM      9  C   LIG d   1       9.810   7.246  -6.688  0.00  0.00     0.013 A 
ATOM     10  C   LIG d   1       9.742   5.880  -6.426  0.00  0.00     0.134 A 
ATOM     11  C   LIG d   1       9.763   5.413  -5.120  0.00  0.00     0.035 A 
ATOM     12  O   LIG d   1       9.654   4.982  -7.444  0.00  0.00    -0.473 OA
ATOM     13  C   LIG d   1       9.272   5.487  -8.726  0.00  0.00     0.157 C 
ATOM     14  N   LIG d   1      10.097   6.666  -9.033  0.00  0.00    -0.293 NA
ATOM     15  C   LIG d   1       9.783   7.761  -8.105  0.00  0.00     0.044 C 
ATOM     16  H   LIG d   1       9.956   9.198  -5.865  0.00  0.00     0.063 H 
ATOM     17  H   LIG d   1       8.220   5.772  -8.708  0.00  0.00     0.091 H 
ATOM     18  H   LIG d   1       9.430   4.721  -9.486  0.00  0.00     0.091 H 
ATOM     19  H   LIG d   1       8.790   8.153  -8.329  0.00  0.00     0.051 H 
ATOM     20  H   LIG d   1      10.520   8.556  -8.217  0.00  0.00     0.051 H 
ENDROOT
BRANCH  14  21
ATOM     21  C   LIG d   1       9.923   7.068 -10.360  0.00  0.00     0.035 A 
ATOM     22  C   LIG d   1       9.202   6.271 -11.239  0.00  0.00    -0.002 A 
ATOM     23  C   LIG d   1       9.028   6.673 -12.551  0.00  0.00     0.160 A 
ATOM     24  H   LIG d   1       8.777   5.339 -10.898  0.00  0.00     0.067 H 
ATOM     25  C   LIG d   1       9.580   7.866 -12.990  0.00  0.00     0.159 A 
ATOM     26  F   LIG d   1       8.323   5.899 -13.406  0.00  0.00    -0.202 F 
ATOM     27  C   LIG d   1      10.303   8.659 -12.116  0.00  0.00    -0.022 A 
ATOM     28  F   LIG d   1       9.412   8.256 -14.273  0.00  0.00    -0.203 F 
ATOM     29  C   LIG d   1      10.475   8.263 -10.803  0.00  0.00    -0.038 A 
ATOM     30  H   LIG d   1      10.732   9.588 -12.459  0.00  0.00     0.065 H 
ATOM     31  H   LIG d   1      11.039   8.883 -10.122  0.00  0.00     0.064 H 
ENDBRANCH  14  21
BRANCH  11  32
ATOM     32  C   LIG d   1       9.686   3.933  -4.850  0.00  0.00    -0.033 C 
ATOM     33  H   LIG d   1      10.615   3.599  -4.386  0.00  0.00     0.028 H 
ATOM     34  H   LIG d   1       8.853   3.728  -4.179  0.00  0.00     0.028 H 
ATOM     35  H   LIG d   1       9.538   3.398  -5.788  0.00  0.00     0.028 H 
ENDBRANCH  11  32
BRANCH   1  36
ATOM     36  C   LIG d   1      10.105  10.112  -3.455  0.00  0.00    -0.039 C 
ATOM     37  H   LIG d   1      11.053  10.353  -3.935  0.00  0.00     0.028 H 
ATOM     38  H   LIG d   1       9.282  10.422  -4.099  0.00  0.00     0.028 H 
ATOM     39  H   LIG d   1      10.037  10.637  -2.502  0.00  0.00     0.028 H 
ENDBRANCH   1  36
BRANCH   2  40
ATOM     40  C   LIG d   1      10.144   9.030  -0.768  0.00  0.00    -0.033 C 
ATOM     41  H   LIG d   1      11.143   9.466  -0.728  0.00  0.00     0.028 H 
ATOM     42  H   LIG d   1       9.404   9.825  -0.858  0.00  0.00     0.028 H 
ATOM     43  H   LIG d   1       9.959   8.463   0.144  0.00  0.00     0.028 H 
ENDBRANCH   2  40
TORSDOF 4
ENDMDL
MODEL 9
REMARK VINA RESULT:      -5.9      4.310      8.858
REMARK  4 active torsions:
REMARK  status: ('A' for Active; 'I' for Inactive)
REMARK    1  A    between atoms: C_1  and  C_2 
REMARK    2  A    between atoms: C_3  and  C_26 
REMARK    3  A    between atoms: C_12  and  C_13 
REMARK    4  A    between atoms: N_16  and  C_18 
ROOT
ATOM      1  C   LIG d   1       7.021  -4.522  -5.887  0.00  0.00    -0.030 A 
ATOM      2  C   LIG d   1       6.070  -5.488  -5.782  0.00  0.00     0.037 A 
ATOM      3  C   LIG d   1       4.832  -5.183  -5.183  0.00  0.00     0.340 A 
ATOM      4  O   LIG d   1       3.993  -6.062  -5.099  0.00  0.00    -0.245 OA
ATOM      5  O   LIG d   1       4.539  -3.970  -4.701  0.00  0.00    -0.422 OA
ATOM      6  C   LIG d   1       5.442  -2.973  -4.776  0.00  0.00     0.146 A 
ATOM      7  C   LIG d   1       6.701  -3.191  -5.365  0.00  0.00     0.022 A 
ATOM      8  C   LIG d   1       7.633  -2.151  -5.432  0.00  0.00    -0.043 A 
ATOM      9  C   LIG d   1       7.318  -0.917  -4.935  0.00  0.00     0.013 A 
ATOM     10  C   LIG d   1       6.072  -0.691  -4.358  0.00  0.00     0.134 A 
ATOM     11  C   LIG d   1       5.139  -1.715  -4.277  0.00  0.00     0.035 A 
ATOM     12  O   LIG d   1       5.747   0.534  -3.864  0.00  0.00    -0.473 OA
ATOM     13  C   LIG d   1       6.822   1.447  -3.630  0.00  0.00     0.157 C 
ATOM     14  N   LIG d   1       7.675   1.487  -4.828  0.00  0.00    -0.293 NA
ATOM     15  C   LIG d   1       8.339   0.191  -5.022  0.00  0.00     0.044 C 
ATOM     16  H   LIG d   1       8.601  -2.321  -5.880  0.00  0.00     0.063 H 
ATOM     17  H   LIG d   1       7.408   1.109  -2.774  0.00  0.00     0.091 H 
ATOM     18  H   LIG d   1       6.423   2.442  -3.430  0.00  0.00     0.091 H 
ATOM     19  H   LIG d   1       9.093   0.050  -4.249  0.00  0.00     0.051 H 
ATOM     20  H   LIG d   1       8.815   0.170  -6.002  0.00  0.00     0.051 H 
ENDROOT
BRANCH  14  21
ATOM     21  C   LIG d   1       8.612   2.522  -4.741  0.00  0.00     0.035 A 
ATOM     22  C   LIG d   1       9.019   3.188  -5.889  0.00  0.00    -0.002 A 
ATOM     23  C   LIG d   1       9.943   4.214  -5.801  0.00  0.00     0.160 A 
ATOM     24  H   LIG d   1       8.613   2.908  -6.850  0.00  0.00     0.067 H 
ATOM     25  C   LIG d   1      10.469   4.569  -4.568  0.00  0.00     0.159 A 
ATOM     26  F   LIG d   1      10.337   4.866  -6.917  0.00  0.00    -0.202 F 
ATOM     27  C   LIG d   1      10.067   3.902  -3.424  0.00  0.00    -0.022 A 
ATOM     28  F   LIG d   1      11.374   5.569  -4.483  0.00  0.00    -0.203 F 
ATOM     29  C   LIG d   1       9.140   2.880  -3.508  0.00  0.00    -0.038 A 
ATOM     30  H   LIG d   1      10.477   4.180  -2.465  0.00  0.00     0.065 H 
ATOM     31  H   LIG d   1       8.828   2.360  -2.615  0.00  0.00     0.064 H 
ENDBRANCH  14  21
BRANCH  11  32
ATOM     32  C   LIG d   1       3.794  -1.459  -3.648  0.00  0.00    -0.033 C 
ATOM     33  H   LIG d   1       3.924  -1.249  -2.585  0.00  0.00     0.028 H 
ATOM     34  H   LIG d   1       3.324  -0.603  -4.131  0.00  0.00     0.028 H 
ATOM     35  H   LIG d   1       3.162  -2.338  -3.769  0.00  0.00     0.028 H 
ENDBRANCH  11  32
BRANCH   1  36
ATOM     36  C   LIG d   1       8.357  -4.809  -6.522  0.00  0.00    -0.039 C 
ATOM     37  H   LIG d   1       8.647  -5.838  -6.309  0.00  0.00     0.028 H 
ATOM     38  H   LIG d   1       8.285  -4.668  -7.600  0.00  0.00     0.028 H 
ATOM     39  H   LIG d   1       9.107  -4.130  -6.116  0.00  0.00     0.028 H 
ENDBRANCH   1  36
BRANCH   2  40
ATOM     40  C   LIG d   1       6.338  -6.875  -6.305  0.00  0.00    -0.033 C 
ATOM     41  H   LIG d   1       5.958  -6.958  -7.324  0.00  0.00     0.028 H 
ATOM     42  H   LIG d   1       7.410  -7.064  -6.300  0.00  0.00     0.028 H 
ATOM     43  H   LIG d   1       5.836  -7.605  -5.670  0.00  0.00     0.028 H 
ENDBRANCH   2  40
TORSDOF 4
ENDMDL
