MODEL 1
REMARK VINA RESULT:      -5.7      0.000      0.000
REMARK  4 active torsions:
REMARK  status: ('A' for Active; 'I' for Inactive)
REMARK    1  A    between atoms: C_1  and  S_2 
REMARK    2  A    between atoms: S_2  and  N_5 
REMARK    3  A    between atoms: N_5  and  C_6 
REMARK    4  A    between atoms: C_11  and  O_12 
ROOT
ATOM      1  C   LIG d   1       3.225  -0.231  -4.239  0.00  0.00     0.089 A 
ATOM      2  C   LIG d   1       3.255   0.981  -3.564  0.00  0.00    -0.036 A 
ATOM      3  C   LIG d   1       3.817   1.055  -2.303  0.00  0.00    -0.060 A 
ATOM      4  C   LIG d   1       4.359  -0.073  -1.717  0.00  0.00    -0.058 A 
ATOM      5  C   LIG d   1       4.337  -1.284  -2.387  0.00  0.00    -0.018 A 
ATOM      6  C   LIG d   1       3.771  -1.367  -3.648  0.00  0.00     0.139 A 
ATOM      7  H   LIG d   1       2.836   1.866  -4.021  0.00  0.00     0.064 H 
ATOM      8  H   LIG d   1       3.837   1.998  -1.777  0.00  0.00     0.062 H 
ATOM      9  H   LIG d   1       4.801  -0.010  -0.734  0.00  0.00     0.062 H 
ATOM     10  H   LIG d   1       4.761  -2.163  -1.926  0.00  0.00     0.066 H 
ENDROOT
BRANCH   1  11
ATOM     11  N   LIG d   1       2.652  -0.309  -5.514  0.00  0.00    -0.217 N 
ATOM     12  H   LIG d   1       1.762  -0.680  -5.624  0.00  0.00     0.173 HD
BRANCH  11  13
ATOM     13  S   LIG d   1       3.492   0.233  -6.834  0.00  0.00     0.040 S 
ATOM     14  O   LIG d   1       4.859   0.041  -6.500  0.00  0.00    -0.155 OA
ATOM     15  O   LIG d   1       2.982   1.537  -7.079  0.00  0.00    -0.155 OA
BRANCH  13  16
ATOM     16  C   LIG d   1       3.016  -0.885  -8.181  0.00  0.00     0.074 C 
ATOM     17  H   LIG d   1       3.778  -1.655  -8.300  0.00  0.00     0.048 H 
ATOM     18  H   LIG d   1       2.060  -1.353  -7.944  0.00  0.00     0.048 H 
ATOM     19  H   LIG d   1       2.923  -0.320  -9.108  0.00  0.00     0.048 H 
ENDBRANCH  13  16
ENDBRANCH  11  13
ENDBRANCH   1  11
BRANCH   6  20
ATOM     20  O   LIG d   1       3.750  -2.556  -4.308  0.00  0.00    -0.505 OA
ATOM     21  H   LIG d   1       3.921  -3.323  -3.744  0.00  0.00     0.292 HD
ENDBRANCH   6  20
TORSDOF 4
ENDMDL
MODEL 2
REMARK VINA RESULT:      -5.6      1.030      1.932
REMARK  4 active torsions:
REMARK  status: ('A' for Active; 'I' for Inactive)
REMARK    1  A    between atoms: C_1  and  S_2 
REMARK    2  A    between atoms: S_2  and  N_5 
REMARK    3  A    between atoms: N_5  and  C_6 
REMARK    4  A    between atoms: C_11  and  O_12 
ROOT
ATOM      1  C   LIG d   1       3.315  -0.371  -4.186  0.00  0.00     0.089 A 
ATOM      2  C   LIG d   1       3.741  -1.538  -3.566  0.00  0.00    -0.036 A 
ATOM      3  C   LIG d   1       4.296  -1.485  -2.301  0.00  0.00    -0.060 A 
ATOM      4  C   LIG d   1       4.419  -0.273  -1.648  0.00  0.00    -0.058 A 
ATOM      5  C   LIG d   1       3.992   0.893  -2.258  0.00  0.00    -0.018 A 
ATOM      6  C   LIG d   1       3.439   0.849  -3.526  0.00  0.00     0.139 A 
ATOM      7  H   LIG d   1       3.642  -2.487  -4.073  0.00  0.00     0.064 H 
ATOM      8  H   LIG d   1       4.630  -2.392  -1.822  0.00  0.00     0.062 H 
ATOM      9  H   LIG d   1       4.849  -0.236  -0.658  0.00  0.00     0.062 H 
ATOM     10  H   LIG d   1       4.090   1.838  -1.744  0.00  0.00     0.066 H 
ENDROOT
BRANCH   1  11
ATOM     11  N   LIG d   1       2.756  -0.423  -5.469  0.00  0.00    -0.217 N 
ATOM     12  H   LIG d   1       1.854  -0.759  -5.592  0.00  0.00     0.173 HD
BRANCH  11  13
ATOM     13  S   LIG d   1       3.633   0.092  -6.775  0.00  0.00     0.040 S 
ATOM     14  O   LIG d   1       4.990  -0.030  -6.374  0.00  0.00    -0.155 OA
ATOM     15  O   LIG d   1       3.086   1.363  -7.102  0.00  0.00    -0.155 OA
BRANCH  13  16
ATOM     16  C   LIG d   1       3.260  -1.103  -8.087  0.00  0.00     0.074 C 
ATOM     17  H   LIG d   1       3.148  -0.578  -9.036  0.00  0.00     0.048 H 
ATOM     18  H   LIG d   1       4.074  -1.824  -8.165  0.00  0.00     0.048 H 
ATOM     19  H   LIG d   1       2.333  -1.626  -7.850  0.00  0.00     0.048 H 
ENDBRANCH  13  16
ENDBRANCH  11  13
ENDBRANCH   1  11
BRANCH   6  20
ATOM     20  O   LIG d   1       3.018   1.994  -4.127  0.00  0.00    -0.505 OA
ATOM     21  H   LIG d   1       3.736   2.577  -4.410  0.00  0.00     0.292 HD
ENDBRANCH   6  20
TORSDOF 4
ENDMDL
MODEL 3
REMARK VINA RESULT:      -5.4      2.229      3.323
REMARK  4 active torsions:
REMARK  status: ('A' for Active; 'I' for Inactive)
REMARK    1  A    between atoms: C_1  and  S_2 
REMARK    2  A    between atoms: S_2  and  N_5 
REMARK    3  A    between atoms: N_5  and  C_6 
REMARK    4  A    between atoms: C_11  and  O_12 
ROOT
ATOM      1  C   LIG d   1       3.749  -1.179  -3.325  0.00  0.00     0.089 A 
ATOM      2  C   LIG d   1       4.433  -0.961  -2.137  0.00  0.00    -0.036 A 
ATOM      3  C   LIG d   1       4.528   0.316  -1.618  0.00  0.00    -0.060 A 
ATOM      4  C   LIG d   1       3.934   1.378  -2.275  0.00  0.00    -0.058 A 
ATOM      5  C   LIG d   1       3.246   1.168  -3.457  0.00  0.00    -0.018 A 
ATOM      6  C   LIG d   1       3.151  -0.108  -3.986  0.00  0.00     0.139 A 
ATOM      7  H   LIG d   1       4.895  -1.790  -1.620  0.00  0.00     0.064 H 
ATOM      8  H   LIG d   1       5.063   0.485  -0.696  0.00  0.00     0.062 H 
ATOM      9  H   LIG d   1       4.006   2.374  -1.864  0.00  0.00     0.062 H 
ATOM     10  H   LIG d   1       2.783   1.999  -3.967  0.00  0.00     0.066 H 
ENDROOT
BRANCH   1  11
ATOM     11  N   LIG d   1       3.656  -2.471  -3.855  0.00  0.00    -0.217 N 
ATOM     12  H   LIG d   1       2.935  -3.059  -3.576  0.00  0.00     0.173 HD
BRANCH  11  13
ATOM     13  S   LIG d   1       4.774  -2.997  -4.957  0.00  0.00     0.040 S 
ATOM     14  O   LIG d   1       4.579  -2.171  -6.095  0.00  0.00    -0.155 OA
ATOM     15  O   LIG d   1       4.570  -4.402  -5.038  0.00  0.00    -0.155 OA
BRANCH  13  16
ATOM     16  C   LIG d   1       6.381  -2.644  -4.196  0.00  0.00     0.074 C 
ATOM     17  H   LIG d   1       7.177  -3.045  -4.823  0.00  0.00     0.048 H 
ATOM     18  H   LIG d   1       6.507  -1.566  -4.095  0.00  0.00     0.048 H 
ATOM     19  H   LIG d   1       6.428  -3.108  -3.210  0.00  0.00     0.048 H 
ENDBRANCH  13  16
ENDBRANCH  11  13
ENDBRANCH   1  11
BRANCH   6  20
ATOM     20  O   LIG d   1       2.474  -0.317  -5.147  0.00  0.00    -0.505 OA
ATOM     21  H   LIG d   1       1.518  -0.193  -5.073  0.00  0.00     0.292 HD
ENDBRANCH   6  20
TORSDOF 4
ENDMDL
MODEL 4
REMARK VINA RESULT:      -5.2      3.360      4.060
REMARK  4 active torsions:
REMARK  status: ('A' for Active; 'I' for Inactive)
REMARK    1  A    between atoms: C_1  and  S_2 
REMARK    2  A    between atoms: S_2  and  N_5 
REMARK    3  A    between atoms: N_5  and  C_6 
REMARK    4  A    between atoms: C_11  and  O_12 
ROOT
ATOM      1  C   LIG d   1       6.092  -0.678  -3.185  0.00  0.00     0.089 A 
ATOM      2  C   LIG d   1       5.741  -1.981  -3.512  0.00  0.00    -0.036 A 
ATOM      3  C   LIG d   1       4.490  -2.464  -3.176  0.00  0.00    -0.060 A 
ATOM      4  C   LIG d   1       3.583  -1.649  -2.525  0.00  0.00    -0.058 A 
ATOM      5  C   LIG d   1       3.924  -0.348  -2.201  0.00  0.00    -0.018 A 
ATOM      6  C   LIG d   1       5.177   0.142  -2.530  0.00  0.00     0.139 A 
ATOM      7  H   LIG d   1       6.447  -2.618  -4.024  0.00  0.00     0.064 H 
ATOM      8  H   LIG d   1       4.220  -3.479  -3.427  0.00  0.00     0.062 H 
ATOM      9  H   LIG d   1       2.605  -2.029  -2.268  0.00  0.00     0.062 H 
ATOM     10  H   LIG d   1       3.213   0.285  -1.692  0.00  0.00     0.066 H 
ENDROOT
BRANCH   1  11
ATOM     11  N   LIG d   1       7.359  -0.188  -3.521  0.00  0.00    -0.217 N 
ATOM     12  H   LIG d   1       8.129  -0.424  -2.979  0.00  0.00     0.173 HD
BRANCH  11  13
ATOM     13  S   LIG d   1       7.545   0.792  -4.842  0.00  0.00     0.040 S 
ATOM     14  O   LIG d   1       7.515   2.113  -4.322  0.00  0.00    -0.155 OA
ATOM     15  O   LIG d   1       6.555   0.352  -5.762  0.00  0.00    -0.155 OA
BRANCH  13  16
ATOM     16  C   LIG d   1       9.200   0.408  -5.477  0.00  0.00     0.074 C 
ATOM     17  H   LIG d   1       9.951   0.736  -4.757  0.00  0.00     0.048 H 
ATOM     18  H   LIG d   1       9.290  -0.667  -5.632  0.00  0.00     0.048 H 
ATOM     19  H   LIG d   1       9.356   0.926  -6.424  0.00  0.00     0.048 H 
ENDBRANCH  13  16
ENDBRANCH  11  13
ENDBRANCH   1  11
BRANCH   6  20
ATOM     20  O   LIG d   1       5.513   1.421  -2.213  0.00  0.00    -0.505 OA
ATOM     21  H   LIG d   1       5.943   1.904  -2.932  0.00  0.00     0.292 HD
ENDBRANCH   6  20
TORSDOF 4
ENDMDL
MODEL 5
REMARK VINA RESULT:      -4.8      1.966      2.014
REMARK  4 active torsions:
REMARK  status: ('A' for Active; 'I' for Inactive)
REMARK    1  A    between atoms: C_1  and  S_2 
REMARK    2  A    between atoms: S_2  and  N_5 
REMARK    3  A    between atoms: N_5  and  C_6 
REMARK    4  A    between atoms: C_11  and  O_12 
ROOT
ATOM      1  C   LIG d   1       4.520  -0.475  -4.349  0.00  0.00     0.089 A 
ATOM      2  C   LIG d   1       4.800   0.456  -3.358  0.00  0.00    -0.036 A 
ATOM      3  C   LIG d   1       4.701   0.099  -2.027  0.00  0.00    -0.060 A 
ATOM      4  C   LIG d   1       4.333  -1.187  -1.679  0.00  0.00    -0.058 A 
ATOM      5  C   LIG d   1       4.058  -2.122  -2.661  0.00  0.00    -0.018 A 
ATOM      6  C   LIG d   1       4.151  -1.771  -3.997  0.00  0.00     0.139 A 
ATOM      7  H   LIG d   1       5.092   1.461  -3.628  0.00  0.00     0.064 H 
ATOM      8  H   LIG d   1       4.915   0.825  -1.258  0.00  0.00     0.062 H 
ATOM      9  H   LIG d   1       4.261  -1.463  -0.637  0.00  0.00     0.062 H 
ATOM     10  H   LIG d   1       3.771  -3.126  -2.385  0.00  0.00     0.066 H 
ENDROOT
BRANCH   1  11
ATOM     11  N   LIG d   1       4.616  -0.114  -5.698  0.00  0.00    -0.217 N 
ATOM     12  H   LIG d   1       3.840   0.239  -6.162  0.00  0.00     0.173 HD
BRANCH  11  13
ATOM     13  S   LIG d   1       6.053  -0.289  -6.502  0.00  0.00     0.040 S 
ATOM     14  O   LIG d   1       6.515  -1.584  -6.146  0.00  0.00    -0.155 OA
ATOM     15  O   LIG d   1       6.804   0.868  -6.158  0.00  0.00    -0.155 OA
BRANCH  13  16
ATOM     16  C   LIG d   1       5.612  -0.244  -8.260  0.00  0.00     0.074 C 
ATOM     17  H   LIG d   1       4.908   0.569  -8.438  0.00  0.00     0.048 H 
ATOM     18  H   LIG d   1       6.510  -0.083  -8.857  0.00  0.00     0.048 H 
ATOM     19  H   LIG d   1       5.151  -1.191  -8.545  0.00  0.00     0.048 H 
ENDBRANCH  13  16
ENDBRANCH  11  13
ENDBRANCH   1  11
BRANCH   6  20
ATOM     20  O   LIG d   1       3.881  -2.689  -4.963  0.00  0.00    -0.505 OA
ATOM     21  H   LIG d   1       2.940  -2.887  -5.067  0.00  0.00     0.292 HD
ENDBRANCH   6  20
TORSDOF 4
ENDMDL
MODEL 6
REMARK VINA RESULT:      -4.7      2.274      3.328
REMARK  4 active torsions:
REMARK  status: ('A' for Active; 'I' for Inactive)
REMARK    1  A    between atoms: C_1  and  S_2 
REMARK    2  A    between atoms: S_2  and  N_5 
REMARK    3  A    between atoms: N_5  and  C_6 
REMARK    4  A    between atoms: C_11  and  O_12 
ROOT
ATOM      1  C   LIG d   1       4.231  -1.564  -4.087  0.00  0.00     0.089 A 
ATOM      2  C   LIG d   1       3.948  -1.950  -2.784  0.00  0.00    -0.036 A 
ATOM      3  C   LIG d   1       4.269  -1.114  -1.731  0.00  0.00    -0.060 A 
ATOM      4  C   LIG d   1       4.862   0.111  -1.973  0.00  0.00    -0.058 A 
ATOM      5  C   LIG d   1       5.143   0.505  -3.269  0.00  0.00    -0.018 A 
ATOM      6  C   LIG d   1       4.828  -0.329  -4.330  0.00  0.00     0.139 A 
ATOM      7  H   LIG d   1       3.480  -2.905  -2.593  0.00  0.00     0.064 H 
ATOM      8  H   LIG d   1       4.052  -1.417  -0.718  0.00  0.00     0.062 H 
ATOM      9  H   LIG d   1       5.108   0.763  -1.148  0.00  0.00     0.062 H 
ATOM     10  H   LIG d   1       5.606   1.462  -3.454  0.00  0.00     0.066 H 
ENDROOT
BRANCH   1  11
ATOM     11  N   LIG d   1       3.911  -2.410  -5.155  0.00  0.00    -0.217 N 
ATOM     12  H   LIG d   1       3.075  -2.292  -5.634  0.00  0.00     0.173 HD
BRANCH  11  13
ATOM     13  S   LIG d   1       4.958  -3.613  -5.601  0.00  0.00     0.040 S 
ATOM     14  O   LIG d   1       4.532  -4.755  -4.872  0.00  0.00    -0.155 OA
ATOM     15  O   LIG d   1       6.252  -3.062  -5.394  0.00  0.00    -0.155 OA
BRANCH  13  16
ATOM     16  C   LIG d   1       4.660  -3.856  -7.374  0.00  0.00     0.074 C 
ATOM     17  H   LIG d   1       5.487  -4.417  -7.807  0.00  0.00     0.048 H 
ATOM     18  H   LIG d   1       3.732  -4.410  -7.514  0.00  0.00     0.048 H 
ATOM     19  H   LIG d   1       4.582  -2.886  -7.866  0.00  0.00     0.048 H 
ENDBRANCH  13  16
ENDBRANCH  11  13
ENDBRANCH   1  11
BRANCH   6  20
ATOM     20  O   LIG d   1       5.103   0.056  -5.605  0.00  0.00    -0.505 OA
ATOM     21  H   LIG d   1       5.820   0.701  -5.675  0.00  0.00     0.292 HD
ENDBRANCH   6  20
TORSDOF 4
ENDMDL
MODEL 7
REMARK VINA RESULT:      -4.6      2.877      3.613
REMARK  4 active torsions:
REMARK  status: ('A' for Active; 'I' for Inactive)
REMARK    1  A    between atoms: C_1  and  S_2 
REMARK    2  A    between atoms: S_2  and  N_5 
REMARK    3  A    between atoms: N_5  and  C_6 
REMARK    4  A    between atoms: C_11  and  O_12 
ROOT
ATOM      1  C   LIG d   1       5.275  -0.566  -4.009  0.00  0.00     0.089 A 
ATOM      2  C   LIG d   1       5.854   0.549  -3.418  0.00  0.00    -0.036 A 
ATOM      3  C   LIG d   1       5.159   1.262  -2.459  0.00  0.00    -0.060 A 
ATOM      4  C   LIG d   1       3.891   0.860  -2.079  0.00  0.00    -0.058 A 
ATOM      5  C   LIG d   1       3.310  -0.253  -2.660  0.00  0.00    -0.018 A 
ATOM      6  C   LIG d   1       3.999  -0.969  -3.625  0.00  0.00     0.139 A 
ATOM      7  H   LIG d   1       6.845   0.862  -3.710  0.00  0.00     0.064 H 
ATOM      8  H   LIG d   1       5.608   2.131  -2.003  0.00  0.00     0.062 H 
ATOM      9  H   LIG d   1       3.353   1.417  -1.327  0.00  0.00     0.062 H 
ATOM     10  H   LIG d   1       2.321  -0.563  -2.360  0.00  0.00     0.066 H 
ENDROOT
BRANCH   1  11
ATOM     11  N   LIG d   1       5.976  -1.286  -4.983  0.00  0.00    -0.217 N 
ATOM     12  H   LIG d   1       5.967  -0.988  -5.907  0.00  0.00     0.173 HD
BRANCH  11  13
ATOM     13  S   LIG d   1       6.821  -2.646  -4.560  0.00  0.00     0.040 S 
ATOM     14  O   LIG d   1       5.897  -3.713  -4.720  0.00  0.00    -0.155 OA
ATOM     15  O   LIG d   1       7.370  -2.349  -3.283  0.00  0.00    -0.155 OA
BRANCH  13  16
ATOM     16  C   LIG d   1       8.144  -2.774  -5.793  0.00  0.00     0.074 C 
ATOM     17  H   LIG d   1       8.457  -1.775  -6.096  0.00  0.00     0.048 H 
ATOM     18  H   LIG d   1       8.993  -3.306  -5.362  0.00  0.00     0.048 H 
ATOM     19  H   LIG d   1       7.779  -3.319  -6.664  0.00  0.00     0.048 H 
ENDBRANCH  13  16
ENDBRANCH  11  13
ENDBRANCH   1  11
BRANCH   6  20
ATOM     20  O   LIG d   1       3.430  -2.064  -4.196  0.00  0.00    -0.505 OA
ATOM     21  H   LIG d   1       3.895  -2.892  -4.011  0.00  0.00     0.292 HD
ENDBRANCH   6  20
TORSDOF 4
ENDMDL
MODEL 8
REMARK VINA RESULT:      -4.4      1.627      1.969
REMARK  4 active torsions:
REMARK  status: ('A' for Active; 'I' for Inactive)
REMARK    1  A    between atoms: C_1  and  S_2 
REMARK    2  A    between atoms: S_2  and  N_5 
REMARK    3  A    between atoms: N_5  and  C_6 
REMARK    4  A    between atoms: C_11  and  O_12 
ROOT
ATOM      1  C   LIG d   1       4.534  -0.599  -4.752  0.00  0.00     0.089 A 
ATOM      2  C   LIG d   1       3.765   0.107  -3.837  0.00  0.00    -0.036 A 
ATOM      3  C   LIG d   1       3.316  -0.514  -2.687  0.00  0.00    -0.060 A 
ATOM      4  C   LIG d   1       3.641  -1.835  -2.440  0.00  0.00    -0.058 A 
ATOM      5  C   LIG d   1       4.411  -2.543  -3.345  0.00  0.00    -0.018 A 
ATOM      6  C   LIG d   1       4.861  -1.929  -4.501  0.00  0.00     0.139 A 
ATOM      7  H   LIG d   1       3.513   1.141  -4.026  0.00  0.00     0.064 H 
ATOM      8  H   LIG d   1       2.714   0.034  -1.978  0.00  0.00     0.062 H 
ATOM      9  H   LIG d   1       3.291  -2.316  -1.538  0.00  0.00     0.062 H 
ATOM     10  H   LIG d   1       4.663  -3.575  -3.148  0.00  0.00     0.066 H 
ENDROOT
BRANCH   1  11
ATOM     11  N   LIG d   1       4.986   0.028  -5.919  0.00  0.00    -0.217 N 
ATOM     12  H   LIG d   1       5.851   0.468  -5.930  0.00  0.00     0.173 HD
BRANCH  11  13
ATOM     13  S   LIG d   1       4.046   0.017  -7.282  0.00  0.00     0.040 S 
ATOM     14  O   LIG d   1       3.006   0.946  -7.014  0.00  0.00    -0.155 OA
ATOM     15  O   LIG d   1       3.751  -1.355  -7.508  0.00  0.00    -0.155 OA
BRANCH  13  16
ATOM     16  C   LIG d   1       5.125   0.647  -8.597  0.00  0.00     0.074 C 
ATOM     17  H   LIG d   1       5.515  -0.188  -9.179  0.00  0.00     0.048 H 
ATOM     18  H   LIG d   1       4.554   1.309  -9.249  0.00  0.00     0.048 H 
ATOM     19  H   LIG d   1       5.954   1.199  -8.155  0.00  0.00     0.048 H 
ENDBRANCH  13  16
ENDBRANCH  11  13
ENDBRANCH   1  11
BRANCH   6  20
ATOM     20  O   LIG d   1       5.620  -2.623  -5.391  0.00  0.00    -0.505 OA
ATOM     21  H   LIG d   1       5.835  -3.523  -5.108  0.00  0.00     0.292 HD
ENDBRANCH   6  20
TORSDOF 4
ENDMDL
MODEL 9
REMARK VINA RESULT:      -4.4      3.069      4.288
REMARK  4 active torsions:
REMARK  status: ('A' for Active; 'I' for Inactive)
REMARK    1  A    between atoms: C_1  and  S_2 
REMARK    2  A    between atoms: S_2  and  N_5 
REMARK    3  A    between atoms: N_5  and  C_6 
REMARK    4  A    between atoms: C_11  and  O_12 
ROOT
ATOM      1  C   LIG d   1       5.765  -1.853  -3.369  0.00  0.00     0.089 A 
ATOM      2  C   LIG d   1       7.134  -2.086  -3.393  0.00  0.00    -0.036 A 
ATOM      3  C   LIG d   1       7.647  -3.103  -4.176  0.00  0.00    -0.060 A 
ATOM      4  C   LIG d   1       6.802  -3.882  -4.944  0.00  0.00    -0.058 A 
ATOM      5  C   LIG d   1       5.438  -3.652  -4.929  0.00  0.00    -0.018 A 
ATOM      6  C   LIG d   1       4.915  -2.639  -4.144  0.00  0.00     0.139 A 
ATOM      7  H   LIG d   1       7.796  -1.476  -2.797  0.00  0.00     0.064 H 
ATOM      8  H   LIG d   1       8.711  -3.285  -4.191  0.00  0.00     0.062 H 
ATOM      9  H   LIG d   1       7.208  -4.672  -5.557  0.00  0.00     0.062 H 
ATOM     10  H   LIG d   1       4.782  -4.263  -5.530  0.00  0.00     0.066 H 
ENDROOT
BRANCH   1  11
ATOM     11  N   LIG d   1       5.242  -0.827  -2.573  0.00  0.00    -0.217 N 
ATOM     12  H   LIG d   1       4.996  -1.005  -1.652  0.00  0.00     0.173 HD
BRANCH  11  13
ATOM     13  S   LIG d   1       5.046   0.692  -3.204  0.00  0.00     0.040 S 
ATOM     14  O   LIG d   1       4.743   0.480  -4.575  0.00  0.00    -0.155 OA
ATOM     15  O   LIG d   1       6.219   1.398  -2.822  0.00  0.00    -0.155 OA
BRANCH  13  16
ATOM     16  C   LIG d   1       3.602   1.371  -2.342  0.00  0.00     0.074 C 
ATOM     17  H   LIG d   1       3.785   2.416  -2.093  0.00  0.00     0.048 H 
ATOM     18  H   LIG d   1       2.726   1.300  -2.988  0.00  0.00     0.048 H 
ATOM     19  H   LIG d   1       3.425   0.806  -1.427  0.00  0.00     0.048 H 
ENDBRANCH  13  16
ENDBRANCH  11  13
ENDBRANCH   1  11
BRANCH   6  20
ATOM     20  O   LIG d   1       3.574  -2.411  -4.128  0.00  0.00    -0.505 OA
ATOM     21  H   LIG d   1       3.273  -1.791  -4.807  0.00  0.00     0.292 HD
ENDBRANCH   6  20
TORSDOF 4
ENDMDL
MODEL 10
REMARK VINA RESULT:      -4.3      1.956      4.913
REMARK  4 active torsions:
REMARK  status: ('A' for Active; 'I' for Inactive)
REMARK    1  A    between atoms: C_1  and  S_2 
REMARK    2  A    between atoms: S_2  and  N_5 
REMARK    3  A    between atoms: N_5  and  C_6 
REMARK    4  A    between atoms: C_11  and  O_12 
ROOT
ATOM      1  C   LIG d   1       3.564  -0.186  -7.237  0.00  0.00     0.089 A 
ATOM      2  C   LIG d   1       2.406  -0.205  -8.002  0.00  0.00    -0.036 A 
ATOM      3  C   LIG d   1       2.404   0.357  -9.265  0.00  0.00    -0.060 A 
ATOM      4  C   LIG d   1       3.556   0.928  -9.773  0.00  0.00    -0.058 A 
ATOM      5  C   LIG d   1       4.716   0.945  -9.018  0.00  0.00    -0.018 A 
ATOM      6  C   LIG d   1       4.724   0.389  -7.750  0.00  0.00     0.139 A 
ATOM      7  H   LIG d   1       1.506  -0.654  -7.609  0.00  0.00     0.064 H 
ATOM      8  H   LIG d   1       1.502   0.346  -9.858  0.00  0.00     0.062 H 
ATOM      9  H   LIG d   1       3.551   1.362 -10.761  0.00  0.00     0.062 H 
ATOM     10  H   LIG d   1       5.613   1.392  -9.418  0.00  0.00     0.066 H 
ENDROOT
BRANCH   1  11
ATOM     11  N   LIG d   1       3.567  -0.751  -5.956  0.00  0.00    -0.217 N 
ATOM     12  H   LIG d   1       3.633  -1.713  -5.850  0.00  0.00     0.173 HD
BRANCH  11  13
ATOM     13  S   LIG d   1       3.462   0.224  -4.621  0.00  0.00     0.040 S 
ATOM     14  O   LIG d   1       2.601   1.284  -5.012  0.00  0.00    -0.155 OA
ATOM     15  O   LIG d   1       4.810   0.483  -4.254  0.00  0.00    -0.155 OA
BRANCH  13  16
ATOM     16  C   LIG d   1       2.658  -0.801  -3.359  0.00  0.00     0.074 C 
ATOM     17  H   LIG d   1       3.403  -1.146  -2.642  0.00  0.00     0.048 H 
ATOM     18  H   LIG d   1       1.901  -0.212  -2.841  0.00  0.00     0.048 H 
ATOM     19  H   LIG d   1       2.186  -1.661  -3.834  0.00  0.00     0.048 H 
ENDBRANCH  13  16
ENDBRANCH  11  13
ENDBRANCH   1  11
BRANCH   6  20
ATOM     20  O   LIG d   1       5.863   0.404  -7.007  0.00  0.00    -0.505 OA
ATOM     21  H   LIG d   1       5.732   0.684  -6.090  0.00  0.00     0.292 HD
ENDBRANCH   6  20
TORSDOF 4
ENDMDL
