MODEL 1
REMARK VINA RESULT:      -7.6      0.000      0.000
REMARK  3 active torsions:
REMARK  status: ('A' for Active; 'I' for Inactive)
REMARK    1  A    between atoms: C_1  and  C_2 
REMARK    2  A    between atoms: N_10  and  C_12 
REMARK    3  A    between atoms: C_15  and  C_18 
ROOT
ATOM      1  C   LIG d   1       7.093  -2.840  -6.603  0.00  0.00     0.035 A 
ATOM      2  C   LIG d   1       6.720  -1.876  -5.678  0.00  0.00     0.146 A 
ATOM      3  C   LIG d   1       5.838  -2.224  -4.645  0.00  0.00     0.026 A 
ATOM      4  C   LIG d   1       5.351  -3.526  -4.550  0.00  0.00    -0.042 A 
ATOM      5  C   LIG d   1       5.726  -4.473  -5.479  0.00  0.00     0.013 A 
ATOM      6  C   LIG d   1       6.599  -4.133  -6.506  0.00  0.00     0.134 A 
ATOM      7  O   LIG d   1       6.978  -5.055  -7.431  0.00  0.00    -0.473 OA
ATOM      8  C   LIG d   1       6.755  -6.430  -7.108  0.00  0.00     0.157 C 
ATOM      9  N   LIG d   1       5.369  -6.583  -6.636  0.00  0.00    -0.293 NA
ATOM     10  C   LIG d   1       5.186  -5.876  -5.360  0.00  0.00     0.044 C 
ATOM     11  C   LIG d   1       5.441  -1.197  -3.664  0.00  0.00    -0.000 A 
ATOM     12  C   LIG d   1       4.572  -1.474  -2.615  0.00  0.00    -0.053 A 
ATOM     13  C   LIG d   1       4.236  -0.474  -1.726  0.00  0.00    -0.061 A 
ATOM     14  C   LIG d   1       4.756   0.803  -1.869  0.00  0.00    -0.061 A 
ATOM     15  C   LIG d   1       5.621   1.098  -2.901  0.00  0.00    -0.047 A 
ATOM     16  C   LIG d   1       5.973   0.102  -3.810  0.00  0.00     0.067 A 
ATOM     17  C   LIG d   1       6.889   0.363  -4.929  0.00  0.00     0.345 A 
ATOM     18  O   LIG d   1       7.362   1.474  -5.078  0.00  0.00    -0.244 OA
ATOM     19  O   LIG d   1       7.209  -0.620  -5.786  0.00  0.00    -0.421 OA
ATOM     20  H   LIG d   1       4.672  -3.792  -3.753  0.00  0.00     0.063 H 
ATOM     21  H   LIG d   1       7.445  -6.737  -6.322  0.00  0.00     0.091 H 
ATOM     22  H   LIG d   1       6.911  -7.046  -7.994  0.00  0.00     0.091 H 
ATOM     23  H   LIG d   1       5.722  -6.406  -4.572  0.00  0.00     0.051 H 
ATOM     24  H   LIG d   1       4.125  -5.837  -5.116  0.00  0.00     0.051 H 
ATOM     25  H   LIG d   1       4.163  -2.467  -2.498  0.00  0.00     0.062 H 
ATOM     26  H   LIG d   1       3.559  -0.688  -0.911  0.00  0.00     0.062 H 
ATOM     27  H   LIG d   1       4.482   1.574  -1.163  0.00  0.00     0.062 H 
ATOM     28  H   LIG d   1       6.022   2.096  -3.006  0.00  0.00     0.063 H 
ENDROOT
BRANCH   9  29
ATOM     29  C   LIG d   1       5.028  -7.932  -6.514  0.00  0.00     0.032 A 
ATOM     30  C   LIG d   1       4.910  -8.509  -5.255  0.00  0.00    -0.040 A 
ATOM     31  C   LIG d   1       4.572  -9.842  -5.137  0.00  0.00    -0.048 A 
ATOM     32  H   LIG d   1       5.082  -7.914  -4.370  0.00  0.00     0.064 H 
ATOM     33  C   LIG d   1       4.352 -10.605  -6.270  0.00  0.00     0.055 A 
ATOM     34  H   LIG d   1       4.480 -10.291  -4.160  0.00  0.00     0.062 H 
ATOM     35  C   LIG d   1       4.469 -10.034  -7.525  0.00  0.00    -0.048 A 
ATOM     36  C   LIG d   1       4.801  -8.699  -7.649  0.00  0.00    -0.040 A 
ATOM     37  H   LIG d   1       4.296 -10.632  -8.407  0.00  0.00     0.062 H 
ATOM     38  H   LIG d   1       4.887  -8.253  -8.629  0.00  0.00     0.064 H 
BRANCH  33  39
ATOM     39  C   LIG d   1       3.983 -12.060  -6.137  0.00  0.00     0.417 C 
ATOM     40  F   LIG d   1       5.002 -12.740  -5.462  0.00  0.00    -0.166 F 
ATOM     41  F   LIG d   1       2.789 -12.174  -5.417  0.00  0.00    -0.166 F 
ATOM     42  F   LIG d   1       3.815 -12.616  -7.409  0.00  0.00    -0.166 F 
ENDBRANCH  33  39
ENDBRANCH   9  29
BRANCH   1  43
ATOM     43  C   LIG d   1       8.040  -2.482  -7.720  0.00  0.00    -0.033 C 
ATOM     44  H   LIG d   1       7.721  -1.549  -8.182  0.00  0.00     0.028 H 
ATOM     45  H   LIG d   1       9.046  -2.363  -7.319  0.00  0.00     0.028 H 
ATOM     46  H   LIG d   1       8.038  -3.278  -8.466  0.00  0.00     0.028 H 
ENDBRANCH   1  43
TORSDOF 3
ENDMDL
MODEL 2
REMARK VINA RESULT:      -7.4      9.159     12.771
REMARK  3 active torsions:
REMARK  status: ('A' for Active; 'I' for Inactive)
REMARK    1  A    between atoms: C_1  and  C_2 
REMARK    2  A    between atoms: N_10  and  C_12 
REMARK    3  A    between atoms: C_15  and  C_18 
ROOT
ATOM      1  C   LIG d   1       9.393   0.476  -5.482  0.00  0.00     0.035 A 
ATOM      2  C   LIG d   1       8.332  -0.063  -4.769  0.00  0.00     0.146 A 
ATOM      3  C   LIG d   1       7.480   0.795  -4.059  0.00  0.00     0.026 A 
ATOM      4  C   LIG d   1       7.698   2.171  -4.078  0.00  0.00    -0.042 A 
ATOM      5  C   LIG d   1       8.759   2.693  -4.787  0.00  0.00     0.013 A 
ATOM      6  C   LIG d   1       9.607   1.847  -5.492  0.00  0.00     0.134 A 
ATOM      7  O   LIG d   1      10.659   2.345  -6.195  0.00  0.00    -0.473 OA
ATOM      8  C   LIG d   1      10.644   3.745  -6.483  0.00  0.00     0.157 C 
ATOM      9  N   LIG d   1      10.348   4.478  -5.241  0.00  0.00    -0.293 NA
ATOM     10  C   LIG d   1       8.979   4.185  -4.794  0.00  0.00     0.044 C 
ATOM     11  C   LIG d   1       6.353   0.220  -3.300  0.00  0.00    -0.000 A 
ATOM     12  C   LIG d   1       5.471   1.013  -2.575  0.00  0.00    -0.053 A 
ATOM     13  C   LIG d   1       4.434   0.421  -1.883  0.00  0.00    -0.061 A 
ATOM     14  C   LIG d   1       4.265  -0.955  -1.904  0.00  0.00    -0.061 A 
ATOM     15  C   LIG d   1       5.128  -1.758  -2.618  0.00  0.00    -0.047 A 
ATOM     16  C   LIG d   1       6.182  -1.180  -3.323  0.00  0.00     0.067 A 
ATOM     17  C   LIG d   1       7.132  -1.989  -4.100  0.00  0.00     0.345 A 
ATOM     18  O   LIG d   1       7.006  -3.199  -4.137  0.00  0.00    -0.244 OA
ATOM     19  O   LIG d   1       8.135  -1.400  -4.769  0.00  0.00    -0.421 OA
ATOM     20  H   LIG d   1       7.040   2.830  -3.530  0.00  0.00     0.063 H 
ATOM     21  H   LIG d   1       9.874   3.958  -7.226  0.00  0.00     0.091 H 
ATOM     22  H   LIG d   1      11.617   4.053  -6.867  0.00  0.00     0.091 H 
ATOM     23  H   LIG d   1       8.267   4.654  -5.473  0.00  0.00     0.051 H 
ATOM     24  H   LIG d   1       8.835   4.577  -3.787  0.00  0.00     0.051 H 
ATOM     25  H   LIG d   1       5.597   2.085  -2.553  0.00  0.00     0.062 H 
ATOM     26  H   LIG d   1       3.748   1.036  -1.318  0.00  0.00     0.062 H 
ATOM     27  H   LIG d   1       3.447  -1.401  -1.357  0.00  0.00     0.062 H 
ATOM     28  H   LIG d   1       4.990  -2.830  -2.630  0.00  0.00     0.063 H 
ENDROOT
BRANCH   9  29
ATOM     29  C   LIG d   1      10.535   5.851  -5.414  0.00  0.00     0.032 A 
ATOM     30  C   LIG d   1      11.764   6.340  -5.839  0.00  0.00    -0.040 A 
ATOM     31  C   LIG d   1      11.945   7.697  -6.009  0.00  0.00    -0.048 A 
ATOM     32  H   LIG d   1      12.577   5.657  -6.036  0.00  0.00     0.064 H 
ATOM     33  C   LIG d   1      10.903   8.573  -5.756  0.00  0.00     0.055 A 
ATOM     34  H   LIG d   1      12.900   8.077  -6.339  0.00  0.00     0.062 H 
ATOM     35  C   LIG d   1       9.678   8.090  -5.333  0.00  0.00    -0.048 A 
ATOM     36  C   LIG d   1       9.490   6.732  -5.166  0.00  0.00    -0.040 A 
ATOM     37  H   LIG d   1       8.867   8.776  -5.138  0.00  0.00     0.062 H 
ATOM     38  H   LIG d   1       8.531   6.356  -4.841  0.00  0.00     0.064 H 
BRANCH  33  39
ATOM     39  C   LIG d   1      11.104  10.054  -5.944  0.00  0.00     0.417 C 
ATOM     40  F   LIG d   1      11.848  10.281  -7.107  0.00  0.00    -0.166 F 
ATOM     41  F   LIG d   1       9.859  10.683  -6.056  0.00  0.00    -0.166 F 
ATOM     42  F   LIG d   1      11.792  10.574  -4.843  0.00  0.00    -0.166 F 
ENDBRANCH  33  39
ENDBRANCH   9  29
BRANCH   1  43
ATOM     43  C   LIG d   1      10.317  -0.432  -6.252  0.00  0.00    -0.033 C 
ATOM     44  H   LIG d   1      10.567  -1.299  -5.641  0.00  0.00     0.028 H 
ATOM     45  H   LIG d   1       9.826  -0.762  -7.166  0.00  0.00     0.028 H 
ATOM     46  H   LIG d   1      11.230   0.110  -6.505  0.00  0.00     0.028 H 
ENDBRANCH   1  43
TORSDOF 3
ENDMDL
MODEL 3
REMARK VINA RESULT:      -7.3      8.788     12.420
REMARK  3 active torsions:
REMARK  status: ('A' for Active; 'I' for Inactive)
REMARK    1  A    between atoms: C_1  and  C_2 
REMARK    2  A    between atoms: N_10  and  C_12 
REMARK    3  A    between atoms: C_15  and  C_18 
ROOT
ATOM      1  C   LIG d   1       9.032   0.028  -5.432  0.00  0.00     0.035 A 
ATOM      2  C   LIG d   1       7.948  -0.618  -4.855  0.00  0.00     0.146 A 
ATOM      3  C   LIG d   1       7.075   0.112  -4.034  0.00  0.00     0.026 A 
ATOM      4  C   LIG d   1       7.295   1.469  -3.812  0.00  0.00    -0.042 A 
ATOM      5  C   LIG d   1       8.379   2.097  -4.388  0.00  0.00     0.013 A 
ATOM      6  C   LIG d   1       9.248   1.378  -5.201  0.00  0.00     0.134 A 
ATOM      7  O   LIG d   1      10.322   1.983  -5.776  0.00  0.00    -0.473 OA
ATOM      8  C   LIG d   1      10.318   3.411  -5.820  0.00  0.00     0.157 C 
ATOM      9  N   LIG d   1       9.985   3.923  -4.481  0.00  0.00    -0.293 NA
ATOM     10  C   LIG d   1       8.601   3.567  -4.133  0.00  0.00     0.044 C 
ATOM     11  C   LIG d   1       5.924  -0.577  -3.420  0.00  0.00    -0.000 A 
ATOM     12  C   LIG d   1       5.021   0.086  -2.598  0.00  0.00    -0.053 A 
ATOM     13  C   LIG d   1       3.962  -0.608  -2.050  0.00  0.00    -0.061 A 
ATOM     14  C   LIG d   1       3.791  -1.960  -2.311  0.00  0.00    -0.061 A 
ATOM     15  C   LIG d   1       4.676  -2.635  -3.125  0.00  0.00    -0.047 A 
ATOM     16  C   LIG d   1       5.752  -1.951  -3.688  0.00  0.00     0.067 A 
ATOM     17  C   LIG d   1       6.725  -2.622  -4.562  0.00  0.00     0.345 A 
ATOM     18  O   LIG d   1       6.599  -3.807  -4.809  0.00  0.00    -0.244 OA
ATOM     19  O   LIG d   1       7.750  -1.935  -5.089  0.00  0.00    -0.421 OA
ATOM     20  H   LIG d   1       6.622   2.029  -3.179  0.00  0.00     0.063 H 
ATOM     21  H   LIG d   1       9.572   3.753  -6.539  0.00  0.00     0.091 H 
ATOM     22  H   LIG d   1      11.303   3.773  -6.116  0.00  0.00     0.091 H 
ATOM     23  H   LIG d   1       7.912   4.150  -4.743  0.00  0.00     0.051 H 
ATOM     24  H   LIG d   1       8.426   3.782  -3.079  0.00  0.00     0.051 H 
ATOM     25  H   LIG d   1       5.148   1.138  -2.389  0.00  0.00     0.062 H 
ATOM     26  H   LIG d   1       3.259  -0.095  -1.409  0.00  0.00     0.062 H 
ATOM     27  H   LIG d   1       2.957  -2.488  -1.874  0.00  0.00     0.062 H 
ATOM     28  H   LIG d   1       4.537  -3.688  -3.324  0.00  0.00     0.063 H 
ENDROOT
BRANCH   9  29
ATOM     29  C   LIG d   1      10.178   5.304  -4.410  0.00  0.00     0.032 A 
ATOM     30  C   LIG d   1       9.545   6.144  -5.318  0.00  0.00    -0.040 A 
ATOM     31  C   LIG d   1       9.737   7.509  -5.245  0.00  0.00    -0.048 A 
ATOM     32  H   LIG d   1       8.902   5.728  -6.080  0.00  0.00     0.064 H 
ATOM     33  C   LIG d   1      10.560   8.042  -4.269  0.00  0.00     0.055 A 
ATOM     34  H   LIG d   1       9.246   8.161  -5.951  0.00  0.00     0.062 H 
ATOM     35  C   LIG d   1      11.192   7.209  -3.363  0.00  0.00    -0.048 A 
ATOM     36  C   LIG d   1      10.999   5.843  -3.428  0.00  0.00    -0.040 A 
ATOM     37  H   LIG d   1      11.833   7.628  -2.602  0.00  0.00     0.062 H 
ATOM     38  H   LIG d   1      11.489   5.194  -2.717  0.00  0.00     0.064 H 
BRANCH  33  39
ATOM     39  C   LIG d   1      10.767   9.532  -4.192  0.00  0.00     0.417 C 
ATOM     40  F   LIG d   1       9.592  10.187  -4.574  0.00  0.00    -0.166 F 
ATOM     41  F   LIG d   1      11.096   9.890  -2.879  0.00  0.00    -0.166 F 
ATOM     42  F   LIG d   1      11.808   9.903  -5.050  0.00  0.00    -0.166 F 
ENDBRANCH  33  39
ENDBRANCH   9  29
BRANCH   1  43
ATOM     43  C   LIG d   1       9.979  -0.742  -6.317  0.00  0.00    -0.033 C 
ATOM     44  H   LIG d   1       9.464  -1.605  -6.737  0.00  0.00     0.028 H 
ATOM     45  H   LIG d   1      10.326  -0.098  -7.124  0.00  0.00     0.028 H 
ATOM     46  H   LIG d   1      10.832  -1.079  -5.728  0.00  0.00     0.028 H 
ENDBRANCH   1  43
TORSDOF 3
ENDMDL
MODEL 4
REMARK VINA RESULT:      -7.3      4.961      9.359
REMARK  3 active torsions:
REMARK  status: ('A' for Active; 'I' for Inactive)
REMARK    1  A    between atoms: C_1  and  C_2 
REMARK    2  A    between atoms: N_10  and  C_12 
REMARK    3  A    between atoms: C_15  and  C_18 
ROOT
ATOM      1  C   LIG d   1       4.697  -6.620  -8.427  0.00  0.00     0.035 A 
ATOM      2  C   LIG d   1       4.716  -7.944  -8.011  0.00  0.00     0.146 A 
ATOM      3  C   LIG d   1       4.732  -8.230  -6.639  0.00  0.00     0.026 A 
ATOM      4  C   LIG d   1       4.721  -7.193  -5.708  0.00  0.00    -0.042 A 
ATOM      5  C   LIG d   1       4.707  -5.882  -6.135  0.00  0.00     0.013 A 
ATOM      6  C   LIG d   1       4.693  -5.593  -7.495  0.00  0.00     0.134 A 
ATOM      7  O   LIG d   1       4.680  -4.306  -7.932  0.00  0.00    -0.473 OA
ATOM      8  C   LIG d   1       4.316  -3.300  -6.983  0.00  0.00     0.157 C 
ATOM      9  N   LIG d   1       5.094  -3.510  -5.752  0.00  0.00    -0.293 NA
ATOM     10  C   LIG d   1       4.698  -4.774  -5.112  0.00  0.00     0.044 C 
ATOM     11  C   LIG d   1       4.754  -9.638  -6.199  0.00  0.00    -0.000 A 
ATOM     12  C   LIG d   1       4.769  -9.991  -4.855  0.00  0.00    -0.053 A 
ATOM     13  C   LIG d   1       4.789 -11.324  -4.501  0.00  0.00    -0.061 A 
ATOM     14  C   LIG d   1       4.794 -12.314  -5.473  0.00  0.00    -0.061 A 
ATOM     15  C   LIG d   1       4.778 -11.984  -6.811  0.00  0.00    -0.047 A 
ATOM     16  C   LIG d   1       4.757 -10.643  -7.189  0.00  0.00     0.067 A 
ATOM     17  C   LIG d   1       4.740 -10.236  -8.601  0.00  0.00     0.345 A 
ATOM     18  O   LIG d   1       4.743 -11.082  -9.475  0.00  0.00    -0.244 OA
ATOM     19  O   LIG d   1       4.719  -8.935  -8.932  0.00  0.00    -0.421 OA
ATOM     20  H   LIG d   1       4.734  -7.416  -4.652  0.00  0.00     0.063 H 
ATOM     21  H   LIG d   1       3.251  -3.376  -6.760  0.00  0.00     0.091 H 
ATOM     22  H   LIG d   1       4.534  -2.313  -7.391  0.00  0.00     0.091 H 
ATOM     23  H   LIG d   1       3.697  -4.672  -4.696  0.00  0.00     0.051 H 
ATOM     24  H   LIG d   1       5.402  -5.012  -4.314  0.00  0.00     0.051 H 
ATOM     25  H   LIG d   1       4.766  -9.226  -4.092  0.00  0.00     0.062 H 
ATOM     26  H   LIG d   1       4.803 -11.601  -3.456  0.00  0.00     0.062 H 
ATOM     27  H   LIG d   1       4.810 -13.353  -5.178  0.00  0.00     0.062 H 
ATOM     28  H   LIG d   1       4.782 -12.760  -7.563  0.00  0.00     0.063 H 
ENDROOT
BRANCH   9  29
ATOM     29  C   LIG d   1       4.941  -2.436  -4.873  0.00  0.00     0.032 A 
ATOM     30  C   LIG d   1       4.484  -2.653  -3.579  0.00  0.00    -0.040 A 
ATOM     31  C   LIG d   1       4.335  -1.589  -2.713  0.00  0.00    -0.048 A 
ATOM     32  H   LIG d   1       4.247  -3.655  -3.252  0.00  0.00     0.064 H 
ATOM     33  C   LIG d   1       4.640  -0.306  -3.131  0.00  0.00     0.055 A 
ATOM     34  H   LIG d   1       3.980  -1.758  -1.708  0.00  0.00     0.062 H 
ATOM     35  C   LIG d   1       5.095  -0.086  -4.419  0.00  0.00    -0.048 A 
ATOM     36  C   LIG d   1       5.252  -1.147  -5.288  0.00  0.00    -0.040 A 
ATOM     37  H   LIG d   1       5.333   0.916  -4.742  0.00  0.00     0.062 H 
ATOM     38  H   LIG d   1       5.612  -0.974  -6.292  0.00  0.00     0.064 H 
BRANCH  33  39
ATOM     39  C   LIG d   1       4.476   0.853  -2.182  0.00  0.00     0.417 C 
ATOM     40  F   LIG d   1       3.173   1.351  -2.275  0.00  0.00    -0.166 F 
ATOM     41  F   LIG d   1       4.720   0.421  -0.873  0.00  0.00    -0.166 F 
ATOM     42  F   LIG d   1       5.386   1.861  -2.517  0.00  0.00    -0.166 F 
ENDBRANCH  33  39
ENDBRANCH   9  29
BRANCH   1  43
ATOM     43  C   LIG d   1       4.679  -6.296  -9.899  0.00  0.00    -0.033 C 
ATOM     44  H   LIG d   1       3.659  -6.073 -10.209  0.00  0.00     0.028 H 
ATOM     45  H   LIG d   1       5.314  -5.431 -10.088  0.00  0.00     0.028 H 
ATOM     46  H   LIG d   1       5.052  -7.152 -10.463  0.00  0.00     0.028 H 
ENDBRANCH   1  43
TORSDOF 3
ENDMDL
MODEL 5
REMARK VINA RESULT:      -7.1      7.576     10.167
REMARK  3 active torsions:
REMARK  status: ('A' for Active; 'I' for Inactive)
REMARK    1  A    between atoms: C_1  and  C_2 
REMARK    2  A    between atoms: N_10  and  C_12 
REMARK    3  A    between atoms: C_15  and  C_18 
ROOT
ATOM      1  C   LIG d   1       3.416  -0.842 -11.891  0.00  0.00     0.035 A 
ATOM      2  C   LIG d   1       2.448  -1.665 -12.447  0.00  0.00     0.146 A 
ATOM      3  C   LIG d   1       1.562  -2.348 -11.601  0.00  0.00     0.026 A 
ATOM      4  C   LIG d   1       1.653  -2.191 -10.220  0.00  0.00    -0.042 A 
ATOM      5  C   LIG d   1       2.623  -1.373  -9.680  0.00  0.00     0.013 A 
ATOM      6  C   LIG d   1       3.505  -0.696 -10.515  0.00  0.00     0.134 A 
ATOM      7  O   LIG d   1       4.468   0.114  -9.998  0.00  0.00    -0.473 OA
ATOM      8  C   LIG d   1       4.312   0.525  -8.638  0.00  0.00     0.157 C 
ATOM      9  N   LIG d   1       4.019  -0.662  -7.818  0.00  0.00    -0.293 NA
ATOM     10  C   LIG d   1       2.708  -1.218  -8.182  0.00  0.00     0.044 C 
ATOM     11  C   LIG d   1       0.534  -3.224 -12.194  0.00  0.00    -0.000 A 
ATOM     12  C   LIG d   1      -0.375  -3.928 -11.414  0.00  0.00    -0.053 A 
ATOM     13  C   LIG d   1      -1.316  -4.734 -12.023  0.00  0.00    -0.061 A 
ATOM     14  C   LIG d   1      -1.361  -4.847 -13.405  0.00  0.00    -0.061 A 
ATOM     15  C   LIG d   1      -0.469  -4.156 -14.196  0.00  0.00    -0.047 A 
ATOM     16  C   LIG d   1       0.488  -3.337 -13.600  0.00  0.00     0.067 A 
ATOM     17  C   LIG d   1       1.464  -2.579 -14.396  0.00  0.00     0.345 A 
ATOM     18  O   LIG d   1       1.446  -2.658 -15.610  0.00  0.00    -0.244 OA
ATOM     19  O   LIG d   1       2.372  -1.798 -13.791  0.00  0.00    -0.421 OA
ATOM     20  H   LIG d   1       0.970  -2.717  -9.570  0.00  0.00     0.063 H 
ATOM     21  H   LIG d   1       3.486   1.234  -8.563  0.00  0.00     0.091 H 
ATOM     22  H   LIG d   1       5.231   0.995  -8.287  0.00  0.00     0.091 H 
ATOM     23  H   LIG d   1       1.921  -0.546  -7.842  0.00  0.00     0.051 H 
ATOM     24  H   LIG d   1       2.584  -2.193  -7.710  0.00  0.00     0.051 H 
ATOM     25  H   LIG d   1      -0.345  -3.845 -10.337  0.00  0.00     0.062 H 
ATOM     26  H   LIG d   1      -2.023  -5.283 -11.417  0.00  0.00     0.062 H 
ATOM     27  H   LIG d   1      -2.104  -5.482 -13.864  0.00  0.00     0.062 H 
ATOM     28  H   LIG d   1      -0.511  -4.249 -15.271  0.00  0.00     0.063 H 
ENDROOT
BRANCH   9  29
ATOM     29  C   LIG d   1       4.071  -0.355  -6.456  0.00  0.00     0.032 A 
ATOM     30  C   LIG d   1       2.961   0.186  -5.821  0.00  0.00    -0.040 A 
ATOM     31  C   LIG d   1       3.015   0.487  -4.475  0.00  0.00    -0.048 A 
ATOM     32  H   LIG d   1       2.056   0.371  -6.381  0.00  0.00     0.064 H 
ATOM     33  C   LIG d   1       4.174   0.251  -3.758  0.00  0.00     0.055 A 
ATOM     34  H   LIG d   1       2.153   0.909  -3.982  0.00  0.00     0.062 H 
ATOM     35  C   LIG d   1       5.282  -0.289  -4.387  0.00  0.00    -0.048 A 
ATOM     36  C   LIG d   1       5.232  -0.597  -5.732  0.00  0.00    -0.040 A 
ATOM     37  H   LIG d   1       6.185  -0.473  -3.825  0.00  0.00     0.062 H 
ATOM     38  H   LIG d   1       6.096  -1.023  -6.222  0.00  0.00     0.064 H 
BRANCH  33  39
ATOM     39  C   LIG d   1       4.230   0.580  -2.289  0.00  0.00     0.417 C 
ATOM     40  F   LIG d   1       3.168   1.430  -1.961  0.00  0.00    -0.166 F 
ATOM     41  F   LIG d   1       4.132  -0.600  -1.543  0.00  0.00    -0.166 F 
ATOM     42  F   LIG d   1       5.442   1.216  -1.999  0.00  0.00    -0.166 F 
ENDBRANCH  33  39
ENDBRANCH   9  29
BRANCH   1  43
ATOM     43  C   LIG d   1       4.375  -0.101 -12.787  0.00  0.00    -0.033 C 
ATOM     44  H   LIG d   1       5.024   0.531 -12.181  0.00  0.00     0.028 H 
ATOM     45  H   LIG d   1       4.981  -0.817 -13.342  0.00  0.00     0.028 H 
ATOM     46  H   LIG d   1       3.813   0.519 -13.486  0.00  0.00     0.028 H 
ENDBRANCH   1  43
TORSDOF 3
ENDMDL
MODEL 6
REMARK VINA RESULT:      -6.8     11.405     14.987
REMARK  3 active torsions:
REMARK  status: ('A' for Active; 'I' for Inactive)
REMARK    1  A    between atoms: C_1  and  C_2 
REMARK    2  A    between atoms: N_10  and  C_12 
REMARK    3  A    between atoms: C_15  and  C_18 
ROOT
ATOM      1  C   LIG d   1       9.439   3.684  -5.374  0.00  0.00     0.035 A 
ATOM      2  C   LIG d   1       9.419   4.142  -6.683  0.00  0.00     0.146 A 
ATOM      3  C   LIG d   1       9.751   5.479  -6.946  0.00  0.00     0.026 A 
ATOM      4  C   LIG d   1      10.102   6.331  -5.901  0.00  0.00    -0.042 A 
ATOM      5  C   LIG d   1      10.113   5.864  -4.603  0.00  0.00     0.013 A 
ATOM      6  C   LIG d   1       9.783   4.540  -4.337  0.00  0.00     0.134 A 
ATOM      7  O   LIG d   1       9.789   4.065  -3.064  0.00  0.00    -0.473 OA
ATOM      8  C   LIG d   1      10.481   4.840  -2.082  0.00  0.00     0.157 C 
ATOM      9  N   LIG d   1      10.050   6.242  -2.200  0.00  0.00    -0.293 NA
ATOM     10  C   LIG d   1      10.493   6.803  -3.485  0.00  0.00     0.044 C 
ATOM     11  C   LIG d   1       9.727   5.964  -8.339  0.00  0.00    -0.000 A 
ATOM     12  C   LIG d   1      10.045   7.276  -8.668  0.00  0.00    -0.053 A 
ATOM     13  C   LIG d   1      10.007   7.675  -9.989  0.00  0.00    -0.061 A 
ATOM     14  C   LIG d   1       9.654   6.780 -10.988  0.00  0.00    -0.061 A 
ATOM     15  C   LIG d   1       9.337   5.475 -10.681  0.00  0.00    -0.047 A 
ATOM     16  C   LIG d   1       9.370   5.052  -9.354  0.00  0.00     0.067 A 
ATOM     17  C   LIG d   1       9.039   3.672  -8.971  0.00  0.00     0.345 A 
ATOM     18  O   LIG d   1       8.727   2.865  -9.827  0.00  0.00    -0.244 OA
ATOM     19  O   LIG d   1       9.082   3.297  -7.683  0.00  0.00    -0.421 OA
ATOM     20  H   LIG d   1      10.357   7.360  -6.105  0.00  0.00     0.063 H 
ATOM     21  H   LIG d   1      11.556   4.772  -2.255  0.00  0.00     0.091 H 
ATOM     22  H   LIG d   1      10.246   4.467  -1.085  0.00  0.00     0.091 H 
ATOM     23  H   LIG d   1      11.575   6.931  -3.471  0.00  0.00     0.051 H 
ATOM     24  H   LIG d   1      10.014   7.768  -3.645  0.00  0.00     0.051 H 
ATOM     25  H   LIG d   1      10.320   7.979  -7.896  0.00  0.00     0.062 H 
ATOM     26  H   LIG d   1      10.253   8.696 -10.247  0.00  0.00     0.062 H 
ATOM     27  H   LIG d   1       9.630   7.110 -12.016  0.00  0.00     0.062 H 
ATOM     28  H   LIG d   1       9.062   4.783 -11.465  0.00  0.00     0.063 H 
ENDROOT
BRANCH   9  29
ATOM     29  C   LIG d   1      10.526   7.005  -1.132  0.00  0.00     0.032 A 
ATOM     30  C   LIG d   1      10.808   6.398   0.086  0.00  0.00    -0.040 A 
ATOM     31  C   LIG d   1      11.280   7.154   1.140  0.00  0.00    -0.048 A 
ATOM     32  H   LIG d   1      10.659   5.335   0.207  0.00  0.00     0.064 H 
ATOM     33  C   LIG d   1      11.472   8.515   0.986  0.00  0.00     0.055 A 
ATOM     34  H   LIG d   1      11.499   6.682   2.086  0.00  0.00     0.062 H 
ATOM     35  C   LIG d   1      11.193   9.123  -0.225  0.00  0.00    -0.048 A 
ATOM     36  C   LIG d   1      10.725   8.371  -1.285  0.00  0.00    -0.040 A 
ATOM     37  H   LIG d   1      11.344  10.185  -0.342  0.00  0.00     0.062 H 
ATOM     38  H   LIG d   1      10.512   8.846  -2.231  0.00  0.00     0.064 H 
BRANCH  33  39
ATOM     39  C   LIG d   1      11.988   9.337   2.139  0.00  0.00     0.417 C 
ATOM     40  F   LIG d   1      13.373   9.491   2.019  0.00  0.00    -0.166 F 
ATOM     41  F   LIG d   1      11.375  10.595   2.125  0.00  0.00    -0.166 F 
ATOM     42  F   LIG d   1      11.693   8.688   3.342  0.00  0.00    -0.166 F 
ENDBRANCH  33  39
ENDBRANCH   9  29
BRANCH   1  43
ATOM     43  C   LIG d   1       9.086   2.250  -5.075  0.00  0.00    -0.033 C 
ATOM     44  H   LIG d   1       8.963   2.122  -4.000  0.00  0.00     0.028 H 
ATOM     45  H   LIG d   1       8.156   1.992  -5.580  0.00  0.00     0.028 H 
ATOM     46  H   LIG d   1       9.886   1.599  -5.429  0.00  0.00     0.028 H 
ENDBRANCH   1  43
TORSDOF 3
ENDMDL
MODEL 7
REMARK VINA RESULT:      -6.7      3.799      5.024
REMARK  3 active torsions:
REMARK  status: ('A' for Active; 'I' for Inactive)
REMARK    1  A    between atoms: C_1  and  C_2 
REMARK    2  A    between atoms: N_10  and  C_12 
REMARK    3  A    between atoms: C_15  and  C_18 
ROOT
ATOM      1  C   LIG d   1       3.403  -5.917  -9.049  0.00  0.00     0.035 A 
ATOM      2  C   LIG d   1       3.405  -4.529  -9.044  0.00  0.00     0.146 A 
ATOM      3  C   LIG d   1       3.882  -3.850  -7.914  0.00  0.00     0.026 A 
ATOM      4  C   LIG d   1       4.353  -4.565  -6.815  0.00  0.00    -0.042 A 
ATOM      5  C   LIG d   1       4.340  -5.943  -6.831  0.00  0.00     0.013 A 
ATOM      6  C   LIG d   1       3.867  -6.622  -7.948  0.00  0.00     0.134 A 
ATOM      7  O   LIG d   1       3.848  -7.981  -7.979  0.00  0.00    -0.473 OA
ATOM      8  C   LIG d   1       4.647  -8.666  -7.013  0.00  0.00     0.157 C 
ATOM      9  N   LIG d   1       4.377  -8.090  -5.685  0.00  0.00    -0.293 NA
ATOM     10  C   LIG d   1       4.852  -6.699  -5.630  0.00  0.00     0.044 C 
ATOM     11  C   LIG d   1       3.881  -2.375  -7.910  0.00  0.00    -0.000 A 
ATOM     12  C   LIG d   1       4.340  -1.640  -6.824  0.00  0.00    -0.053 A 
ATOM     13  C   LIG d   1       4.317  -0.261  -6.875  0.00  0.00    -0.061 A 
ATOM     14  C   LIG d   1       3.841   0.397  -8.000  0.00  0.00    -0.061 A 
ATOM     15  C   LIG d   1       3.382  -0.315  -9.088  0.00  0.00    -0.047 A 
ATOM     16  C   LIG d   1       3.398  -1.708  -9.055  0.00  0.00     0.067 A 
ATOM     17  C   LIG d   1       2.920  -2.515 -10.187  0.00  0.00     0.345 A 
ATOM     18  O   LIG d   1       2.498  -1.965 -11.187  0.00  0.00    -0.244 OA
ATOM     19  O   LIG d   1       2.949  -3.855 -10.124  0.00  0.00    -0.421 OA
ATOM     20  H   LIG d   1       4.719  -4.040  -5.946  0.00  0.00     0.063 H 
ATOM     21  H   LIG d   1       5.703  -8.542  -7.257  0.00  0.00     0.091 H 
ATOM     22  H   LIG d   1       4.395  -9.727  -7.010  0.00  0.00     0.091 H 
ATOM     23  H   LIG d   1       5.942  -6.688  -5.631  0.00  0.00     0.051 H 
ATOM     24  H   LIG d   1       4.483  -6.226  -4.721  0.00  0.00     0.051 H 
ATOM     25  H   LIG d   1       4.712  -2.145  -5.945  0.00  0.00     0.062 H 
ATOM     26  H   LIG d   1       4.673   0.312  -6.031  0.00  0.00     0.062 H 
ATOM     27  H   LIG d   1       3.830   1.477  -8.023  0.00  0.00     0.062 H 
ATOM     28  H   LIG d   1       3.012   0.204  -9.960  0.00  0.00     0.063 H 
ENDROOT
BRANCH   9  29
ATOM     29  C   LIG d   1       4.963  -8.859  -4.677  0.00  0.00     0.032 A 
ATOM     30  C   LIG d   1       4.172  -9.656  -3.860  0.00  0.00    -0.040 A 
ATOM     31  C   LIG d   1       4.754 -10.415  -2.865  0.00  0.00    -0.048 A 
ATOM     32  H   LIG d   1       3.101  -9.683  -4.005  0.00  0.00     0.064 H 
ATOM     33  C   LIG d   1       6.124 -10.382  -2.680  0.00  0.00     0.055 A 
ATOM     34  H   LIG d   1       4.139 -11.035  -2.230  0.00  0.00     0.062 H 
ATOM     35  C   LIG d   1       6.916  -9.589  -3.491  0.00  0.00    -0.048 A 
ATOM     36  C   LIG d   1       6.340  -8.832  -4.492  0.00  0.00    -0.040 A 
ATOM     37  H   LIG d   1       7.985  -9.566  -3.344  0.00  0.00     0.062 H 
ATOM     38  H   LIG d   1       6.959  -8.217  -5.128  0.00  0.00     0.064 H 
BRANCH  33  39
ATOM     39  C   LIG d   1       6.756 -11.213  -1.593  0.00  0.00     0.417 C 
ATOM     40  F   LIG d   1       5.891 -11.282  -0.496  0.00  0.00    -0.166 F 
ATOM     41  F   LIG d   1       7.002 -12.503  -2.076  0.00  0.00    -0.166 F 
ATOM     42  F   LIG d   1       7.962 -10.625  -1.199  0.00  0.00    -0.166 F 
ENDBRANCH  33  39
ENDBRANCH   9  29
BRANCH   1  43
ATOM     43  C   LIG d   1       2.894  -6.662 -10.256  0.00  0.00    -0.033 C 
ATOM     44  H   LIG d   1       3.652  -6.645 -11.039  0.00  0.00     0.028 H 
ATOM     45  H   LIG d   1       2.678  -7.694  -9.982  0.00  0.00     0.028 H 
ATOM     46  H   LIG d   1       1.984  -6.184 -10.620  0.00  0.00     0.028 H 
ENDBRANCH   1  43
TORSDOF 3
ENDMDL
MODEL 8
REMARK VINA RESULT:      -6.7      5.647      9.534
REMARK  3 active torsions:
REMARK  status: ('A' for Active; 'I' for Inactive)
REMARK    1  A    between atoms: C_1  and  C_2 
REMARK    2  A    between atoms: N_10  and  C_12 
REMARK    3  A    between atoms: C_15  and  C_18 
ROOT
ATOM      1  C   LIG d   1       4.431  -7.307  -7.379  0.00  0.00     0.035 A 
ATOM      2  C   LIG d   1       3.980  -7.389  -8.688  0.00  0.00     0.146 A 
ATOM      3  C   LIG d   1       3.553  -6.223  -9.338  0.00  0.00     0.026 A 
ATOM      4  C   LIG d   1       3.590  -4.998  -8.675  0.00  0.00    -0.042 A 
ATOM      5  C   LIG d   1       4.035  -4.932  -7.372  0.00  0.00     0.013 A 
ATOM      6  C   LIG d   1       4.458  -6.086  -6.722  0.00  0.00     0.134 A 
ATOM      7  O   LIG d   1       4.900  -6.037  -5.437  0.00  0.00    -0.473 OA
ATOM      8  C   LIG d   1       5.256  -4.753  -4.918  0.00  0.00     0.157 C 
ATOM      9  N   LIG d   1       4.168  -3.807  -5.218  0.00  0.00    -0.293 NA
ATOM     10  C   LIG d   1       4.065  -3.597  -6.670  0.00  0.00     0.044 C 
ATOM     11  C   LIG d   1       3.072  -6.312 -10.730  0.00  0.00    -0.000 A 
ATOM     12  C   LIG d   1       2.635  -5.196 -11.433  0.00  0.00    -0.053 A 
ATOM     13  C   LIG d   1       2.196  -5.338 -12.734  0.00  0.00    -0.061 A 
ATOM     14  C   LIG d   1       2.187  -6.583 -13.345  0.00  0.00    -0.061 A 
ATOM     15  C   LIG d   1       2.618  -7.702 -12.664  0.00  0.00    -0.047 A 
ATOM     16  C   LIG d   1       3.065  -7.579 -11.350  0.00  0.00     0.067 A 
ATOM     17  C   LIG d   1       3.534  -8.740 -10.579  0.00  0.00     0.345 A 
ATOM     18  O   LIG d   1       3.538  -9.844 -11.090  0.00  0.00    -0.244 OA
ATOM     19  O   LIG d   1       3.959  -8.587  -9.316  0.00  0.00    -0.421 OA
ATOM     20  H   LIG d   1       3.260  -4.101  -9.178  0.00  0.00     0.063 H 
ATOM     21  H   LIG d   1       6.178  -4.411  -5.390  0.00  0.00     0.091 H 
ATOM     22  H   LIG d   1       5.398  -4.818  -3.840  0.00  0.00     0.091 H 
ATOM     23  H   LIG d   1       4.924  -3.024  -7.016  0.00  0.00     0.051 H 
ATOM     24  H   LIG d   1       3.149  -3.051  -6.892  0.00  0.00     0.051 H 
ATOM     25  H   LIG d   1       2.639  -4.223 -10.964  0.00  0.00     0.062 H 
ATOM     26  H   LIG d   1       1.855  -4.471 -13.281  0.00  0.00     0.062 H 
ATOM     27  H   LIG d   1       1.841  -6.676 -14.363  0.00  0.00     0.062 H 
ATOM     28  H   LIG d   1       2.608  -8.669 -13.147  0.00  0.00     0.063 H 
ENDROOT
BRANCH   9  29
ATOM     29  C   LIG d   1       4.360  -2.596  -4.550  0.00  0.00     0.032 A 
ATOM     30  C   LIG d   1       4.355  -2.558  -3.162  0.00  0.00    -0.040 A 
ATOM     31  C   LIG d   1       4.546  -1.359  -2.504  0.00  0.00    -0.048 A 
ATOM     32  H   LIG d   1       4.203  -3.466  -2.597  0.00  0.00     0.064 H 
ATOM     33  C   LIG d   1       4.741  -0.195  -3.227  0.00  0.00     0.055 A 
ATOM     34  H   LIG d   1       4.542  -1.329  -1.425  0.00  0.00     0.062 H 
ATOM     35  C   LIG d   1       4.747  -0.230  -4.610  0.00  0.00    -0.048 A 
ATOM     36  C   LIG d   1       4.562  -1.427  -5.273  0.00  0.00    -0.040 A 
ATOM     37  H   LIG d   1       4.901   0.680  -5.170  0.00  0.00     0.062 H 
ATOM     38  H   LIG d   1       4.572  -1.453  -6.352  0.00  0.00     0.064 H 
BRANCH  33  39
ATOM     39  C   LIG d   1       4.950   1.111  -2.506  0.00  0.00     0.417 C 
ATOM     40  F   LIG d   1       4.795   0.915  -1.130  0.00  0.00    -0.166 F 
ATOM     41  F   LIG d   1       6.240   1.587  -2.767  0.00  0.00    -0.166 F 
ATOM     42  F   LIG d   1       4.009   2.045  -2.952  0.00  0.00    -0.166 F 
ENDBRANCH  33  39
ENDBRANCH   9  29
BRANCH   1  43
ATOM     43  C   LIG d   1       4.895  -8.551  -6.666  0.00  0.00    -0.033 C 
ATOM     44  H   LIG d   1       5.984  -8.584  -6.662  0.00  0.00     0.028 H 
ATOM     45  H   LIG d   1       4.528  -8.541  -5.640  0.00  0.00     0.028 H 
ATOM     46  H   LIG d   1       4.506  -9.431  -7.181  0.00  0.00     0.028 H 
ENDBRANCH   1  43
TORSDOF 3
ENDMDL
MODEL 9
REMARK VINA RESULT:      -6.5      6.640      9.214
REMARK  3 active torsions:
REMARK  status: ('A' for Active; 'I' for Inactive)
REMARK    1  A    between atoms: C_1  and  C_2 
REMARK    2  A    between atoms: N_10  and  C_12 
REMARK    3  A    between atoms: C_15  and  C_18 
ROOT
ATOM      1  C   LIG d   1      11.273  -4.557  -4.984  0.00  0.00     0.035 A 
ATOM      2  C   LIG d   1      11.716  -5.593  -4.174  0.00  0.00     0.146 A 
ATOM      3  C   LIG d   1      11.008  -5.895  -3.001  0.00  0.00     0.026 A 
ATOM      4  C   LIG d   1       9.870  -5.165  -2.664  0.00  0.00    -0.042 A 
ATOM      5  C   LIG d   1       9.443  -4.136  -3.476  0.00  0.00     0.013 A 
ATOM      6  C   LIG d   1      10.143  -3.831  -4.638  0.00  0.00     0.134 A 
ATOM      7  O   LIG d   1       9.735  -2.818  -5.449  0.00  0.00    -0.473 OA
ATOM      8  C   LIG d   1       8.401  -2.338  -5.271  0.00  0.00     0.157 C 
ATOM      9  N   LIG d   1       8.178  -2.089  -3.837  0.00  0.00    -0.293 NA
ATOM     10  C   LIG d   1       8.211  -3.356  -3.092  0.00  0.00     0.044 C 
ATOM     11  C   LIG d   1      11.481  -6.995  -2.140  0.00  0.00    -0.000 A 
ATOM     12  C   LIG d   1      10.827  -7.347  -0.966  0.00  0.00    -0.053 A 
ATOM     13  C   LIG d   1      11.315  -8.385  -0.199  0.00  0.00    -0.061 A 
ATOM     14  C   LIG d   1      12.450  -9.079  -0.589  0.00  0.00    -0.061 A 
ATOM     15  C   LIG d   1      13.113  -8.746  -1.750  0.00  0.00    -0.047 A 
ATOM     16  C   LIG d   1      12.636  -7.700  -2.539  0.00  0.00     0.067 A 
ATOM     17  C   LIG d   1      13.304  -7.303  -3.786  0.00  0.00     0.345 A 
ATOM     18  O   LIG d   1      14.302  -7.895  -4.153  0.00  0.00    -0.244 OA
ATOM     19  O   LIG d   1      12.819  -6.292  -4.523  0.00  0.00    -0.421 OA
ATOM     20  H   LIG d   1       9.326  -5.399  -1.760  0.00  0.00     0.063 H 
ATOM     21  H   LIG d   1       7.692  -3.087  -5.627  0.00  0.00     0.091 H 
ATOM     22  H   LIG d   1       8.265  -1.412  -5.829  0.00  0.00     0.091 H 
ATOM     23  H   LIG d   1       7.323  -3.940  -3.330  0.00  0.00     0.051 H 
ATOM     24  H   LIG d   1       8.233  -3.146  -2.022  0.00  0.00     0.051 H 
ATOM     25  H   LIG d   1       9.942  -6.810  -0.656  0.00  0.00     0.062 H 
ATOM     26  H   LIG d   1      10.807  -8.659   0.716  0.00  0.00     0.062 H 
ATOM     27  H   LIG d   1      12.818  -9.889   0.024  0.00  0.00     0.062 H 
ATOM     28  H   LIG d   1      13.997  -9.291  -2.047  0.00  0.00     0.063 H 
ENDROOT
BRANCH   9  29
ATOM     29  C   LIG d   1       6.972  -1.417  -3.628  0.00  0.00     0.032 A 
ATOM     30  C   LIG d   1       6.962  -0.036  -3.472  0.00  0.00    -0.040 A 
ATOM     31  C   LIG d   1       5.768   0.625  -3.265  0.00  0.00    -0.048 A 
ATOM     32  H   LIG d   1       7.888   0.518  -3.513  0.00  0.00     0.064 H 
ATOM     33  C   LIG d   1       4.582  -0.085  -3.213  0.00  0.00     0.055 A 
ATOM     34  H   LIG d   1       5.760   1.698  -3.144  0.00  0.00     0.062 H 
ATOM     35  C   LIG d   1       4.588  -1.459  -3.368  0.00  0.00    -0.048 A 
ATOM     36  C   LIG d   1       5.778  -2.126  -3.580  0.00  0.00    -0.040 A 
ATOM     37  H   LIG d   1       3.660  -2.010  -3.327  0.00  0.00     0.062 H 
ATOM     38  H   LIG d   1       5.781  -3.199  -3.706  0.00  0.00     0.064 H 
BRANCH  33  39
ATOM     39  C   LIG d   1       3.281   0.641  -2.988  0.00  0.00     0.417 C 
ATOM     40  F   LIG d   1       2.910   1.309  -4.160  0.00  0.00    -0.166 F 
ATOM     41  F   LIG d   1       2.286  -0.281  -2.642  0.00  0.00    -0.166 F 
ATOM     42  F   LIG d   1       3.437   1.568  -1.953  0.00  0.00    -0.166 F 
ENDBRANCH  33  39
ENDBRANCH   9  29
BRANCH   1  43
ATOM     43  C   LIG d   1      12.022  -4.221  -6.247  0.00  0.00    -0.033 C 
ATOM     44  H   LIG d   1      12.668  -3.362  -6.069  0.00  0.00     0.028 H 
ATOM     45  H   LIG d   1      12.628  -5.074  -6.550  0.00  0.00     0.028 H 
ATOM     46  H   LIG d   1      11.310  -3.982  -7.038  0.00  0.00     0.028 H 
ENDBRANCH   1  43
TORSDOF 3
ENDMDL
