MODEL 1
REMARK VINA RESULT:      -7.3      0.000      0.000
REMARK  10 active torsions:
REMARK  status: ('A' for Active; 'I' for Inactive)
REMARK    1  A    between atoms: C_1  and  C_2 
REMARK    2  A    between atoms: C_2  and  O_3 
REMARK    3  A    between atoms: O_3  and  C_4 
REMARK    4  A    between atoms: C_9  and  C_10 
REMARK    5  A    between atoms: N_29  and  C_32 
REMARK    6  A    between atoms: C_32  and  C_33 
REMARK    7  A    between atoms: C_33  and  C_34 
REMARK    8  A    between atoms: C_34  and  N_66 
REMARK    9  A    between atoms: C_35  and  N_66 
REMARK   10  A    between atoms: C_36  and  N_66 
ROOT
ATOM      1  C   LIG d   1       6.791  -0.968  -4.973  0.00  0.00     0.096 C 
ATOM      2  H   LIG d   1       7.544  -0.225  -5.240  0.00  0.00     0.062 H 
ATOM      3  C   LIG d   1       7.461  -2.279  -4.634  0.00  0.00     0.046 A 
ATOM      4  C   LIG d   1       7.416  -3.369  -5.431  0.00  0.00    -0.015 A 
ATOM      5  C   LIG d   1       8.175  -4.411  -4.770  0.00  0.00     0.003 A 
ATOM      6  C   LIG d   1       8.467  -5.734  -5.114  0.00  0.00    -0.052 A 
ATOM      7  C   LIG d   1       9.238  -6.449  -4.231  0.00  0.00    -0.061 A 
ATOM      8  C   LIG d   1       9.702  -5.898  -3.046  0.00  0.00    -0.060 A 
ATOM      9  C   LIG d   1       9.424  -4.594  -2.679  0.00  0.00    -0.038 A 
ATOM     10  C   LIG d   1       8.647  -3.842  -3.559  0.00  0.00     0.047 A 
ATOM     11  N   LIG d   1       8.195  -2.555  -3.511  0.00  0.00    -0.356 N 
ATOM     12  H   LIG d   1       8.366  -1.930  -2.790  0.00  0.00     0.166 HD
ATOM     13  C   LIG d   1       6.691  -3.436  -6.751  0.00  0.00     0.002 C 
ATOM     14  C   LIG d   1       6.417  -2.005  -7.238  0.00  0.00     0.107 A 
ATOM     15  H   LIG d   1       7.354  -1.565  -7.577  0.00  0.00     0.060 H 
ATOM     16  N   LIG d   1       5.897  -1.211  -6.125  0.00  0.00    -0.276 N 
ATOM     17  C   LIG d   1       4.665  -0.698  -6.109  0.00  0.00     0.234 A 
ATOM     18  O   LIG d   1       4.309  -0.114  -5.107  0.00  0.00    -0.274 OA
ATOM     19  C   LIG d   1       3.695  -0.794  -7.241  0.00  0.00     0.091 A 
ATOM     20  N   LIG d   1       4.257  -1.495  -8.384  0.00  0.00    -0.291 N 
ATOM     21  C   LIG d   1       5.458  -2.038  -8.383  0.00  0.00     0.237 A 
ATOM     22  O   LIG d   1       5.805  -2.600  -9.399  0.00  0.00    -0.274 OA
ATOM     23  H   LIG d   1       8.110  -6.171  -6.034  0.00  0.00     0.062 H 
ATOM     24  H   LIG d   1       9.487  -7.473  -4.465  0.00  0.00     0.062 H 
ATOM     25  H   LIG d   1      10.301  -6.510  -2.388  0.00  0.00     0.062 H 
ATOM     26  H   LIG d   1       9.792  -4.176  -1.753  0.00  0.00     0.064 H 
ATOM     27  H   LIG d   1       7.308  -3.958  -7.482  0.00  0.00     0.034 H 
ATOM     28  H   LIG d   1       5.746  -3.967  -6.624  0.00  0.00     0.034 H 
ATOM     29  H   LIG d   1       2.806  -1.325  -6.902  0.00  0.00     0.056 H 
ATOM     30  H   LIG d   1       3.409   0.212  -7.549  0.00  0.00     0.056 H 
ENDROOT
BRANCH   1  31
ATOM     31  C   LIG d   1       5.988  -0.483  -3.795  0.00  0.00     0.021 A 
ATOM     32  C   LIG d   1       6.022   0.856  -3.435  0.00  0.00     0.126 A 
ATOM     33  C   LIG d   1       5.280   1.299  -2.349  0.00  0.00    -0.020 A 
ATOM     34  C   LIG d   1       4.509   0.406  -1.630  0.00  0.00    -0.058 A 
ATOM     35  H   LIG d   1       5.305   2.341  -2.066  0.00  0.00     0.065 H 
ATOM     36  C   LIG d   1       4.477  -0.928  -1.991  0.00  0.00    -0.061 A 
ATOM     37  H   LIG d   1       3.931   0.751  -0.785  0.00  0.00     0.062 H 
ATOM     38  C   LIG d   1       5.211  -1.371  -3.075  0.00  0.00    -0.053 A 
ATOM     39  H   LIG d   1       3.873  -1.624  -1.428  0.00  0.00     0.062 H 
ATOM     40  H   LIG d   1       5.180  -2.413  -3.358  0.00  0.00     0.062 H 
BRANCH  32  41
ATOM     41  O   LIG d   1       6.780   1.732  -4.144  0.00  0.00    -0.492 OA
BRANCH  41  42
ATOM     42  C   LIG d   1       8.135   1.907  -3.723  0.00  0.00     0.087 C 
ATOM     43  H   LIG d   1       8.156   2.167  -2.665  0.00  0.00     0.069 H 
ATOM     44  H   LIG d   1       8.686   0.981  -3.881  0.00  0.00     0.069 H 
BRANCH  42  45
ATOM     45  C   LIG d   1       8.781   3.030  -4.537  0.00  0.00    -0.031 C 
ATOM     46  H   LIG d   1       8.258   3.967  -4.343  0.00  0.00     0.026 H 
ATOM     47  H   LIG d   1       9.827   3.131  -4.248  0.00  0.00     0.026 H 
ATOM     48  H   LIG d   1       8.719   2.792  -5.598  0.00  0.00     0.026 H 
ENDBRANCH  42  45
ENDBRANCH  41  42
ENDBRANCH  32  41
ENDBRANCH   1  31
BRANCH  20  49
ATOM     49  C   LIG d   1       3.439  -1.609  -9.594  0.00  0.00     0.020 C 
ATOM     50  H   LIG d   1       4.052  -1.986 -10.413  0.00  0.00     0.047 H 
ATOM     51  H   LIG d   1       2.613  -2.297  -9.412  0.00  0.00     0.047 H 
BRANCH  49  52
ATOM     52  C   LIG d   1       2.883  -0.232  -9.966  0.00  0.00     0.003 C 
ATOM     53  H   LIG d   1       1.991  -0.355 -10.580  0.00  0.00     0.033 H 
ATOM     54  H   LIG d   1       2.627   0.313  -9.057  0.00  0.00     0.033 H 
BRANCH  52  55
ATOM     55  C   LIG d   1       3.939   0.549 -10.750  0.00  0.00    -0.031 C 
ATOM     56  H   LIG d   1       4.857  -0.035 -10.805  0.00  0.00     0.082 H 
ATOM     57  H   LIG d   1       3.572   0.746 -11.757  0.00  0.00     0.082 H 
BRANCH  55  58
ATOM     58  N   LIG d   1       4.184   1.837 -10.066  0.00  0.00     0.231 N 
ATOM     59  H   LIG d   1       4.268   2.578 -10.771  0.00  0.00     0.203 HD
BRANCH  58  60
ATOM     60  C   LIG d   1       3.055   2.154  -9.167  0.00  0.00    -0.043 C 
ATOM     61  H   LIG d   1       2.992   3.229  -8.998  0.00  0.00     0.078 H 
ATOM     62  H   LIG d   1       2.130   1.802  -9.623  0.00  0.00     0.078 H 
ATOM     63  H   LIG d   1       3.208   1.645  -8.215  0.00  0.00     0.078 H 
ENDBRANCH  58  60
BRANCH  58  64
ATOM     64  C   LIG d   1       5.442   1.765  -9.292  0.00  0.00    -0.043 C 
ATOM     65  H   LIG d   1       6.024   0.911  -9.641  0.00  0.00     0.078 H 
ATOM     66  H   LIG d   1       6.009   2.682  -9.452  0.00  0.00     0.078 H 
ATOM     67  H   LIG d   1       5.230   1.648  -8.229  0.00  0.00     0.078 H 
ENDBRANCH  58  64
ENDBRANCH  55  58
ENDBRANCH  52  55
ENDBRANCH  49  52
ENDBRANCH  20  49
TORSDOF 10
ENDMDL
MODEL 2
REMARK VINA RESULT:      -6.9      1.347      2.461
REMARK  10 active torsions:
REMARK  status: ('A' for Active; 'I' for Inactive)
REMARK    1  A    between atoms: C_1  and  C_2 
REMARK    2  A    between atoms: C_2  and  O_3 
REMARK    3  A    between atoms: O_3  and  C_4 
REMARK    4  A    between atoms: C_9  and  C_10 
REMARK    5  A    between atoms: N_29  and  C_32 
REMARK    6  A    between atoms: C_32  and  C_33 
REMARK    7  A    between atoms: C_33  and  C_34 
REMARK    8  A    between atoms: C_34  and  N_66 
REMARK    9  A    between atoms: C_35  and  N_66 
REMARK   10  A    between atoms: C_36  and  N_66 
ROOT
ATOM      1  C   LIG d   1       6.934  -0.915  -4.876  0.00  0.00     0.096 C 
ATOM      2  H   LIG d   1       7.676  -0.148  -5.103  0.00  0.00     0.062 H 
ATOM      3  C   LIG d   1       7.629  -2.200  -4.489  0.00  0.00     0.046 A 
ATOM      4  C   LIG d   1       7.668  -3.295  -5.280  0.00  0.00    -0.015 A 
ATOM      5  C   LIG d   1       8.423  -4.306  -4.569  0.00  0.00     0.003 A 
ATOM      6  C   LIG d   1       8.780  -5.620  -4.887  0.00  0.00    -0.052 A 
ATOM      7  C   LIG d   1       9.522  -6.303  -3.955  0.00  0.00    -0.061 A 
ATOM      8  C   LIG d   1       9.896  -5.731  -2.749  0.00  0.00    -0.060 A 
ATOM      9  C   LIG d   1       9.552  -4.435  -2.407  0.00  0.00    -0.038 A 
ATOM     10  C   LIG d   1       8.803  -3.716  -3.336  0.00  0.00     0.047 A 
ATOM     11  N   LIG d   1       8.305  -2.445  -3.323  0.00  0.00    -0.356 N 
ATOM     12  H   LIG d   1       8.412  -1.811  -2.598  0.00  0.00     0.166 HD
ATOM     13  C   LIG d   1       7.024  -3.393  -6.640  0.00  0.00     0.002 C 
ATOM     14  C   LIG d   1       6.730  -1.976  -7.151  0.00  0.00     0.107 A 
ATOM     15  H   LIG d   1       7.669  -1.504  -7.438  0.00  0.00     0.060 H 
ATOM     16  N   LIG d   1       6.119  -1.195  -6.077  0.00  0.00    -0.276 N 
ATOM     17  C   LIG d   1       4.870  -0.725  -6.135  0.00  0.00     0.234 A 
ATOM     18  O   LIG d   1       4.437  -0.150  -5.160  0.00  0.00    -0.274 OA
ATOM     19  C   LIG d   1       3.972  -0.861  -7.322  0.00  0.00     0.091 A 
ATOM     20  N   LIG d   1       4.624  -1.547  -8.425  0.00  0.00    -0.291 N 
ATOM     21  C   LIG d   1       5.841  -2.047  -8.351  0.00  0.00     0.237 A 
ATOM     22  O   LIG d   1       6.267  -2.602  -9.341  0.00  0.00    -0.274 OA
ATOM     23  H   LIG d   1       8.493  -6.074  -5.823  0.00  0.00     0.062 H 
ATOM     24  H   LIG d   1       9.820  -7.319  -4.167  0.00  0.00     0.062 H 
ATOM     25  H   LIG d   1      10.478  -6.318  -2.052  0.00  0.00     0.062 H 
ATOM     26  H   LIG d   1       9.851  -4.001  -1.465  0.00  0.00     0.064 H 
ATOM     27  H   LIG d   1       7.701  -3.897  -7.330  0.00  0.00     0.034 H 
ATOM     28  H   LIG d   1       6.093  -3.957  -6.564  0.00  0.00     0.034 H 
ATOM     29  H   LIG d   1       3.084  -1.421  -7.031  0.00  0.00     0.056 H 
ATOM     30  H   LIG d   1       3.670   0.133  -7.652  0.00  0.00     0.056 H 
ENDROOT
BRANCH   1  31
ATOM     31  C   LIG d   1       6.047  -0.453  -3.750  0.00  0.00     0.021 A 
ATOM     32  C   LIG d   1       5.999   0.891  -3.410  0.00  0.00     0.126 A 
ATOM     33  C   LIG d   1       5.180   1.313  -2.372  0.00  0.00    -0.020 A 
ATOM     34  C   LIG d   1       4.414   0.394  -1.681  0.00  0.00    -0.058 A 
ATOM     35  H   LIG d   1       5.141   2.359  -2.106  0.00  0.00     0.065 H 
ATOM     36  C   LIG d   1       4.464  -0.945  -2.022  0.00  0.00    -0.061 A 
ATOM     37  H   LIG d   1       3.776   0.722  -0.873  0.00  0.00     0.062 H 
ATOM     38  C   LIG d   1       5.275  -1.367  -3.058  0.00  0.00    -0.053 A 
ATOM     39  H   LIG d   1       3.865  -1.661  -1.480  0.00  0.00     0.062 H 
ATOM     40  H   LIG d   1       5.309  -2.413  -3.326  0.00  0.00     0.062 H 
BRANCH  32  41
ATOM     41  O   LIG d   1       6.752   1.793  -4.092  0.00  0.00    -0.492 OA
BRANCH  41  42
ATOM     42  C   LIG d   1       8.132   1.891  -3.731  0.00  0.00     0.087 C 
ATOM     43  H   LIG d   1       8.214   2.125  -2.671  0.00  0.00     0.069 H 
ATOM     44  H   LIG d   1       8.628   0.942  -3.934  0.00  0.00     0.069 H 
BRANCH  42  45
ATOM     45  C   LIG d   1       8.797   2.999  -4.551  0.00  0.00    -0.031 C 
ATOM     46  H   LIG d   1       9.085   2.606  -5.526  0.00  0.00     0.026 H 
ATOM     47  H   LIG d   1       8.095   3.822  -4.684  0.00  0.00     0.026 H 
ATOM     48  H   LIG d   1       9.682   3.357  -4.028  0.00  0.00     0.026 H 
ENDBRANCH  42  45
ENDBRANCH  41  42
ENDBRANCH  32  41
ENDBRANCH   1  31
BRANCH  20  49
ATOM     49  C   LIG d   1       3.883  -1.695  -9.680  0.00  0.00     0.020 C 
ATOM     50  H   LIG d   1       3.522  -0.719 -10.006  0.00  0.00     0.047 H 
ATOM     51  H   LIG d   1       4.539  -2.113 -10.444  0.00  0.00     0.047 H 
BRANCH  49  52
ATOM     52  C   LIG d   1       2.693  -2.632  -9.462  0.00  0.00     0.003 C 
ATOM     53  H   LIG d   1       2.495  -2.724  -8.394  0.00  0.00     0.033 H 
ATOM     54  H   LIG d   1       1.813  -2.224  -9.960  0.00  0.00     0.033 H 
BRANCH  52  55
ATOM     55  C   LIG d   1       3.016  -4.010 -10.042  0.00  0.00    -0.031 C 
ATOM     56  H   LIG d   1       2.457  -4.155 -10.967  0.00  0.00     0.082 H 
ATOM     57  H   LIG d   1       4.084  -4.076 -10.249  0.00  0.00     0.082 H 
BRANCH  55  58
ATOM     58  N   LIG d   1       2.651  -5.042  -9.049  0.00  0.00     0.231 N 
ATOM     59  H   LIG d   1       1.733  -4.811  -8.650  0.00  0.00     0.203 HD
BRANCH  58  60
ATOM     60  C   LIG d   1       2.572  -6.366  -9.701  0.00  0.00    -0.043 C 
ATOM     61  H   LIG d   1       1.538  -6.613  -9.941  0.00  0.00     0.078 H 
ATOM     62  H   LIG d   1       3.163  -6.345 -10.617  0.00  0.00     0.078 H 
ATOM     63  H   LIG d   1       2.977  -7.118  -9.024  0.00  0.00     0.078 H 
ENDBRANCH  58  60
BRANCH  58  64
ATOM     64  C   LIG d   1       3.654  -5.074  -7.963  0.00  0.00    -0.043 C 
ATOM     65  H   LIG d   1       4.469  -4.395  -8.215  0.00  0.00     0.078 H 
ATOM     66  H   LIG d   1       3.182  -4.746  -7.036  0.00  0.00     0.078 H 
ATOM     67  H   LIG d   1       4.047  -6.082  -7.835  0.00  0.00     0.078 H 
ENDBRANCH  58  64
ENDBRANCH  55  58
ENDBRANCH  52  55
ENDBRANCH  49  52
ENDBRANCH  20  49
TORSDOF 10
ENDMDL
MODEL 3
REMARK VINA RESULT:      -6.8      3.214      5.619
REMARK  10 active torsions:
REMARK  status: ('A' for Active; 'I' for Inactive)
REMARK    1  A    between atoms: C_1  and  C_2 
REMARK    2  A    between atoms: C_2  and  O_3 
REMARK    3  A    between atoms: O_3  and  C_4 
REMARK    4  A    between atoms: C_9  and  C_10 
REMARK    5  A    between atoms: N_29  and  C_32 
REMARK    6  A    between atoms: C_32  and  C_33 
REMARK    7  A    between atoms: C_33  and  C_34 
REMARK    8  A    between atoms: C_34  and  N_66 
REMARK    9  A    between atoms: C_35  and  N_66 
REMARK   10  A    between atoms: C_36  and  N_66 
ROOT
ATOM      1  C   LIG d   1       5.262  -0.877  -7.521  0.00  0.00     0.096 C 
ATOM      2  H   LIG d   1       6.328  -0.875  -7.754  0.00  0.00     0.062 H 
ATOM      3  C   LIG d   1       5.065  -0.802  -6.024  0.00  0.00     0.046 A 
ATOM      4  C   LIG d   1       4.639  -1.842  -5.274  0.00  0.00    -0.015 A 
ATOM      5  C   LIG d   1       4.584  -1.381  -3.902  0.00  0.00     0.003 A 
ATOM      6  C   LIG d   1       4.218  -2.006  -2.706  0.00  0.00    -0.052 A 
ATOM      7  C   LIG d   1       4.292  -1.250  -1.563  0.00  0.00    -0.061 A 
ATOM      8  C   LIG d   1       4.700   0.075  -1.582  0.00  0.00    -0.060 A 
ATOM      9  C   LIG d   1       5.063   0.719  -2.751  0.00  0.00    -0.038 A 
ATOM     10  C   LIG d   1       5.002  -0.026  -3.927  0.00  0.00     0.047 A 
ATOM     11  N   LIG d   1       5.283   0.289  -5.225  0.00  0.00    -0.356 N 
ATOM     12  H   LIG d   1       5.589   1.155  -5.536  0.00  0.00     0.166 HD
ATOM     13  C   LIG d   1       4.294  -3.206  -5.816  0.00  0.00     0.002 C 
ATOM     14  C   LIG d   1       4.914  -3.353  -7.213  0.00  0.00     0.107 A 
ATOM     15  H   LIG d   1       5.991  -3.475  -7.108  0.00  0.00     0.060 H 
ATOM     16  N   LIG d   1       4.650  -2.140  -7.986  0.00  0.00    -0.276 N 
ATOM     17  C   LIG d   1       3.891  -2.125  -9.085  0.00  0.00     0.234 A 
ATOM     18  O   LIG d   1       3.679  -1.053  -9.610  0.00  0.00    -0.274 OA
ATOM     19  C   LIG d   1       3.287  -3.341  -9.710  0.00  0.00     0.091 A 
ATOM     20  N   LIG d   1       3.642  -4.556  -8.995  0.00  0.00    -0.291 N 
ATOM     21  C   LIG d   1       4.355  -4.564  -7.887  0.00  0.00     0.237 A 
ATOM     22  O   LIG d   1       4.574  -5.646  -7.385  0.00  0.00    -0.274 OA
ATOM     23  H   LIG d   1       3.898  -3.037  -2.682  0.00  0.00     0.062 H 
ATOM     24  H   LIG d   1       4.020  -1.700  -0.619  0.00  0.00     0.062 H 
ATOM     25  H   LIG d   1       4.736   0.622  -0.651  0.00  0.00     0.062 H 
ATOM     26  H   LIG d   1       5.380   1.752  -2.752  0.00  0.00     0.064 H 
ATOM     27  H   LIG d   1       4.695  -3.974  -5.156  0.00  0.00     0.034 H 
ATOM     28  H   LIG d   1       3.210  -3.310  -5.883  0.00  0.00     0.034 H 
ATOM     29  H   LIG d   1       2.203  -3.235  -9.714  0.00  0.00     0.056 H 
ATOM     30  H   LIG d   1       3.638  -3.421 -10.739  0.00  0.00     0.056 H 
ENDROOT
BRANCH   1  31
ATOM     31  C   LIG d   1       4.589   0.295  -8.186  0.00  0.00     0.021 A 
ATOM     32  C   LIG d   1       5.292   1.077  -9.090  0.00  0.00     0.126 A 
ATOM     33  C   LIG d   1       4.668   2.156  -9.702  0.00  0.00    -0.020 A 
ATOM     34  C   LIG d   1       3.350   2.446  -9.410  0.00  0.00    -0.058 A 
ATOM     35  H   LIG d   1       5.213   2.767 -10.406  0.00  0.00     0.065 H 
ATOM     36  C   LIG d   1       2.652   1.664  -8.508  0.00  0.00    -0.061 A 
ATOM     37  H   LIG d   1       2.864   3.286  -9.886  0.00  0.00     0.062 H 
ATOM     38  C   LIG d   1       3.268   0.587  -7.901  0.00  0.00    -0.053 A 
ATOM     39  H   LIG d   1       1.621   1.894  -8.281  0.00  0.00     0.062 H 
ATOM     40  H   LIG d   1       2.720  -0.026  -7.201  0.00  0.00     0.062 H 
BRANCH  32  41
ATOM     41  O   LIG d   1       6.588   0.789  -9.377  0.00  0.00    -0.492 OA
BRANCH  41  42
ATOM     42  C   LIG d   1       7.560   1.791  -9.068  0.00  0.00     0.087 C 
ATOM     43  H   LIG d   1       8.434   1.658  -9.704  0.00  0.00     0.069 H 
ATOM     44  H   LIG d   1       7.131   2.777  -9.241  0.00  0.00     0.069 H 
BRANCH  42  45
ATOM     45  C   LIG d   1       7.973   1.665  -7.600  0.00  0.00    -0.031 C 
ATOM     46  H   LIG d   1       8.958   1.202  -7.539  0.00  0.00     0.026 H 
ATOM     47  H   LIG d   1       8.009   2.656  -7.147  0.00  0.00     0.026 H 
ATOM     48  H   LIG d   1       7.248   1.049  -7.070  0.00  0.00     0.026 H 
ENDBRANCH  42  45
ENDBRANCH  41  42
ENDBRANCH  32  41
ENDBRANCH   1  31
BRANCH  20  49
ATOM     49  C   LIG d   1       3.171  -5.835  -9.534  0.00  0.00     0.020 C 
ATOM     50  H   LIG d   1       4.005  -6.362  -9.999  0.00  0.00     0.047 H 
ATOM     51  H   LIG d   1       2.763  -6.442  -8.726  0.00  0.00     0.047 H 
BRANCH  49  52
ATOM     52  C   LIG d   1       2.084  -5.579 -10.579  0.00  0.00     0.003 C 
ATOM     53  H   LIG d   1       1.863  -4.512 -10.620  0.00  0.00     0.033 H 
ATOM     54  H   LIG d   1       2.432  -5.916 -11.556  0.00  0.00     0.033 H 
BRANCH  52  55
ATOM     55  C   LIG d   1       0.817  -6.347 -10.196  0.00  0.00    -0.031 C 
ATOM     56  H   LIG d   1       0.488  -6.951 -11.041  0.00  0.00     0.082 H 
ATOM     57  H   LIG d   1       1.029  -6.995  -9.345  0.00  0.00     0.082 H 
BRANCH  55  58
ATOM     58  N   LIG d   1      -0.231  -5.377  -9.814  0.00  0.00     0.231 N 
ATOM     59  H   LIG d   1       0.067  -4.880  -8.966  0.00  0.00     0.203 HD
BRANCH  58  60
ATOM     60  C   LIG d   1      -0.430  -4.395 -10.901  0.00  0.00    -0.043 C 
ATOM     61  H   LIG d   1       0.146  -4.677 -11.781  0.00  0.00     0.078 H 
ATOM     62  H   LIG d   1      -1.490  -4.359 -11.155  0.00  0.00     0.078 H 
ATOM     63  H   LIG d   1      -0.106  -3.414 -10.553  0.00  0.00     0.078 H 
ENDBRANCH  58  60
BRANCH  58  64
ATOM     64  C   LIG d   1      -1.498  -6.086  -9.535  0.00  0.00    -0.043 C 
ATOM     65  H   LIG d   1      -1.581  -6.251  -8.460  0.00  0.00     0.078 H 
ATOM     66  H   LIG d   1      -2.331  -5.468  -9.873  0.00  0.00     0.078 H 
ATOM     67  H   LIG d   1      -1.521  -7.044 -10.052  0.00  0.00     0.078 H 
ENDBRANCH  58  64
ENDBRANCH  55  58
ENDBRANCH  52  55
ENDBRANCH  49  52
ENDBRANCH  20  49
TORSDOF 10
ENDMDL
MODEL 4
REMARK VINA RESULT:      -6.6      1.694      6.586
REMARK  10 active torsions:
REMARK  status: ('A' for Active; 'I' for Inactive)
REMARK    1  A    between atoms: C_1  and  C_2 
REMARK    2  A    between atoms: C_2  and  O_3 
REMARK    3  A    between atoms: O_3  and  C_4 
REMARK    4  A    between atoms: C_9  and  C_10 
REMARK    5  A    between atoms: N_29  and  C_32 
REMARK    6  A    between atoms: C_32  and  C_33 
REMARK    7  A    between atoms: C_33  and  C_34 
REMARK    8  A    between atoms: C_34  and  N_66 
REMARK    9  A    between atoms: C_35  and  N_66 
REMARK   10  A    between atoms: C_36  and  N_66 
ROOT
ATOM      1  C   LIG d   1       4.367  -1.718  -5.277  0.00  0.00     0.096 C 
ATOM      2  H   LIG d   1       3.469  -2.328  -5.167  0.00  0.00     0.062 H 
ATOM      3  C   LIG d   1       4.240  -0.836  -6.498  0.00  0.00     0.046 A 
ATOM      4  C   LIG d   1       4.938  -1.034  -7.638  0.00  0.00    -0.015 A 
ATOM      5  C   LIG d   1       4.539   0.004  -8.566  0.00  0.00     0.003 A 
ATOM      6  C   LIG d   1       4.923   0.302  -9.877  0.00  0.00    -0.052 A 
ATOM      7  C   LIG d   1       4.320   1.384 -10.468  0.00  0.00    -0.061 A 
ATOM      8  C   LIG d   1       3.383   2.159  -9.804  0.00  0.00    -0.060 A 
ATOM      9  C   LIG d   1       2.988   1.890  -8.506  0.00  0.00    -0.038 A 
ATOM     10  C   LIG d   1       3.579   0.793  -7.881  0.00  0.00     0.047 A 
ATOM     11  N   LIG d   1       3.426   0.257  -6.635  0.00  0.00    -0.356 N 
ATOM     12  H   LIG d   1       2.831   0.598  -5.950  0.00  0.00     0.166 HD
ATOM     13  C   LIG d   1       5.938  -2.143  -7.849  0.00  0.00     0.002 C 
ATOM     14  C   LIG d   1       5.707  -3.226  -6.786  0.00  0.00     0.107 A 
ATOM     15  H   LIG d   1       4.793  -3.767  -7.029  0.00  0.00     0.060 H 
ATOM     16  N   LIG d   1       5.544  -2.589  -5.479  0.00  0.00    -0.276 N 
ATOM     17  C   LIG d   1       6.401  -2.764  -4.471  0.00  0.00     0.234 A 
ATOM     18  O   LIG d   1       6.211  -2.134  -3.452  0.00  0.00    -0.274 OA
ATOM     19  C   LIG d   1       7.579  -3.683  -4.513  0.00  0.00     0.091 A 
ATOM     20  N   LIG d   1       7.674  -4.392  -5.779  0.00  0.00    -0.291 N 
ATOM     21  C   LIG d   1       6.852  -4.187  -6.789  0.00  0.00     0.237 A 
ATOM     22  O   LIG d   1       7.044  -4.839  -7.792  0.00  0.00    -0.274 OA
ATOM     23  H   LIG d   1       5.653  -0.296 -10.402  0.00  0.00     0.062 H 
ATOM     24  H   LIG d   1       4.589   1.643 -11.482  0.00  0.00     0.062 H 
ATOM     25  H   LIG d   1       2.944   3.002 -10.319  0.00  0.00     0.062 H 
ATOM     26  H   LIG d   1       2.256   2.501  -7.999  0.00  0.00     0.064 H 
ATOM     27  H   LIG d   1       5.805  -2.571  -8.842  0.00  0.00     0.034 H 
ATOM     28  H   LIG d   1       6.950  -1.746  -7.755  0.00  0.00     0.034 H 
ATOM     29  H   LIG d   1       8.488  -3.101  -4.364  0.00  0.00     0.056 H 
ATOM     30  H   LIG d   1       7.489  -4.410  -3.706  0.00  0.00     0.056 H 
ENDROOT
BRANCH   1  31
ATOM     31  C   LIG d   1       4.563  -0.868  -4.049  0.00  0.00     0.021 A 
ATOM     32  C   LIG d   1       5.420   0.222  -4.088  0.00  0.00     0.126 A 
ATOM     33  C   LIG d   1       5.597   1.003  -2.955  0.00  0.00    -0.020 A 
ATOM     34  C   LIG d   1       4.920   0.694  -1.792  0.00  0.00    -0.058 A 
ATOM     35  H   LIG d   1       6.264   1.852  -2.983  0.00  0.00     0.065 H 
ATOM     36  C   LIG d   1       4.066  -0.393  -1.755  0.00  0.00    -0.061 A 
ATOM     37  H   LIG d   1       5.057   1.302  -0.909  0.00  0.00     0.062 H 
ATOM     38  C   LIG d   1       3.883  -1.170  -2.884  0.00  0.00    -0.053 A 
ATOM     39  H   LIG d   1       3.537  -0.633  -0.844  0.00  0.00     0.062 H 
ATOM     40  H   LIG d   1       3.212  -2.016  -2.854  0.00  0.00     0.062 H 
BRANCH  32  41
ATOM     41  O   LIG d   1       6.084   0.524  -5.234  0.00  0.00    -0.492 OA
BRANCH  41  42
ATOM     42  C   LIG d   1       7.497   0.717  -5.134  0.00  0.00     0.087 C 
ATOM     43  H   LIG d   1       7.711   1.412  -4.323  0.00  0.00     0.069 H 
ATOM     44  H   LIG d   1       7.980  -0.238  -4.932  0.00  0.00     0.069 H 
BRANCH  42  45
ATOM     45  C   LIG d   1       8.028   1.289  -6.450  0.00  0.00    -0.031 C 
ATOM     46  H   LIG d   1       7.738   0.635  -7.273  0.00  0.00     0.026 H 
ATOM     47  H   LIG d   1       7.609   2.282  -6.609  0.00  0.00     0.026 H 
ATOM     48  H   LIG d   1       9.115   1.356  -6.404  0.00  0.00     0.026 H 
ENDBRANCH  42  45
ENDBRANCH  41  42
ENDBRANCH  32  41
ENDBRANCH   1  31
BRANCH  20  49
ATOM     49  C   LIG d   1       8.746  -5.377  -5.939  0.00  0.00     0.020 C 
ATOM     50  H   LIG d   1       8.424  -6.154  -6.632  0.00  0.00     0.047 H 
ATOM     51  H   LIG d   1       9.636  -4.886  -6.332  0.00  0.00     0.047 H 
BRANCH  49  52
ATOM     52  C   LIG d   1       9.068  -6.006  -4.581  0.00  0.00     0.003 C 
ATOM     53  H   LIG d   1       8.578  -5.436  -3.792  0.00  0.00     0.033 H 
ATOM     54  H   LIG d   1       8.708  -7.034  -4.563  0.00  0.00     0.033 H 
BRANCH  52  55
ATOM     55  C   LIG d   1      10.581  -5.989  -4.358  0.00  0.00    -0.031 C 
ATOM     56  H   LIG d   1      10.967  -7.007  -4.411  0.00  0.00     0.082 H 
ATOM     57  H   LIG d   1      11.056  -5.380  -5.126  0.00  0.00     0.082 H 
BRANCH  55  58
ATOM     58  N   LIG d   1      10.860  -5.398  -3.032  0.00  0.00     0.231 N 
ATOM     59  H   LIG d   1      11.706  -5.833  -2.644  0.00  0.00     0.203 HD
BRANCH  58  60
ATOM     60  C   LIG d   1      11.085  -3.943  -3.165  0.00  0.00    -0.043 C 
ATOM     61  H   LIG d   1      10.228  -3.388  -2.784  0.00  0.00     0.078 H 
ATOM     62  H   LIG d   1      11.976  -3.670  -2.600  0.00  0.00     0.078 H 
ATOM     63  H   LIG d   1      11.234  -3.704  -4.218  0.00  0.00     0.078 H 
ENDBRANCH  58  60
BRANCH  58  64
ATOM     64  C   LIG d   1       9.727  -5.652  -2.117  0.00  0.00    -0.043 C 
ATOM     65  H   LIG d   1      10.117  -5.995  -1.158  0.00  0.00     0.078 H 
ATOM     66  H   LIG d   1       9.173  -4.724  -1.973  0.00  0.00     0.078 H 
ATOM     67  H   LIG d   1       9.064  -6.411  -2.532  0.00  0.00     0.078 H 
ENDBRANCH  58  64
ENDBRANCH  55  58
ENDBRANCH  52  55
ENDBRANCH  49  52
ENDBRANCH  20  49
TORSDOF 10
ENDMDL
MODEL 5
REMARK VINA RESULT:      -6.5      2.648      6.893
REMARK  10 active torsions:
REMARK  status: ('A' for Active; 'I' for Inactive)
REMARK    1  A    between atoms: C_1  and  C_2 
REMARK    2  A    between atoms: C_2  and  O_3 
REMARK    3  A    between atoms: O_3  and  C_4 
REMARK    4  A    between atoms: C_9  and  C_10 
REMARK    5  A    between atoms: N_29  and  C_32 
REMARK    6  A    between atoms: C_32  and  C_33 
REMARK    7  A    between atoms: C_33  and  C_34 
REMARK    8  A    between atoms: C_34  and  N_66 
REMARK    9  A    between atoms: C_35  and  N_66 
REMARK   10  A    between atoms: C_36  and  N_66 
ROOT
ATOM      1  C   LIG d   1       5.806  -0.965  -5.811  0.00  0.00     0.096 C 
ATOM      2  H   LIG d   1       6.280  -1.945  -5.870  0.00  0.00     0.062 H 
ATOM      3  C   LIG d   1       5.167  -0.624  -7.138  0.00  0.00     0.046 A 
ATOM      4  C   LIG d   1       5.656   0.307  -7.984  0.00  0.00    -0.015 A 
ATOM      5  C   LIG d   1       4.779   0.337  -9.137  0.00  0.00     0.003 A 
ATOM      6  C   LIG d   1       4.783   1.094 -10.312  0.00  0.00    -0.052 A 
ATOM      7  C   LIG d   1       3.774   0.849 -11.211  0.00  0.00    -0.061 A 
ATOM      8  C   LIG d   1       2.788  -0.094 -10.971  0.00  0.00    -0.060 A 
ATOM      9  C   LIG d   1       2.757  -0.853  -9.815  0.00  0.00    -0.038 A 
ATOM     10  C   LIG d   1       3.771  -0.630  -8.886  0.00  0.00     0.047 A 
ATOM     11  N   LIG d   1       4.038  -1.188  -7.669  0.00  0.00    -0.356 N 
ATOM     12  H   LIG d   1       3.507  -1.880  -7.244  0.00  0.00     0.166 HD
ATOM     13  C   LIG d   1       6.888   1.138  -7.727  0.00  0.00     0.002 C 
ATOM     14  C   LIG d   1       7.714   0.466  -6.621  0.00  0.00     0.107 A 
ATOM     15  H   LIG d   1       8.188  -0.426  -7.030  0.00  0.00     0.060 H 
ATOM     16  N   LIG d   1       6.824   0.069  -5.530  0.00  0.00    -0.276 N 
ATOM     17  C   LIG d   1       6.895   0.593  -4.304  0.00  0.00     0.234 A 
ATOM     18  O   LIG d   1       6.064   0.245  -3.493  0.00  0.00    -0.274 OA
ATOM     19  C   LIG d   1       7.929   1.578  -3.864  0.00  0.00     0.091 A 
ATOM     20  N   LIG d   1       8.874   1.887  -4.925  0.00  0.00    -0.291 N 
ATOM     21  C   LIG d   1       8.778   1.403  -6.147  0.00  0.00     0.237 A 
ATOM     22  O   LIG d   1       9.628   1.745  -6.940  0.00  0.00    -0.274 OA
ATOM     23  H   LIG d   1       5.547   1.832 -10.507  0.00  0.00     0.062 H 
ATOM     24  H   LIG d   1       3.747   1.412 -12.132  0.00  0.00     0.062 H 
ATOM     25  H   LIG d   1       2.017  -0.241 -11.714  0.00  0.00     0.062 H 
ATOM     26  H   LIG d   1       1.983  -1.586  -9.641  0.00  0.00     0.064 H 
ATOM     27  H   LIG d   1       7.482   1.203  -8.638  0.00  0.00     0.034 H 
ATOM     28  H   LIG d   1       6.595   2.139  -7.409  0.00  0.00     0.034 H 
ATOM     29  H   LIG d   1       7.433   2.496  -3.552  0.00  0.00     0.056 H 
ATOM     30  H   LIG d   1       8.473   1.164  -3.015  0.00  0.00     0.056 H 
ENDROOT
BRANCH   1  31
ATOM     31  C   LIG d   1       4.762  -0.965  -4.725  0.00  0.00     0.021 A 
ATOM     32  C   LIG d   1       4.688  -2.026  -3.834  0.00  0.00     0.126 A 
ATOM     33  C   LIG d   1       3.725  -2.022  -2.834  0.00  0.00    -0.020 A 
ATOM     34  C   LIG d   1       2.846  -0.963  -2.727  0.00  0.00    -0.058 A 
ATOM     35  H   LIG d   1       3.665  -2.847  -2.139  0.00  0.00     0.065 H 
ATOM     36  C   LIG d   1       2.922   0.093  -3.617  0.00  0.00    -0.061 A 
ATOM     37  H   LIG d   1       2.097  -0.959  -1.948  0.00  0.00     0.062 H 
ATOM     38  C   LIG d   1       3.883   0.095  -4.610  0.00  0.00    -0.053 A 
ATOM     39  H   LIG d   1       2.233   0.920  -3.531  0.00  0.00     0.062 H 
ATOM     40  H   LIG d   1       3.944   0.923  -5.301  0.00  0.00     0.062 H 
BRANCH  32  41
ATOM     41  O   LIG d   1       5.555  -3.066  -3.940  0.00  0.00    -0.492 OA
BRANCH  41  42
ATOM     42  C   LIG d   1       5.190  -4.127  -4.826  0.00  0.00     0.087 C 
ATOM     43  H   LIG d   1       4.717  -4.927  -4.259  0.00  0.00     0.069 H 
ATOM     44  H   LIG d   1       4.495  -3.751  -5.575  0.00  0.00     0.069 H 
BRANCH  42  45
ATOM     45  C   LIG d   1       6.443  -4.666  -5.520  0.00  0.00    -0.031 C 
ATOM     46  H   LIG d   1       7.271  -4.686  -4.810  0.00  0.00     0.026 H 
ATOM     47  H   LIG d   1       6.251  -5.676  -5.882  0.00  0.00     0.026 H 
ATOM     48  H   LIG d   1       6.700  -4.021  -6.359  0.00  0.00     0.026 H 
ENDBRANCH  42  45
ENDBRANCH  41  42
ENDBRANCH  32  41
ENDBRANCH   1  31
BRANCH  20  49
ATOM     49  C   LIG d   1       9.984   2.792  -4.617  0.00  0.00     0.020 C 
ATOM     50  H   LIG d   1      10.477   2.464  -3.702  0.00  0.00     0.047 H 
ATOM     51  H   LIG d   1      10.700   2.783  -5.438  0.00  0.00     0.047 H 
BRANCH  49  52
ATOM     52  C   LIG d   1       9.447   4.212  -4.424  0.00  0.00     0.003 C 
ATOM     53  H   LIG d   1       9.840   4.858  -5.209  0.00  0.00     0.033 H 
ATOM     54  H   LIG d   1       8.358   4.198  -4.476  0.00  0.00     0.033 H 
BRANCH  52  55
ATOM     55  C   LIG d   1       9.886   4.743  -3.059  0.00  0.00    -0.031 C 
ATOM     56  H   LIG d   1       9.127   4.505  -2.314  0.00  0.00     0.082 H 
ATOM     57  H   LIG d   1      10.831   4.279  -2.775  0.00  0.00     0.082 H 
BRANCH  55  58
ATOM     58  N   LIG d   1      10.076   6.206  -3.155  0.00  0.00     0.231 N 
ATOM     59  H   LIG d   1      11.082   6.410  -3.193  0.00  0.00     0.203 HD
BRANCH  58  60
ATOM     60  C   LIG d   1       9.436   6.718  -4.385  0.00  0.00    -0.043 C 
ATOM     61  H   LIG d   1       9.041   5.895  -4.981  0.00  0.00     0.078 H 
ATOM     62  H   LIG d   1       8.624   7.390  -4.108  0.00  0.00     0.078 H 
ATOM     63  H   LIG d   1      10.178   7.265  -4.968  0.00  0.00     0.078 H 
ENDBRANCH  58  60
BRANCH  58  64
ATOM     64  C   LIG d   1       9.495   6.870  -1.969  0.00  0.00    -0.043 C 
ATOM     65  H   LIG d   1       8.917   7.735  -2.297  0.00  0.00     0.078 H 
ATOM     66  H   LIG d   1       8.837   6.167  -1.457  0.00  0.00     0.078 H 
ATOM     67  H   LIG d   1      10.282   7.194  -1.290  0.00  0.00     0.078 H 
ENDBRANCH  58  64
ENDBRANCH  55  58
ENDBRANCH  52  55
ENDBRANCH  49  52
ENDBRANCH  20  49
TORSDOF 10
ENDMDL
MODEL 6
REMARK VINA RESULT:      -6.4      2.023      7.138
REMARK  10 active torsions:
REMARK  status: ('A' for Active; 'I' for Inactive)
REMARK    1  A    between atoms: C_1  and  C_2 
REMARK    2  A    between atoms: C_2  and  O_3 
REMARK    3  A    between atoms: O_3  and  C_4 
REMARK    4  A    between atoms: C_9  and  C_10 
REMARK    5  A    between atoms: N_29  and  C_32 
REMARK    6  A    between atoms: C_32  and  C_33 
REMARK    7  A    between atoms: C_33  and  C_34 
REMARK    8  A    between atoms: C_34  and  N_66 
REMARK    9  A    between atoms: C_35  and  N_66 
REMARK   10  A    between atoms: C_36  and  N_66 
ROOT
ATOM      1  C   LIG d   1       5.316  -1.386  -5.020  0.00  0.00     0.096 C 
ATOM      2  H   LIG d   1       4.650  -1.409  -4.157  0.00  0.00     0.062 H 
ATOM      3  C   LIG d   1       4.508  -1.242  -6.288  0.00  0.00     0.046 A 
ATOM      4  C   LIG d   1       4.334  -2.242  -7.180  0.00  0.00    -0.015 A 
ATOM      5  C   LIG d   1       3.503  -1.721  -8.246  0.00  0.00     0.003 A 
ATOM      6  C   LIG d   1       3.005  -2.287  -9.423  0.00  0.00    -0.052 A 
ATOM      7  C   LIG d   1       2.226  -1.483 -10.218  0.00  0.00    -0.061 A 
ATOM      8  C   LIG d   1       1.948  -0.166  -9.884  0.00  0.00    -0.060 A 
ATOM      9  C   LIG d   1       2.432   0.421  -8.729  0.00  0.00    -0.038 A 
ATOM     10  C   LIG d   1       3.221  -0.374  -7.900  0.00  0.00     0.047 A 
ATOM     11  N   LIG d   1       3.846  -0.121  -6.713  0.00  0.00    -0.356 N 
ATOM     12  H   LIG d   1       3.826   0.727  -6.241  0.00  0.00     0.166 HD
ATOM     13  C   LIG d   1       4.923  -3.623  -7.045  0.00  0.00     0.002 C 
ATOM     14  C   LIG d   1       5.343  -3.841  -5.585  0.00  0.00     0.107 A 
ATOM     15  H   LIG d   1       4.448  -3.974  -4.978  0.00  0.00     0.060 H 
ATOM     16  N   LIG d   1       6.063  -2.659  -5.111  0.00  0.00    -0.276 N 
ATOM     17  C   LIG d   1       7.350  -2.682  -4.757  0.00  0.00     0.234 A 
ATOM     18  O   LIG d   1       7.869  -1.631  -4.446  0.00  0.00    -0.274 OA
ATOM     19  C   LIG d   1       8.194  -3.915  -4.719  0.00  0.00     0.091 A 
ATOM     20  N   LIG d   1       7.442  -5.102  -5.090  0.00  0.00    -0.291 N 
ATOM     21  C   LIG d   1       6.183  -5.072  -5.481  0.00  0.00     0.237 A 
ATOM     22  O   LIG d   1       5.675  -6.133  -5.769  0.00  0.00    -0.274 OA
ATOM     23  H   LIG d   1       3.216  -3.312  -9.691  0.00  0.00     0.062 H 
ATOM     24  H   LIG d   1       1.821  -1.887 -11.133  0.00  0.00     0.062 H 
ATOM     25  H   LIG d   1       1.332   0.421 -10.550  0.00  0.00     0.062 H 
ATOM     26  H   LIG d   1       2.208   1.447  -8.480  0.00  0.00     0.064 H 
ATOM     27  H   LIG d   1       4.178  -4.368  -7.326  0.00  0.00     0.034 H 
ATOM     28  H   LIG d   1       5.794  -3.715  -7.696  0.00  0.00     0.034 H 
ATOM     29  H   LIG d   1       9.029  -3.794  -5.408  0.00  0.00     0.056 H 
ATOM     30  H   LIG d   1       8.585  -4.045  -3.710  0.00  0.00     0.056 H 
ENDROOT
BRANCH   1  31
ATOM     31  C   LIG d   1       6.279  -0.235  -4.893  0.00  0.00     0.021 A 
ATOM     32  C   LIG d   1       6.420   0.422  -3.679  0.00  0.00     0.126 A 
ATOM     33  C   LIG d   1       7.309   1.482  -3.566  0.00  0.00    -0.020 A 
ATOM     34  C   LIG d   1       8.052   1.879  -4.661  0.00  0.00    -0.058 A 
ATOM     35  H   LIG d   1       7.421   1.995  -2.622  0.00  0.00     0.065 H 
ATOM     36  C   LIG d   1       7.909   1.222  -5.869  0.00  0.00    -0.061 A 
ATOM     37  H   LIG d   1       8.744   2.704  -4.573  0.00  0.00     0.062 H 
ATOM     38  C   LIG d   1       7.029   0.163  -5.984  0.00  0.00    -0.053 A 
ATOM     39  H   LIG d   1       8.491   1.535  -6.724  0.00  0.00     0.062 H 
ATOM     40  H   LIG d   1       6.923  -0.351  -6.928  0.00  0.00     0.062 H 
BRANCH  32  41
ATOM     41  O   LIG d   1       5.690   0.028  -2.604  0.00  0.00    -0.492 OA
BRANCH  41  42
ATOM     42  C   LIG d   1       4.884   1.024  -1.967  0.00  0.00     0.087 C 
ATOM     43  H   LIG d   1       4.639   0.700  -0.956  0.00  0.00     0.069 H 
ATOM     44  H   LIG d   1       5.435   1.963  -1.925  0.00  0.00     0.069 H 
BRANCH  42  45
ATOM     45  C   LIG d   1       3.595   1.224  -2.766  0.00  0.00    -0.031 C 
ATOM     46  H   LIG d   1       2.756   0.799  -2.214  0.00  0.00     0.026 H 
ATOM     47  H   LIG d   1       3.426   2.290  -2.921  0.00  0.00     0.026 H 
ATOM     48  H   LIG d   1       3.684   0.726  -3.731  0.00  0.00     0.026 H 
ENDBRANCH  42  45
ENDBRANCH  41  42
ENDBRANCH  32  41
ENDBRANCH   1  31
BRANCH  20  49
ATOM     49  C   LIG d   1       8.127  -6.397  -5.035  0.00  0.00     0.020 C 
ATOM     50  H   LIG d   1       7.412  -7.174  -4.767  0.00  0.00     0.047 H 
ATOM     51  H   LIG d   1       8.559  -6.622  -6.010  0.00  0.00     0.047 H 
BRANCH  49  52
ATOM     52  C   LIG d   1       9.238  -6.341  -3.985  0.00  0.00     0.003 C 
ATOM     53  H   LIG d   1      10.208  -6.404  -4.479  0.00  0.00     0.033 H 
ATOM     54  H   LIG d   1       9.171  -5.403  -3.434  0.00  0.00     0.033 H 
BRANCH  52  55
ATOM     55  C   LIG d   1       9.083  -7.515  -3.016  0.00  0.00    -0.031 C 
ATOM     56  H   LIG d   1       8.051  -7.867  -3.033  0.00  0.00     0.082 H 
ATOM     57  H   LIG d   1       9.748  -8.325  -3.316  0.00  0.00     0.082 H 
BRANCH  55  58
ATOM     58  N   LIG d   1       9.454  -7.064  -1.658  0.00  0.00     0.231 N 
ATOM     59  H   LIG d   1       8.671  -7.249  -1.020  0.00  0.00     0.203 HD
BRANCH  58  60
ATOM     60  C   LIG d   1      10.644  -7.804  -1.187  0.00  0.00    -0.043 C 
ATOM     61  H   LIG d   1      10.932  -8.565  -1.912  0.00  0.00     0.078 H 
ATOM     62  H   LIG d   1      11.466  -7.102  -1.050  0.00  0.00     0.078 H 
ATOM     63  H   LIG d   1      10.409  -8.280  -0.235  0.00  0.00     0.078 H 
ENDBRANCH  58  60
BRANCH  58  64
ATOM     64  C   LIG d   1       9.734  -5.612  -1.668  0.00  0.00    -0.043 C 
ATOM     65  H   LIG d   1       9.035  -5.122  -2.348  0.00  0.00     0.078 H 
ATOM     66  H   LIG d   1       9.596  -5.218  -0.660  0.00  0.00     0.078 H 
ATOM     67  H   LIG d   1      10.755  -5.422  -1.997  0.00  0.00     0.078 H 
ENDBRANCH  58  64
ENDBRANCH  55  58
ENDBRANCH  52  55
ENDBRANCH  49  52
ENDBRANCH  20  49
TORSDOF 10
ENDMDL
MODEL 7
REMARK VINA RESULT:      -6.4      2.135      6.515
REMARK  10 active torsions:
REMARK  status: ('A' for Active; 'I' for Inactive)
REMARK    1  A    between atoms: C_1  and  C_2 
REMARK    2  A    between atoms: C_2  and  O_3 
REMARK    3  A    between atoms: O_3  and  C_4 
REMARK    4  A    between atoms: C_9  and  C_10 
REMARK    5  A    between atoms: N_29  and  C_32 
REMARK    6  A    between atoms: C_32  and  C_33 
REMARK    7  A    between atoms: C_33  and  C_34 
REMARK    8  A    between atoms: C_34  and  N_66 
REMARK    9  A    between atoms: C_35  and  N_66 
REMARK   10  A    between atoms: C_36  and  N_66 
ROOT
ATOM      1  C   LIG d   1       4.229  -1.680  -5.311  0.00  0.00     0.096 C 
ATOM      2  H   LIG d   1       3.304  -2.243  -5.180  0.00  0.00     0.062 H 
ATOM      3  C   LIG d   1       4.121  -0.794  -6.531  0.00  0.00     0.046 A 
ATOM      4  C   LIG d   1       4.781  -1.028  -7.685  0.00  0.00    -0.015 A 
ATOM      5  C   LIG d   1       4.415   0.028  -8.606  0.00  0.00     0.003 A 
ATOM      6  C   LIG d   1       4.784   0.305  -9.926  0.00  0.00    -0.052 A 
ATOM      7  C   LIG d   1       4.225   1.417 -10.506  0.00  0.00    -0.061 A 
ATOM      8  C   LIG d   1       3.344   2.240  -9.822  0.00  0.00    -0.060 A 
ATOM      9  C   LIG d   1       2.965   1.992  -8.515  0.00  0.00    -0.038 A 
ATOM     10  C   LIG d   1       3.513   0.867  -7.902  0.00  0.00     0.047 A 
ATOM     11  N   LIG d   1       3.361   0.340  -6.652  0.00  0.00    -0.356 N 
ATOM     12  H   LIG d   1       2.800   0.712  -5.954  0.00  0.00     0.166 HD
ATOM     13  C   LIG d   1       5.718  -2.187  -7.917  0.00  0.00     0.002 C 
ATOM     14  C   LIG d   1       5.455  -3.256  -6.847  0.00  0.00     0.107 A 
ATOM     15  H   LIG d   1       4.510  -3.750  -7.069  0.00  0.00     0.060 H 
ATOM     16  N   LIG d   1       5.355  -2.611  -5.538  0.00  0.00    -0.276 N 
ATOM     17  C   LIG d   1       6.225  -2.828  -4.549  0.00  0.00     0.234 A 
ATOM     18  O   LIG d   1       6.090  -2.189  -3.528  0.00  0.00    -0.274 OA
ATOM     19  C   LIG d   1       7.353  -3.807  -4.616  0.00  0.00     0.091 A 
ATOM     20  N   LIG d   1       7.382  -4.520  -5.882  0.00  0.00    -0.291 N 
ATOM     21  C   LIG d   1       6.549  -4.274  -6.874  0.00  0.00     0.237 A 
ATOM     22  O   LIG d   1       6.685  -4.936  -7.880  0.00  0.00    -0.274 OA
ATOM     23  H   LIG d   1       5.471  -0.329 -10.466  0.00  0.00     0.062 H 
ATOM     24  H   LIG d   1       4.484   1.661 -11.526  0.00  0.00     0.062 H 
ATOM     25  H   LIG d   1       2.938   3.103 -10.329  0.00  0.00     0.062 H 
ATOM     26  H   LIG d   1       2.277   2.640  -7.993  0.00  0.00     0.064 H 
ATOM     27  H   LIG d   1       5.540  -2.609  -8.906  0.00  0.00     0.034 H 
ATOM     28  H   LIG d   1       6.751  -1.842  -7.846  0.00  0.00     0.034 H 
ATOM     29  H   LIG d   1       8.293  -3.272  -4.488  0.00  0.00     0.056 H 
ATOM     30  H   LIG d   1       7.244  -4.528  -3.806  0.00  0.00     0.056 H 
ENDROOT
BRANCH   1  31
ATOM     31  C   LIG d   1       4.496  -0.841  -4.090  0.00  0.00     0.021 A 
ATOM     32  C   LIG d   1       5.414   0.198  -4.148  0.00  0.00     0.126 A 
ATOM     33  C   LIG d   1       5.657   0.969  -3.020  0.00  0.00    -0.020 A 
ATOM     34  C   LIG d   1       4.984   0.703  -1.844  0.00  0.00    -0.058 A 
ATOM     35  H   LIG d   1       6.371   1.778  -3.062  0.00  0.00     0.065 H 
ATOM     36  C   LIG d   1       4.069  -0.333  -1.789  0.00  0.00    -0.061 A 
ATOM     37  H   LIG d   1       5.172   1.304  -0.966  0.00  0.00     0.062 H 
ATOM     38  C   LIG d   1       3.821  -1.100  -2.911  0.00  0.00    -0.053 A 
ATOM     39  H   LIG d   1       3.544  -0.540  -0.868  0.00  0.00     0.062 H 
ATOM     40  H   LIG d   1       3.103  -1.906  -2.867  0.00  0.00     0.062 H 
BRANCH  32  41
ATOM     41  O   LIG d   1       6.074   0.459  -5.306  0.00  0.00    -0.492 OA
BRANCH  41  42
ATOM     42  C   LIG d   1       7.488   0.648  -5.219  0.00  0.00     0.087 C 
ATOM     43  H   LIG d   1       7.717   1.288  -4.367  0.00  0.00     0.069 H 
ATOM     44  H   LIG d   1       7.976  -0.317  -5.090  0.00  0.00     0.069 H 
BRANCH  42  45
ATOM     45  C   LIG d   1       7.994   1.308  -6.503  0.00  0.00    -0.031 C 
ATOM     46  H   LIG d   1       7.219   1.258  -7.267  0.00  0.00     0.026 H 
ATOM     47  H   LIG d   1       8.240   2.351  -6.303  0.00  0.00     0.026 H 
ATOM     48  H   LIG d   1       8.884   0.786  -6.854  0.00  0.00     0.026 H 
ENDBRANCH  42  45
ENDBRANCH  41  42
ENDBRANCH  32  41
ENDBRANCH   1  31
BRANCH  20  49
ATOM     49  C   LIG d   1       8.398  -5.560  -6.064  0.00  0.00     0.020 C 
ATOM     50  H   LIG d   1       8.433  -5.854  -7.113  0.00  0.00     0.047 H 
ATOM     51  H   LIG d   1       9.372  -5.173  -5.764  0.00  0.00     0.047 H 
BRANCH  49  52
ATOM     52  C   LIG d   1       8.045  -6.775  -5.205  0.00  0.00     0.003 C 
ATOM     53  H   LIG d   1       8.926  -7.095  -4.648  0.00  0.00     0.033 H 
ATOM     54  H   LIG d   1       7.252  -6.508  -4.507  0.00  0.00     0.033 H 
BRANCH  52  55
ATOM     55  C   LIG d   1       7.569  -7.916  -6.106  0.00  0.00    -0.031 C 
ATOM     56  H   LIG d   1       7.336  -7.524  -7.096  0.00  0.00     0.082 H 
ATOM     57  H   LIG d   1       8.356  -8.666  -6.188  0.00  0.00     0.082 H 
BRANCH  55  58
ATOM     58  N   LIG d   1       6.373  -8.536  -5.499  0.00  0.00     0.231 N 
ATOM     59  H   LIG d   1       6.067  -9.320  -6.088  0.00  0.00     0.203 HD
BRANCH  58  60
ATOM     60  C   LIG d   1       6.698  -9.047  -4.150  0.00  0.00    -0.043 C 
ATOM     61  H   LIG d   1       7.525  -8.484  -3.718  0.00  0.00     0.078 H 
ATOM     62  H   LIG d   1       5.818  -8.949  -3.514  0.00  0.00     0.078 H 
ATOM     63  H   LIG d   1       6.975 -10.098  -4.229  0.00  0.00     0.078 H 
ENDBRANCH  58  60
BRANCH  58  64
ATOM     64  C   LIG d   1       5.279  -7.544  -5.413  0.00  0.00    -0.043 C 
ATOM     65  H   LIG d   1       4.692  -7.587  -6.331  0.00  0.00     0.078 H 
ATOM     66  H   LIG d   1       4.643  -7.792  -4.563  0.00  0.00     0.078 H 
ATOM     67  H   LIG d   1       5.684  -6.541  -5.287  0.00  0.00     0.078 H 
ENDBRANCH  58  64
ENDBRANCH  55  58
ENDBRANCH  52  55
ENDBRANCH  49  52
ENDBRANCH  20  49
TORSDOF 10
ENDMDL
MODEL 8
REMARK VINA RESULT:      -6.4      2.686      7.057
REMARK  10 active torsions:
REMARK  status: ('A' for Active; 'I' for Inactive)
REMARK    1  A    between atoms: C_1  and  C_2 
REMARK    2  A    between atoms: C_2  and  O_3 
REMARK    3  A    between atoms: O_3  and  C_4 
REMARK    4  A    between atoms: C_9  and  C_10 
REMARK    5  A    between atoms: N_29  and  C_32 
REMARK    6  A    between atoms: C_32  and  C_33 
REMARK    7  A    between atoms: C_33  and  C_34 
REMARK    8  A    between atoms: C_34  and  N_66 
REMARK    9  A    between atoms: C_35  and  N_66 
REMARK   10  A    between atoms: C_36  and  N_66 
ROOT
ATOM      1  C   LIG d   1       6.985   0.196  -8.305  0.00  0.00     0.096 C 
ATOM      2  H   LIG d   1       7.625  -0.504  -8.844  0.00  0.00     0.062 H 
ATOM      3  C   LIG d   1       7.797   1.389  -7.854  0.00  0.00     0.046 A 
ATOM      4  C   LIG d   1       8.141   1.614  -6.568  0.00  0.00    -0.015 A 
ATOM      5  C   LIG d   1       8.913   2.840  -6.543  0.00  0.00     0.003 A 
ATOM      6  C   LIG d   1       9.521   3.556  -5.507  0.00  0.00    -0.052 A 
ATOM      7  C   LIG d   1      10.191   4.702  -5.857  0.00  0.00    -0.061 A 
ATOM      8  C   LIG d   1      10.260   5.144  -7.169  0.00  0.00    -0.060 A 
ATOM      9  C   LIG d   1       9.664   4.457  -8.212  0.00  0.00    -0.038 A 
ATOM     10  C   LIG d   1       8.981   3.287  -7.887  0.00  0.00     0.047 A 
ATOM     11  N   LIG d   1       8.294   2.386  -8.650  0.00  0.00    -0.356 N 
ATOM     12  H   LIG d   1       8.175   2.444  -9.611  0.00  0.00     0.166 HD
ATOM     13  C   LIG d   1       7.761   0.726  -5.410  0.00  0.00     0.002 C 
ATOM     14  C   LIG d   1       7.340  -0.645  -5.957  0.00  0.00     0.107 A 
ATOM     15  H   LIG d   1       8.229  -1.175  -6.299  0.00  0.00     0.060 H 
ATOM     16  N   LIG d   1       6.440  -0.453  -7.094  0.00  0.00    -0.276 N 
ATOM     17  C   LIG d   1       5.162  -0.839  -7.086  0.00  0.00     0.234 A 
ATOM     18  O   LIG d   1       4.484  -0.568  -8.054  0.00  0.00    -0.274 OA
ATOM     19  C   LIG d   1       4.511  -1.581  -5.964  0.00  0.00     0.091 A 
ATOM     20  N   LIG d   1       5.441  -1.861  -4.882  0.00  0.00    -0.291 N 
ATOM     21  C   LIG d   1       6.690  -1.443  -4.873  0.00  0.00     0.237 A 
ATOM     22  O   LIG d   1       7.359  -1.739  -3.907  0.00  0.00    -0.274 OA
ATOM     23  H   LIG d   1       9.471   3.221  -4.483  0.00  0.00     0.062 H 
ATOM     24  H   LIG d   1      10.676   5.280  -5.084  0.00  0.00     0.062 H 
ATOM     25  H   LIG d   1      10.799   6.055  -7.384  0.00  0.00     0.062 H 
ATOM     26  H   LIG d   1       9.726   4.811  -9.230  0.00  0.00     0.064 H 
ATOM     27  H   LIG d   1       8.616   0.607  -4.744  0.00  0.00     0.034 H 
ATOM     28  H   LIG d   1       6.931   1.173  -4.862  0.00  0.00     0.034 H 
ATOM     29  H   LIG d   1       3.685  -0.985  -5.577  0.00  0.00     0.056 H 
ATOM     30  H   LIG d   1       4.117  -2.524  -6.345  0.00  0.00     0.056 H 
ENDROOT
BRANCH   1  31
ATOM     31  C   LIG d   1       5.858   0.650  -9.195  0.00  0.00     0.021 A 
ATOM     32  C   LIG d   1       5.588  -0.029 -10.375  0.00  0.00     0.126 A 
ATOM     33  C   LIG d   1       4.549   0.392 -11.192  0.00  0.00    -0.020 A 
ATOM     34  C   LIG d   1       3.785   1.484 -10.829  0.00  0.00    -0.058 A 
ATOM     35  H   LIG d   1       4.336  -0.135 -12.111  0.00  0.00     0.065 H 
ATOM     36  C   LIG d   1       4.056   2.159  -9.653  0.00  0.00    -0.061 A 
ATOM     37  H   LIG d   1       2.975   1.811 -11.465  0.00  0.00     0.062 H 
ATOM     38  C   LIG d   1       5.088   1.739  -8.835  0.00  0.00    -0.053 A 
ATOM     39  H   LIG d   1       3.458   3.012  -9.372  0.00  0.00     0.062 H 
ATOM     40  H   LIG d   1       5.295   2.265  -7.914  0.00  0.00     0.062 H 
BRANCH  32  41
ATOM     41  O   LIG d   1       6.340  -1.104 -10.728  0.00  0.00    -0.492 OA
BRANCH  41  42
ATOM     42  C   LIG d   1       5.676  -2.369 -10.788  0.00  0.00     0.087 C 
ATOM     43  H   LIG d   1       4.610  -2.228 -10.617  0.00  0.00     0.069 H 
ATOM     44  H   LIG d   1       5.831  -2.814 -11.771  0.00  0.00     0.069 H 
BRANCH  42  45
ATOM     45  C   LIG d   1       6.247  -3.296  -9.713  0.00  0.00    -0.031 C 
ATOM     46  H   LIG d   1       5.921  -2.956  -8.730  0.00  0.00     0.026 H 
ATOM     47  H   LIG d   1       5.890  -4.312  -9.884  0.00  0.00     0.026 H 
ATOM     48  H   LIG d   1       7.336  -3.280  -9.761  0.00  0.00     0.026 H 
ENDBRANCH  42  45
ENDBRANCH  41  42
ENDBRANCH  32  41
ENDBRANCH   1  31
BRANCH  20  49
ATOM     49  C   LIG d   1       4.956  -2.642  -3.741  0.00  0.00     0.020 C 
ATOM     50  H   LIG d   1       4.587  -3.606  -4.091  0.00  0.00     0.047 H 
ATOM     51  H   LIG d   1       5.771  -2.799  -3.035  0.00  0.00     0.047 H 
BRANCH  49  52
ATOM     52  C   LIG d   1       3.822  -1.883  -3.049  0.00  0.00     0.003 C 
ATOM     53  H   LIG d   1       3.340  -1.218  -3.766  0.00  0.00     0.033 H 
ATOM     54  H   LIG d   1       3.090  -2.594  -2.665  0.00  0.00     0.033 H 
BRANCH  52  55
ATOM     55  C   LIG d   1       4.390  -1.060  -1.891  0.00  0.00    -0.031 C 
ATOM     56  H   LIG d   1       3.926  -1.377  -0.958  0.00  0.00     0.082 H 
ATOM     57  H   LIG d   1       5.468  -1.212  -1.832  0.00  0.00     0.082 H 
BRANCH  55  58
ATOM     58  N   LIG d   1       4.118   0.371  -2.145  0.00  0.00     0.231 N 
ATOM     59  H   LIG d   1       3.752   0.798  -1.286  0.00  0.00     0.203 HD
BRANCH  58  60
ATOM     60  C   LIG d   1       5.366   1.061  -2.532  0.00  0.00    -0.043 C 
ATOM     61  H   LIG d   1       5.723   0.695  -3.495  0.00  0.00     0.078 H 
ATOM     62  H   LIG d   1       5.172   2.132  -2.600  0.00  0.00     0.078 H 
ATOM     63  H   LIG d   1       6.123   0.876  -1.770  0.00  0.00     0.078 H 
ENDBRANCH  58  60
BRANCH  58  64
ATOM     64  C   LIG d   1       3.110   0.510  -3.218  0.00  0.00    -0.043 C 
ATOM     65  H   LIG d   1       2.601   1.468  -3.102  0.00  0.00     0.078 H 
ATOM     66  H   LIG d   1       3.615   0.482  -4.184  0.00  0.00     0.078 H 
ATOM     67  H   LIG d   1       2.381  -0.298  -3.164  0.00  0.00     0.078 H 
ENDBRANCH  58  64
ENDBRANCH  55  58
ENDBRANCH  52  55
ENDBRANCH  49  52
ENDBRANCH  20  49
TORSDOF 10
ENDMDL
MODEL 9
REMARK VINA RESULT:      -6.1      2.327      6.339
REMARK  10 active torsions:
REMARK  status: ('A' for Active; 'I' for Inactive)
REMARK    1  A    between atoms: C_1  and  C_2 
REMARK    2  A    between atoms: C_2  and  O_3 
REMARK    3  A    between atoms: O_3  and  C_4 
REMARK    4  A    between atoms: C_9  and  C_10 
REMARK    5  A    between atoms: N_29  and  C_32 
REMARK    6  A    between atoms: C_32  and  C_33 
REMARK    7  A    between atoms: C_33  and  C_34 
REMARK    8  A    between atoms: C_34  and  N_66 
REMARK    9  A    between atoms: C_35  and  N_66 
REMARK   10  A    between atoms: C_36  and  N_66 
ROOT
ATOM      1  C   LIG d   1       6.386  -0.468  -5.420  0.00  0.00     0.096 C 
ATOM      2  H   LIG d   1       5.995  -0.172  -6.394  0.00  0.00     0.062 H 
ATOM      3  C   LIG d   1       7.496   0.470  -5.005  0.00  0.00     0.046 A 
ATOM      4  C   LIG d   1       8.801   0.122  -4.988  0.00  0.00    -0.015 A 
ATOM      5  C   LIG d   1       9.545   1.284  -4.544  0.00  0.00     0.003 A 
ATOM      6  C   LIG d   1      10.908   1.512  -4.333  0.00  0.00    -0.052 A 
ATOM      7  C   LIG d   1      11.267   2.766  -3.905  0.00  0.00    -0.061 A 
ATOM      8  C   LIG d   1      10.331   3.763  -3.679  0.00  0.00    -0.060 A 
ATOM      9  C   LIG d   1       8.976   3.563  -3.875  0.00  0.00    -0.038 A 
ATOM     10  C   LIG d   1       8.583   2.300  -4.315  0.00  0.00     0.047 A 
ATOM     11  N   LIG d   1       7.357   1.772  -4.602  0.00  0.00    -0.356 N 
ATOM     12  H   LIG d   1       6.514   2.246  -4.531  0.00  0.00     0.166 HD
ATOM     13  C   LIG d   1       9.330  -1.239  -5.364  0.00  0.00     0.002 C 
ATOM     14  C   LIG d   1       8.256  -1.981  -6.170  0.00  0.00     0.107 A 
ATOM     15  H   LIG d   1       8.194  -1.538  -7.164  0.00  0.00     0.060 H 
ATOM     16  N   LIG d   1       6.963  -1.827  -5.504  0.00  0.00    -0.276 N 
ATOM     17  C   LIG d   1       6.287  -2.851  -4.978  0.00  0.00     0.234 A 
ATOM     18  O   LIG d   1       5.258  -2.604  -4.385  0.00  0.00    -0.274 OA
ATOM     19  C   LIG d   1       6.713  -4.281  -5.070  0.00  0.00     0.091 A 
ATOM     20  N   LIG d   1       7.945  -4.436  -5.826  0.00  0.00    -0.291 N 
ATOM     21  C   LIG d   1       8.634  -3.420  -6.308  0.00  0.00     0.237 A 
ATOM     22  O   LIG d   1       9.649  -3.686  -6.914  0.00  0.00    -0.274 OA
ATOM     23  H   LIG d   1      11.644   0.742  -4.506  0.00  0.00     0.062 H 
ATOM     24  H   LIG d   1      12.312   2.981  -3.735  0.00  0.00     0.062 H 
ATOM     25  H   LIG d   1      10.672   4.730  -3.339  0.00  0.00     0.062 H 
ATOM     26  H   LIG d   1       8.257   4.348  -3.697  0.00  0.00     0.064 H 
ATOM     27  H   LIG d   1      10.230  -1.127  -5.970  0.00  0.00     0.034 H 
ATOM     28  H   LIG d   1       9.566  -1.802  -4.460  0.00  0.00     0.034 H 
ATOM     29  H   LIG d   1       6.862  -4.671  -4.065  0.00  0.00     0.056 H 
ATOM     30  H   LIG d   1       5.924  -4.854  -5.558  0.00  0.00     0.056 H 
ENDROOT
BRANCH   1  31
ATOM     31  C   LIG d   1       5.283  -0.442  -4.395  0.00  0.00     0.021 A 
ATOM     32  C   LIG d   1       3.957  -0.448  -4.802  0.00  0.00     0.126 A 
ATOM     33  C   LIG d   1       2.943  -0.424  -3.854  0.00  0.00    -0.020 A 
ATOM     34  C   LIG d   1       3.257  -0.397  -2.509  0.00  0.00    -0.058 A 
ATOM     35  H   LIG d   1       1.910  -0.429  -4.168  0.00  0.00     0.065 H 
ATOM     36  C   LIG d   1       4.580  -0.391  -2.106  0.00  0.00    -0.061 A 
ATOM     37  H   LIG d   1       2.468  -0.379  -1.771  0.00  0.00     0.062 H 
ATOM     38  C   LIG d   1       5.591  -0.419  -3.047  0.00  0.00    -0.053 A 
ATOM     39  H   LIG d   1       4.822  -0.369  -1.054  0.00  0.00     0.062 H 
ATOM     40  H   LIG d   1       6.624  -0.419  -2.730  0.00  0.00     0.062 H 
BRANCH  32  41
ATOM     41  O   LIG d   1       3.652  -0.477  -6.125  0.00  0.00    -0.492 OA
BRANCH  41  42
ATOM     42  C   LIG d   1       2.763   0.533  -6.608  0.00  0.00     0.087 C 
ATOM     43  H   LIG d   1       1.743   0.150  -6.609  0.00  0.00     0.069 H 
ATOM     44  H   LIG d   1       2.822   1.408  -5.961  0.00  0.00     0.069 H 
BRANCH  42  45
ATOM     45  C   LIG d   1       3.162   0.925  -8.032  0.00  0.00    -0.031 C 
ATOM     46  H   LIG d   1       2.544   0.379  -8.745  0.00  0.00     0.026 H 
ATOM     47  H   LIG d   1       3.013   1.996  -8.168  0.00  0.00     0.026 H 
ATOM     48  H   LIG d   1       4.210   0.680  -8.196  0.00  0.00     0.026 H 
ENDBRANCH  42  45
ENDBRANCH  41  42
ENDBRANCH  32  41
ENDBRANCH   1  31
BRANCH  20  49
ATOM     49  C   LIG d   1       8.448  -5.793  -6.053  0.00  0.00     0.020 C 
ATOM     50  H   LIG d   1       7.786  -6.315  -6.744  0.00  0.00     0.047 H 
ATOM     51  H   LIG d   1       9.450  -5.743  -6.479  0.00  0.00     0.047 H 
BRANCH  49  52
ATOM     52  C   LIG d   1       8.496  -6.548  -4.724  0.00  0.00     0.003 C 
ATOM     53  H   LIG d   1       7.659  -6.237  -4.099  0.00  0.00     0.033 H 
ATOM     54  H   LIG d   1       8.429  -7.620  -4.912  0.00  0.00     0.033 H 
BRANCH  52  55
ATOM     55  C   LIG d   1       9.811  -6.237  -4.007  0.00  0.00    -0.031 C 
ATOM     56  H   LIG d   1      10.264  -7.166  -3.660  0.00  0.00     0.082 H 
ATOM     57  H   LIG d   1      10.491  -5.736  -4.696  0.00  0.00     0.082 H 
BRANCH  55  58
ATOM     58  N   LIG d   1       9.531  -5.340  -2.866  0.00  0.00     0.231 N 
ATOM     59  H   LIG d   1       8.537  -5.084  -2.880  0.00  0.00     0.203 HD
BRANCH  58  60
ATOM     60  C   LIG d   1       9.832  -6.031  -1.594  0.00  0.00    -0.043 C 
ATOM     61  H   LIG d   1      10.901  -6.225  -1.509  0.00  0.00     0.078 H 
ATOM     62  H   LIG d   1       9.510  -5.401  -0.765  0.00  0.00     0.078 H 
ATOM     63  H   LIG d   1       9.288  -6.974  -1.568  0.00  0.00     0.078 H 
ENDBRANCH  58  60
BRANCH  58  64
ATOM     64  C   LIG d   1      10.346  -4.111  -2.979  0.00  0.00    -0.043 C 
ATOM     65  H   LIG d   1      10.007  -3.541  -3.844  0.00  0.00     0.078 H 
ATOM     66  H   LIG d   1      10.213  -3.515  -2.075  0.00  0.00     0.078 H 
ATOM     67  H   LIG d   1      11.399  -4.362  -3.099  0.00  0.00     0.078 H 
ENDBRANCH  58  64
ENDBRANCH  55  58
ENDBRANCH  52  55
ENDBRANCH  49  52
ENDBRANCH  20  49
TORSDOF 10
ENDMDL
