MODEL 1
REMARK VINA RESULT:      -6.9      0.000      0.000
REMARK  14 active torsions:
REMARK  status: ('A' for Active; 'I' for Inactive)
REMARK    1  A    between atoms: C_1  and  C_2 
REMARK    2  A    between atoms: C_4  and  C_26 
REMARK    3  A    between atoms: C_6  and  C_23 
REMARK    4  A    between atoms: C_9  and  C_11 
REMARK    5  A    between atoms: C_11  and  C_12 
REMARK       I    between atoms: C_12  and  N_14 
REMARK    6  A    between atoms: N_14  and  C_15 
REMARK    7  A    between atoms: C_15  and  C_16 
REMARK    8  A    between atoms: C_16  and  N_17 
REMARK    9  A    between atoms: C_23  and  C_24 
REMARK   10  A    between atoms: C_23  and  C_25 
REMARK   11  A    between atoms: C_26  and  N_27 
REMARK       I    between atoms: N_27  and  C_28 
REMARK       I    between atoms: C_28  and  N_30 
REMARK   12  A    between atoms: N_30  and  C_31 
REMARK   13  A    between atoms: C_34  and  O_37 
REMARK   14  A    between atoms: O_37  and  C_38 
ROOT
ATOM      1  C   LIG d   1       6.921  -3.189  -4.204  0.00  0.00    -0.073 C 
ATOM      2  C   LIG d   1       7.347  -1.993  -3.951  0.00  0.00    -0.080 C 
ATOM      3  C   LIG d   1       6.456  -0.845  -3.579  0.00  0.00    -0.004 C 
ATOM      4  H   LIG d   1       6.535  -0.692  -2.492  0.00  0.00     0.036 H 
ATOM      5  C   LIG d   1       5.006  -1.160  -3.950  0.00  0.00    -0.030 C 
ATOM      6  H   LIG d   1       4.883  -1.140  -5.043  0.00  0.00     0.031 H 
ATOM      7  C   LIG d   1       4.657  -2.550  -3.403  0.00  0.00    -0.042 C 
ATOM      8  C   LIG d   1       5.476  -3.591  -4.170  0.00  0.00    -0.012 C 
ATOM      9  H   LIG d   1       5.406  -4.564  -3.661  0.00  0.00     0.035 H 
ATOM     10  H   LIG d   1       8.423  -1.770  -4.003  0.00  0.00     0.058 H 
ATOM     11  H   LIG d   1       4.901  -2.595  -2.332  0.00  0.00     0.027 H 
ATOM     12  H   LIG d   1       3.582  -2.740  -3.543  0.00  0.00     0.027 H 
ENDROOT
BRANCH   8  13
ATOM     13  C   LIG d   1       4.946  -3.700  -5.601  0.00  0.00     0.030 C 
ATOM     14  H   LIG d   1       4.105  -3.003  -5.734  0.00  0.00     0.036 H 
ATOM     15  H   LIG d   1       5.748  -3.447  -6.309  0.00  0.00     0.036 H 
BRANCH  13  16
ATOM     16  C   LIG d   1       4.476  -5.109  -5.857  0.00  0.00     0.214 C 
ATOM     17  O   LIG d   1       3.335  -5.313  -6.210  0.00  0.00    -0.276 OA
ATOM     18  N   LIG d   1       5.326  -6.143  -5.693  0.00  0.00    -0.314 N 
ATOM     19  H   LIG d   1       6.362  -5.958  -5.373  0.00  0.00     0.149 HD
BRANCH  18  20
ATOM     20  C   LIG d   1       4.870  -7.512  -5.943  0.00  0.00     0.024 C 
ATOM     21  H   LIG d   1       3.888  -7.663  -5.471  0.00  0.00     0.047 H 
ATOM     22  H   LIG d   1       4.784  -7.679  -7.027  0.00  0.00     0.047 H 
BRANCH  20  23
ATOM     23  C   LIG d   1       5.877  -8.501  -5.353  0.00  0.00     0.015 C 
ATOM     24  H   LIG d   1       6.662  -8.710  -6.093  0.00  0.00     0.044 H 
ATOM     25  H   LIG d   1       6.331  -8.067  -4.449  0.00  0.00     0.044 H 
BRANCH  23  26
ATOM     26  N   LIG d   1       5.189  -9.751  -5.004  0.00  0.00    -0.296 N 
ATOM     27  C   LIG d   1       4.189  -9.526  -3.949  0.00  0.00     0.022 C 
ATOM     28  C   LIG d   1       3.540 -10.861  -3.576  0.00  0.00     0.060 C 
ATOM     29  H   LIG d   1       4.681  -9.095  -3.065  0.00  0.00     0.045 H 
ATOM     30  H   LIG d   1       3.419  -8.831  -4.315  0.00  0.00     0.045 H 
ATOM     31  O   LIG d   1       2.967 -11.451  -4.746  0.00  0.00    -0.377 OA
ATOM     32  H   LIG d   1       2.751 -10.691  -2.827  0.00  0.00     0.057 H 
ATOM     33  H   LIG d   1       4.301 -11.537  -3.158  0.00  0.00     0.057 H 
ATOM     34  C   LIG d   1       3.912 -11.685  -5.793  0.00  0.00     0.060 C 
ATOM     35  C   LIG d   1       4.566 -10.358  -6.189  0.00  0.00     0.022 C 
ATOM     36  H   LIG d   1       3.398 -12.116  -6.665  0.00  0.00     0.057 H 
ATOM     37  H   LIG d   1       4.686 -12.384  -5.443  0.00  0.00     0.057 H 
ATOM     38  H   LIG d   1       3.802  -9.677  -6.593  0.00  0.00     0.045 H 
ATOM     39  H   LIG d   1       5.335 -10.540  -6.955  0.00  0.00     0.045 H 
ENDBRANCH  23  26
ENDBRANCH  20  23
ENDBRANCH  18  20
ENDBRANCH  13  16
ENDBRANCH   8  13
BRANCH   1  40
ATOM     40  C   LIG d   1       7.939  -4.243  -4.555  0.00  0.00    -0.043 C 
ATOM     41  H   LIG d   1       8.811  -4.146  -3.891  0.00  0.00     0.027 H 
ATOM     42  H   LIG d   1       8.258  -4.112  -5.599  0.00  0.00     0.027 H 
ATOM     43  H   LIG d   1       7.493  -5.240  -4.431  0.00  0.00     0.027 H 
ENDBRANCH   1  40
BRANCH   5  44
ATOM     44  C   LIG d   1       4.077  -0.116  -3.329  0.00  0.00    -0.043 C 
ATOM     45  H   LIG d   1       4.256   0.862  -3.803  0.00  0.00     0.030 H 
BRANCH  44  46
ATOM     46  C   LIG d   1       2.621  -0.531  -3.550  0.00  0.00    -0.062 C 
ATOM     47  H   LIG d   1       2.387  -1.399  -2.916  0.00  0.00     0.023 H 
ATOM     48  H   LIG d   1       2.472  -0.797  -4.607  0.00  0.00     0.023 H 
ATOM     49  H   LIG d   1       1.957   0.306  -3.285  0.00  0.00     0.023 H 
ENDBRANCH  44  46
BRANCH  44  50
ATOM     50  C   LIG d   1       4.355  -0.013  -1.828  0.00  0.00    -0.062 C 
ATOM     51  H   LIG d   1       4.035  -0.940  -1.332  0.00  0.00     0.023 H 
ATOM     52  H   LIG d   1       3.799   0.839  -1.409  0.00  0.00     0.023 H 
ATOM     53  H   LIG d   1       5.433   0.136  -1.665  0.00  0.00     0.023 H 
ENDBRANCH  44  50
ENDBRANCH   5  44
BRANCH   3  54
ATOM     54  C   LIG d   1       6.909   0.411  -4.325  0.00  0.00     0.020 C 
ATOM     55  H   LIG d   1       6.998   0.187  -5.399  0.00  0.00     0.047 H 
ATOM     56  H   LIG d   1       6.170   1.212  -4.178  0.00  0.00     0.047 H 
BRANCH  54  57
ATOM     57  N   LIG d   1       8.210   0.845  -3.808  0.00  0.00    -0.299 N 
ATOM     58  C   LIG d   1       8.618   2.115  -3.993  0.00  0.00     0.304 C 
ATOM     59  O   LIG d   1       7.908   2.903  -4.589  0.00  0.00    -0.253 OA
ATOM     60  N   LIG d   1       9.814   2.515  -3.516  0.00  0.00    -0.270 N 
ATOM     61  H   LIG d   1      10.492   1.785  -3.051  0.00  0.00     0.156 HD
ATOM     62  H   LIG d   1       8.852   0.134  -3.269  0.00  0.00     0.150 HD
BRANCH  60  63
ATOM     63  C   LIG d   1      10.194   3.860  -3.615  0.00  0.00     0.035 A 
ATOM     64  C   LIG d   1      10.780   4.333  -4.782  0.00  0.00    -0.037 A 
ATOM     65  C   LIG d   1      11.151   5.660  -4.880  0.00  0.00    -0.018 A 
ATOM     66  H   LIG d   1      10.942   3.664  -5.614  0.00  0.00     0.064 H 
ATOM     67  C   LIG d   1      10.948   6.518  -3.809  0.00  0.00     0.120 A 
ATOM     68  H   LIG d   1      11.602   6.028  -5.789  0.00  0.00     0.066 H 
ATOM     69  C   LIG d   1      10.363   6.046  -2.642  0.00  0.00    -0.018 A 
ATOM     70  C   LIG d   1       9.987   4.721  -2.545  0.00  0.00    -0.037 A 
ATOM     71  H   LIG d   1      10.201   6.716  -1.810  0.00  0.00     0.066 H 
ATOM     72  H   LIG d   1       9.533   4.354  -1.637  0.00  0.00     0.064 H 
BRANCH  67  73
ATOM     73  O   LIG d   1      11.317   7.823  -3.904  0.00  0.00    -0.495 OA
BRANCH  73  74
ATOM     74  C   LIG d   1      10.500   8.780  -3.228  0.00  0.00     0.079 C 
ATOM     75  H   LIG d   1      10.489   9.721  -3.797  0.00  0.00     0.066 H 
ATOM     76  H   LIG d   1      10.906   8.964  -2.223  0.00  0.00     0.066 H 
ATOM     77  H   LIG d   1       9.474   8.391  -3.142  0.00  0.00     0.066 H 
ENDBRANCH  73  74
ENDBRANCH  67  73
ENDBRANCH  60  63
ENDBRANCH  54  57
ENDBRANCH   3  54
TORSDOF 14
ENDMDL
MODEL 2
REMARK VINA RESULT:      -6.4      3.964      5.964
REMARK  14 active torsions:
REMARK  status: ('A' for Active; 'I' for Inactive)
REMARK    1  A    between atoms: C_1  and  C_2 
REMARK    2  A    between atoms: C_4  and  C_26 
REMARK    3  A    between atoms: C_6  and  C_23 
REMARK    4  A    between atoms: C_9  and  C_11 
REMARK    5  A    between atoms: C_11  and  C_12 
REMARK       I    between atoms: C_12  and  N_14 
REMARK    6  A    between atoms: N_14  and  C_15 
REMARK    7  A    between atoms: C_15  and  C_16 
REMARK    8  A    between atoms: C_16  and  N_17 
REMARK    9  A    between atoms: C_23  and  C_24 
REMARK   10  A    between atoms: C_23  and  C_25 
REMARK   11  A    between atoms: C_26  and  N_27 
REMARK       I    between atoms: N_27  and  C_28 
REMARK       I    between atoms: C_28  and  N_30 
REMARK   12  A    between atoms: N_30  and  C_31 
REMARK   13  A    between atoms: C_34  and  O_37 
REMARK   14  A    between atoms: O_37  and  C_38 
ROOT
ATOM      1  C   LIG d   1       6.802  -2.539  -4.068  0.00  0.00    -0.073 C 
ATOM      2  C   LIG d   1       6.852  -1.504  -3.292  0.00  0.00    -0.080 C 
ATOM      3  C   LIG d   1       5.714  -0.547  -3.095  0.00  0.00    -0.004 C 
ATOM      4  H   LIG d   1       5.241  -0.775  -2.128  0.00  0.00     0.036 H 
ATOM      5  C   LIG d   1       4.688  -0.707  -4.219  0.00  0.00    -0.030 C 
ATOM      6  H   LIG d   1       5.096  -0.313  -5.161  0.00  0.00     0.031 H 
ATOM      7  C   LIG d   1       4.358  -2.198  -4.364  0.00  0.00    -0.042 C 
ATOM      8  C   LIG d   1       5.603  -2.919  -4.886  0.00  0.00    -0.012 C 
ATOM      9  H   LIG d   1       5.463  -4.007  -4.799  0.00  0.00     0.035 H 
ATOM     10  H   LIG d   1       7.770  -1.284  -2.727  0.00  0.00     0.058 H 
ATOM     11  H   LIG d   1       4.069  -2.608  -3.386  0.00  0.00     0.027 H 
ATOM     12  H   LIG d   1       3.527  -2.322  -5.074  0.00  0.00     0.027 H 
ENDROOT
BRANCH   8  13
ATOM     13  C   LIG d   1       5.841  -2.529  -6.346  0.00  0.00     0.030 C 
ATOM     14  H   LIG d   1       5.818  -1.433  -6.442  0.00  0.00     0.036 H 
ATOM     15  H   LIG d   1       6.822  -2.904  -6.671  0.00  0.00     0.036 H 
BRANCH  13  16
ATOM     16  C   LIG d   1       4.763  -3.132  -7.210  0.00  0.00     0.214 C 
ATOM     17  O   LIG d   1       4.408  -4.277  -7.026  0.00  0.00    -0.276 OA
ATOM     18  N   LIG d   1       4.192  -2.398  -8.185  0.00  0.00    -0.314 N 
ATOM     19  H   LIG d   1       4.513  -1.359  -8.352  0.00  0.00     0.149 HD
BRANCH  18  20
ATOM     20  C   LIG d   1       3.143  -2.983  -9.024  0.00  0.00     0.024 C 
ATOM     21  H   LIG d   1       3.605  -3.576  -9.827  0.00  0.00     0.047 H 
ATOM     22  H   LIG d   1       2.502  -3.635  -8.410  0.00  0.00     0.047 H 
BRANCH  20  23
ATOM     23  C   LIG d   1       2.296  -1.866  -9.635  0.00  0.00     0.015 C 
ATOM     24  H   LIG d   1       2.017  -2.138 -10.664  0.00  0.00     0.044 H 
ATOM     25  H   LIG d   1       1.386  -1.724  -9.033  0.00  0.00     0.044 H 
BRANCH  23  26
ATOM     26  N   LIG d   1       3.071  -0.618  -9.654  0.00  0.00    -0.296 N 
ATOM     27  C   LIG d   1       3.343  -0.187 -11.033  0.00  0.00     0.022 C 
ATOM     28  C   LIG d   1       4.200   1.081 -11.006  0.00  0.00     0.060 C 
ATOM     29  H   LIG d   1       3.879  -0.984 -11.567  0.00  0.00     0.045 H 
ATOM     30  H   LIG d   1       2.392   0.022 -11.546  0.00  0.00     0.045 H 
ATOM     31  O   LIG d   1       3.528   2.090 -10.246  0.00  0.00    -0.377 OA
ATOM     32  H   LIG d   1       4.359   1.441 -12.033  0.00  0.00     0.057 H 
ATOM     33  H   LIG d   1       5.172   0.859 -10.542  0.00  0.00     0.057 H 
ATOM     34  C   LIG d   1       3.249   1.703  -8.898  0.00  0.00     0.060 C 
ATOM     35  C   LIG d   1       2.382   0.441  -8.904  0.00  0.00     0.022 C 
ATOM     36  H   LIG d   1       2.712   2.515  -8.385  0.00  0.00     0.057 H 
ATOM     37  H   LIG d   1       4.192   1.497  -8.370  0.00  0.00     0.057 H 
ATOM     38  H   LIG d   1       1.415   0.661  -9.381  0.00  0.00     0.045 H 
ATOM     39  H   LIG d   1       2.211   0.107  -7.869  0.00  0.00     0.045 H 
ENDBRANCH  23  26
ENDBRANCH  20  23
ENDBRANCH  18  20
ENDBRANCH  13  16
ENDBRANCH   8  13
BRANCH   1  40
ATOM     40  C   LIG d   1       8.025  -3.416  -4.157  0.00  0.00    -0.043 C 
ATOM     41  H   LIG d   1       8.713  -3.167  -3.336  0.00  0.00     0.027 H 
ATOM     42  H   LIG d   1       8.527  -3.248  -5.120  0.00  0.00     0.027 H 
ATOM     43  H   LIG d   1       7.726  -4.471  -4.077  0.00  0.00     0.027 H 
ENDBRANCH   1  40
BRANCH   5  44
ATOM     44  C   LIG d   1       3.416   0.068  -3.870  0.00  0.00    -0.043 C 
ATOM     45  H   LIG d   1       3.687   1.014  -3.376  0.00  0.00     0.030 H 
BRANCH  44  46
ATOM     46  C   LIG d   1       2.633   0.367  -5.149  0.00  0.00    -0.062 C 
ATOM     47  H   LIG d   1       1.575   0.101  -5.003  0.00  0.00     0.023 H 
ATOM     48  H   LIG d   1       3.048  -0.222  -5.979  0.00  0.00     0.023 H 
ATOM     49  H   LIG d   1       2.711   1.439  -5.385  0.00  0.00     0.023 H 
ENDBRANCH  44  46
BRANCH  44  50
ATOM     50  C   LIG d   1       2.551  -0.769  -2.926  0.00  0.00    -0.062 C 
ATOM     51  H   LIG d   1       1.544  -0.331  -2.865  0.00  0.00     0.023 H 
ATOM     52  H   LIG d   1       3.006  -0.782  -1.924  0.00  0.00     0.023 H 
ATOM     53  H   LIG d   1       2.479  -1.798  -3.310  0.00  0.00     0.023 H 
ENDBRANCH  44  50
ENDBRANCH   5  44
BRANCH   3  54
ATOM     54  C   LIG d   1       6.250   0.886  -3.098  0.00  0.00     0.020 C 
ATOM     55  H   LIG d   1       5.420   1.588  -2.926  0.00  0.00     0.047 H 
ATOM     56  H   LIG d   1       6.997   1.000  -2.300  0.00  0.00     0.047 H 
BRANCH  54  57
ATOM     57  N   LIG d   1       6.871   1.173  -4.394  0.00  0.00    -0.299 N 
ATOM     58  C   LIG d   1       7.969   1.950  -4.458  0.00  0.00     0.304 C 
ATOM     59  O   LIG d   1       8.446   2.415  -3.440  0.00  0.00    -0.253 OA
ATOM     60  N   LIG d   1       8.541   2.213  -5.649  0.00  0.00    -0.270 N 
ATOM     61  H   LIG d   1       8.064   1.863  -6.577  0.00  0.00     0.156 HD
ATOM     62  H   LIG d   1       6.441   0.753  -5.315  0.00  0.00     0.150 HD
BRANCH  60  63
ATOM     63  C   LIG d   1       9.741   2.934  -5.707  0.00  0.00     0.035 A 
ATOM     64  C   LIG d   1       9.717   4.318  -5.816  0.00  0.00    -0.037 A 
ATOM     65  C   LIG d   1      10.901   5.027  -5.869  0.00  0.00    -0.018 A 
ATOM     66  H   LIG d   1       8.772   4.839  -5.855  0.00  0.00     0.064 H 
ATOM     67  C   LIG d   1      12.114   4.357  -5.825  0.00  0.00     0.120 A 
ATOM     68  H   LIG d   1      10.881   6.104  -5.949  0.00  0.00     0.066 H 
ATOM     69  C   LIG d   1      12.140   2.973  -5.716  0.00  0.00    -0.018 A 
ATOM     70  C   LIG d   1      10.957   2.264  -5.658  0.00  0.00    -0.037 A 
ATOM     71  H   LIG d   1      13.085   2.452  -5.677  0.00  0.00     0.066 H 
ATOM     72  H   LIG d   1      10.977   1.187  -5.575  0.00  0.00     0.064 H 
BRANCH  67  73
ATOM     73  O   LIG d   1      13.279   5.055  -5.881  0.00  0.00    -0.495 OA
BRANCH  73  74
ATOM     74  C   LIG d   1      13.251   6.310  -6.563  0.00  0.00     0.079 C 
ATOM     75  H   LIG d   1      14.001   6.308  -7.367  0.00  0.00     0.066 H 
ATOM     76  H   LIG d   1      13.477   7.119  -5.853  0.00  0.00     0.066 H 
ATOM     77  H   LIG d   1      12.251   6.471  -6.994  0.00  0.00     0.066 H 
ENDBRANCH  73  74
ENDBRANCH  67  73
ENDBRANCH  60  63
ENDBRANCH  54  57
ENDBRANCH   3  54
TORSDOF 14
ENDMDL
MODEL 3
REMARK VINA RESULT:      -6.4      2.681      3.810
REMARK  14 active torsions:
REMARK  status: ('A' for Active; 'I' for Inactive)
REMARK    1  A    between atoms: C_1  and  C_2 
REMARK    2  A    between atoms: C_4  and  C_26 
REMARK    3  A    between atoms: C_6  and  C_23 
REMARK    4  A    between atoms: C_9  and  C_11 
REMARK    5  A    between atoms: C_11  and  C_12 
REMARK       I    between atoms: C_12  and  N_14 
REMARK    6  A    between atoms: N_14  and  C_15 
REMARK    7  A    between atoms: C_15  and  C_16 
REMARK    8  A    between atoms: C_16  and  N_17 
REMARK    9  A    between atoms: C_23  and  C_24 
REMARK   10  A    between atoms: C_23  and  C_25 
REMARK   11  A    between atoms: C_26  and  N_27 
REMARK       I    between atoms: N_27  and  C_28 
REMARK       I    between atoms: C_28  and  N_30 
REMARK   12  A    between atoms: N_30  and  C_31 
REMARK   13  A    between atoms: C_34  and  O_37 
REMARK   14  A    between atoms: O_37  and  C_38 
ROOT
ATOM      1  C   LIG d   1       6.639  -3.227  -4.694  0.00  0.00    -0.073 C 
ATOM      2  C   LIG d   1       7.136  -2.113  -4.261  0.00  0.00    -0.080 C 
ATOM      3  C   LIG d   1       6.321  -1.008  -3.656  0.00  0.00    -0.004 C 
ATOM      4  H   LIG d   1       6.449  -1.050  -2.564  0.00  0.00     0.036 H 
ATOM      5  C   LIG d   1       4.843  -1.189  -4.007  0.00  0.00    -0.030 C 
ATOM      6  H   LIG d   1       4.679  -0.974  -5.074  0.00  0.00     0.031 H 
ATOM      7  C   LIG d   1       4.444  -2.636  -3.690  0.00  0.00    -0.042 C 
ATOM      8  C   LIG d   1       5.177  -3.564  -4.662  0.00  0.00    -0.012 C 
ATOM      9  H   LIG d   1       5.075  -4.606  -4.324  0.00  0.00     0.035 H 
ATOM     10  H   LIG d   1       8.219  -1.933  -4.324  0.00  0.00     0.058 H 
ATOM     11  H   LIG d   1       4.726  -2.876  -2.655  0.00  0.00     0.027 H 
ATOM     12  H   LIG d   1       3.356  -2.750  -3.810  0.00  0.00     0.027 H 
ENDROOT
BRANCH   8  13
ATOM     13  C   LIG d   1       4.587  -3.399  -6.064  0.00  0.00     0.030 C 
ATOM     14  H   LIG d   1       3.733  -2.707  -6.023  0.00  0.00     0.036 H 
ATOM     15  H   LIG d   1       5.355  -2.995  -6.740  0.00  0.00     0.036 H 
BRANCH  13  16
ATOM     16  C   LIG d   1       4.124  -4.740  -6.575  0.00  0.00     0.214 C 
ATOM     17  O   LIG d   1       3.543  -5.503  -5.834  0.00  0.00    -0.276 OA
ATOM     18  N   LIG d   1       4.355  -5.089  -7.856  0.00  0.00    -0.314 N 
ATOM     19  H   LIG d   1       4.881  -4.395  -8.529  0.00  0.00     0.149 HD
BRANCH  18  20
ATOM     20  C   LIG d   1       3.904  -6.391  -8.353  0.00  0.00     0.024 C 
ATOM     21  H   LIG d   1       4.738  -7.107  -8.312  0.00  0.00     0.047 H 
ATOM     22  H   LIG d   1       3.076  -6.757  -7.727  0.00  0.00     0.047 H 
BRANCH  20  23
ATOM     23  C   LIG d   1       3.425  -6.247  -9.798  0.00  0.00     0.015 C 
ATOM     24  H   LIG d   1       4.155  -5.657 -10.370  0.00  0.00     0.044 H 
ATOM     25  H   LIG d   1       3.323  -7.245 -10.252  0.00  0.00     0.044 H 
BRANCH  23  26
ATOM     26  N   LIG d   1       2.124  -5.565  -9.817  0.00  0.00    -0.296 N 
ATOM     27  C   LIG d   1       2.191  -4.323 -10.602  0.00  0.00     0.022 C 
ATOM     28  C   LIG d   1       0.834  -3.617 -10.547  0.00  0.00     0.060 C 
ATOM     29  H   LIG d   1       2.966  -3.666 -10.182  0.00  0.00     0.045 H 
ATOM     30  H   LIG d   1       2.440  -4.562 -11.646  0.00  0.00     0.045 H 
ATOM     31  O   LIG d   1      -0.180  -4.504 -11.025  0.00  0.00    -0.377 OA
ATOM     32  H   LIG d   1       0.861  -2.716 -11.178  0.00  0.00     0.057 H 
ATOM     33  H   LIG d   1       0.610  -3.329  -9.509  0.00  0.00     0.057 H 
ATOM     34  C   LIG d   1      -0.274  -5.723 -10.284  0.00  0.00     0.060 C 
ATOM     35  C   LIG d   1       1.072  -6.451 -10.337  0.00  0.00     0.022 C 
ATOM     36  H   LIG d   1      -1.055  -6.363 -10.723  0.00  0.00     0.057 H 
ATOM     37  H   LIG d   1      -0.529  -5.500  -9.238  0.00  0.00     0.057 H 
ATOM     38  H   LIG d   1       1.302  -6.725 -11.377  0.00  0.00     0.045 H 
ATOM     39  H   LIG d   1       1.023  -7.362  -9.721  0.00  0.00     0.045 H 
ENDBRANCH  23  26
ENDBRANCH  20  23
ENDBRANCH  18  20
ENDBRANCH  13  16
ENDBRANCH   8  13
BRANCH   1  40
ATOM     40  C   LIG d   1       7.586  -4.248  -5.268  0.00  0.00    -0.043 C 
ATOM     41  H   LIG d   1       8.556  -3.773  -5.474  0.00  0.00     0.027 H 
ATOM     42  H   LIG d   1       7.170  -4.651  -6.203  0.00  0.00     0.027 H 
ATOM     43  H   LIG d   1       7.725  -5.066  -4.547  0.00  0.00     0.027 H 
ENDBRANCH   1  40
BRANCH   5  44
ATOM     44  C   LIG d   1       3.994  -0.227  -3.174  0.00  0.00    -0.043 C 
ATOM     45  H   LIG d   1       4.118   0.797  -3.557  0.00  0.00     0.030 H 
BRANCH  44  46
ATOM     46  C   LIG d   1       2.522  -0.633  -3.267  0.00  0.00    -0.062 C 
ATOM     47  H   LIG d   1       2.237  -0.741  -4.324  0.00  0.00     0.023 H 
ATOM     48  H   LIG d   1       1.898   0.139  -2.796  0.00  0.00     0.023 H 
ATOM     49  H   LIG d   1       2.373  -1.593  -2.748  0.00  0.00     0.023 H 
ENDBRANCH  44  46
BRANCH  44  50
ATOM     50  C   LIG d   1       4.446  -0.282  -1.713  0.00  0.00    -0.062 C 
ATOM     51  H   LIG d   1       5.394   0.264  -1.602  0.00  0.00     0.023 H 
ATOM     52  H   LIG d   1       4.590  -1.331  -1.413  0.00  0.00     0.023 H 
ATOM     53  H   LIG d   1       3.680   0.180  -1.074  0.00  0.00     0.023 H 
ENDBRANCH  44  50
ENDBRANCH   5  44
BRANCH   3  54
ATOM     54  C   LIG d   1       6.810   0.337  -4.197  0.00  0.00     0.020 C 
ATOM     55  H   LIG d   1       6.906   0.278  -5.292  0.00  0.00     0.047 H 
ATOM     56  H   LIG d   1       6.087   1.123  -3.935  0.00  0.00     0.047 H 
BRANCH  54  57
ATOM     57  N   LIG d   1       8.113   0.656  -3.608  0.00  0.00    -0.299 N 
ATOM     58  C   LIG d   1       8.682   1.855  -3.840  0.00  0.00     0.304 C 
ATOM     59  O   LIG d   1       8.113   2.674  -4.538  0.00  0.00    -0.253 OA
ATOM     60  N   LIG d   1       9.880   2.149  -3.298  0.00  0.00    -0.270 N 
ATOM     61  H   LIG d   1      10.432   1.382  -2.736  0.00  0.00     0.156 HD
ATOM     62  H   LIG d   1       8.627  -0.083  -2.977  0.00  0.00     0.150 HD
BRANCH  60  63
ATOM     63  C   LIG d   1      10.423   3.432  -3.452  0.00  0.00     0.035 A 
ATOM     64  C   LIG d   1      11.343   3.681  -4.461  0.00  0.00    -0.037 A 
ATOM     65  C   LIG d   1      11.875   4.946  -4.614  0.00  0.00    -0.018 A 
ATOM     66  H   LIG d   1      11.640   2.886  -5.129  0.00  0.00     0.064 H 
ATOM     67  C   LIG d   1      11.498   5.966  -3.753  0.00  0.00     0.120 A 
ATOM     68  H   LIG d   1      12.587   5.141  -5.402  0.00  0.00     0.066 H 
ATOM     69  C   LIG d   1      10.578   5.719  -2.743  0.00  0.00    -0.018 A 
ATOM     70  C   LIG d   1      10.042   4.455  -2.593  0.00  0.00    -0.037 A 
ATOM     71  H   LIG d   1      10.282   6.514  -2.076  0.00  0.00     0.066 H 
ATOM     72  H   LIG d   1       9.328   4.262  -1.807  0.00  0.00     0.064 H 
BRANCH  67  73
ATOM     73  O   LIG d   1      12.025   7.211  -3.901  0.00  0.00    -0.495 OA
BRANCH  73  74
ATOM     74  C   LIG d   1      12.573   7.827  -2.734  0.00  0.00     0.079 C 
ATOM     75  H   LIG d   1      13.338   7.170  -2.297  0.00  0.00     0.066 H 
ATOM     76  H   LIG d   1      11.772   7.997  -2.000  0.00  0.00     0.066 H 
ATOM     77  H   LIG d   1      13.029   8.790  -3.008  0.00  0.00     0.066 H 
ENDBRANCH  73  74
ENDBRANCH  67  73
ENDBRANCH  60  63
ENDBRANCH  54  57
ENDBRANCH   3  54
TORSDOF 14
ENDMDL
MODEL 4
REMARK VINA RESULT:      -6.3      3.312     13.833
REMARK  14 active torsions:
REMARK  status: ('A' for Active; 'I' for Inactive)
REMARK    1  A    between atoms: C_1  and  C_2 
REMARK    2  A    between atoms: C_4  and  C_26 
REMARK    3  A    between atoms: C_6  and  C_23 
REMARK    4  A    between atoms: C_9  and  C_11 
REMARK    5  A    between atoms: C_11  and  C_12 
REMARK       I    between atoms: C_12  and  N_14 
REMARK    6  A    between atoms: N_14  and  C_15 
REMARK    7  A    between atoms: C_15  and  C_16 
REMARK    8  A    between atoms: C_16  and  N_17 
REMARK    9  A    between atoms: C_23  and  C_24 
REMARK   10  A    between atoms: C_23  and  C_25 
REMARK   11  A    between atoms: C_26  and  N_27 
REMARK       I    between atoms: N_27  and  C_28 
REMARK       I    between atoms: C_28  and  N_30 
REMARK   12  A    between atoms: N_30  and  C_31 
REMARK   13  A    between atoms: C_34  and  O_37 
REMARK   14  A    between atoms: O_37  and  C_38 
ROOT
ATOM      1  C   LIG d   1      10.043   5.494  -3.141  0.00  0.00    -0.073 C 
ATOM      2  C   LIG d   1       9.578   4.286  -3.132  0.00  0.00    -0.080 C 
ATOM      3  C   LIG d   1       9.539   3.392  -4.336  0.00  0.00    -0.004 C 
ATOM      4  H   LIG d   1      10.364   2.669  -4.249  0.00  0.00     0.036 H 
ATOM      5  C   LIG d   1       9.711   4.218  -5.613  0.00  0.00    -0.030 C 
ATOM      6  H   LIG d   1       8.807   4.816  -5.801  0.00  0.00     0.031 H 
ATOM      7  C   LIG d   1      10.928   5.135  -5.435  0.00  0.00    -0.042 C 
ATOM      8  C   LIG d   1      10.598   6.172  -4.360  0.00  0.00    -0.012 C 
ATOM      9  H   LIG d   1      11.516   6.703  -4.065  0.00  0.00     0.035 H 
ATOM     10  H   LIG d   1       9.179   3.858  -2.201  0.00  0.00     0.058 H 
ATOM     11  H   LIG d   1      11.797   4.537  -5.127  0.00  0.00     0.027 H 
ATOM     12  H   LIG d   1      11.148   5.639  -6.389  0.00  0.00     0.027 H 
ENDROOT
BRANCH   8  13
ATOM     13  C   LIG d   1       9.565   7.160  -4.906  0.00  0.00     0.030 C 
ATOM     14  H   LIG d   1       9.472   7.029  -5.994  0.00  0.00     0.036 H 
ATOM     15  H   LIG d   1       8.592   6.973  -4.430  0.00  0.00     0.036 H 
BRANCH  13  16
ATOM     16  C   LIG d   1      10.009   8.569  -4.605  0.00  0.00     0.214 C 
ATOM     17  O   LIG d   1      11.115   8.773  -4.152  0.00  0.00    -0.276 OA
ATOM     18  N   LIG d   1       9.177   9.602  -4.841  0.00  0.00    -0.314 N 
ATOM     19  H   LIG d   1       8.173   9.418  -5.253  0.00  0.00     0.149 HD
BRANCH  18  20
ATOM     20  C   LIG d   1       9.608  10.971  -4.550  0.00  0.00     0.024 C 
ATOM     21  H   LIG d   1      10.659  10.963  -4.224  0.00  0.00     0.047 H 
ATOM     22  H   LIG d   1       9.511  11.588  -5.456  0.00  0.00     0.047 H 
BRANCH  20  23
ATOM     23  C   LIG d   1       8.734  11.556  -3.439  0.00  0.00     0.015 C 
ATOM     24  H   LIG d   1       8.425  12.575  -3.713  0.00  0.00     0.044 H 
ATOM     25  H   LIG d   1       7.842  10.926  -3.304  0.00  0.00     0.044 H 
BRANCH  23  26
ATOM     26  N   LIG d   1       9.499  11.599  -2.185  0.00  0.00    -0.296 N 
ATOM     27  C   LIG d   1       9.305  10.366  -1.407  0.00  0.00     0.022 C 
ATOM     28  C   LIG d   1      10.070  10.477  -0.086  0.00  0.00     0.060 C 
ATOM     29  H   LIG d   1       8.234  10.227  -1.203  0.00  0.00     0.045 H 
ATOM     30  H   LIG d   1       9.682   9.507  -1.981  0.00  0.00     0.045 H 
ATOM     31  O   LIG d   1      11.450  10.731  -0.360  0.00  0.00    -0.377 OA
ATOM     32  H   LIG d   1       9.975   9.535   0.475  0.00  0.00     0.057 H 
ATOM     33  H   LIG d   1       9.656  11.302   0.511  0.00  0.00     0.057 H 
ATOM     34  C   LIG d   1      11.676  11.924  -1.115  0.00  0.00     0.060 C 
ATOM     35  C   LIG d   1      10.927  11.828  -2.447  0.00  0.00     0.022 C 
ATOM     36  H   LIG d   1      12.754  12.041  -1.307  0.00  0.00     0.057 H 
ATOM     37  H   LIG d   1      11.309  12.794  -0.550  0.00  0.00     0.057 H 
ATOM     38  H   LIG d   1      11.332  10.993  -3.038  0.00  0.00     0.045 H 
ATOM     39  H   LIG d   1      11.051  12.767  -3.008  0.00  0.00     0.045 H 
ENDBRANCH  23  26
ENDBRANCH  20  23
ENDBRANCH  18  20
ENDBRANCH  13  16
ENDBRANCH   8  13
BRANCH   1  40
ATOM     40  C   LIG d   1      10.024   6.269  -1.849  0.00  0.00    -0.043 C 
ATOM     41  H   LIG d   1       9.576   5.651  -1.058  0.00  0.00     0.027 H 
ATOM     42  H   LIG d   1       9.430   7.185  -1.979  0.00  0.00     0.027 H 
ATOM     43  H   LIG d   1      11.053   6.536  -1.566  0.00  0.00     0.027 H 
ENDBRANCH   1  40
BRANCH   5  44
ATOM     44  C   LIG d   1       9.941   3.284  -6.802  0.00  0.00    -0.043 C 
ATOM     45  H   LIG d   1       9.235   2.441  -6.749  0.00  0.00     0.030 H 
BRANCH  44  46
ATOM     46  C   LIG d   1       9.720   4.053  -8.106  0.00  0.00    -0.062 C 
ATOM     47  H   LIG d   1      10.596   3.928  -8.760  0.00  0.00     0.023 H 
ATOM     48  H   LIG d   1       9.578   5.121  -7.882  0.00  0.00     0.023 H 
ATOM     49  H   LIG d   1       8.825   3.664  -8.614  0.00  0.00     0.023 H 
ENDBRANCH  44  46
BRANCH  44  50
ATOM     50  C   LIG d   1      11.374   2.750  -6.763  0.00  0.00    -0.062 C 
ATOM     51  H   LIG d   1      11.620   2.287  -7.729  0.00  0.00     0.023 H 
ATOM     52  H   LIG d   1      11.465   2.001  -5.963  0.00  0.00     0.023 H 
ATOM     53  H   LIG d   1      12.070   3.581  -6.568  0.00  0.00     0.023 H 
ENDBRANCH  44  50
ENDBRANCH   5  44
BRANCH   3  54
ATOM     54  C   LIG d   1       8.195   2.662  -4.382  0.00  0.00     0.020 C 
ATOM     55  H   LIG d   1       7.451   3.228  -3.801  0.00  0.00     0.047 H 
ATOM     56  H   LIG d   1       7.859   2.578  -5.425  0.00  0.00     0.047 H 
BRANCH  54  57
ATOM     57  N   LIG d   1       8.347   1.322  -3.807  0.00  0.00    -0.299 N 
ATOM     58  C   LIG d   1       7.458   0.356  -4.108  0.00  0.00     0.304 C 
ATOM     59  O   LIG d   1       6.529   0.594  -4.856  0.00  0.00    -0.253 OA
ATOM     60  N   LIG d   1       7.598  -0.876  -3.580  0.00  0.00    -0.270 N 
ATOM     61  H   LIG d   1       8.388  -1.071  -2.840  0.00  0.00     0.156 HD
ATOM     62  H   LIG d   1       9.187   1.106  -3.132  0.00  0.00     0.150 HD
BRANCH  60  63
ATOM     63  C   LIG d   1       6.736  -1.909  -3.973  0.00  0.00     0.035 A 
ATOM     64  C   LIG d   1       7.169  -2.870  -4.878  0.00  0.00    -0.037 A 
ATOM     65  C   LIG d   1       6.321  -3.889  -5.262  0.00  0.00    -0.018 A 
ATOM     66  H   LIG d   1       8.171  -2.821  -5.278  0.00  0.00     0.064 H 
ATOM     67  C   LIG d   1       5.032  -3.948  -4.752  0.00  0.00     0.120 A 
ATOM     68  H   LIG d   1       6.659  -4.638  -5.961  0.00  0.00     0.066 H 
ATOM     69  C   LIG d   1       4.598  -2.989  -3.848  0.00  0.00    -0.018 A 
ATOM     70  C   LIG d   1       5.448  -1.972  -3.460  0.00  0.00    -0.037 A 
ATOM     71  H   LIG d   1       3.596  -3.038  -3.448  0.00  0.00     0.066 H 
ATOM     72  H   LIG d   1       5.109  -1.225  -2.757  0.00  0.00     0.064 H 
BRANCH  67  73
ATOM     73  O   LIG d   1       4.196  -4.950  -5.133  0.00  0.00    -0.495 OA
BRANCH  73  74
ATOM     74  C   LIG d   1       3.989  -5.124  -6.536  0.00  0.00     0.079 C 
ATOM     75  H   LIG d   1       3.058  -5.686  -6.703  0.00  0.00     0.066 H 
ATOM     76  H   LIG d   1       4.835  -5.681  -6.965  0.00  0.00     0.066 H 
ATOM     77  H   LIG d   1       3.916  -4.140  -7.022  0.00  0.00     0.066 H 
ENDBRANCH  73  74
ENDBRANCH  67  73
ENDBRANCH  60  63
ENDBRANCH  54  57
ENDBRANCH   3  54
TORSDOF 14
ENDMDL
MODEL 5
REMARK VINA RESULT:      -6.2      3.766     10.690
REMARK  14 active torsions:
REMARK  status: ('A' for Active; 'I' for Inactive)
REMARK    1  A    between atoms: C_1  and  C_2 
REMARK    2  A    between atoms: C_4  and  C_26 
REMARK    3  A    between atoms: C_6  and  C_23 
REMARK    4  A    between atoms: C_9  and  C_11 
REMARK    5  A    between atoms: C_11  and  C_12 
REMARK       I    between atoms: C_12  and  N_14 
REMARK    6  A    between atoms: N_14  and  C_15 
REMARK    7  A    between atoms: C_15  and  C_16 
REMARK    8  A    between atoms: C_16  and  N_17 
REMARK    9  A    between atoms: C_23  and  C_24 
REMARK   10  A    between atoms: C_23  and  C_25 
REMARK   11  A    between atoms: C_26  and  N_27 
REMARK       I    between atoms: N_27  and  C_28 
REMARK       I    between atoms: C_28  and  N_30 
REMARK   12  A    between atoms: N_30  and  C_31 
REMARK   13  A    between atoms: C_34  and  O_37 
REMARK   14  A    between atoms: O_37  and  C_38 
ROOT
ATOM      1  C   LIG d   1       5.330  -1.192  -2.906  0.00  0.00    -0.073 C 
ATOM      2  C   LIG d   1       4.840  -2.277  -3.416  0.00  0.00    -0.080 C 
ATOM      3  C   LIG d   1       5.594  -3.184  -4.343  0.00  0.00    -0.004 C 
ATOM      4  H   LIG d   1       5.928  -4.059  -3.765  0.00  0.00     0.036 H 
ATOM      5  C   LIG d   1       6.809  -2.456  -4.922  0.00  0.00    -0.030 C 
ATOM      6  H   LIG d   1       6.482  -1.691  -5.642  0.00  0.00     0.031 H 
ATOM      7  C   LIG d   1       7.579  -1.805  -3.767  0.00  0.00    -0.042 C 
ATOM      8  C   LIG d   1       6.716  -0.686  -3.180  0.00  0.00    -0.012 C 
ATOM      9  H   LIG d   1       7.149  -0.347  -2.227  0.00  0.00     0.035 H 
ATOM     10  H   LIG d   1       3.811  -2.581  -3.175  0.00  0.00     0.058 H 
ATOM     11  H   LIG d   1       7.792  -2.560  -2.996  0.00  0.00     0.027 H 
ATOM     12  H   LIG d   1       8.526  -1.391  -4.146  0.00  0.00     0.027 H 
ENDROOT
BRANCH   8  13
ATOM     13  C   LIG d   1       6.645   0.475  -4.174  0.00  0.00     0.030 C 
ATOM     14  H   LIG d   1       6.155   0.136  -5.099  0.00  0.00     0.036 H 
ATOM     15  H   LIG d   1       6.066   1.300  -3.735  0.00  0.00     0.036 H 
BRANCH  13  16
ATOM     16  C   LIG d   1       8.039   0.952  -4.490  0.00  0.00     0.214 C 
ATOM     17  O   LIG d   1       8.489   0.816  -5.608  0.00  0.00    -0.276 OA
ATOM     18  N   LIG d   1       8.787   1.531  -3.530  0.00  0.00    -0.314 N 
ATOM     19  H   LIG d   1       8.379   1.656  -2.515  0.00  0.00     0.149 HD
BRANCH  18  20
ATOM     20  C   LIG d   1      10.142   1.996  -3.836  0.00  0.00     0.024 C 
ATOM     21  H   LIG d   1      10.831   1.139  -3.841  0.00  0.00     0.047 H 
ATOM     22  H   LIG d   1      10.150   2.478  -4.826  0.00  0.00     0.047 H 
BRANCH  20  23
ATOM     23  C   LIG d   1      10.588   3.003  -2.775  0.00  0.00     0.015 C 
ATOM     24  H   LIG d   1      10.356   2.610  -1.775  0.00  0.00     0.044 H 
ATOM     25  H   LIG d   1      11.672   3.170  -2.861  0.00  0.00     0.044 H 
BRANCH  23  26
ATOM     26  N   LIG d   1       9.879   4.274  -2.977  0.00  0.00    -0.296 N 
ATOM     27  C   LIG d   1      10.366   5.303  -2.047  0.00  0.00     0.022 C 
ATOM     28  C   LIG d   1       9.563   6.590  -2.251  0.00  0.00     0.060 C 
ATOM     29  H   LIG d   1      10.243   4.951  -1.013  0.00  0.00     0.045 H 
ATOM     30  H   LIG d   1      11.431   5.499  -2.242  0.00  0.00     0.045 H 
ATOM     31  O   LIG d   1       9.668   7.001  -3.617  0.00  0.00    -0.377 OA
ATOM     32  H   LIG d   1       9.961   7.381  -1.598  0.00  0.00     0.057 H 
ATOM     33  H   LIG d   1       8.506   6.408  -2.003  0.00  0.00     0.057 H 
ATOM     34  C   LIG d   1       9.202   6.024  -4.550  0.00  0.00     0.060 C 
ATOM     35  C   LIG d   1      10.002   4.731  -4.369  0.00  0.00     0.022 C 
ATOM     36  H   LIG d   1       9.336   6.399  -5.575  0.00  0.00     0.057 H 
ATOM     37  H   LIG d   1       8.135   5.822  -4.370  0.00  0.00     0.057 H 
ATOM     38  H   LIG d   1      11.061   4.917  -4.603  0.00  0.00     0.045 H 
ATOM     39  H   LIG d   1       9.609   3.957  -5.045  0.00  0.00     0.045 H 
ENDBRANCH  23  26
ENDBRANCH  20  23
ENDBRANCH  18  20
ENDBRANCH  13  16
ENDBRANCH   8  13
BRANCH   1  40
ATOM     40  C   LIG d   1       4.454  -0.386  -1.982  0.00  0.00    -0.043 C 
ATOM     41  H   LIG d   1       3.675   0.124  -2.568  0.00  0.00     0.027 H 
ATOM     42  H   LIG d   1       5.065   0.361  -1.456  0.00  0.00     0.027 H 
ATOM     43  H   LIG d   1       3.981  -1.055  -1.249  0.00  0.00     0.027 H 
ENDBRANCH   1  40
BRANCH   5  44
ATOM     44  C   LIG d   1       7.713  -3.458  -5.643  0.00  0.00    -0.043 C 
ATOM     45  H   LIG d   1       7.096  -4.248  -6.098  0.00  0.00     0.030 H 
BRANCH  44  46
ATOM     46  C   LIG d   1       8.505  -2.737  -6.735  0.00  0.00    -0.062 C 
ATOM     47  H   LIG d   1       9.222  -3.436  -7.191  0.00  0.00     0.023 H 
ATOM     48  H   LIG d   1       9.049  -1.889  -6.294  0.00  0.00     0.023 H 
ATOM     49  H   LIG d   1       7.812  -2.367  -7.506  0.00  0.00     0.023 H 
ENDBRANCH  44  46
BRANCH  44  50
ATOM     50  C   LIG d   1       8.683  -4.084  -4.639  0.00  0.00    -0.062 C 
ATOM     51  H   LIG d   1       8.848  -5.140  -4.898  0.00  0.00     0.023 H 
ATOM     52  H   LIG d   1       8.257  -4.017  -3.627  0.00  0.00     0.023 H 
ATOM     53  H   LIG d   1       9.642  -3.545  -4.670  0.00  0.00     0.023 H 
ENDBRANCH  44  50
ENDBRANCH   5  44
BRANCH   3  54
ATOM     54  C   LIG d   1       4.673  -3.622  -5.483  0.00  0.00     0.020 C 
ATOM     55  H   LIG d   1       5.262  -4.154  -6.246  0.00  0.00     0.047 H 
ATOM     56  H   LIG d   1       3.894  -4.291  -5.090  0.00  0.00     0.047 H 
BRANCH  54  57
ATOM     57  N   LIG d   1       4.046  -2.442  -6.085  0.00  0.00    -0.299 N 
ATOM     58  C   LIG d   1       4.248  -2.163  -7.387  0.00  0.00     0.304 C 
ATOM     59  O   LIG d   1       4.951  -2.888  -8.064  0.00  0.00    -0.253 OA
ATOM     60  N   LIG d   1       3.670  -1.078  -7.941  0.00  0.00    -0.270 N 
ATOM     61  H   LIG d   1       3.103  -0.377  -7.313  0.00  0.00     0.156 HD
ATOM     62  H   LIG d   1       3.409  -1.786  -5.474  0.00  0.00     0.150 HD
BRANCH  60  63
ATOM     63  C   LIG d   1       3.794  -0.844  -9.318  0.00  0.00     0.035 A 
ATOM     64  C   LIG d   1       2.824  -1.314 -10.193  0.00  0.00    -0.037 A 
ATOM     65  C   LIG d   1       2.945  -1.080 -11.548  0.00  0.00    -0.018 A 
ATOM     66  H   LIG d   1       1.973  -1.860  -9.812  0.00  0.00     0.064 H 
ATOM     67  C   LIG d   1       4.040  -0.384 -12.037  0.00  0.00     0.120 A 
ATOM     68  H   LIG d   1       2.188  -1.441 -12.228  0.00  0.00     0.066 H 
ATOM     69  C   LIG d   1       5.011   0.086 -11.164  0.00  0.00    -0.018 A 
ATOM     70  C   LIG d   1       4.888  -0.143  -9.807  0.00  0.00    -0.037 A 
ATOM     71  H   LIG d   1       5.861   0.632 -11.544  0.00  0.00     0.066 H 
ATOM     72  H   LIG d   1       5.644   0.221  -9.128  0.00  0.00     0.064 H 
BRANCH  67  73
ATOM     73  O   LIG d   1       4.161  -0.157 -13.372  0.00  0.00    -0.495 OA
BRANCH  73  74
ATOM     74  C   LIG d   1       3.725  -1.197 -14.249  0.00  0.00     0.079 C 
ATOM     75  H   LIG d   1       3.349  -2.044 -13.656  0.00  0.00     0.066 H 
ATOM     76  H   LIG d   1       4.569  -1.530 -14.871  0.00  0.00     0.066 H 
ATOM     77  H   LIG d   1       2.921  -0.817 -14.897  0.00  0.00     0.066 H 
ENDBRANCH  73  74
ENDBRANCH  67  73
ENDBRANCH  60  63
ENDBRANCH  54  57
ENDBRANCH   3  54
TORSDOF 14
ENDMDL
MODEL 6
REMARK VINA RESULT:      -6.1      5.057     13.628
REMARK  14 active torsions:
REMARK  status: ('A' for Active; 'I' for Inactive)
REMARK    1  A    between atoms: C_1  and  C_2 
REMARK    2  A    between atoms: C_4  and  C_26 
REMARK    3  A    between atoms: C_6  and  C_23 
REMARK    4  A    between atoms: C_9  and  C_11 
REMARK    5  A    between atoms: C_11  and  C_12 
REMARK       I    between atoms: C_12  and  N_14 
REMARK    6  A    between atoms: N_14  and  C_15 
REMARK    7  A    between atoms: C_15  and  C_16 
REMARK    8  A    between atoms: C_16  and  N_17 
REMARK    9  A    between atoms: C_23  and  C_24 
REMARK   10  A    between atoms: C_23  and  C_25 
REMARK   11  A    between atoms: C_26  and  N_27 
REMARK       I    between atoms: N_27  and  C_28 
REMARK       I    between atoms: C_28  and  N_30 
REMARK   12  A    between atoms: N_30  and  C_31 
REMARK   13  A    between atoms: C_34  and  O_37 
REMARK   14  A    between atoms: O_37  and  C_38 
ROOT
ATOM      1  C   LIG d   1      11.505   5.433  -2.713  0.00  0.00    -0.073 C 
ATOM      2  C   LIG d   1      11.578   4.647  -3.739  0.00  0.00    -0.080 C 
ATOM      3  C   LIG d   1      11.075   5.002  -5.107  0.00  0.00    -0.004 C 
ATOM      4  H   LIG d   1      11.942   5.271  -5.729  0.00  0.00     0.036 H 
ATOM      5  C   LIG d   1      10.114   6.189  -5.025  0.00  0.00    -0.030 C 
ATOM      6  H   LIG d   1       9.168   5.878  -4.558  0.00  0.00     0.031 H 
ATOM      7  C   LIG d   1      10.779   7.294  -4.193  0.00  0.00    -0.042 C 
ATOM      8  C   LIG d   1      10.896   6.805  -2.747  0.00  0.00    -0.012 C 
ATOM      9  H   LIG d   1      11.553   7.482  -2.181  0.00  0.00     0.035 H 
ATOM     10  H   LIG d   1      12.033   3.651  -3.636  0.00  0.00     0.058 H 
ATOM     11  H   LIG d   1      11.777   7.509  -4.599  0.00  0.00     0.027 H 
ATOM     12  H   LIG d   1      10.162   8.204  -4.233  0.00  0.00     0.027 H 
ENDROOT
BRANCH   8  13
ATOM     13  C   LIG d   1       9.505   6.758  -2.112  0.00  0.00     0.030 C 
ATOM     14  H   LIG d   1       8.741   6.758  -2.903  0.00  0.00     0.036 H 
ATOM     15  H   LIG d   1       9.408   5.845  -1.508  0.00  0.00     0.036 H 
BRANCH  13  16
ATOM     16  C   LIG d   1       9.315   7.966  -1.230  0.00  0.00     0.214 C 
ATOM     17  O   LIG d   1       8.218   8.225  -0.784  0.00  0.00    -0.276 OA
ATOM     18  N   LIG d   1      10.366   8.756  -0.934  0.00  0.00    -0.314 N 
ATOM     19  H   LIG d   1      11.363   8.521  -1.338  0.00  0.00     0.149 HD
BRANCH  18  20
ATOM     20  C   LIG d   1      10.182   9.929  -0.076  0.00  0.00     0.024 C 
ATOM     21  H   LIG d   1       9.125  10.005   0.218  0.00  0.00     0.047 H 
ATOM     22  H   LIG d   1      10.806   9.826   0.825  0.00  0.00     0.047 H 
BRANCH  20  23
ATOM     23  C   LIG d   1      10.592  11.189  -0.839  0.00  0.00     0.015 C 
ATOM     24  H   LIG d   1       9.968  12.034  -0.514  0.00  0.00     0.044 H 
ATOM     25  H   LIG d   1      11.650  11.414  -0.634  0.00  0.00     0.044 H 
BRANCH  23  26
ATOM     26  N   LIG d   1      10.408  10.971  -2.280  0.00  0.00    -0.296 N 
ATOM     27  C   LIG d   1       9.155  11.581  -2.749  0.00  0.00     0.022 C 
ATOM     28  C   LIG d   1       8.975  11.280  -4.239  0.00  0.00     0.060 C 
ATOM     29  H   LIG d   1       8.310  11.163  -2.184  0.00  0.00     0.045 H 
ATOM     30  H   LIG d   1       9.196  12.669  -2.596  0.00  0.00     0.045 H 
ATOM     31  O   LIG d   1      10.113  11.761  -4.960  0.00  0.00    -0.377 OA
ATOM     32  H   LIG d   1       8.067  11.782  -4.610  0.00  0.00     0.057 H 
ATOM     33  H   LIG d   1       8.878  10.194  -4.387  0.00  0.00     0.057 H 
ATOM     34  C   LIG d   1      11.349  11.187  -4.529  0.00  0.00     0.060 C 
ATOM     35  C   LIG d   1      11.555  11.487  -3.042  0.00  0.00     0.022 C 
ATOM     36  H   LIG d   1      12.178  11.620  -5.109  0.00  0.00     0.057 H 
ATOM     37  H   LIG d   1      11.325  10.098  -4.683  0.00  0.00     0.057 H 
ATOM     38  H   LIG d   1      11.636  12.574  -2.893  0.00  0.00     0.045 H 
ATOM     39  H   LIG d   1      12.477  11.000  -2.691  0.00  0.00     0.045 H 
ENDBRANCH  23  26
ENDBRANCH  20  23
ENDBRANCH  18  20
ENDBRANCH  13  16
ENDBRANCH   8  13
BRANCH   1  40
ATOM     40  C   LIG d   1      12.063   4.941  -1.403  0.00  0.00    -0.043 C 
ATOM     41  H   LIG d   1      13.085   5.327  -1.272  0.00  0.00     0.027 H 
ATOM     42  H   LIG d   1      12.084   3.842  -1.403  0.00  0.00     0.027 H 
ATOM     43  H   LIG d   1      11.429   5.296  -0.578  0.00  0.00     0.027 H 
ENDBRANCH   1  40
BRANCH   5  44
ATOM     44  C   LIG d   1       9.821   6.713  -6.432  0.00  0.00    -0.043 C 
ATOM     45  H   LIG d   1       9.130   6.024  -6.943  0.00  0.00     0.030 H 
BRANCH  44  46
ATOM     46  C   LIG d   1       9.182   8.100  -6.338  0.00  0.00    -0.062 C 
ATOM     47  H   LIG d   1       8.220   8.098  -6.871  0.00  0.00     0.023 H 
ATOM     48  H   LIG d   1       9.852   8.843  -6.793  0.00  0.00     0.023 H 
ATOM     49  H   LIG d   1       9.014   8.355  -5.281  0.00  0.00     0.023 H 
ENDBRANCH  44  46
BRANCH  44  50
ATOM     50  C   LIG d   1      11.126   6.805  -7.224  0.00  0.00    -0.062 C 
ATOM     51  H   LIG d   1      11.980   6.714  -6.537  0.00  0.00     0.023 H 
ATOM     52  H   LIG d   1      11.173   7.775  -7.742  0.00  0.00     0.023 H 
ATOM     53  H   LIG d   1      11.164   5.992  -7.965  0.00  0.00     0.023 H 
ENDBRANCH  44  50
ENDBRANCH   5  44
BRANCH   3  54
ATOM     54  C   LIG d   1      10.345   3.799  -5.706  0.00  0.00     0.020 C 
ATOM     55  H   LIG d   1       9.415   4.138  -6.188  0.00  0.00     0.047 H 
ATOM     56  H   LIG d   1      10.988   3.313  -6.454  0.00  0.00     0.047 H 
BRANCH  54  57
ATOM     57  N   LIG d   1      10.023   2.843  -4.643  0.00  0.00    -0.299 N 
ATOM     58  C   LIG d   1       8.817   2.243  -4.619  0.00  0.00     0.304 C 
ATOM     59  O   LIG d   1       7.994   2.495  -5.478  0.00  0.00    -0.253 OA
ATOM     60  N   LIG d   1       8.522   1.363  -3.642  0.00  0.00    -0.270 N 
ATOM     61  H   LIG d   1       9.232   1.197  -2.818  0.00  0.00     0.156 HD
ATOM     62  H   LIG d   1      10.767   2.614  -3.866  0.00  0.00     0.150 HD
BRANCH  60  63
ATOM     63  C   LIG d   1       7.309   0.661  -3.673  0.00  0.00     0.035 A 
ATOM     64  C   LIG d   1       6.171   1.213  -3.101  0.00  0.00    -0.037 A 
ATOM     65  C   LIG d   1       4.976   0.522  -3.136  0.00  0.00    -0.018 A 
ATOM     66  H   LIG d   1       6.220   2.185  -2.632  0.00  0.00     0.064 H 
ATOM     67  C   LIG d   1       4.915  -0.728  -3.734  0.00  0.00     0.120 A 
ATOM     68  H   LIG d   1       4.090   0.954  -2.695  0.00  0.00     0.066 H 
ATOM     69  C   LIG d   1       6.051  -1.281  -4.306  0.00  0.00    -0.018 A 
ATOM     70  C   LIG d   1       7.246  -0.588  -4.276  0.00  0.00    -0.037 A 
ATOM     71  H   LIG d   1       6.002  -2.252  -4.775  0.00  0.00     0.066 H 
ATOM     72  H   LIG d   1       8.131  -1.019  -4.720  0.00  0.00     0.064 H 
BRANCH  67  73
ATOM     73  O   LIG d   1       3.739  -1.410  -3.765  0.00  0.00    -0.495 OA
BRANCH  73  74
ATOM     74  C   LIG d   1       2.591  -0.749  -3.228  0.00  0.00     0.079 C 
ATOM     75  H   LIG d   1       1.724  -0.934  -3.878  0.00  0.00     0.066 H 
ATOM     76  H   LIG d   1       2.784   0.332  -3.171  0.00  0.00     0.066 H 
ATOM     77  H   LIG d   1       2.383  -1.137  -2.219  0.00  0.00     0.066 H 
ENDBRANCH  73  74
ENDBRANCH  67  73
ENDBRANCH  60  63
ENDBRANCH  54  57
ENDBRANCH   3  54
TORSDOF 14
ENDMDL
MODEL 7
REMARK VINA RESULT:      -6.0      4.860      5.731
REMARK  14 active torsions:
REMARK  status: ('A' for Active; 'I' for Inactive)
REMARK    1  A    between atoms: C_1  and  C_2 
REMARK    2  A    between atoms: C_4  and  C_26 
REMARK    3  A    between atoms: C_6  and  C_23 
REMARK    4  A    between atoms: C_9  and  C_11 
REMARK    5  A    between atoms: C_11  and  C_12 
REMARK       I    between atoms: C_12  and  N_14 
REMARK    6  A    between atoms: N_14  and  C_15 
REMARK    7  A    between atoms: C_15  and  C_16 
REMARK    8  A    between atoms: C_16  and  N_17 
REMARK    9  A    between atoms: C_23  and  C_24 
REMARK   10  A    between atoms: C_23  and  C_25 
REMARK   11  A    between atoms: C_26  and  N_27 
REMARK       I    between atoms: N_27  and  C_28 
REMARK       I    between atoms: C_28  and  N_30 
REMARK   12  A    between atoms: N_30  and  C_31 
REMARK   13  A    between atoms: C_34  and  O_37 
REMARK   14  A    between atoms: O_37  and  C_38 
ROOT
ATOM      1  C   LIG d   1       5.718  -0.650  -6.673  0.00  0.00    -0.073 C 
ATOM      2  C   LIG d   1       6.687  -0.447  -5.839  0.00  0.00    -0.080 C 
ATOM      3  C   LIG d   1       6.542  -0.531  -4.348  0.00  0.00    -0.004 C 
ATOM      4  H   LIG d   1       6.966  -1.492  -4.019  0.00  0.00     0.036 H 
ATOM      5  C   LIG d   1       5.065  -0.460  -3.956  0.00  0.00    -0.030 C 
ATOM      6  H   LIG d   1       4.680   0.557  -4.119  0.00  0.00     0.031 H 
ATOM      7  C   LIG d   1       4.287  -1.467  -4.813  0.00  0.00    -0.042 C 
ATOM      8  C   LIG d   1       4.314  -0.986  -6.265  0.00  0.00    -0.012 C 
ATOM      9  H   LIG d   1       3.950  -1.788  -6.926  0.00  0.00     0.035 H 
ATOM     10  H   LIG d   1       7.691  -0.197  -6.212  0.00  0.00     0.058 H 
ATOM     11  H   LIG d   1       4.759  -2.456  -4.735  0.00  0.00     0.027 H 
ATOM     12  H   LIG d   1       3.248  -1.526  -4.455  0.00  0.00     0.027 H 
ENDROOT
BRANCH   8  13
ATOM     13  C   LIG d   1       3.433   0.257  -6.405  0.00  0.00     0.030 C 
ATOM     14  H   LIG d   1       2.644   0.235  -5.639  0.00  0.00     0.036 H 
ATOM     15  H   LIG d   1       4.048   1.159  -6.273  0.00  0.00     0.036 H 
BRANCH  13  16
ATOM     16  C   LIG d   1       2.804   0.275  -7.775  0.00  0.00     0.214 C 
ATOM     17  O   LIG d   1       2.716   1.318  -8.388  0.00  0.00    -0.276 OA
ATOM     18  N   LIG d   1       2.339  -0.867  -8.318  0.00  0.00    -0.314 N 
ATOM     19  H   LIG d   1       2.420  -1.813  -7.762  0.00  0.00     0.149 HD
BRANCH  18  20
ATOM     20  C   LIG d   1       1.728  -0.850  -9.649  0.00  0.00     0.024 C 
ATOM     21  H   LIG d   1       0.714  -1.271  -9.592  0.00  0.00     0.047 H 
ATOM     22  H   LIG d   1       1.674   0.186 -10.016  0.00  0.00     0.047 H 
BRANCH  20  23
ATOM     23  C   LIG d   1       2.574  -1.687 -10.610  0.00  0.00     0.015 C 
ATOM     24  H   LIG d   1       3.162  -1.020 -11.258  0.00  0.00     0.044 H 
ATOM     25  H   LIG d   1       3.255  -2.332 -10.033  0.00  0.00     0.044 H 
BRANCH  23  26
ATOM     26  N   LIG d   1       1.694  -2.521 -11.439  0.00  0.00    -0.296 N 
ATOM     27  C   LIG d   1       0.934  -3.470 -10.611  0.00  0.00     0.022 C 
ATOM     28  C   LIG d   1       0.076  -4.356 -11.517  0.00  0.00     0.060 C 
ATOM     29  H   LIG d   1       1.633  -4.096 -10.037  0.00  0.00     0.045 H 
ATOM     30  H   LIG d   1       0.286  -2.915  -9.917  0.00  0.00     0.045 H 
ATOM     31  O   LIG d   1      -0.777  -3.531 -12.314  0.00  0.00    -0.377 OA
ATOM     32  H   LIG d   1      -0.537  -5.031 -10.901  0.00  0.00     0.057 H 
ATOM     33  H   LIG d   1       0.728  -4.952 -12.174  0.00  0.00     0.057 H 
ATOM     34  C   LIG d   1      -0.071  -2.596 -13.133  0.00  0.00     0.060 C 
ATOM     35  C   LIG d   1       0.786  -1.691 -12.243  0.00  0.00     0.022 C 
ATOM     36  H   LIG d   1      -0.791  -1.982 -13.696  0.00  0.00     0.057 H 
ATOM     37  H   LIG d   1       0.577  -3.137 -13.837  0.00  0.00     0.057 H 
ATOM     38  H   LIG d   1       0.134  -1.106 -11.577  0.00  0.00     0.045 H 
ATOM     39  H   LIG d   1       1.374  -1.007 -12.872  0.00  0.00     0.045 H 
ENDBRANCH  23  26
ENDBRANCH  20  23
ENDBRANCH  18  20
ENDBRANCH  13  16
ENDBRANCH   8  13
BRANCH   1  40
ATOM     40  C   LIG d   1       6.018  -0.540  -8.146  0.00  0.00    -0.043 C 
ATOM     41  H   LIG d   1       7.043  -0.890  -8.338  0.00  0.00     0.027 H 
ATOM     42  H   LIG d   1       5.925   0.509  -8.462  0.00  0.00     0.027 H 
ATOM     43  H   LIG d   1       5.308  -1.159  -8.713  0.00  0.00     0.027 H 
ENDBRANCH   1  40
BRANCH   5  44
ATOM     44  C   LIG d   1       4.908  -0.815  -2.476  0.00  0.00    -0.043 C 
ATOM     45  H   LIG d   1       5.887  -1.099  -2.061  0.00  0.00     0.030 H 
BRANCH  44  46
ATOM     46  C   LIG d   1       4.363   0.396  -1.716  0.00  0.00    -0.062 C 
ATOM     47  H   LIG d   1       5.196   1.055  -1.430  0.00  0.00     0.023 H 
ATOM     48  H   LIG d   1       3.838   0.055  -0.812  0.00  0.00     0.023 H 
ATOM     49  H   LIG d   1       3.663   0.949  -2.360  0.00  0.00     0.023 H 
ENDBRANCH  44  46
BRANCH  44  50
ATOM     50  C   LIG d   1       3.935  -1.986  -2.333  0.00  0.00    -0.062 C 
ATOM     51  H   LIG d   1       3.218  -1.972  -3.167  0.00  0.00     0.023 H 
ATOM     52  H   LIG d   1       3.391  -1.898  -1.381  0.00  0.00     0.023 H 
ATOM     53  H   LIG d   1       4.495  -2.933  -2.348  0.00  0.00     0.023 H 
ENDBRANCH  44  50
ENDBRANCH   5  44
BRANCH   3  54
ATOM     54  C   LIG d   1       7.296   0.632  -3.700  0.00  0.00     0.020 C 
ATOM     55  H   LIG d   1       6.642   1.129  -2.967  0.00  0.00     0.047 H 
ATOM     56  H   LIG d   1       8.193   0.250  -3.190  0.00  0.00     0.047 H 
BRANCH  54  57
ATOM     57  N   LIG d   1       7.693   1.594  -4.732  0.00  0.00    -0.299 N 
ATOM     58  C   LIG d   1       8.476   2.641  -4.410  0.00  0.00     0.304 C 
ATOM     59  O   LIG d   1       8.855   2.790  -3.264  0.00  0.00    -0.253 OA
ATOM     60  N   LIG d   1       8.842   3.525  -5.360  0.00  0.00    -0.270 N 
ATOM     61  H   LIG d   1       8.433   3.439  -6.377  0.00  0.00     0.156 HD
ATOM     62  H   LIG d   1       7.351   1.460  -5.768  0.00  0.00     0.150 HD
BRANCH  60  63
ATOM     63  C   LIG d   1       9.741   4.555  -5.050  0.00  0.00     0.035 A 
ATOM     64  C   LIG d   1       9.265   5.798  -4.653  0.00  0.00    -0.037 A 
ATOM     65  C   LIG d   1      10.151   6.810  -4.344  0.00  0.00    -0.018 A 
ATOM     66  H   LIG d   1       8.201   5.970  -4.581  0.00  0.00     0.064 H 
ATOM     67  C   LIG d   1      11.517   6.590  -4.441  0.00  0.00     0.120 A 
ATOM     68  H   LIG d   1       9.781   7.774  -4.031  0.00  0.00     0.066 H 
ATOM     69  C   LIG d   1      11.994   5.349  -4.838  0.00  0.00    -0.018 A 
ATOM     70  C   LIG d   1      11.108   4.334  -5.142  0.00  0.00    -0.037 A 
ATOM     71  H   LIG d   1      13.058   5.176  -4.910  0.00  0.00     0.066 H 
ATOM     72  H   LIG d   1      11.480   3.368  -5.453  0.00  0.00     0.064 H 
BRANCH  67  73
ATOM     73  O   LIG d   1      12.390   7.588  -4.141  0.00  0.00    -0.495 OA
BRANCH  73  74
ATOM     74  C   LIG d   1      11.865   8.916  -4.093  0.00  0.00     0.079 C 
ATOM     75  H   LIG d   1      12.562   9.566  -3.544  0.00  0.00     0.066 H 
ATOM     76  H   LIG d   1      10.892   8.907  -3.580  0.00  0.00     0.066 H 
ATOM     77  H   LIG d   1      11.735   9.297  -5.117  0.00  0.00     0.066 H 
ENDBRANCH  73  74
ENDBRANCH  67  73
ENDBRANCH  60  63
ENDBRANCH  54  57
ENDBRANCH   3  54
TORSDOF 14
ENDMDL
MODEL 8
REMARK VINA RESULT:      -6.0      4.283     12.028
REMARK  14 active torsions:
REMARK  status: ('A' for Active; 'I' for Inactive)
REMARK    1  A    between atoms: C_1  and  C_2 
REMARK    2  A    between atoms: C_4  and  C_26 
REMARK    3  A    between atoms: C_6  and  C_23 
REMARK    4  A    between atoms: C_9  and  C_11 
REMARK    5  A    between atoms: C_11  and  C_12 
REMARK       I    between atoms: C_12  and  N_14 
REMARK    6  A    between atoms: N_14  and  C_15 
REMARK    7  A    between atoms: C_15  and  C_16 
REMARK    8  A    between atoms: C_16  and  N_17 
REMARK    9  A    between atoms: C_23  and  C_24 
REMARK   10  A    between atoms: C_23  and  C_25 
REMARK   11  A    between atoms: C_26  and  N_27 
REMARK       I    between atoms: N_27  and  C_28 
REMARK       I    between atoms: C_28  and  N_30 
REMARK   12  A    between atoms: N_30  and  C_31 
REMARK   13  A    between atoms: C_34  and  O_37 
REMARK   14  A    between atoms: O_37  and  C_38 
ROOT
ATOM      1  C   LIG d   1       8.354   1.230  -5.577  0.00  0.00    -0.073 C 
ATOM      2  C   LIG d   1       7.789   0.088  -5.806  0.00  0.00    -0.080 C 
ATOM      3  C   LIG d   1       6.714  -0.505  -4.944  0.00  0.00    -0.004 C 
ATOM      4  H   LIG d   1       5.749  -0.355  -5.451  0.00  0.00     0.036 H 
ATOM      5  C   LIG d   1       6.690   0.187  -3.579  0.00  0.00    -0.030 C 
ATOM      6  H   LIG d   1       7.575  -0.102  -2.994  0.00  0.00     0.031 H 
ATOM      7  C   LIG d   1       6.676   1.704  -3.807  0.00  0.00    -0.042 C 
ATOM      8  C   LIG d   1       8.021   2.114  -4.412  0.00  0.00    -0.012 C 
ATOM      9  H   LIG d   1       7.960   3.150  -4.777  0.00  0.00     0.035 H 
ATOM     10  H   LIG d   1       8.091  -0.510  -6.679  0.00  0.00     0.058 H 
ATOM     11  H   LIG d   1       5.859   1.965  -4.494  0.00  0.00     0.027 H 
ATOM     12  H   LIG d   1       6.525   2.217  -2.845  0.00  0.00     0.027 H 
ENDROOT
BRANCH   8  13
ATOM     13  C   LIG d   1       9.115   1.988  -3.350  0.00  0.00     0.030 C 
ATOM     14  H   LIG d   1       8.664   1.685  -2.393  0.00  0.00     0.036 H 
ATOM     15  H   LIG d   1       9.848   1.232  -3.666  0.00  0.00     0.036 H 
BRANCH  13  16
ATOM     16  C   LIG d   1       9.807   3.317  -3.181  0.00  0.00     0.214 C 
ATOM     17  O   LIG d   1       9.524   4.245  -3.909  0.00  0.00    -0.276 OA
ATOM     18  N   LIG d   1      10.739   3.474  -2.221  0.00  0.00    -0.314 N 
ATOM     19  H   LIG d   1      10.996   2.632  -1.560  0.00  0.00     0.149 HD
BRANCH  18  20
ATOM     20  C   LIG d   1      11.411   4.765  -2.056  0.00  0.00     0.024 C 
ATOM     21  H   LIG d   1      12.499   4.624  -2.137  0.00  0.00     0.047 H 
ATOM     22  H   LIG d   1      11.072   5.459  -2.840  0.00  0.00     0.047 H 
BRANCH  20  23
ATOM     23  C   LIG d   1      11.073   5.344  -0.681  0.00  0.00     0.015 C 
ATOM     24  H   LIG d   1      10.116   4.928  -0.333  0.00  0.00     0.044 H 
ATOM     25  H   LIG d   1      11.868   5.083   0.033  0.00  0.00     0.044 H 
BRANCH  23  26
ATOM     26  N   LIG d   1      10.962   6.806  -0.779  0.00  0.00    -0.296 N 
ATOM     27  C   LIG d   1       9.687   7.198  -1.398  0.00  0.00     0.022 C 
ATOM     28  C   LIG d   1       9.639   8.722  -1.534  0.00  0.00     0.060 C 
ATOM     29  H   LIG d   1       9.605   6.736  -2.392  0.00  0.00     0.045 H 
ATOM     30  H   LIG d   1       8.853   6.858  -0.766  0.00  0.00     0.045 H 
ATOM     31  O   LIG d   1       9.821   9.317  -0.246  0.00  0.00    -0.377 OA
ATOM     32  H   LIG d   1       8.664   9.025  -1.944  0.00  0.00     0.057 H 
ATOM     33  H   LIG d   1      10.440   9.057  -2.209  0.00  0.00     0.057 H 
ATOM     34  C   LIG d   1      11.052   8.957   0.385  0.00  0.00     0.060 C 
ATOM     35  C   LIG d   1      11.115   7.435   0.540  0.00  0.00     0.022 C 
ATOM     36  H   LIG d   1      11.111   9.431   1.376  0.00  0.00     0.057 H 
ATOM     37  H   LIG d   1      11.896   9.297  -0.234  0.00  0.00     0.057 H 
ATOM     38  H   LIG d   1      10.304   7.099   1.204  0.00  0.00     0.045 H 
ATOM     39  H   LIG d   1      12.085   7.149   0.973  0.00  0.00     0.045 H 
ENDBRANCH  23  26
ENDBRANCH  20  23
ENDBRANCH  18  20
ENDBRANCH  13  16
ENDBRANCH   8  13
BRANCH   1  40
ATOM     40  C   LIG d   1       9.414   1.700  -6.540  0.00  0.00    -0.043 C 
ATOM     41  H   LIG d   1       8.960   2.372  -7.284  0.00  0.00     0.027 H 
ATOM     42  H   LIG d   1       9.857   0.833  -7.051  0.00  0.00     0.027 H 
ATOM     43  H   LIG d   1      10.197   2.241  -5.989  0.00  0.00     0.027 H 
ENDBRANCH   1  40
BRANCH   5  44
ATOM     44  C   LIG d   1       5.433  -0.229  -2.813  0.00  0.00    -0.043 C 
ATOM     45  H   LIG d   1       5.648  -1.128  -2.216  0.00  0.00     0.030 H 
BRANCH  44  46
ATOM     46  C   LIG d   1       5.000   0.908  -1.886  0.00  0.00    -0.062 C 
ATOM     47  H   LIG d   1       5.460   0.770  -0.896  0.00  0.00     0.023 H 
ATOM     48  H   LIG d   1       3.905   0.904  -1.786  0.00  0.00     0.023 H 
ATOM     49  H   LIG d   1       5.326   1.871  -2.310  0.00  0.00     0.023 H 
ENDBRANCH  44  46
BRANCH  44  50
ATOM     50  C   LIG d   1       4.308  -0.534  -3.805  0.00  0.00    -0.062 C 
ATOM     51  H   LIG d   1       3.917  -1.544  -3.618  0.00  0.00     0.023 H 
ATOM     52  H   LIG d   1       4.699  -0.476  -4.832  0.00  0.00     0.023 H 
ATOM     53  H   LIG d   1       3.499   0.201  -3.679  0.00  0.00     0.023 H 
ENDBRANCH  44  50
ENDBRANCH   5  44
BRANCH   3  54
ATOM     54  C   LIG d   1       6.986  -1.998  -4.750  0.00  0.00     0.020 C 
ATOM     55  H   LIG d   1       6.070  -2.494  -4.395  0.00  0.00     0.047 H 
ATOM     56  H   LIG d   1       7.295  -2.442  -5.707  0.00  0.00     0.047 H 
BRANCH  54  57
ATOM     57  N   LIG d   1       8.053  -2.177  -3.761  0.00  0.00    -0.299 N 
ATOM     58  C   LIG d   1       8.593  -3.395  -3.566  0.00  0.00     0.304 C 
ATOM     59  O   LIG d   1       8.197  -4.347  -4.211  0.00  0.00    -0.253 OA
ATOM     60  N   LIG d   1       9.575  -3.559  -2.657  0.00  0.00    -0.270 N 
ATOM     61  H   LIG d   1       9.877  -2.718  -2.016  0.00  0.00     0.156 HD
ATOM     62  H   LIG d   1       8.412  -1.316  -3.179  0.00  0.00     0.150 HD
BRANCH  60  63
ATOM     63  C   LIG d   1      10.210  -4.802  -2.528  0.00  0.00     0.035 A 
ATOM     64  C   LIG d   1       9.731  -5.736  -1.619  0.00  0.00    -0.037 A 
ATOM     65  C   LIG d   1      10.355  -6.962  -1.495  0.00  0.00    -0.018 A 
ATOM     66  H   LIG d   1       8.868  -5.505  -1.012  0.00  0.00     0.064 H 
ATOM     67  C   LIG d   1      11.466  -7.256  -2.271  0.00  0.00     0.120 A 
ATOM     68  H   LIG d   1       9.979  -7.689  -0.792  0.00  0.00     0.066 H 
ATOM     69  C   LIG d   1      11.946  -6.323  -3.179  0.00  0.00    -0.018 A 
ATOM     70  C   LIG d   1      11.320  -5.099  -3.308  0.00  0.00    -0.037 A 
ATOM     71  H   LIG d   1      12.809  -6.554  -3.786  0.00  0.00     0.066 H 
ATOM     72  H   LIG d   1      11.694  -4.373  -4.014  0.00  0.00     0.064 H 
BRANCH  67  73
ATOM     73  O   LIG d   1      12.083  -8.461  -2.145  0.00  0.00    -0.495 OA
BRANCH  73  74
ATOM     74  C   LIG d   1      12.143  -9.284  -3.311  0.00  0.00     0.079 C 
ATOM     75  H   LIG d   1      12.799 -10.146  -3.119  0.00  0.00     0.066 H 
ATOM     76  H   LIG d   1      12.543  -8.700  -4.152  0.00  0.00     0.066 H 
ATOM     77  H   LIG d   1      11.132  -9.641  -3.561  0.00  0.00     0.066 H 
ENDBRANCH  73  74
ENDBRANCH  67  73
ENDBRANCH  60  63
ENDBRANCH  54  57
ENDBRANCH   3  54
TORSDOF 14
ENDMDL
MODEL 9
REMARK VINA RESULT:      -5.9      5.035     12.458
REMARK  14 active torsions:
REMARK  status: ('A' for Active; 'I' for Inactive)
REMARK    1  A    between atoms: C_1  and  C_2 
REMARK    2  A    between atoms: C_4  and  C_26 
REMARK    3  A    between atoms: C_6  and  C_23 
REMARK    4  A    between atoms: C_9  and  C_11 
REMARK    5  A    between atoms: C_11  and  C_12 
REMARK       I    between atoms: C_12  and  N_14 
REMARK    6  A    between atoms: N_14  and  C_15 
REMARK    7  A    between atoms: C_15  and  C_16 
REMARK    8  A    between atoms: C_16  and  N_17 
REMARK    9  A    between atoms: C_23  and  C_24 
REMARK   10  A    between atoms: C_23  and  C_25 
REMARK   11  A    between atoms: C_26  and  N_27 
REMARK       I    between atoms: N_27  and  C_28 
REMARK       I    between atoms: C_28  and  N_30 
REMARK   12  A    between atoms: N_30  and  C_31 
REMARK   13  A    between atoms: C_34  and  O_37 
REMARK   14  A    between atoms: O_37  and  C_38 
ROOT
ATOM      1  C   LIG d   1      13.340   3.233  -5.884  0.00  0.00    -0.073 C 
ATOM      2  C   LIG d   1      12.365   2.926  -6.678  0.00  0.00    -0.080 C 
ATOM      3  C   LIG d   1      11.040   3.630  -6.693  0.00  0.00    -0.004 C 
ATOM      4  H   LIG d   1      11.027   4.310  -7.558  0.00  0.00     0.036 H 
ATOM      5  C   LIG d   1      10.855   4.433  -5.404  0.00  0.00    -0.030 C 
ATOM      6  H   LIG d   1      10.690   3.753  -4.556  0.00  0.00     0.031 H 
ATOM      7  C   LIG d   1      12.116   5.275  -5.173  0.00  0.00    -0.042 C 
ATOM      8  C   LIG d   1      13.278   4.329  -4.861  0.00  0.00    -0.012 C 
ATOM      9  H   LIG d   1      14.227   4.885  -4.900  0.00  0.00     0.035 H 
ATOM     10  H   LIG d   1      12.481   2.103  -7.399  0.00  0.00     0.058 H 
ATOM     11  H   LIG d   1      12.338   5.859  -6.077  0.00  0.00     0.027 H 
ATOM     12  H   LIG d   1      11.950   5.958  -4.326  0.00  0.00     0.027 H 
ENDROOT
BRANCH   8  13
ATOM     13  C   LIG d   1      13.077   3.717  -3.474  0.00  0.00     0.030 C 
ATOM     14  H   LIG d   1      12.059   3.306  -3.398  0.00  0.00     0.036 H 
ATOM     15  H   LIG d   1      13.810   2.913  -3.318  0.00  0.00     0.036 H 
BRANCH  13  16
ATOM     16  C   LIG d   1      13.269   4.781  -2.423  0.00  0.00     0.214 C 
ATOM     17  O   LIG d   1      14.186   5.568  -2.517  0.00  0.00    -0.276 OA
ATOM     18  N   LIG d   1      12.420   4.858  -1.379  0.00  0.00    -0.314 N 
ATOM     19  H   LIG d   1      11.586   4.144  -1.294  0.00  0.00     0.149 HD
BRANCH  18  20
ATOM     20  C   LIG d   1      12.605   5.892  -0.359  0.00  0.00     0.024 C 
ATOM     21  H   LIG d   1      13.505   5.666   0.232  0.00  0.00     0.047 H 
ATOM     22  H   LIG d   1      12.723   6.872  -0.845  0.00  0.00     0.047 H 
BRANCH  20  23
ATOM     23  C   LIG d   1      11.385   5.925   0.563  0.00  0.00     0.015 C 
ATOM     24  H   LIG d   1      10.668   5.151   0.251  0.00  0.00     0.044 H 
ATOM     25  H   LIG d   1      11.702   5.735   1.599  0.00  0.00     0.044 H 
BRANCH  23  26
ATOM     26  N   LIG d   1      10.744   7.244   0.480  0.00  0.00    -0.296 N 
ATOM     27  C   LIG d   1      11.724   8.320   0.690  0.00  0.00     0.022 C 
ATOM     28  C   LIG d   1      11.006   9.672   0.655  0.00  0.00     0.060 C 
ATOM     29  H   LIG d   1      12.211   8.187   1.666  0.00  0.00     0.045 H 
ATOM     30  H   LIG d   1      12.483   8.285  -0.106  0.00  0.00     0.045 H 
ATOM     31  O   LIG d   1      10.313   9.806  -0.589  0.00  0.00    -0.377 OA
ATOM     32  H   LIG d   1      11.742  10.483   0.754  0.00  0.00     0.057 H 
ATOM     33  H   LIG d   1      10.285   9.728   1.484  0.00  0.00     0.057 H 
ATOM     34  C   LIG d   1       9.350   8.776  -0.825  0.00  0.00     0.060 C 
ATOM     35  C   LIG d   1      10.052   7.415  -0.805  0.00  0.00     0.022 C 
ATOM     36  H   LIG d   1       8.877   8.931  -1.806  0.00  0.00     0.057 H 
ATOM     37  H   LIG d   1       8.581   8.803  -0.040  0.00  0.00     0.057 H 
ATOM     38  H   LIG d   1      10.783   7.365  -1.626  0.00  0.00     0.045 H 
ATOM     39  H   LIG d   1       9.307   6.615  -0.930  0.00  0.00     0.045 H 
ENDBRANCH  23  26
ENDBRANCH  20  23
ENDBRANCH  18  20
ENDBRANCH  13  16
ENDBRANCH   8  13
BRANCH   1  40
ATOM     40  C   LIG d   1      14.617   2.440  -5.992  0.00  0.00    -0.043 C 
ATOM     41  H   LIG d   1      15.348   3.003  -6.591  0.00  0.00     0.027 H 
ATOM     42  H   LIG d   1      14.410   1.476  -6.479  0.00  0.00     0.027 H 
ATOM     43  H   LIG d   1      15.026   2.263  -4.987  0.00  0.00     0.027 H 
ENDBRANCH   1  40
BRANCH   5  44
ATOM     44  C   LIG d   1       9.641   5.354  -5.542  0.00  0.00    -0.043 C 
ATOM     45  H   LIG d   1       8.754   4.755  -5.800  0.00  0.00     0.030 H 
BRANCH  44  46
ATOM     46  C   LIG d   1       9.398   6.080  -4.217  0.00  0.00    -0.062 C 
ATOM     47  H   LIG d   1       8.728   5.479  -3.586  0.00  0.00     0.023 H 
ATOM     48  H   LIG d   1       8.937   7.059  -4.415  0.00  0.00     0.023 H 
ATOM     49  H   LIG d   1      10.358   6.226  -3.698  0.00  0.00     0.023 H 
ENDBRANCH  44  46
BRANCH  44  50
ATOM     50  C   LIG d   1       9.901   6.380  -6.646  0.00  0.00    -0.062 C 
ATOM     51  H   LIG d   1      10.919   6.246  -7.039  0.00  0.00     0.023 H 
ATOM     52  H   LIG d   1       9.797   7.395  -6.235  0.00  0.00     0.023 H 
ATOM     53  H   LIG d   1       9.173   6.237  -7.459  0.00  0.00     0.023 H 
ENDBRANCH  44  50
ENDBRANCH   5  44
BRANCH   3  54
ATOM     54  C   LIG d   1       9.918   2.597  -6.813  0.00  0.00     0.020 C 
ATOM     55  H   LIG d   1       8.970   3.110  -7.035  0.00  0.00     0.047 H 
ATOM     56  H   LIG d   1      10.152   1.893  -7.624  0.00  0.00     0.047 H 
BRANCH  54  57
ATOM     57  N   LIG d   1       9.792   1.863  -5.550  0.00  0.00    -0.299 N 
ATOM     58  C   LIG d   1       8.579   1.464  -5.122  0.00  0.00     0.304 C 
ATOM     59  O   LIG d   1       7.588   1.711  -5.782  0.00  0.00    -0.253 OA
ATOM     60  N   LIG d   1       8.464   0.788  -3.961  0.00  0.00    -0.270 N 
ATOM     61  H   LIG d   1       9.346   0.636  -3.323  0.00  0.00     0.156 HD
ATOM     62  H   LIG d   1      10.688   1.639  -4.953  0.00  0.00     0.150 HD
BRANCH  60  63
ATOM     63  C   LIG d   1       7.218   0.280  -3.567  0.00  0.00     0.035 A 
ATOM     64  C   LIG d   1       6.224   1.143  -3.123  0.00  0.00    -0.037 A 
ATOM     65  C   LIG d   1       4.997   0.643  -2.738  0.00  0.00    -0.018 A 
ATOM     66  H   LIG d   1       6.412   2.206  -3.083  0.00  0.00     0.064 H 
ATOM     67  C   LIG d   1       4.759  -0.723  -2.785  0.00  0.00     0.120 A 
ATOM     68  H   LIG d   1       4.223   1.314  -2.398  0.00  0.00     0.066 H 
ATOM     69  C   LIG d   1       5.751  -1.586  -3.227  0.00  0.00    -0.018 A 
ATOM     70  C   LIG d   1       6.977  -1.086  -3.617  0.00  0.00    -0.037 A 
ATOM     71  H   LIG d   1       5.563  -2.649  -3.267  0.00  0.00     0.066 H 
ATOM     72  H   LIG d   1       7.750  -1.758  -3.961  0.00  0.00     0.064 H 
BRANCH  67  73
ATOM     73  O   LIG d   1       3.551  -1.216  -2.401  0.00  0.00    -0.495 OA
BRANCH  73  74
ATOM     74  C   LIG d   1       2.409  -0.787  -3.145  0.00  0.00     0.079 C 
ATOM     75  H   LIG d   1       1.501  -0.935  -2.542  0.00  0.00     0.066 H 
ATOM     76  H   LIG d   1       2.334  -1.373  -4.072  0.00  0.00     0.066 H 
ATOM     77  H   LIG d   1       2.513   0.280  -3.395  0.00  0.00     0.066 H 
ENDBRANCH  73  74
ENDBRANCH  67  73
ENDBRANCH  60  63
ENDBRANCH  54  57
ENDBRANCH   3  54
TORSDOF 14
ENDMDL
