MODEL 1
REMARK VINA RESULT:      -5.3      0.000      0.000
REMARK  5 active torsions:
REMARK  status: ('A' for Active; 'I' for Inactive)
REMARK    1  A    between atoms: C_1  and  C_2 
REMARK    2  A    between atoms: C_2  and  O_3 
REMARK    3  A    between atoms: O_3  and  C_4 
REMARK    4  A    between atoms: C_4  and  C_6 
REMARK    5  A    between atoms: C_6  and  C_8 
ROOT
ATOM      1  C   LIG d   1       5.963   0.232  -3.144  0.00  0.00     0.054 A 
ATOM      2  C   LIG d   1       7.202   0.786  -3.404  0.00  0.00     0.014 A 
ATOM      3  N   LIG d   1       7.973  -0.114  -4.041  0.00  0.00    -0.360 N 
ATOM      4  H   LIG d   1       8.886   0.046  -4.328  0.00  0.00     0.165 HD
ATOM      5  C   LIG d   1       7.287  -1.297  -4.234  0.00  0.00     0.048 A 
ATOM      6  C   LIG d   1       6.004  -1.140  -3.684  0.00  0.00     0.011 A 
ATOM      7  C   LIG d   1       5.089  -2.187  -3.736  0.00  0.00    -0.051 A 
ATOM      8  C   LIG d   1       5.447  -3.378  -4.329  0.00  0.00    -0.047 A 
ATOM      9  C   LIG d   1       6.714  -3.537  -4.873  0.00  0.00     0.020 A 
ATOM     10  C   LIG d   1       7.630  -2.507  -4.828  0.00  0.00    -0.024 A 
ATOM     11 BR   LIG d   1       7.188  -5.178  -5.682  0.00  0.00    -0.050 Br
ATOM     12  H   LIG d   1       7.506   1.787  -3.136  0.00  0.00     0.081 H 
ATOM     13  H   LIG d   1       4.102  -2.065  -3.314  0.00  0.00     0.062 H 
ATOM     14  H   LIG d   1       4.738  -4.193  -4.372  0.00  0.00     0.063 H 
ATOM     15  H   LIG d   1       8.613  -2.639  -5.254  0.00  0.00     0.065 H 
ENDROOT
BRANCH   1  16
ATOM     16  C   LIG d   1       4.839   0.874  -2.463  0.00  0.00     0.271 C 
ATOM     17  O   LIG d   1       4.889   1.078  -1.266  0.00  0.00    -0.280 OA
BRANCH  16  18
ATOM     18  C   LIG d   1       3.631   1.277  -3.238  0.00  0.00     0.380 C 
ATOM     19  O   LIG d   1       3.424   2.449  -3.474  0.00  0.00    -0.241 OA
BRANCH  18  20
ATOM     20  O   LIG d   1       2.769   0.341  -3.676  0.00  0.00    -0.459 OA
BRANCH  20  21
ATOM     21  C   LIG d   1       2.245   0.504  -5.020  0.00  0.00     0.090 C 
ATOM     22  H   LIG d   1       1.327  -0.073  -5.126  0.00  0.00     0.070 H 
ATOM     23  H   LIG d   1       2.034   1.558  -5.203  0.00  0.00     0.070 H 
BRANCH  21  24
ATOM     24  C   LIG d   1       3.279   0.008  -6.034  0.00  0.00    -0.031 C 
ATOM     25  H   LIG d   1       2.766  -0.426  -6.892  0.00  0.00     0.026 H 
ATOM     26  H   LIG d   1       3.895   0.845  -6.363  0.00  0.00     0.026 H 
ATOM     27  H   LIG d   1       3.912  -0.747  -5.567  0.00  0.00     0.026 H 
ENDBRANCH  21  24
ENDBRANCH  20  21
ENDBRANCH  18  20
ENDBRANCH  16  18
ENDBRANCH   1  16
TORSDOF 5
ENDMDL
MODEL 2
REMARK VINA RESULT:      -5.2      3.514      5.142
REMARK  5 active torsions:
REMARK  status: ('A' for Active; 'I' for Inactive)
REMARK    1  A    between atoms: C_1  and  C_2 
REMARK    2  A    between atoms: C_2  and  O_3 
REMARK    3  A    between atoms: O_3  and  C_4 
REMARK    4  A    between atoms: C_4  and  C_6 
REMARK    5  A    between atoms: C_6  and  C_8 
ROOT
ATOM      1  C   LIG d   1       4.248  -1.151  -6.259  0.00  0.00     0.054 A 
ATOM      2  C   LIG d   1       4.655  -2.470  -6.326  0.00  0.00     0.014 A 
ATOM      3  N   LIG d   1       4.206  -3.023  -7.467  0.00  0.00    -0.360 N 
ATOM      4  H   LIG d   1       4.366  -3.942  -7.735  0.00  0.00     0.165 HD
ATOM      5  C   LIG d   1       3.485  -2.105  -8.205  0.00  0.00     0.048 A 
ATOM      6  C   LIG d   1       3.475  -0.896  -7.490  0.00  0.00     0.011 A 
ATOM      7  C   LIG d   1       2.814   0.215  -8.004  0.00  0.00    -0.051 A 
ATOM      8  C   LIG d   1       2.169   0.124  -9.219  0.00  0.00    -0.047 A 
ATOM      9  C   LIG d   1       2.177  -1.069  -9.928  0.00  0.00     0.020 A 
ATOM     10  C   LIG d   1       2.828  -2.178  -9.429  0.00  0.00    -0.024 A 
ATOM     11 BR   LIG d   1       1.286  -1.177 -11.592  0.00  0.00    -0.050 Br
ATOM     12  H   LIG d   1       5.244  -2.979  -5.577  0.00  0.00     0.081 H 
ATOM     13  H   LIG d   1       2.808   1.144  -7.454  0.00  0.00     0.062 H 
ATOM     14  H   LIG d   1       1.655   0.985  -9.621  0.00  0.00     0.063 H 
ATOM     15  H   LIG d   1       2.829  -3.101  -9.988  0.00  0.00     0.065 H 
ENDROOT
BRANCH   1  16
ATOM     16  C   LIG d   1       4.520  -0.201  -5.181  0.00  0.00     0.271 C 
ATOM     17  O   LIG d   1       5.647   0.222  -5.013  0.00  0.00    -0.280 OA
BRANCH  16  18
ATOM     18  C   LIG d   1       3.414   0.249  -4.288  0.00  0.00     0.380 C 
ATOM     19  O   LIG d   1       2.769   1.237  -4.570  0.00  0.00    -0.241 OA
BRANCH  18  20
ATOM     20  O   LIG d   1       3.131  -0.442  -3.168  0.00  0.00    -0.459 OA
BRANCH  20  21
ATOM     21  C   LIG d   1       4.176  -0.527  -2.164  0.00  0.00     0.090 C 
ATOM     22  H   LIG d   1       3.830  -1.135  -1.329  0.00  0.00     0.070 H 
ATOM     23  H   LIG d   1       5.064  -0.984  -2.602  0.00  0.00     0.070 H 
BRANCH  21  24
ATOM     24  C   LIG d   1       4.520   0.878  -1.664  0.00  0.00    -0.031 C 
ATOM     25  H   LIG d   1       4.183   1.615  -2.394  0.00  0.00     0.026 H 
ATOM     26  H   LIG d   1       4.021   1.056  -0.711  0.00  0.00     0.026 H 
ATOM     27  H   LIG d   1       5.598   0.963  -1.532  0.00  0.00     0.026 H 
ENDBRANCH  21  24
ENDBRANCH  20  21
ENDBRANCH  18  20
ENDBRANCH  16  18
ENDBRANCH   1  16
TORSDOF 5
ENDMDL
MODEL 3
REMARK VINA RESULT:      -5.0      1.828      2.970
REMARK  5 active torsions:
REMARK  status: ('A' for Active; 'I' for Inactive)
REMARK    1  A    between atoms: C_1  and  C_2 
REMARK    2  A    between atoms: C_2  and  O_3 
REMARK    3  A    between atoms: O_3  and  C_4 
REMARK    4  A    between atoms: C_4  and  C_6 
REMARK    5  A    between atoms: C_6  and  C_8 
ROOT
ATOM      1  C   LIG d   1       5.836  -2.005  -4.113  0.00  0.00     0.054 A 
ATOM      2  C   LIG d   1       6.870  -1.381  -3.441  0.00  0.00     0.014 A 
ATOM      3  N   LIG d   1       7.968  -2.156  -3.480  0.00  0.00    -0.360 N 
ATOM      4  H   LIG d   1       8.820  -1.928  -3.076  0.00  0.00     0.165 HD
ATOM      5  C   LIG d   1       7.718  -3.324  -4.176  0.00  0.00     0.048 A 
ATOM      6  C   LIG d   1       6.380  -3.287  -4.602  0.00  0.00     0.011 A 
ATOM      7  C   LIG d   1       5.850  -4.345  -5.333  0.00  0.00    -0.051 A 
ATOM      8  C   LIG d   1       6.644  -5.431  -5.637  0.00  0.00    -0.047 A 
ATOM      9  C   LIG d   1       7.966  -5.470  -5.217  0.00  0.00     0.020 A 
ATOM     10  C   LIG d   1       8.503  -4.427  -4.492  0.00  0.00    -0.024 A 
ATOM     11 BR   LIG d   1       9.040  -6.966  -5.642  0.00  0.00    -0.050 Br
ATOM     12  H   LIG d   1       6.806  -0.417  -2.957  0.00  0.00     0.081 H 
ATOM     13  H   LIG d   1       4.821  -4.317  -5.661  0.00  0.00     0.062 H 
ATOM     14  H   LIG d   1       6.235  -6.255  -6.205  0.00  0.00     0.063 H 
ATOM     15  H   LIG d   1       9.533  -4.466  -4.170  0.00  0.00     0.065 H 
ENDROOT
BRANCH   1  16
ATOM     16  C   LIG d   1       4.476  -1.502  -4.296  0.00  0.00     0.271 C 
ATOM     17  O   LIG d   1       4.103  -1.143  -5.395  0.00  0.00    -0.280 OA
BRANCH  16  18
ATOM     18  C   LIG d   1       3.546  -1.428  -3.132  0.00  0.00     0.380 C 
ATOM     19  O   LIG d   1       3.430  -2.378  -2.387  0.00  0.00    -0.241 OA
BRANCH  18  20
ATOM     20  O   LIG d   1       2.837  -0.306  -2.907  0.00  0.00    -0.459 OA
BRANCH  20  21
ATOM     21  C   LIG d   1       3.579   0.940  -2.839  0.00  0.00     0.090 C 
ATOM     22  H   LIG d   1       4.168   1.063  -3.747  0.00  0.00     0.070 H 
ATOM     23  H   LIG d   1       2.883   1.773  -2.743  0.00  0.00     0.070 H 
BRANCH  21  24
ATOM     24  C   LIG d   1       4.512   0.912  -1.626  0.00  0.00    -0.031 C 
ATOM     25  H   LIG d   1       4.577   1.912  -1.196  0.00  0.00     0.026 H 
ATOM     26  H   LIG d   1       4.117   0.221  -0.881  0.00  0.00     0.026 H 
ATOM     27  H   LIG d   1       5.503   0.584  -1.938  0.00  0.00     0.026 H 
ENDBRANCH  21  24
ENDBRANCH  20  21
ENDBRANCH  18  20
ENDBRANCH  16  18
ENDBRANCH   1  16
TORSDOF 5
ENDMDL
MODEL 4
REMARK VINA RESULT:      -5.0      3.626      5.299
REMARK  5 active torsions:
REMARK  status: ('A' for Active; 'I' for Inactive)
REMARK    1  A    between atoms: C_1  and  C_2 
REMARK    2  A    between atoms: C_2  and  O_3 
REMARK    3  A    between atoms: O_3  and  C_4 
REMARK    4  A    between atoms: C_4  and  C_6 
REMARK    5  A    between atoms: C_6  and  C_8 
ROOT
ATOM      1  C   LIG d   1       4.323  -0.993  -5.845  0.00  0.00     0.054 A 
ATOM      2  C   LIG d   1       3.768   0.202  -5.429  0.00  0.00     0.014 A 
ATOM      3  N   LIG d   1       2.948   0.676  -6.384  0.00  0.00    -0.360 N 
ATOM      4  H   LIG d   1       2.445   1.503  -6.320  0.00  0.00     0.165 HD
ATOM      5  C   LIG d   1       2.920  -0.176  -7.472  0.00  0.00     0.048 A 
ATOM      6  C   LIG d   1       3.775  -1.254  -7.190  0.00  0.00     0.011 A 
ATOM      7  C   LIG d   1       3.942  -2.276  -8.120  0.00  0.00    -0.051 A 
ATOM      8  C   LIG d   1       3.266  -2.223  -9.320  0.00  0.00    -0.047 A 
ATOM      9  C   LIG d   1       2.421  -1.159  -9.602  0.00  0.00     0.020 A 
ATOM     10  C   LIG d   1       2.247  -0.141  -8.688  0.00  0.00    -0.024 A 
ATOM     11 BR   LIG d   1       1.502  -1.103 -11.252  0.00  0.00    -0.050 Br
ATOM     12  H   LIG d   1       3.962   0.683  -4.481  0.00  0.00     0.081 H 
ATOM     13  H   LIG d   1       4.598  -3.105  -7.902  0.00  0.00     0.062 H 
ATOM     14  H   LIG d   1       3.393  -3.015 -10.045  0.00  0.00     0.063 H 
ATOM     15  H   LIG d   1       1.587   0.683  -8.916  0.00  0.00     0.065 H 
ENDROOT
BRANCH   1  16
ATOM     16  C   LIG d   1       5.270  -1.827  -5.106  0.00  0.00     0.271 C 
ATOM     17  O   LIG d   1       6.354  -2.089  -5.587  0.00  0.00    -0.280 OA
BRANCH  16  18
ATOM     18  C   LIG d   1       4.904  -2.356  -3.761  0.00  0.00     0.380 C 
ATOM     19  O   LIG d   1       4.239  -3.366  -3.667  0.00  0.00    -0.241 OA
BRANCH  18  20
ATOM     20  O   LIG d   1       5.312  -1.714  -2.650  0.00  0.00    -0.459 OA
BRANCH  20  21
ATOM     21  C   LIG d   1       4.291  -1.051  -1.860  0.00  0.00     0.090 C 
ATOM     22  H   LIG d   1       3.312  -1.236  -2.300  0.00  0.00     0.070 H 
ATOM     23  H   LIG d   1       4.310  -1.439  -0.841  0.00  0.00     0.070 H 
BRANCH  21  24
ATOM     24  C   LIG d   1       4.563   0.456  -1.836  0.00  0.00    -0.031 C 
ATOM     25  H   LIG d   1       3.715   0.970  -1.384  0.00  0.00     0.026 H 
ATOM     26  H   LIG d   1       5.462   0.653  -1.252  0.00  0.00     0.026 H 
ATOM     27  H   LIG d   1       4.705   0.814  -2.856  0.00  0.00     0.026 H 
ENDBRANCH  21  24
ENDBRANCH  20  21
ENDBRANCH  18  20
ENDBRANCH  16  18
ENDBRANCH   1  16
TORSDOF 5
ENDMDL
MODEL 5
REMARK VINA RESULT:      -4.9      2.814      4.473
REMARK  5 active torsions:
REMARK  status: ('A' for Active; 'I' for Inactive)
REMARK    1  A    between atoms: C_1  and  C_2 
REMARK    2  A    between atoms: C_2  and  O_3 
REMARK    3  A    between atoms: O_3  and  C_4 
REMARK    4  A    between atoms: C_4  and  C_6 
REMARK    5  A    between atoms: C_6  and  C_8 
ROOT
ATOM      1  C   LIG d   1       3.886  -0.866  -4.931  0.00  0.00     0.054 A 
ATOM      2  C   LIG d   1       4.730  -1.953  -5.060  0.00  0.00     0.014 A 
ATOM      3  N   LIG d   1       5.042  -2.131  -6.356  0.00  0.00    -0.360 N 
ATOM      4  H   LIG d   1       5.621  -2.833  -6.693  0.00  0.00     0.165 HD
ATOM      5  C   LIG d   1       4.425  -1.179  -7.143  0.00  0.00     0.048 A 
ATOM      6  C   LIG d   1       3.675  -0.346  -6.297  0.00  0.00     0.011 A 
ATOM      7  C   LIG d   1       2.942   0.711  -6.825  0.00  0.00    -0.051 A 
ATOM      8  C   LIG d   1       2.954   0.938  -8.185  0.00  0.00    -0.047 A 
ATOM      9  C   LIG d   1       3.693   0.117  -9.025  0.00  0.00     0.020 A 
ATOM     10  C   LIG d   1       4.424  -0.934  -8.512  0.00  0.00    -0.024 A 
ATOM     11 BR   LIG d   1       3.698   0.442 -10.887  0.00  0.00    -0.050 Br
ATOM     12  H   LIG d   1       5.086  -2.565  -4.244  0.00  0.00     0.081 H 
ATOM     13  H   LIG d   1       2.366   1.352  -6.173  0.00  0.00     0.062 H 
ATOM     14  H   LIG d   1       2.385   1.759  -8.599  0.00  0.00     0.063 H 
ATOM     15  H   LIG d   1       4.997  -1.568  -9.174  0.00  0.00     0.065 H 
ENDROOT
BRANCH   1  16
ATOM     16  C   LIG d   1       3.311  -0.341  -3.694  0.00  0.00     0.271 C 
ATOM     17  O   LIG d   1       2.331  -0.870  -3.206  0.00  0.00    -0.280 OA
BRANCH  16  18
ATOM     18  C   LIG d   1       3.926   0.844  -3.030  0.00  0.00     0.380 C 
ATOM     19  O   LIG d   1       3.454   1.275  -1.999  0.00  0.00    -0.241 OA
BRANCH  18  20
ATOM     20  O   LIG d   1       5.005   1.436  -3.576  0.00  0.00    -0.459 OA
BRANCH  20  21
ATOM     21  C   LIG d   1       6.306   0.945  -3.160  0.00  0.00     0.090 C 
ATOM     22  H   LIG d   1       6.760   1.655  -2.470  0.00  0.00     0.070 H 
ATOM     23  H   LIG d   1       6.190  -0.019  -2.665  0.00  0.00     0.070 H 
BRANCH  21  24
ATOM     24  C   LIG d   1       7.205   0.781  -4.388  0.00  0.00    -0.031 C 
ATOM     25  H   LIG d   1       7.970   1.558  -4.384  0.00  0.00     0.026 H 
ATOM     26  H   LIG d   1       7.682  -0.199  -4.361  0.00  0.00     0.026 H 
ATOM     27  H   LIG d   1       6.604   0.867  -5.292  0.00  0.00     0.026 H 
ENDBRANCH  21  24
ENDBRANCH  20  21
ENDBRANCH  18  20
ENDBRANCH  16  18
ENDBRANCH   1  16
TORSDOF 5
ENDMDL
MODEL 6
REMARK VINA RESULT:      -4.9      4.067      5.658
REMARK  5 active torsions:
REMARK  status: ('A' for Active; 'I' for Inactive)
REMARK    1  A    between atoms: C_1  and  C_2 
REMARK    2  A    between atoms: C_2  and  O_3 
REMARK    3  A    between atoms: O_3  and  C_4 
REMARK    4  A    between atoms: C_4  and  C_6 
REMARK    5  A    between atoms: C_6  and  C_8 
ROOT
ATOM      1  C   LIG d   1       3.896  -1.021  -7.856  0.00  0.00     0.054 A 
ATOM      2  C   LIG d   1       5.163  -1.573  -7.859  0.00  0.00     0.014 A 
ATOM      3  N   LIG d   1       5.734  -1.398  -6.654  0.00  0.00    -0.360 N 
ATOM      4  H   LIG d   1       6.624  -1.702  -6.416  0.00  0.00     0.165 HD
ATOM      5  C   LIG d   1       4.880  -0.728  -5.800  0.00  0.00     0.048 A 
ATOM      6  C   LIG d   1       3.696  -0.459  -6.506  0.00  0.00     0.011 A 
ATOM      7  C   LIG d   1       2.649   0.214  -5.885  0.00  0.00    -0.051 A 
ATOM      8  C   LIG d   1       2.779   0.617  -4.573  0.00  0.00    -0.047 A 
ATOM      9  C   LIG d   1       3.948   0.354  -3.873  0.00  0.00     0.020 A 
ATOM     10  C   LIG d   1       4.993  -0.313  -4.478  0.00  0.00    -0.024 A 
ATOM     11 BR   LIG d   1       4.111   0.914  -2.075  0.00  0.00    -0.050 Br
ATOM     12  H   LIG d   1       5.624  -2.069  -8.701  0.00  0.00     0.081 H 
ATOM     13  H   LIG d   1       1.738   0.420  -6.428  0.00  0.00     0.062 H 
ATOM     14  H   LIG d   1       1.968   1.141  -4.087  0.00  0.00     0.063 H 
ATOM     15  H   LIG d   1       5.898  -0.514  -3.925  0.00  0.00     0.065 H 
ENDROOT
BRANCH   1  16
ATOM     16  C   LIG d   1       2.947  -0.991  -8.968  0.00  0.00     0.271 C 
ATOM     17  O   LIG d   1       2.231  -1.949  -9.183  0.00  0.00    -0.280 OA
BRANCH  16  18
ATOM     18  C   LIG d   1       2.858   0.216  -9.840  0.00  0.00     0.380 C 
ATOM     19  O   LIG d   1       2.873   0.095 -11.047  0.00  0.00    -0.241 OA
BRANCH  18  20
ATOM     20  O   LIG d   1       2.761   1.440  -9.288  0.00  0.00    -0.459 OA
BRANCH  20  21
ATOM     21  C   LIG d   1       3.670   2.459  -9.781  0.00  0.00     0.090 C 
ATOM     22  H   LIG d   1       3.744   2.386 -10.866  0.00  0.00     0.070 H 
ATOM     23  H   LIG d   1       3.293   3.445  -9.509  0.00  0.00     0.070 H 
BRANCH  21  24
ATOM     24  C   LIG d   1       5.053   2.253  -9.160  0.00  0.00    -0.031 C 
ATOM     25  H   LIG d   1       5.748   2.985  -9.571  0.00  0.00     0.026 H 
ATOM     26  H   LIG d   1       4.988   2.380  -8.079  0.00  0.00     0.026 H 
ATOM     27  H   LIG d   1       5.407   1.247  -9.386  0.00  0.00     0.026 H 
ENDBRANCH  21  24
ENDBRANCH  20  21
ENDBRANCH  18  20
ENDBRANCH  16  18
ENDBRANCH   1  16
TORSDOF 5
ENDMDL
MODEL 7
REMARK VINA RESULT:      -4.8      5.147      6.974
REMARK  5 active torsions:
REMARK  status: ('A' for Active; 'I' for Inactive)
REMARK    1  A    between atoms: C_1  and  C_2 
REMARK    2  A    between atoms: C_2  and  O_3 
REMARK    3  A    between atoms: O_3  and  C_4 
REMARK    4  A    between atoms: C_4  and  C_6 
REMARK    5  A    between atoms: C_6  and  C_8 
ROOT
ATOM      1  C   LIG d   1       3.580   0.779  -9.428  0.00  0.00     0.054 A 
ATOM      2  C   LIG d   1       4.706   1.162 -10.132  0.00  0.00     0.014 A 
ATOM      3  N   LIG d   1       4.677   0.616 -11.361  0.00  0.00    -0.360 N 
ATOM      4  H   LIG d   1       5.362   0.742 -12.037  0.00  0.00     0.165 HD
ATOM      5  C   LIG d   1       3.539  -0.149 -11.531  0.00  0.00     0.048 A 
ATOM      6  C   LIG d   1       2.802  -0.086 -10.337  0.00  0.00     0.011 A 
ATOM      7  C   LIG d   1       1.596  -0.771 -10.223  0.00  0.00    -0.051 A 
ATOM      8  C   LIG d   1       1.129  -1.512 -11.288  0.00  0.00    -0.047 A 
ATOM      9  C   LIG d   1       1.855  -1.576 -12.468  0.00  0.00     0.020 A 
ATOM     10  C   LIG d   1       3.052  -0.902 -12.593  0.00  0.00    -0.024 A 
ATOM     11 BR   LIG d   1       1.200  -2.598 -13.917  0.00  0.00    -0.050 Br
ATOM     12  H   LIG d   1       5.489   1.802  -9.753  0.00  0.00     0.081 H 
ATOM     13  H   LIG d   1       1.029  -0.722  -9.305  0.00  0.00     0.062 H 
ATOM     14  H   LIG d   1       0.193  -2.045 -11.203  0.00  0.00     0.063 H 
ATOM     15  H   LIG d   1       3.610  -0.957 -13.516  0.00  0.00     0.065 H 
ENDROOT
BRANCH   1  16
ATOM     16  C   LIG d   1       3.232   1.148  -8.057  0.00  0.00     0.271 C 
ATOM     17  O   LIG d   1       2.751   2.240  -7.824  0.00  0.00    -0.280 OA
BRANCH  16  18
ATOM     18  C   LIG d   1       3.468   0.185  -6.943  0.00  0.00     0.380 C 
ATOM     19  O   LIG d   1       3.633  -0.992  -7.184  0.00  0.00    -0.241 OA
BRANCH  18  20
ATOM     20  O   LIG d   1       3.498   0.622  -5.670  0.00  0.00    -0.459 OA
BRANCH  20  21
ATOM     21  C   LIG d   1       2.314   0.384  -4.864  0.00  0.00     0.090 C 
ATOM     22  H   LIG d   1       1.885   1.338  -4.559  0.00  0.00     0.070 H 
ATOM     23  H   LIG d   1       1.582  -0.173  -5.448  0.00  0.00     0.070 H 
BRANCH  21  24
ATOM     24  C   LIG d   1       2.698  -0.423  -3.622  0.00  0.00    -0.031 C 
ATOM     25  H   LIG d   1       1.805  -0.886  -3.200  0.00  0.00     0.026 H 
ATOM     26  H   LIG d   1       3.412  -1.199  -3.899  0.00  0.00     0.026 H 
ATOM     27  H   LIG d   1       3.148   0.239  -2.883  0.00  0.00     0.026 H 
ENDBRANCH  21  24
ENDBRANCH  20  21
ENDBRANCH  18  20
ENDBRANCH  16  18
ENDBRANCH   1  16
TORSDOF 5
ENDMDL
MODEL 8
REMARK VINA RESULT:      -4.8      3.249      4.959
REMARK  5 active torsions:
REMARK  status: ('A' for Active; 'I' for Inactive)
REMARK    1  A    between atoms: C_1  and  C_2 
REMARK    2  A    between atoms: C_2  and  O_3 
REMARK    3  A    between atoms: O_3  and  C_4 
REMARK    4  A    between atoms: C_4  and  C_6 
REMARK    5  A    between atoms: C_6  and  C_8 
ROOT
ATOM      1  C   LIG d   1       3.904  -0.934  -4.521  0.00  0.00     0.054 A 
ATOM      2  C   LIG d   1       3.167   0.143  -4.065  0.00  0.00     0.014 A 
ATOM      3  N   LIG d   1       2.714   0.856  -5.112  0.00  0.00    -0.360 N 
ATOM      4  H   LIG d   1       2.172   1.658  -5.042  0.00  0.00     0.165 HD
ATOM      5  C   LIG d   1       3.125   0.290  -6.304  0.00  0.00     0.048 A 
ATOM      6  C   LIG d   1       3.886  -0.849  -5.994  0.00  0.00     0.011 A 
ATOM      7  C   LIG d   1       4.433  -1.623  -7.013  0.00  0.00    -0.051 A 
ATOM      8  C   LIG d   1       4.225  -1.265  -8.328  0.00  0.00    -0.047 A 
ATOM      9  C   LIG d   1       3.474  -0.140  -8.638  0.00  0.00     0.020 A 
ATOM     10  C   LIG d   1       2.927   0.635  -7.636  0.00  0.00    -0.024 A 
ATOM     11 BR   LIG d   1       3.201   0.336 -10.446  0.00  0.00    -0.050 Br
ATOM     12  H   LIG d   1       2.982   0.377  -3.027  0.00  0.00     0.081 H 
ATOM     13  H   LIG d   1       5.017  -2.500  -6.775  0.00  0.00     0.062 H 
ATOM     14  H   LIG d   1       4.649  -1.864  -9.122  0.00  0.00     0.063 H 
ATOM     15  H   LIG d   1       2.344   1.509  -7.887  0.00  0.00     0.065 H 
ENDROOT
BRANCH   1  16
ATOM     16  C   LIG d   1       4.573  -1.948  -3.708  0.00  0.00     0.271 C 
ATOM     17  O   LIG d   1       3.918  -2.710  -3.026  0.00  0.00    -0.280 OA
BRANCH  16  18
ATOM     18  C   LIG d   1       6.061  -2.045  -3.715  0.00  0.00     0.380 C 
ATOM     19  O   LIG d   1       6.607  -2.950  -4.311  0.00  0.00    -0.241 OA
BRANCH  18  20
ATOM     20  O   LIG d   1       6.799  -1.128  -3.062  0.00  0.00    -0.459 OA
BRANCH  20  21
ATOM     21  C   LIG d   1       7.335  -0.031  -3.848  0.00  0.00     0.090 C 
ATOM     22  H   LIG d   1       8.407   0.052  -3.673  0.00  0.00     0.070 H 
ATOM     23  H   LIG d   1       7.153  -0.220  -4.906  0.00  0.00     0.070 H 
BRANCH  21  24
ATOM     24  C   LIG d   1       6.648   1.274  -3.437  0.00  0.00    -0.031 C 
ATOM     25  H   LIG d   1       6.564   1.927  -4.305  0.00  0.00     0.026 H 
ATOM     26  H   LIG d   1       5.654   1.054  -3.049  0.00  0.00     0.026 H 
ATOM     27  H   LIG d   1       7.239   1.767  -2.665  0.00  0.00     0.026 H 
ENDBRANCH  21  24
ENDBRANCH  20  21
ENDBRANCH  18  20
ENDBRANCH  16  18
ENDBRANCH   1  16
TORSDOF 5
ENDMDL
MODEL 9
REMARK VINA RESULT:      -4.7      2.727      4.118
REMARK  5 active torsions:
REMARK  status: ('A' for Active; 'I' for Inactive)
REMARK    1  A    between atoms: C_1  and  C_2 
REMARK    2  A    between atoms: C_2  and  O_3 
REMARK    3  A    between atoms: O_3  and  C_4 
REMARK    4  A    between atoms: C_4  and  C_6 
REMARK    5  A    between atoms: C_6  and  C_8 
ROOT
ATOM      1  C   LIG d   1       3.960  -0.282  -4.351  0.00  0.00     0.054 A 
ATOM      2  C   LIG d   1       2.712   0.264  -4.586  0.00  0.00     0.014 A 
ATOM      3  N   LIG d   1       2.418   0.170  -5.895  0.00  0.00    -0.360 N 
ATOM      4  H   LIG d   1       1.595   0.485  -6.300  0.00  0.00     0.165 HD
ATOM      5  C   LIG d   1       3.448  -0.439  -6.586  0.00  0.00     0.048 A 
ATOM      6  C   LIG d   1       4.458  -0.748  -5.660  0.00  0.00     0.011 A 
ATOM      7  C   LIG d   1       5.626  -1.374  -6.082  0.00  0.00    -0.051 A 
ATOM      8  C   LIG d   1       5.789  -1.688  -7.414  0.00  0.00    -0.047 A 
ATOM      9  C   LIG d   1       4.794  -1.384  -8.332  0.00  0.00     0.020 A 
ATOM     10  C   LIG d   1       3.631  -0.764  -7.925  0.00  0.00    -0.024 A 
ATOM     11 BR   LIG d   1       5.034  -1.822 -10.155  0.00  0.00    -0.050 Br
ATOM     12  H   LIG d   1       2.071   0.700  -3.834  0.00  0.00     0.081 H 
ATOM     13  H   LIG d   1       6.402  -1.613  -5.369  0.00  0.00     0.062 H 
ATOM     14  H   LIG d   1       6.696  -2.175  -7.746  0.00  0.00     0.063 H 
ATOM     15  H   LIG d   1       2.862  -0.531  -8.647  0.00  0.00     0.065 H 
ENDROOT
BRANCH   1  16
ATOM     16  C   LIG d   1       4.652  -0.372  -3.066  0.00  0.00     0.271 C 
ATOM     17  O   LIG d   1       4.812  -1.453  -2.536  0.00  0.00    -0.280 OA
BRANCH  16  18
ATOM     18  C   LIG d   1       5.160   0.865  -2.405  0.00  0.00     0.380 C 
ATOM     19  O   LIG d   1       4.811   1.136  -1.276  0.00  0.00    -0.241 OA
BRANCH  18  20
ATOM     20  O   LIG d   1       6.006   1.680  -3.062  0.00  0.00    -0.459 OA
BRANCH  20  21
ATOM     21  C   LIG d   1       7.172   1.066  -3.673  0.00  0.00     0.090 C 
ATOM     22  H   LIG d   1       7.520   0.245  -3.047  0.00  0.00     0.070 H 
ATOM     23  H   LIG d   1       6.907   0.684  -4.658  0.00  0.00     0.070 H 
BRANCH  21  24
ATOM     24  C   LIG d   1       8.283   2.109  -3.812  0.00  0.00    -0.031 C 
ATOM     25  H   LIG d   1       7.960   2.895  -4.494  0.00  0.00     0.026 H 
ATOM     26  H   LIG d   1       8.500   2.542  -2.835  0.00  0.00     0.026 H 
ATOM     27  H   LIG d   1       9.181   1.632  -4.205  0.00  0.00     0.026 H 
ENDBRANCH  21  24
ENDBRANCH  20  21
ENDBRANCH  18  20
ENDBRANCH  16  18
ENDBRANCH   1  16
TORSDOF 5
ENDMDL
MODEL 10
REMARK VINA RESULT:      -4.6      3.915      5.428
REMARK  5 active torsions:
REMARK  status: ('A' for Active; 'I' for Inactive)
REMARK    1  A    between atoms: C_1  and  C_2 
REMARK    2  A    between atoms: C_2  and  O_3 
REMARK    3  A    between atoms: O_3  and  C_4 
REMARK    4  A    between atoms: C_4  and  C_6 
REMARK    5  A    between atoms: C_6  and  C_8 
ROOT
ATOM      1  C   LIG d   1       3.799  -0.499  -8.161  0.00  0.00     0.054 A 
ATOM      2  C   LIG d   1       4.612  -1.548  -8.545  0.00  0.00     0.014 A 
ATOM      3  N   LIG d   1       5.007  -2.235  -7.458  0.00  0.00    -0.360 N 
ATOM      4  H   LIG d   1       5.584  -3.015  -7.477  0.00  0.00     0.165 HD
ATOM      5  C   LIG d   1       4.479  -1.679  -6.309  0.00  0.00     0.048 A 
ATOM      6  C   LIG d   1       3.703  -0.571  -6.689  0.00  0.00     0.011 A 
ATOM      7  C   LIG d   1       3.046   0.186  -5.725  0.00  0.00    -0.051 A 
ATOM      8  C   LIG d   1       3.161  -0.154  -4.394  0.00  0.00    -0.047 A 
ATOM      9  C   LIG d   1       3.927  -1.248  -4.015  0.00  0.00     0.020 A 
ATOM     10  C   LIG d   1       4.583  -2.007  -4.962  0.00  0.00    -0.024 A 
ATOM     11 BR   LIG d   1       4.074  -1.700  -2.186  0.00  0.00    -0.050 Br
ATOM     12  H   LIG d   1       4.888  -1.782  -9.563  0.00  0.00     0.081 H 
ATOM     13  H   LIG d   1       2.449   1.037  -6.018  0.00  0.00     0.062 H 
ATOM     14  H   LIG d   1       2.652   0.432  -3.643  0.00  0.00     0.063 H 
ATOM     15  H   LIG d   1       5.176  -2.856  -4.657  0.00  0.00     0.065 H 
ENDROOT
BRANCH   1  16
ATOM     16  C   LIG d   1       3.168   0.490  -9.033  0.00  0.00     0.271 C 
ATOM     17  O   LIG d   1       2.061   0.281  -9.488  0.00  0.00    -0.280 OA
BRANCH  16  18
ATOM     18  C   LIG d   1       3.884   1.755  -9.366  0.00  0.00     0.380 C 
ATOM     19  O   LIG d   1       3.531   2.419 -10.318  0.00  0.00    -0.241 OA
BRANCH  18  20
ATOM     20  O   LIG d   1       4.922   2.160  -8.610  0.00  0.00    -0.459 OA
BRANCH  20  21
ATOM     21  C   LIG d   1       6.252   1.820  -9.081  0.00  0.00     0.090 C 
ATOM     22  H   LIG d   1       6.181   1.051  -9.849  0.00  0.00     0.070 H 
ATOM     23  H   LIG d   1       6.728   2.707  -9.499  0.00  0.00     0.070 H 
BRANCH  21  24
ATOM     24  C   LIG d   1       7.089   1.297  -7.911  0.00  0.00    -0.031 C 
ATOM     25  H   LIG d   1       7.166   0.212  -7.977  0.00  0.00     0.026 H 
ATOM     26  H   LIG d   1       8.086   1.736  -7.953  0.00  0.00     0.026 H 
ATOM     27  H   LIG d   1       6.610   1.572  -6.971  0.00  0.00     0.026 H 
ENDBRANCH  21  24
ENDBRANCH  20  21
ENDBRANCH  18  20
ENDBRANCH  16  18
ENDBRANCH   1  16
TORSDOF 5
ENDMDL
