MODEL 1
REMARK VINA RESULT:      -7.2      0.000      0.000
REMARK  11 active torsions:
REMARK  status: ('A' for Active; 'I' for Inactive)
REMARK    1  A    between atoms: C_1  and  C_2 
REMARK    2  A    between atoms: C_5  and  C_8 
REMARK    3  A    between atoms: C_11  and  C_13 
REMARK    4  A    between atoms: C_13  and  C_14 
REMARK    5  A    between atoms: C_17  and  C_37 
REMARK    6  A    between atoms: C_19  and  C_24 
REMARK    7  A    between atoms: C_22  and  C_23 
REMARK    8  A    between atoms: C_24  and  N_25 
REMARK    9  A    between atoms: N_28  and  C_31 
REMARK   10  A    between atoms: C_37  and  C_38 
REMARK   11  A    between atoms: C_37  and  C_39 
ROOT
ATOM      1  C   LIG d   1      10.763   4.758  -4.656  0.00  0.00    -0.011 C 
ATOM      2  H   LIG d   1      10.191   4.468  -5.538  0.00  0.00     0.035 H 
ATOM      3  C   LIG d   1      12.253   4.531  -4.922  0.00  0.00    -0.042 C 
ATOM      4  C   LIG d   1      13.052   5.183  -3.786  0.00  0.00    -0.027 C 
ATOM      5  H   LIG d   1      12.676   4.831  -2.826  0.00  0.00     0.031 H 
ATOM      6  C   LIG d   1      12.880   6.700  -3.881  0.00  0.00     0.021 C 
ATOM      7  H   LIG d   1      13.418   7.071  -4.752  0.00  0.00     0.040 H 
ATOM      8  C   LIG d   1      11.425   7.048  -4.010  0.00  0.00    -0.076 C 
ATOM      9  C   LIG d   1      10.509   6.204  -4.351  0.00  0.00    -0.072 C 
ATOM     10  H   LIG d   1      12.461   3.462  -4.951  0.00  0.00     0.027 H 
ATOM     11  H   LIG d   1      12.528   4.988  -5.873  0.00  0.00     0.027 H 
ATOM     12  H   LIG d   1      11.127   8.066  -3.805  0.00  0.00     0.058 H 
ENDROOT
BRANCH   6  13
ATOM     13  C   LIG d   1      13.444   7.355  -2.619  0.00  0.00    -0.025 C 
ATOM     14  H   LIG d   1      14.343   6.825  -2.305  0.00  0.00     0.082 H 
ATOM     15  H   LIG d   1      13.691   8.396  -2.830  0.00  0.00     0.082 H 
BRANCH  13  16
ATOM     16  N   LIG d   1      12.442   7.297  -1.547  0.00  0.00     0.238 N 
ATOM     17  C   LIG d   1      12.763   6.187  -0.640  0.00  0.00    -0.016 C 
ATOM     18  C   LIG d   1      11.657   6.053   0.413  0.00  0.00     0.055 C 
ATOM     19  H   LIG d   1      12.836   5.261  -1.210  0.00  0.00     0.083 H 
ATOM     20  H   LIG d   1      13.714   6.387  -0.144  0.00  0.00     0.083 H 
ATOM     21  N   LIG d   1      11.487   7.353   1.079  0.00  0.00    -0.289 N 
ATOM     22  H   LIG d   1      11.940   5.299   1.147  0.00  0.00     0.052 H 
ATOM     23  H   LIG d   1      10.724   5.766  -0.072  0.00  0.00     0.052 H 
ATOM     24  C   LIG d   1      11.323   8.549   0.237  0.00  0.00     0.055 C 
ATOM     25  C   LIG d   1      12.444   8.565  -0.807  0.00  0.00    -0.016 C 
ATOM     26  H   LIG d   1      11.385   9.444   0.855  0.00  0.00     0.052 H 
ATOM     27  H   LIG d   1      10.356   8.513  -0.265  0.00  0.00     0.052 H 
ATOM     28  H   LIG d   1      13.405   8.691  -0.307  0.00  0.00     0.083 H 
ATOM     29  H   LIG d   1      12.284   9.391  -1.501  0.00  0.00     0.083 H 
ATOM     30  H   LIG d   1      11.529   7.147  -1.949  0.00  0.00     0.203 HD
BRANCH  21  31
ATOM     31  C   LIG d   1      11.483   7.450   2.459  0.00  0.00     0.218 A 
ATOM     32  N   LIG d   1      11.047   6.426   3.178  0.00  0.00    -0.223 NA
ATOM     33  C   LIG d   1      11.034   6.483   4.500  0.00  0.00     0.033 A 
ATOM     34  C   LIG d   1      11.473   7.637   5.131  0.00  0.00    -0.025 A 
ATOM     35  H   LIG d   1      10.682   5.644   5.080  0.00  0.00     0.083 H 
ATOM     36  C   LIG d   1      11.919   8.691   4.348  0.00  0.00     0.033 A 
ATOM     37  H   LIG d   1      11.470   7.712   6.208  0.00  0.00     0.065 H 
ATOM     38  N   LIG d   1      11.910   8.567   3.031  0.00  0.00    -0.223 NA
ATOM     39  H   LIG d   1      12.268   9.603   4.808  0.00  0.00     0.083 H 
ENDBRANCH  21  31
ENDBRANCH  13  16
ENDBRANCH   6  13
BRANCH   4  40
ATOM     40  C   LIG d   1      14.532   4.819  -3.924  0.00  0.00    -0.043 C 
ATOM     41  H   LIG d   1      15.134   5.727  -3.895  0.00  0.00     0.030 H 
BRANCH  40  42
ATOM     42  C   LIG d   1      14.941   3.898  -2.773  0.00  0.00    -0.062 C 
ATOM     43  H   LIG d   1      14.130   3.843  -2.045  0.00  0.00     0.023 H 
ATOM     44  H   LIG d   1      15.149   2.902  -3.161  0.00  0.00     0.023 H 
ATOM     45  H   LIG d   1      15.835   4.294  -2.292  0.00  0.00     0.023 H 
ENDBRANCH  40  42
BRANCH  40  46
ATOM     46  C   LIG d   1      14.758   4.100  -5.256  0.00  0.00    -0.062 C 
ATOM     47  H   LIG d   1      14.102   4.528  -6.015  0.00  0.00     0.023 H 
ATOM     48  H   LIG d   1      15.797   4.222  -5.563  0.00  0.00     0.023 H 
ATOM     49  H   LIG d   1      14.535   3.040  -5.139  0.00  0.00     0.023 H 
ENDBRANCH  40  46
ENDBRANCH   4  40
BRANCH   9  50
ATOM     50  C   LIG d   1       9.091   6.708  -4.447  0.00  0.00    -0.043 C 
ATOM     51  H   LIG d   1       8.933   7.490  -3.703  0.00  0.00     0.027 H 
ATOM     52  H   LIG d   1       8.916   7.113  -5.443  0.00  0.00     0.027 H 
ATOM     53  H   LIG d   1       8.400   5.886  -4.262  0.00  0.00     0.027 H 
ENDBRANCH   9  50
BRANCH   1  54
ATOM     54  C   LIG d   1      10.324   3.902  -3.466  0.00  0.00     0.032 C 
ATOM     55  H   LIG d   1      10.001   4.551  -2.652  0.00  0.00     0.037 H 
ATOM     56  H   LIG d   1      11.161   3.289  -3.130  0.00  0.00     0.037 H 
BRANCH  54  57
ATOM     57  C   LIG d   1       9.183   3.011  -3.881  0.00  0.00     0.218 A 
ATOM     58  N   LIG d   1       8.687   2.904  -5.081  0.00  0.00    -0.112 NA
ATOM     59  N   LIG d   1       7.722   2.052  -5.074  0.00  0.00    -0.107 NA
ATOM     60  C   LIG d   1       7.568   1.582  -3.858  0.00  0.00     0.248 A 
ATOM     61  O   LIG d   1       8.488   2.185  -3.079  0.00  0.00    -0.420 OA
BRANCH  60  62
ATOM     62  C   LIG d   1       6.569   0.584  -3.423  0.00  0.00     0.038 A 
ATOM     63  C   LIG d   1       5.429   0.991  -2.729  0.00  0.00    -0.049 A 
ATOM     64  C   LIG d   1       4.499   0.054  -2.326  0.00  0.00    -0.058 A 
ATOM     65  H   LIG d   1       5.274   2.037  -2.507  0.00  0.00     0.062 H 
ATOM     66  C   LIG d   1       4.695  -1.285  -2.609  0.00  0.00    -0.050 A 
ATOM     67  H   LIG d   1       3.617   0.368  -1.788  0.00  0.00     0.062 H 
ATOM     68  C   LIG d   1       5.826  -1.695  -3.293  0.00  0.00    -0.058 A 
ATOM     69  C   LIG d   1       6.760  -0.769  -3.707  0.00  0.00    -0.049 A 
ATOM     70  H   LIG d   1       5.975  -2.744  -3.506  0.00  0.00     0.062 H 
ATOM     71  H   LIG d   1       7.641  -1.090  -4.244  0.00  0.00     0.062 H 
BRANCH  66  72
ATOM     72  C   LIG d   1       3.676  -2.302  -2.166  0.00  0.00    -0.040 C 
ATOM     73  H   LIG d   1       3.032  -1.864  -1.404  0.00  0.00     0.028 H 
ATOM     74  H   LIG d   1       3.072  -2.608  -3.021  0.00  0.00     0.028 H 
ATOM     75  H   LIG d   1       4.187  -3.173  -1.753  0.00  0.00     0.028 H 
ENDBRANCH  66  72
ENDBRANCH  60  62
ENDBRANCH  54  57
ENDBRANCH   1  54
TORSDOF 11
ENDMDL
MODEL 2
REMARK VINA RESULT:      -6.8      4.161     10.236
REMARK  11 active torsions:
REMARK  status: ('A' for Active; 'I' for Inactive)
REMARK    1  A    between atoms: C_1  and  C_2 
REMARK    2  A    between atoms: C_5  and  C_8 
REMARK    3  A    between atoms: C_11  and  C_13 
REMARK    4  A    between atoms: C_13  and  C_14 
REMARK    5  A    between atoms: C_17  and  C_37 
REMARK    6  A    between atoms: C_19  and  C_24 
REMARK    7  A    between atoms: C_22  and  C_23 
REMARK    8  A    between atoms: C_24  and  N_25 
REMARK    9  A    between atoms: N_28  and  C_31 
REMARK   10  A    between atoms: C_37  and  C_38 
REMARK   11  A    between atoms: C_37  and  C_39 
ROOT
ATOM      1  C   LIG d   1      10.160   7.848  -0.532  0.00  0.00    -0.011 C 
ATOM      2  H   LIG d   1       9.369   7.830   0.217  0.00  0.00     0.035 H 
ATOM      3  C   LIG d   1      10.032   6.617  -1.432  0.00  0.00    -0.042 C 
ATOM      4  C   LIG d   1      10.977   6.791  -2.628  0.00  0.00    -0.027 C 
ATOM      5  H   LIG d   1      11.980   7.024  -2.271  0.00  0.00     0.031 H 
ATOM      6  C   LIG d   1      10.458   7.943  -3.491  0.00  0.00     0.021 C 
ATOM      7  H   LIG d   1       9.543   7.634  -3.995  0.00  0.00     0.040 H 
ATOM      8  C   LIG d   1      10.175   9.143  -2.635  0.00  0.00    -0.076 C 
ATOM      9  C   LIG d   1      10.042   9.099  -1.352  0.00  0.00    -0.072 C 
ATOM     10  H   LIG d   1      10.310   5.723  -0.873  0.00  0.00     0.027 H 
ATOM     11  H   LIG d   1       9.005   6.527  -1.787  0.00  0.00     0.027 H 
ATOM     12  H   LIG d   1      10.077  10.102  -3.123  0.00  0.00     0.058 H 
ENDROOT
BRANCH   6  13
ATOM     13  C   LIG d   1      11.513   8.309  -4.538  0.00  0.00    -0.025 C 
ATOM     14  H   LIG d   1      12.130   9.126  -4.162  0.00  0.00     0.082 H 
ATOM     15  H   LIG d   1      12.142   7.440  -4.737  0.00  0.00     0.082 H 
BRANCH  13  16
ATOM     16  N   LIG d   1      10.848   8.728  -5.778  0.00  0.00     0.238 N 
ATOM     17  C   LIG d   1      11.847   8.858  -6.846  0.00  0.00    -0.016 C 
ATOM     18  C   LIG d   1      11.174   9.405  -8.110  0.00  0.00     0.055 C 
ATOM     19  H   LIG d   1      12.633   9.543  -6.528  0.00  0.00     0.083 H 
ATOM     20  H   LIG d   1      12.281   7.880  -7.060  0.00  0.00     0.083 H 
ATOM     21  N   LIG d   1      10.036   8.535  -8.445  0.00  0.00    -0.289 N 
ATOM     22  H   LIG d   1      11.888   9.407  -8.934  0.00  0.00     0.052 H 
ATOM     23  H   LIG d   1      10.819  10.418  -7.926  0.00  0.00     0.052 H 
ATOM     24  C   LIG d   1       9.069   8.218  -7.383  0.00  0.00     0.055 C 
ATOM     25  C   LIG d   1       9.841   7.728  -6.154  0.00  0.00    -0.016 C 
ATOM     26  H   LIG d   1       8.391   7.436  -7.726  0.00  0.00     0.052 H 
ATOM     27  H   LIG d   1       8.501   9.112  -7.125  0.00  0.00     0.052 H 
ATOM     28  H   LIG d   1      10.336   6.785  -6.388  0.00  0.00     0.083 H 
ATOM     29  H   LIG d   1       9.149   7.579  -5.324  0.00  0.00     0.083 H 
ATOM     30  H   LIG d   1      10.396   9.618  -5.632  0.00  0.00     0.203 HD
BRANCH  21  31
ATOM     31  C   LIG d   1       9.879   8.030  -9.724  0.00  0.00     0.218 A 
ATOM     32  N   LIG d   1      10.227   8.776 -10.762  0.00  0.00    -0.223 NA
ATOM     33  C   LIG d   1      10.095   8.322 -11.997  0.00  0.00     0.033 A 
ATOM     34  C   LIG d   1       9.575   7.052 -12.198  0.00  0.00    -0.025 A 
ATOM     35  H   LIG d   1      10.384   8.933 -12.838  0.00  0.00     0.083 H 
ATOM     36  C   LIG d   1       9.217   6.300 -11.090  0.00  0.00     0.033 A 
ATOM     37  H   LIG d   1       9.453   6.657 -13.196  0.00  0.00     0.065 H 
ATOM     38  N   LIG d   1       9.379   6.812  -9.882  0.00  0.00    -0.223 NA
ATOM     39  H   LIG d   1       8.810   5.307 -11.212  0.00  0.00     0.083 H 
ENDBRANCH  21  31
ENDBRANCH  13  16
ENDBRANCH   6  13
BRANCH   4  40
ATOM     40  C   LIG d   1      11.010   5.501  -3.451  0.00  0.00    -0.043 C 
ATOM     41  H   LIG d   1      10.834   5.734  -4.500  0.00  0.00     0.030 H 
BRANCH  40  42
ATOM     42  C   LIG d   1      12.377   4.833  -3.298  0.00  0.00    -0.062 C 
ATOM     43  H   LIG d   1      12.278   3.759  -3.459  0.00  0.00     0.023 H 
ATOM     44  H   LIG d   1      13.069   5.247  -4.030  0.00  0.00     0.023 H 
ATOM     45  H   LIG d   1      12.761   5.016  -2.294  0.00  0.00     0.023 H 
ENDBRANCH  40  42
BRANCH  40  46
ATOM     46  C   LIG d   1       9.920   4.550  -2.950  0.00  0.00    -0.062 C 
ATOM     47  H   LIG d   1      10.358   3.573  -2.745  0.00  0.00     0.023 H 
ATOM     48  H   LIG d   1       9.479   4.950  -2.037  0.00  0.00     0.023 H 
ATOM     49  H   LIG d   1       9.148   4.449  -3.713  0.00  0.00     0.023 H 
ENDBRANCH  40  46
ENDBRANCH   4  40
BRANCH   9  50
ATOM     50  C   LIG d   1       9.748  10.390  -0.631  0.00  0.00    -0.043 C 
ATOM     51  H   LIG d   1       9.591  11.185  -1.361  0.00  0.00     0.027 H 
ATOM     52  H   LIG d   1       8.851  10.271  -0.024  0.00  0.00     0.027 H 
ATOM     53  H   LIG d   1      10.591  10.647   0.011  0.00  0.00     0.027 H 
ENDBRANCH   9  50
BRANCH   1  54
ATOM     54  C   LIG d   1      11.520   7.825   0.168  0.00  0.00     0.032 C 
ATOM     55  H   LIG d   1      11.928   8.835   0.201  0.00  0.00     0.037 H 
ATOM     56  H   LIG d   1      12.202   7.177  -0.383  0.00  0.00     0.037 H 
BRANCH  54  57
ATOM     57  C   LIG d   1      11.355   7.303   1.571  0.00  0.00     0.218 A 
ATOM     58  N   LIG d   1      11.001   6.094   1.907  0.00  0.00    -0.112 NA
ATOM     59  N   LIG d   1      10.960   5.997   3.188  0.00  0.00    -0.107 NA
ATOM     60  C   LIG d   1      11.289   7.151   3.721  0.00  0.00     0.248 A 
ATOM     61  O   LIG d   1      11.540   8.002   2.705  0.00  0.00    -0.420 OA
BRANCH  60  62
ATOM     62  C   LIG d   1      11.364   7.463   5.164  0.00  0.00     0.038 A 
ATOM     63  C   LIG d   1      11.866   8.694   5.589  0.00  0.00    -0.049 A 
ATOM     64  C   LIG d   1      11.933   8.980   6.938  0.00  0.00    -0.058 A 
ATOM     65  H   LIG d   1      12.202   9.421   4.865  0.00  0.00     0.062 H 
ATOM     66  C   LIG d   1      11.503   8.049   7.866  0.00  0.00    -0.050 A 
ATOM     67  H   LIG d   1      12.321   9.931   7.268  0.00  0.00     0.062 H 
ATOM     68  C   LIG d   1      11.009   6.825   7.451  0.00  0.00    -0.058 A 
ATOM     69  C   LIG d   1      10.931   6.529   6.106  0.00  0.00    -0.049 A 
ATOM     70  H   LIG d   1      10.679   6.101   8.182  0.00  0.00     0.062 H 
ATOM     71  H   LIG d   1      10.541   5.575   5.783  0.00  0.00     0.062 H 
BRANCH  66  72
ATOM     72  C   LIG d   1      11.578   8.368   9.337  0.00  0.00    -0.040 C 
ATOM     73  H   LIG d   1      10.756   9.030   9.608  0.00  0.00     0.028 H 
ATOM     74  H   LIG d   1      11.509   7.445   9.913  0.00  0.00     0.028 H 
ATOM     75  H   LIG d   1      12.527   8.860   9.554  0.00  0.00     0.028 H 
ENDBRANCH  66  72
ENDBRANCH  60  62
ENDBRANCH  54  57
ENDBRANCH   1  54
TORSDOF 11
ENDMDL
MODEL 3
REMARK VINA RESULT:      -6.8      3.090      5.854
REMARK  11 active torsions:
REMARK  status: ('A' for Active; 'I' for Inactive)
REMARK    1  A    between atoms: C_1  and  C_2 
REMARK    2  A    between atoms: C_5  and  C_8 
REMARK    3  A    between atoms: C_11  and  C_13 
REMARK    4  A    between atoms: C_13  and  C_14 
REMARK    5  A    between atoms: C_17  and  C_37 
REMARK    6  A    between atoms: C_19  and  C_24 
REMARK    7  A    between atoms: C_22  and  C_23 
REMARK    8  A    between atoms: C_24  and  N_25 
REMARK    9  A    between atoms: N_28  and  C_31 
REMARK   10  A    between atoms: C_37  and  C_38 
REMARK   11  A    between atoms: C_37  and  C_39 
ROOT
ATOM      1  C   LIG d   1      10.973   4.022  -3.023  0.00  0.00    -0.011 C 
ATOM      2  H   LIG d   1      10.867   2.956  -2.821  0.00  0.00     0.035 H 
ATOM      3  C   LIG d   1      10.823   4.802  -1.715  0.00  0.00    -0.042 C 
ATOM      4  C   LIG d   1      11.233   6.259  -1.971  0.00  0.00    -0.027 C 
ATOM      5  H   LIG d   1      10.685   6.648  -2.828  0.00  0.00     0.031 H 
ATOM      6  C   LIG d   1      12.735   6.295  -2.260  0.00  0.00     0.021 C 
ATOM      7  H   LIG d   1      13.285   6.083  -1.344  0.00  0.00     0.040 H 
ATOM      8  C   LIG d   1      13.086   5.271  -3.300  0.00  0.00    -0.076 C 
ATOM      9  C   LIG d   1      12.322   4.283  -3.626  0.00  0.00    -0.072 C 
ATOM     10  H   LIG d   1       9.786   4.766  -1.384  0.00  0.00     0.027 H 
ATOM     11  H   LIG d   1      11.470   4.368  -0.953  0.00  0.00     0.027 H 
ATOM     12  H   LIG d   1      14.036   5.366  -3.805  0.00  0.00     0.058 H 
ENDROOT
BRANCH   6  13
ATOM     13  C   LIG d   1      13.120   7.684  -2.772  0.00  0.00    -0.025 C 
ATOM     14  H   LIG d   1      13.271   8.355  -1.926  0.00  0.00     0.082 H 
ATOM     15  H   LIG d   1      14.042   7.616  -3.350  0.00  0.00     0.082 H 
BRANCH  13  16
ATOM     16  N   LIG d   1      12.044   8.207  -3.624  0.00  0.00     0.238 N 
ATOM     17  C   LIG d   1      11.714   9.576  -3.207  0.00  0.00    -0.016 C 
ATOM     18  C   LIG d   1      10.516  10.081  -4.020  0.00  0.00     0.055 C 
ATOM     19  H   LIG d   1      11.462   9.582  -2.147  0.00  0.00     0.083 H 
ATOM     20  H   LIG d   1      12.571  10.227  -3.382  0.00  0.00     0.083 H 
ATOM     21  N   LIG d   1      10.830   9.940  -5.449  0.00  0.00    -0.289 N 
ATOM     22  H   LIG d   1      10.331  11.129  -3.786  0.00  0.00     0.052 H 
ATOM     23  H   LIG d   1       9.634   9.487  -3.778  0.00  0.00     0.052 H 
ATOM     24  C   LIG d   1      11.328   8.641  -5.927  0.00  0.00     0.055 C 
ATOM     25  C   LIG d   1      12.487   8.204  -5.024  0.00  0.00    -0.016 C 
ATOM     26  H   LIG d   1      11.679   8.737  -6.953  0.00  0.00     0.052 H 
ATOM     27  H   LIG d   1      10.528   7.902  -5.878  0.00  0.00     0.052 H 
ATOM     28  H   LIG d   1      13.320   8.896  -5.143  0.00  0.00     0.083 H 
ATOM     29  H   LIG d   1      12.805   7.199  -5.302  0.00  0.00     0.083 H 
ATOM     30  H   LIG d   1      11.228   7.622  -3.531  0.00  0.00     0.203 HD
BRANCH  21  31
ATOM     31  C   LIG d   1      10.662  11.001  -6.322  0.00  0.00     0.218 A 
ATOM     32  N   LIG d   1       9.722  11.901  -6.074  0.00  0.00    -0.223 NA
ATOM     33  C   LIG d   1       9.538  12.930  -6.885  0.00  0.00     0.033 A 
ATOM     34  C   LIG d   1      10.338  13.054  -8.011  0.00  0.00    -0.025 A 
ATOM     35  H   LIG d   1       8.772  13.661  -6.675  0.00  0.00     0.083 H 
ATOM     36  C   LIG d   1      11.310  12.093  -8.242  0.00  0.00     0.033 A 
ATOM     37  H   LIG d   1      10.207  13.882  -8.691  0.00  0.00     0.065 H 
ATOM     38  N   LIG d   1      11.444  11.091  -7.389  0.00  0.00    -0.223 NA
ATOM     39  H   LIG d   1      11.949  12.161  -9.109  0.00  0.00     0.083 H 
ENDBRANCH  21  31
ENDBRANCH  13  16
ENDBRANCH   6  13
BRANCH   4  40
ATOM     40  C   LIG d   1      10.922   7.105  -0.734  0.00  0.00    -0.043 C 
ATOM     41  H   LIG d   1      11.663   7.899  -0.642  0.00  0.00     0.030 H 
BRANCH  40  42
ATOM     42  C   LIG d   1       9.528   7.718  -0.873  0.00  0.00    -0.062 C 
ATOM     43  H   LIG d   1       9.619   8.778  -1.113  0.00  0.00     0.023 H 
ATOM     44  H   LIG d   1       8.985   7.210  -1.669  0.00  0.00     0.023 H 
ATOM     45  H   LIG d   1       8.986   7.604   0.066  0.00  0.00     0.023 H 
ENDBRANCH  40  42
BRANCH  40  46
ATOM     46  C   LIG d   1      10.967   6.220   0.514  0.00  0.00    -0.062 C 
ATOM     47  H   LIG d   1      11.996   6.144   0.868  0.00  0.00     0.023 H 
ATOM     48  H   LIG d   1      10.346   6.659   1.294  0.00  0.00     0.023 H 
ATOM     49  H   LIG d   1      10.593   5.226   0.268  0.00  0.00     0.023 H 
ENDBRANCH  40  46
ENDBRANCH   4  40
BRANCH   9  50
ATOM     50  C   LIG d   1      12.819   3.330  -4.683  0.00  0.00    -0.043 C 
ATOM     51  H   LIG d   1      12.251   2.401  -4.630  0.00  0.00     0.027 H 
ATOM     52  H   LIG d   1      12.690   3.780  -5.667  0.00  0.00     0.027 H 
ATOM     53  H   LIG d   1      13.876   3.121  -4.515  0.00  0.00     0.027 H 
ENDBRANCH   9  50
BRANCH   1  54
ATOM     54  C   LIG d   1       9.884   4.462  -4.004  0.00  0.00     0.032 C 
ATOM     55  H   LIG d   1      10.347   4.817  -4.925  0.00  0.00     0.037 H 
ATOM     56  H   LIG d   1       9.298   5.267  -3.559  0.00  0.00     0.037 H 
BRANCH  54  57
ATOM     57  C   LIG d   1       8.983   3.294  -4.311  0.00  0.00     0.218 A 
ATOM     58  N   LIG d   1       8.809   2.743  -5.479  0.00  0.00    -0.112 NA
ATOM     59  N   LIG d   1       7.972   1.771  -5.376  0.00  0.00    -0.107 NA
ATOM     60  C   LIG d   1       7.580   1.668  -4.128  0.00  0.00     0.248 A 
ATOM     61  O   LIG d   1       8.210   2.635  -3.431  0.00  0.00    -0.420 OA
BRANCH  60  62
ATOM     62  C   LIG d   1       6.621   0.681  -3.587  0.00  0.00     0.038 A 
ATOM     63  C   LIG d   1       5.524   1.108  -2.838  0.00  0.00    -0.049 A 
ATOM     64  C   LIG d   1       4.632   0.182  -2.337  0.00  0.00    -0.058 A 
ATOM     65  H   LIG d   1       5.373   2.161  -2.651  0.00  0.00     0.062 H 
ATOM     66  C   LIG d   1       4.824  -1.167  -2.576  0.00  0.00    -0.050 A 
ATOM     67  H   LIG d   1       3.783   0.511  -1.757  0.00  0.00     0.062 H 
ATOM     68  C   LIG d   1       5.913  -1.597  -3.313  0.00  0.00    -0.058 A 
ATOM     69  C   LIG d   1       6.808  -0.682  -3.825  0.00  0.00    -0.049 A 
ATOM     70  H   LIG d   1       6.060  -2.652  -3.492  0.00  0.00     0.062 H 
ATOM     71  H   LIG d   1       7.656  -1.018  -4.405  0.00  0.00     0.062 H 
BRANCH  66  72
ATOM     72  C   LIG d   1       3.847  -2.172  -2.025  0.00  0.00    -0.040 C 
ATOM     73  H   LIG d   1       2.921  -1.666  -1.750  0.00  0.00     0.028 H 
ATOM     74  H   LIG d   1       3.637  -2.928  -2.783  0.00  0.00     0.028 H 
ATOM     75  H   LIG d   1       4.275  -2.652  -1.144  0.00  0.00     0.028 H 
ENDBRANCH  66  72
ENDBRANCH  60  62
ENDBRANCH  54  57
ENDBRANCH   1  54
TORSDOF 11
ENDMDL
MODEL 4
REMARK VINA RESULT:      -6.7      8.306     12.927
REMARK  11 active torsions:
REMARK  status: ('A' for Active; 'I' for Inactive)
REMARK    1  A    between atoms: C_1  and  C_2 
REMARK    2  A    between atoms: C_5  and  C_8 
REMARK    3  A    between atoms: C_11  and  C_13 
REMARK    4  A    between atoms: C_13  and  C_14 
REMARK    5  A    between atoms: C_17  and  C_37 
REMARK    6  A    between atoms: C_19  and  C_24 
REMARK    7  A    between atoms: C_22  and  C_23 
REMARK    8  A    between atoms: C_24  and  N_25 
REMARK    9  A    between atoms: N_28  and  C_31 
REMARK   10  A    between atoms: C_37  and  C_38 
REMARK   11  A    between atoms: C_37  and  C_39 
ROOT
ATOM      1  C   LIG d   1       5.728  -1.216  -2.713  0.00  0.00    -0.011 C 
ATOM      2  H   LIG d   1       5.643  -1.127  -1.630  0.00  0.00     0.035 H 
ATOM      3  C   LIG d   1       7.034  -1.934  -3.061  0.00  0.00    -0.042 C 
ATOM      4  C   LIG d   1       7.011  -2.282  -4.555  0.00  0.00    -0.027 C 
ATOM      5  H   LIG d   1       6.784  -1.389  -5.136  0.00  0.00     0.031 H 
ATOM      6  C   LIG d   1       5.929  -3.338  -4.790  0.00  0.00     0.021 C 
ATOM      7  H   LIG d   1       6.249  -4.286  -4.361  0.00  0.00     0.040 H 
ATOM      8  C   LIG d   1       4.642  -2.910  -4.146  0.00  0.00    -0.076 C 
ATOM      9  C   LIG d   1       4.558  -1.992  -3.242  0.00  0.00    -0.072 C 
ATOM     10  H   LIG d   1       7.879  -1.279  -2.850  0.00  0.00     0.027 H 
ATOM     11  H   LIG d   1       7.117  -2.848  -2.473  0.00  0.00     0.027 H 
ATOM     12  H   LIG d   1       3.732  -3.400  -4.458  0.00  0.00     0.058 H 
ENDROOT
BRANCH   6  13
ATOM     13  C   LIG d   1       5.706  -3.511  -6.294  0.00  0.00    -0.025 C 
ATOM     14  H   LIG d   1       4.743  -3.082  -6.571  0.00  0.00     0.082 H 
ATOM     15  H   LIG d   1       6.501  -3.000  -6.839  0.00  0.00     0.082 H 
BRANCH  13  16
ATOM     16  N   LIG d   1       5.721  -4.940  -6.630  0.00  0.00     0.238 N 
ATOM     17  C   LIG d   1       6.448  -5.678  -5.589  0.00  0.00    -0.016 C 
ATOM     18  C   LIG d   1       6.563  -7.152  -5.995  0.00  0.00     0.055 C 
ATOM     19  H   LIG d   1       7.445  -5.255  -5.472  0.00  0.00     0.083 H 
ATOM     20  H   LIG d   1       5.907  -5.603  -4.645  0.00  0.00     0.083 H 
ATOM     21  N   LIG d   1       5.213  -7.665  -6.273  0.00  0.00    -0.289 N 
ATOM     22  H   LIG d   1       7.010  -7.722  -5.180  0.00  0.00     0.052 H 
ATOM     23  H   LIG d   1       7.179  -7.237  -6.889  0.00  0.00     0.052 H 
ATOM     24  C   LIG d   1       4.351  -6.895  -7.184  0.00  0.00     0.055 C 
ATOM     25  C   LIG d   1       4.341  -5.433  -6.722  0.00  0.00    -0.016 C 
ATOM     26  H   LIG d   1       3.338  -7.295  -7.156  0.00  0.00     0.052 H 
ATOM     27  H   LIG d   1       4.744  -6.955  -8.198  0.00  0.00     0.052 H 
ATOM     28  H   LIG d   1       3.865  -5.365  -5.743  0.00  0.00     0.083 H 
ATOM     29  H   LIG d   1       3.786  -4.829  -7.440  0.00  0.00     0.083 H 
ATOM     30  H   LIG d   1       6.182  -5.071  -7.517  0.00  0.00     0.203 HD
BRANCH  21  31
ATOM     31  C   LIG d   1       4.765  -8.840  -5.695  0.00  0.00     0.218 A 
ATOM     32  N   LIG d   1       4.354  -8.826  -4.436  0.00  0.00    -0.223 NA
ATOM     33  C   LIG d   1       3.916  -9.930  -3.854  0.00  0.00     0.033 A 
ATOM     34  C   LIG d   1       3.900 -11.113  -4.576  0.00  0.00    -0.025 A 
ATOM     35  H   LIG d   1       3.578  -9.911  -2.829  0.00  0.00     0.083 H 
ATOM     36  C   LIG d   1       4.341 -11.094  -5.890  0.00  0.00     0.033 A 
ATOM     37  H   LIG d   1       3.550 -12.030  -4.125  0.00  0.00     0.065 H 
ATOM     38  N   LIG d   1       4.763  -9.954  -6.412  0.00  0.00    -0.223 NA
ATOM     39  H   LIG d   1       4.341 -11.998  -6.479  0.00  0.00     0.083 H 
ENDBRANCH  21  31
ENDBRANCH  13  16
ENDBRANCH   6  13
BRANCH   4  40
ATOM     40  C   LIG d   1       8.375  -2.836  -4.975  0.00  0.00    -0.043 C 
ATOM     41  H   LIG d   1       8.250  -3.507  -5.824  0.00  0.00     0.030 H 
BRANCH  40  42
ATOM     42  C   LIG d   1       9.296  -1.679  -5.368  0.00  0.00    -0.062 C 
ATOM     43  H   LIG d   1       9.562  -1.107  -4.479  0.00  0.00     0.023 H 
ATOM     44  H   LIG d   1      10.200  -2.075  -5.829  0.00  0.00     0.023 H 
ATOM     45  H   LIG d   1       8.782  -1.031  -6.078  0.00  0.00     0.023 H 
ENDBRANCH  40  42
BRANCH  40  46
ATOM     46  C   LIG d   1       8.994  -3.605  -3.805  0.00  0.00    -0.062 C 
ATOM     47  H   LIG d   1      10.062  -3.739  -3.985  0.00  0.00     0.023 H 
ATOM     48  H   LIG d   1       8.848  -3.043  -2.883  0.00  0.00     0.023 H 
ATOM     49  H   LIG d   1       8.516  -4.580  -3.717  0.00  0.00     0.023 H 
ENDBRANCH  40  46
ENDBRANCH   4  40
BRANCH   9  50
ATOM     50  C   LIG d   1       3.193  -1.681  -2.683  0.00  0.00    -0.043 C 
ATOM     51  H   LIG d   1       3.296  -1.031  -1.813  0.00  0.00     0.027 H 
ATOM     52  H   LIG d   1       2.594  -1.180  -3.443  0.00  0.00     0.027 H 
ATOM     53  H   LIG d   1       2.702  -2.609  -2.387  0.00  0.00     0.027 H 
ENDBRANCH   9  50
BRANCH   1  54
ATOM     54  C   LIG d   1       5.735   0.181  -3.337  0.00  0.00     0.032 C 
ATOM     55  H   LIG d   1       6.705   0.369  -3.795  0.00  0.00     0.037 H 
ATOM     56  H   LIG d   1       5.548   0.926  -2.562  0.00  0.00     0.037 H 
BRANCH  54  57
ATOM     57  C   LIG d   1       4.658   0.267  -4.387  0.00  0.00     0.218 A 
ATOM     58  N   LIG d   1       3.456   0.743  -4.220  0.00  0.00    -0.112 NA
ATOM     59  N   LIG d   1       2.803   0.663  -5.326  0.00  0.00    -0.107 NA
ATOM     60  C   LIG d   1       3.574   0.128  -6.245  0.00  0.00     0.248 A 
ATOM     61  O   LIG d   1       4.761  -0.137  -5.665  0.00  0.00    -0.420 OA
BRANCH  60  62
ATOM     62  C   LIG d   1       3.205  -0.139  -7.651  0.00  0.00     0.038 A 
ATOM     63  C   LIG d   1       3.242  -1.443  -8.148  0.00  0.00    -0.049 A 
ATOM     64  C   LIG d   1       2.897  -1.687  -9.462  0.00  0.00    -0.058 A 
ATOM     65  H   LIG d   1       3.540  -2.259  -7.507  0.00  0.00     0.062 H 
ATOM     66  C   LIG d   1       2.514  -0.643 -10.285  0.00  0.00    -0.050 A 
ATOM     67  H   LIG d   1       2.925  -2.695  -9.849  0.00  0.00     0.062 H 
ATOM     68  C   LIG d   1       2.481   0.652  -9.799  0.00  0.00    -0.058 A 
ATOM     69  C   LIG d   1       2.818   0.909  -8.487  0.00  0.00    -0.049 A 
ATOM     70  H   LIG d   1       2.186   1.464 -10.449  0.00  0.00     0.062 H 
ATOM     71  H   LIG d   1       2.788   1.920  -8.107  0.00  0.00     0.062 H 
BRANCH  66  72
ATOM     72  C   LIG d   1       2.139  -0.916 -11.718  0.00  0.00    -0.040 C 
ATOM     73  H   LIG d   1       1.859  -1.964 -11.827  0.00  0.00     0.028 H 
ATOM     74  H   LIG d   1       1.297  -0.284 -12.000  0.00  0.00     0.028 H 
ATOM     75  H   LIG d   1       2.989  -0.699 -12.365  0.00  0.00     0.028 H 
ENDBRANCH  66  72
ENDBRANCH  60  62
ENDBRANCH  54  57
ENDBRANCH   1  54
TORSDOF 11
ENDMDL
MODEL 5
REMARK VINA RESULT:      -6.5      3.074      4.218
REMARK  11 active torsions:
REMARK  status: ('A' for Active; 'I' for Inactive)
REMARK    1  A    between atoms: C_1  and  C_2 
REMARK    2  A    between atoms: C_5  and  C_8 
REMARK    3  A    between atoms: C_11  and  C_13 
REMARK    4  A    between atoms: C_13  and  C_14 
REMARK    5  A    between atoms: C_17  and  C_37 
REMARK    6  A    between atoms: C_19  and  C_24 
REMARK    7  A    between atoms: C_22  and  C_23 
REMARK    8  A    between atoms: C_24  and  N_25 
REMARK    9  A    between atoms: N_28  and  C_31 
REMARK   10  A    between atoms: C_37  and  C_38 
REMARK   11  A    between atoms: C_37  and  C_39 
ROOT
ATOM      1  C   LIG d   1      11.104   4.612  -4.722  0.00  0.00    -0.011 C 
ATOM      2  H   LIG d   1      10.922   3.901  -5.528  0.00  0.00     0.035 H 
ATOM      3  C   LIG d   1      12.541   4.451  -4.221  0.00  0.00    -0.042 C 
ATOM      4  C   LIG d   1      12.860   5.622  -3.281  0.00  0.00    -0.027 C 
ATOM      5  H   LIG d   1      12.089   5.696  -2.515  0.00  0.00     0.031 H 
ATOM      6  C   LIG d   1      12.892   6.910  -4.106  0.00  0.00     0.021 C 
ATOM      7  H   LIG d   1      13.775   6.910  -4.743  0.00  0.00     0.040 H 
ATOM      8  C   LIG d   1      11.661   7.007  -4.960  0.00  0.00    -0.076 C 
ATOM      9  C   LIG d   1      10.890   6.007  -5.230  0.00  0.00    -0.072 C 
ATOM     10  H   LIG d   1      12.638   3.510  -3.680  0.00  0.00     0.027 H 
ATOM     11  H   LIG d   1      13.228   4.464  -5.068  0.00  0.00     0.027 H 
ATOM     12  H   LIG d   1      11.407   7.971  -5.375  0.00  0.00     0.058 H 
ENDROOT
BRANCH   6  13
ATOM     13  C   LIG d   1      12.947   8.114  -3.164  0.00  0.00    -0.025 C 
ATOM     14  H   LIG d   1      12.947   7.768  -2.130  0.00  0.00     0.082 H 
ATOM     15  H   LIG d   1      13.856   8.685  -3.357  0.00  0.00     0.082 H 
BRANCH  13  16
ATOM     16  N   LIG d   1      11.774   8.969  -3.393  0.00  0.00     0.238 N 
ATOM     17  C   LIG d   1      11.104   9.230  -2.113  0.00  0.00    -0.016 C 
ATOM     18  C   LIG d   1       9.818  10.026  -2.363  0.00  0.00     0.055 C 
ATOM     19  H   LIG d   1      10.858   8.284  -1.631  0.00  0.00     0.083 H 
ATOM     20  H   LIG d   1      11.768   9.807  -1.466  0.00  0.00     0.083 H 
ATOM     21  N   LIG d   1      10.160  11.234  -3.128  0.00  0.00    -0.289 N 
ATOM     22  H   LIG d   1       9.372  10.309  -1.410  0.00  0.00     0.052 H 
ATOM     23  H   LIG d   1       9.117   9.417  -2.934  0.00  0.00     0.052 H 
ATOM     24  C   LIG d   1      10.973  11.080  -4.345  0.00  0.00     0.055 C 
ATOM     25  C   LIG d   1      12.204  10.234  -4.000  0.00  0.00    -0.016 C 
ATOM     26  H   LIG d   1      11.289  12.059  -4.701  0.00  0.00     0.052 H 
ATOM     27  H   LIG d   1      10.389  10.577  -5.115  0.00  0.00     0.052 H 
ATOM     28  H   LIG d   1      12.834  10.779  -3.296  0.00  0.00     0.083 H 
ATOM     29  H   LIG d   1      12.769  10.028  -4.909  0.00  0.00     0.083 H 
ATOM     30  H   LIG d   1      11.134   8.500  -4.016  0.00  0.00     0.203 HD
BRANCH  21  31
ATOM     31  C   LIG d   1       9.728  12.483  -2.716  0.00  0.00     0.218 A 
ATOM     32  N   LIG d   1      10.321  13.065  -1.685  0.00  0.00    -0.223 NA
ATOM     33  C   LIG d   1       9.936  14.260  -1.267  0.00  0.00     0.033 A 
ATOM     34  C   LIG d   1       8.891  14.898  -1.918  0.00  0.00    -0.025 A 
ATOM     35  H   LIG d   1      10.426  14.730  -0.429  0.00  0.00     0.083 H 
ATOM     36  C   LIG d   1       8.290  14.259  -2.991  0.00  0.00     0.033 A 
ATOM     37  H   LIG d   1       8.554  15.872  -1.597  0.00  0.00     0.065 H 
ATOM     38  N   LIG d   1       8.727  13.066  -3.360  0.00  0.00    -0.223 NA
ATOM     39  H   LIG d   1       7.475  14.730  -3.520  0.00  0.00     0.083 H 
ENDBRANCH  21  31
ENDBRANCH  13  16
ENDBRANCH   6  13
BRANCH   4  40
ATOM     40  C   LIG d   1      14.222   5.395  -2.621  0.00  0.00    -0.043 C 
ATOM     41  H   LIG d   1      14.899   6.202  -2.898  0.00  0.00     0.030 H 
BRANCH  40  42
ATOM     42  C   LIG d   1      14.054   5.366  -1.101  0.00  0.00    -0.062 C 
ATOM     43  H   LIG d   1      14.849   4.766  -0.658  0.00  0.00     0.023 H 
ATOM     44  H   LIG d   1      14.105   6.382  -0.710  0.00  0.00     0.023 H 
ATOM     45  H   LIG d   1      13.087   4.929  -0.851  0.00  0.00     0.023 H 
ENDBRANCH  40  42
BRANCH  40  46
ATOM     46  C   LIG d   1      14.802   4.060  -3.094  0.00  0.00    -0.062 C 
ATOM     47  H   LIG d   1      15.886   4.143  -3.174  0.00  0.00     0.023 H 
ATOM     48  H   LIG d   1      14.549   3.279  -2.376  0.00  0.00     0.023 H 
ATOM     49  H   LIG d   1      14.384   3.807  -4.069  0.00  0.00     0.023 H 
ENDBRANCH  40  46
ENDBRANCH   4  40
BRANCH   9  50
ATOM     50  C   LIG d   1       9.695   6.262  -6.113  0.00  0.00    -0.043 C 
ATOM     51  H   LIG d   1       8.821   6.465  -5.493  0.00  0.00     0.027 H 
ATOM     52  H   LIG d   1       9.893   7.120  -6.754  0.00  0.00     0.027 H 
ATOM     53  H   LIG d   1       9.506   5.383  -6.731  0.00  0.00     0.027 H 
ENDBRANCH   9  50
BRANCH   1  54
ATOM     54  C   LIG d   1      10.132   4.335  -3.573  0.00  0.00     0.032 C 
ATOM     55  H   LIG d   1       9.594   5.249  -3.324  0.00  0.00     0.037 H 
ATOM     56  H   LIG d   1      10.689   3.992  -2.700  0.00  0.00     0.037 H 
BRANCH  54  57
ATOM     57  C   LIG d   1       9.150   3.272  -3.992  0.00  0.00     0.218 A 
ATOM     58  N   LIG d   1       8.886   2.906  -5.214  0.00  0.00    -0.112 NA
ATOM     59  N   LIG d   1       7.999   1.974  -5.203  0.00  0.00    -0.107 NA
ATOM     60  C   LIG d   1       7.664   1.710  -3.962  0.00  0.00     0.248 A 
ATOM     61  O   LIG d   1       8.384   2.532  -3.171  0.00  0.00    -0.420 OA
BRANCH  60  62
ATOM     62  C   LIG d   1       6.677   0.705  -3.513  0.00  0.00     0.038 A 
ATOM     63  C   LIG d   1       5.534   1.107  -2.820  0.00  0.00    -0.049 A 
ATOM     64  C   LIG d   1       4.616   0.165  -2.405  0.00  0.00    -0.058 A 
ATOM     65  H   LIG d   1       5.369   2.153  -2.608  0.00  0.00     0.062 H 
ATOM     66  C   LIG d   1       4.826  -1.175  -2.675  0.00  0.00    -0.050 A 
ATOM     67  H   LIG d   1       3.732   0.474  -1.867  0.00  0.00     0.062 H 
ATOM     68  C   LIG d   1       5.959  -1.580  -3.358  0.00  0.00    -0.058 A 
ATOM     69  C   LIG d   1       6.882  -0.649  -3.784  0.00  0.00    -0.049 A 
ATOM     70  H   LIG d   1       6.119  -2.630  -3.561  0.00  0.00     0.062 H 
ATOM     71  H   LIG d   1       7.764  -0.965  -4.320  0.00  0.00     0.062 H 
BRANCH  66  72
ATOM     72  C   LIG d   1       3.819  -2.199  -2.218  0.00  0.00    -0.040 C 
ATOM     73  H   LIG d   1       2.812  -1.833  -2.418  0.00  0.00     0.028 H 
ATOM     74  H   LIG d   1       3.981  -3.133  -2.757  0.00  0.00     0.028 H 
ATOM     75  H   LIG d   1       3.936  -2.373  -1.148  0.00  0.00     0.028 H 
ENDBRANCH  66  72
ENDBRANCH  60  62
ENDBRANCH  54  57
ENDBRANCH   1  54
TORSDOF 11
ENDMDL
MODEL 6
REMARK VINA RESULT:      -6.5      5.219     12.767
REMARK  11 active torsions:
REMARK  status: ('A' for Active; 'I' for Inactive)
REMARK    1  A    between atoms: C_1  and  C_2 
REMARK    2  A    between atoms: C_5  and  C_8 
REMARK    3  A    between atoms: C_11  and  C_13 
REMARK    4  A    between atoms: C_13  and  C_14 
REMARK    5  A    between atoms: C_17  and  C_37 
REMARK    6  A    between atoms: C_19  and  C_24 
REMARK    7  A    between atoms: C_22  and  C_23 
REMARK    8  A    between atoms: C_24  and  N_25 
REMARK    9  A    between atoms: N_28  and  C_31 
REMARK   10  A    between atoms: C_37  and  C_38 
REMARK   11  A    between atoms: C_37  and  C_39 
ROOT
ATOM      1  C   LIG d   1       6.136  -1.029  -3.298  0.00  0.00    -0.011 C 
ATOM      2  H   LIG d   1       6.384  -0.753  -2.273  0.00  0.00     0.035 H 
ATOM      3  C   LIG d   1       7.391  -1.551  -4.001  0.00  0.00    -0.042 C 
ATOM      4  C   LIG d   1       6.973  -2.173  -5.340  0.00  0.00    -0.027 C 
ATOM      5  H   LIG d   1       6.369  -1.462  -5.901  0.00  0.00     0.031 H 
ATOM      6  C   LIG d   1       6.153  -3.433  -5.052  0.00  0.00     0.021 C 
ATOM      7  H   LIG d   1       6.808  -4.209  -4.659  0.00  0.00     0.040 H 
ATOM      8  C   LIG d   1       5.078  -3.131  -4.049  0.00  0.00    -0.076 C 
ATOM      9  C   LIG d   1       5.075  -2.090  -3.286  0.00  0.00    -0.072 C 
ATOM     10  H   LIG d   1       8.080  -0.725  -4.180  0.00  0.00     0.027 H 
ATOM     11  H   LIG d   1       7.871  -2.306  -3.379  0.00  0.00     0.027 H 
ATOM     12  H   LIG d   1       4.258  -3.829  -3.960  0.00  0.00     0.058 H 
ENDROOT
BRANCH   6  13
ATOM     13  C   LIG d   1       5.507  -3.924  -6.349  0.00  0.00    -0.025 C 
ATOM     14  H   LIG d   1       4.445  -3.678  -6.343  0.00  0.00     0.082 H 
ATOM     15  H   LIG d   1       5.988  -3.440  -7.200  0.00  0.00     0.082 H 
BRANCH  13  16
ATOM     16  N   LIG d   1       5.672  -5.380  -6.457  0.00  0.00     0.238 N 
ATOM     17  C   LIG d   1       6.513  -5.858  -5.353  0.00  0.00    -0.016 C 
ATOM     18  C   LIG d   1       6.781  -7.357  -5.528  0.00  0.00     0.055 C 
ATOM     19  H   LIG d   1       7.460  -5.318  -5.357  0.00  0.00     0.083 H 
ATOM     20  H   LIG d   1       6.001  -5.689  -4.406  0.00  0.00     0.083 H 
ATOM     21  N   LIG d   1       5.489  -8.049  -5.652  0.00  0.00    -0.289 N 
ATOM     22  H   LIG d   1       7.318  -7.737  -4.660  0.00  0.00     0.052 H 
ATOM     23  H   LIG d   1       7.371  -7.520  -6.430  0.00  0.00     0.052 H 
ATOM     24  C   LIG d   1       4.514  -7.532  -6.625  0.00  0.00     0.055 C 
ATOM     25  C   LIG d   1       4.355  -6.025  -6.399  0.00  0.00    -0.016 C 
ATOM     26  H   LIG d   1       3.555  -8.028  -6.482  0.00  0.00     0.052 H 
ATOM     27  H   LIG d   1       4.876  -7.713  -7.637  0.00  0.00     0.052 H 
ATOM     28  H   LIG d   1       3.908  -5.851  -5.419  0.00  0.00     0.083 H 
ATOM     29  H   LIG d   1       3.710  -5.607  -7.172  0.00  0.00     0.083 H 
ATOM     30  H   LIG d   1       6.114  -5.603  -7.336  0.00  0.00     0.203 HD
BRANCH  21  31
ATOM     31  C   LIG d   1       5.198  -9.156  -4.874  0.00  0.00     0.218 A 
ATOM     32  N   LIG d   1       4.038  -9.213  -4.237  0.00  0.00    -0.223 NA
ATOM     33  C   LIG d   1       3.725 -10.258  -3.489  0.00  0.00     0.033 A 
ATOM     34  C   LIG d   1       4.634 -11.297  -3.368  0.00  0.00    -0.025 A 
ATOM     35  H   LIG d   1       2.777 -10.299  -2.976  0.00  0.00     0.083 H 
ATOM     36  C   LIG d   1       5.841 -11.205  -4.044  0.00  0.00     0.033 A 
ATOM     37  H   LIG d   1       4.407 -12.161  -2.761  0.00  0.00     0.065 H 
ATOM     38  N   LIG d   1       6.088 -10.133  -4.779  0.00  0.00    -0.223 NA
ATOM     39  H   LIG d   1       6.570 -11.998  -3.971  0.00  0.00     0.083 H 
ENDBRANCH  21  31
ENDBRANCH  13  16
ENDBRANCH   6  13
BRANCH   4  40
ATOM     40  C   LIG d   1       8.220  -2.540  -6.148  0.00  0.00    -0.043 C 
ATOM     41  H   LIG d   1       8.088  -3.525  -6.594  0.00  0.00     0.030 H 
BRANCH  40  42
ATOM     42  C   LIG d   1       8.436  -1.503  -7.252  0.00  0.00    -0.062 C 
ATOM     43  H   LIG d   1       7.472  -1.210  -7.669  0.00  0.00     0.023 H 
ATOM     44  H   LIG d   1       8.933  -0.627  -6.836  0.00  0.00     0.023 H 
ATOM     45  H   LIG d   1       9.056  -1.934  -8.038  0.00  0.00     0.023 H 
ENDBRANCH  40  42
BRANCH  40  46
ATOM     46  C   LIG d   1       9.439  -2.559  -5.223  0.00  0.00    -0.062 C 
ATOM     47  H   LIG d   1       9.332  -1.782  -4.465  0.00  0.00     0.023 H 
ATOM     48  H   LIG d   1       9.513  -3.533  -4.738  0.00  0.00     0.023 H 
ATOM     49  H   LIG d   1      10.341  -2.375  -5.806  0.00  0.00     0.023 H 
ENDBRANCH  40  46
ENDBRANCH   4  40
BRANCH   9  50
ATOM     50  C   LIG d   1       3.929  -1.932  -2.319  0.00  0.00    -0.043 C 
ATOM     51  H   LIG d   1       4.061  -1.013  -1.746  0.00  0.00     0.027 H 
ATOM     52  H   LIG d   1       2.991  -1.883  -2.873  0.00  0.00     0.027 H 
ATOM     53  H   LIG d   1       3.906  -2.784  -1.640  0.00  0.00     0.027 H 
ENDBRANCH   9  50
BRANCH   1  54
ATOM     54  C   LIG d   1       5.613   0.203  -4.041  0.00  0.00     0.032 C 
ATOM     55  H   LIG d   1       4.901   0.733  -3.409  0.00  0.00     0.037 H 
ATOM     56  H   LIG d   1       5.119  -0.110  -4.961  0.00  0.00     0.037 H 
BRANCH  54  57
ATOM     57  C   LIG d   1       6.766   1.114  -4.374  0.00  0.00     0.218 A 
ATOM     58  N   LIG d   1       7.252   1.338  -5.562  0.00  0.00    -0.112 NA
ATOM     59  N   LIG d   1       8.230   2.169  -5.478  0.00  0.00    -0.107 NA
ATOM     60  C   LIG d   1       8.404   2.507  -4.222  0.00  0.00     0.248 A 
ATOM     61  O   LIG d   1       7.482   1.841  -3.498  0.00  0.00    -0.420 OA
BRANCH  60  62
ATOM     62  C   LIG d   1       9.425   3.439  -3.697  0.00  0.00     0.038 A 
ATOM     63  C   LIG d   1       9.456   4.763  -4.137  0.00  0.00    -0.049 A 
ATOM     64  C   LIG d   1      10.411   5.628  -3.643  0.00  0.00    -0.058 A 
ATOM     65  H   LIG d   1       8.736   5.110  -4.864  0.00  0.00     0.062 H 
ATOM     66  C   LIG d   1      11.334   5.186  -2.713  0.00  0.00    -0.050 A 
ATOM     67  H   LIG d   1      10.437   6.653  -3.983  0.00  0.00     0.062 H 
ATOM     68  C   LIG d   1      11.310   3.873  -2.276  0.00  0.00    -0.058 A 
ATOM     69  C   LIG d   1      10.358   3.000  -2.757  0.00  0.00    -0.049 A 
ATOM     70  H   LIG d   1      12.038   3.533  -1.553  0.00  0.00     0.062 H 
ATOM     71  H   LIG d   1      10.338   1.976  -2.413  0.00  0.00     0.062 H 
BRANCH  66  72
ATOM     72  C   LIG d   1      12.373   6.137  -2.177  0.00  0.00    -0.040 C 
ATOM     73  H   LIG d   1      11.884   7.035  -1.800  0.00  0.00     0.028 H 
ATOM     74  H   LIG d   1      12.924   5.655  -1.370  0.00  0.00     0.028 H 
ATOM     75  H   LIG d   1      13.064   6.408  -2.976  0.00  0.00     0.028 H 
ENDBRANCH  66  72
ENDBRANCH  60  62
ENDBRANCH  54  57
ENDBRANCH   1  54
TORSDOF 11
ENDMDL
MODEL 7
REMARK VINA RESULT:      -6.4      4.807      9.299
REMARK  11 active torsions:
REMARK  status: ('A' for Active; 'I' for Inactive)
REMARK    1  A    between atoms: C_1  and  C_2 
REMARK    2  A    between atoms: C_5  and  C_8 
REMARK    3  A    between atoms: C_11  and  C_13 
REMARK    4  A    between atoms: C_13  and  C_14 
REMARK    5  A    between atoms: C_17  and  C_37 
REMARK    6  A    between atoms: C_19  and  C_24 
REMARK    7  A    between atoms: C_22  and  C_23 
REMARK    8  A    between atoms: C_24  and  N_25 
REMARK    9  A    between atoms: N_28  and  C_31 
REMARK   10  A    between atoms: C_37  and  C_38 
REMARK   11  A    between atoms: C_37  and  C_39 
ROOT
ATOM      1  C   LIG d   1       5.310  -2.797  -3.967  0.00  0.00    -0.011 C 
ATOM      2  H   LIG d   1       5.097  -3.733  -3.450  0.00  0.00     0.035 H 
ATOM      3  C   LIG d   1       4.781  -1.627  -3.134  0.00  0.00    -0.042 C 
ATOM      4  C   LIG d   1       5.316  -0.322  -3.738  0.00  0.00    -0.027 C 
ATOM      5  H   LIG d   1       5.092  -0.293  -4.804  0.00  0.00     0.031 H 
ATOM      6  C   LIG d   1       6.831  -0.277  -3.529  0.00  0.00     0.021 C 
ATOM      7  H   LIG d   1       7.046  -0.119  -2.473  0.00  0.00     0.040 H 
ATOM      8  C   LIG d   1       7.453  -1.568  -3.977  0.00  0.00    -0.076 C 
ATOM      9  C   LIG d   1       6.791  -2.661  -4.162  0.00  0.00    -0.072 C 
ATOM     10  H   LIG d   1       3.691  -1.623  -3.159  0.00  0.00     0.027 H 
ATOM     11  H   LIG d   1       5.128  -1.724  -2.105  0.00  0.00     0.027 H 
ATOM     12  H   LIG d   1       8.518  -1.582  -4.154  0.00  0.00     0.058 H 
ENDROOT
BRANCH   6  13
ATOM     13  C   LIG d   1       7.421   0.876  -4.344  0.00  0.00    -0.025 C 
ATOM     14  H   LIG d   1       7.377   0.630  -5.406  0.00  0.00     0.082 H 
ATOM     15  H   LIG d   1       6.847   1.784  -4.157  0.00  0.00     0.082 H 
BRANCH  13  16
ATOM     16  N   LIG d   1       8.819   1.090  -3.948  0.00  0.00     0.238 N 
ATOM     17  C   LIG d   1       9.699   0.788  -5.085  0.00  0.00    -0.016 C 
ATOM     18  C   LIG d   1      11.162   0.900  -4.641  0.00  0.00     0.055 C 
ATOM     19  H   LIG d   1       9.503  -0.224  -5.438  0.00  0.00     0.083 H 
ATOM     20  H   LIG d   1       9.509   1.498  -5.890  0.00  0.00     0.083 H 
ATOM     21  N   LIG d   1      11.368   2.231  -4.049  0.00  0.00    -0.289 N 
ATOM     22  H   LIG d   1      11.816   0.778  -5.504  0.00  0.00     0.052 H 
ATOM     23  H   LIG d   1      11.378   0.132  -3.899  0.00  0.00     0.052 H 
ATOM     24  C   LIG d   1      10.427   2.683  -3.011  0.00  0.00     0.055 C 
ATOM     25  C   LIG d   1       9.000   2.486  -3.532  0.00  0.00    -0.016 C 
ATOM     26  H   LIG d   1      10.598   3.737  -2.797  0.00  0.00     0.052 H 
ATOM     27  H   LIG d   1      10.571   2.094  -2.105  0.00  0.00     0.052 H 
ATOM     28  H   LIG d   1       8.831   3.144  -4.386  0.00  0.00     0.083 H 
ATOM     29  H   LIG d   1       8.288   2.725  -2.742  0.00  0.00     0.083 H 
ATOM     30  H   LIG d   1       9.046   0.480  -3.178  0.00  0.00     0.203 HD
BRANCH  21  31
ATOM     31  C   LIG d   1      12.418   3.035  -4.456  0.00  0.00     0.218 A 
ATOM     32  N   LIG d   1      12.799   4.042  -3.684  0.00  0.00    -0.223 NA
ATOM     33  C   LIG d   1      13.802   4.828  -4.041  0.00  0.00     0.033 A 
ATOM     34  C   LIG d   1      14.449   4.592  -5.244  0.00  0.00    -0.025 A 
ATOM     35  H   LIG d   1      14.109   5.644  -3.405  0.00  0.00     0.083 H 
ATOM     36  C   LIG d   1      14.023   3.533  -6.029  0.00  0.00     0.033 A 
ATOM     37  H   LIG d   1      15.269   5.220  -5.561  0.00  0.00     0.065 H 
ATOM     38  N   LIG d   1      13.016   2.783  -5.611  0.00  0.00    -0.223 NA
ATOM     39  H   LIG d   1      14.507   3.322  -6.971  0.00  0.00     0.083 H 
ENDBRANCH  21  31
ENDBRANCH  13  16
ENDBRANCH   6  13
BRANCH   4  40
ATOM     40  C   LIG d   1       4.660   0.873  -3.042  0.00  0.00    -0.043 C 
ATOM     41  H   LIG d   1       5.217   1.780  -3.275  0.00  0.00     0.030 H 
BRANCH  40  42
ATOM     42  C   LIG d   1       3.218   1.019  -3.530  0.00  0.00    -0.062 C 
ATOM     43  H   LIG d   1       3.215   1.407  -4.549  0.00  0.00     0.023 H 
ATOM     44  H   LIG d   1       2.727   0.047  -3.510  0.00  0.00     0.023 H 
ATOM     45  H   LIG d   1       2.682   1.709  -2.877  0.00  0.00     0.023 H 
ENDBRANCH  40  42
BRANCH  40  46
ATOM     46  C   LIG d   1       4.665   0.647  -1.529  0.00  0.00    -0.062 C 
ATOM     47  H   LIG d   1       4.112  -0.264  -1.296  0.00  0.00     0.023 H 
ATOM     48  H   LIG d   1       5.693   0.547  -1.179  0.00  0.00     0.023 H 
ATOM     49  H   LIG d   1       4.193   1.495  -1.033  0.00  0.00     0.023 H 
ENDBRANCH  40  46
ENDBRANCH   4  40
BRANCH   9  50
ATOM     50  C   LIG d   1       7.561  -3.880  -4.603  0.00  0.00    -0.043 C 
ATOM     51  H   LIG d   1       6.963  -4.448  -5.317  0.00  0.00     0.027 H 
ATOM     52  H   LIG d   1       8.493  -3.570  -5.074  0.00  0.00     0.027 H 
ATOM     53  H   LIG d   1       7.781  -4.503  -3.736  0.00  0.00     0.027 H 
ENDBRANCH   9  50
BRANCH   1  54
ATOM     54  C   LIG d   1       4.617  -2.803  -5.331  0.00  0.00     0.032 C 
ATOM     55  H   LIG d   1       5.076  -2.054  -5.975  0.00  0.00     0.037 H 
ATOM     56  H   LIG d   1       3.559  -2.572  -5.202  0.00  0.00     0.037 H 
BRANCH  54  57
ATOM     57  C   LIG d   1       4.760  -4.164  -5.961  0.00  0.00     0.218 A 
ATOM     58  N   LIG d   1       5.071  -4.409  -7.203  0.00  0.00    -0.112 NA
ATOM     59  N   LIG d   1       5.105  -5.680  -7.396  0.00  0.00    -0.107 NA
ATOM     60  C   LIG d   1       4.816  -6.297  -6.273  0.00  0.00     0.248 A 
ATOM     61  O   LIG d   1       4.587  -5.347  -5.345  0.00  0.00    -0.420 OA
BRANCH  60  62
ATOM     62  C   LIG d   1       4.747  -7.759  -6.067  0.00  0.00     0.038 A 
ATOM     63  C   LIG d   1       4.824  -8.288  -4.778  0.00  0.00    -0.049 A 
ATOM     64  C   LIG d   1       4.758  -9.654  -4.592  0.00  0.00    -0.058 A 
ATOM     65  H   LIG d   1       4.935  -7.631  -3.928  0.00  0.00     0.062 H 
ATOM     66  C   LIG d   1       4.616 -10.497  -5.679  0.00  0.00    -0.050 A 
ATOM     67  H   LIG d   1       4.818 -10.065  -3.595  0.00  0.00     0.062 H 
ATOM     68  C   LIG d   1       4.545  -9.978  -6.959  0.00  0.00    -0.058 A 
ATOM     69  C   LIG d   1       4.603  -8.615  -7.159  0.00  0.00    -0.049 A 
ATOM     70  H   LIG d   1       4.439 -10.643  -7.805  0.00  0.00     0.062 H 
ATOM     71  H   LIG d   1       4.543  -8.211  -8.159  0.00  0.00     0.062 H 
BRANCH  66  72
ATOM     72  C   LIG d   1       4.545 -11.987  -5.468  0.00  0.00    -0.040 C 
ATOM     73  H   LIG d   1       3.574 -12.249  -5.046  0.00  0.00     0.028 H 
ATOM     74  H   LIG d   1       4.677 -12.496  -6.423  0.00  0.00     0.028 H 
ATOM     75  H   LIG d   1       5.334 -12.296  -4.781  0.00  0.00     0.028 H 
ENDBRANCH  66  72
ENDBRANCH  60  62
ENDBRANCH  54  57
ENDBRANCH   1  54
TORSDOF 11
ENDMDL
MODEL 8
REMARK VINA RESULT:      -6.4      4.911     12.746
REMARK  11 active torsions:
REMARK  status: ('A' for Active; 'I' for Inactive)
REMARK    1  A    between atoms: C_1  and  C_2 
REMARK    2  A    between atoms: C_5  and  C_8 
REMARK    3  A    between atoms: C_11  and  C_13 
REMARK    4  A    between atoms: C_13  and  C_14 
REMARK    5  A    between atoms: C_17  and  C_37 
REMARK    6  A    between atoms: C_19  and  C_24 
REMARK    7  A    between atoms: C_22  and  C_23 
REMARK    8  A    between atoms: C_24  and  N_25 
REMARK    9  A    between atoms: N_28  and  C_31 
REMARK   10  A    between atoms: C_37  and  C_38 
REMARK   11  A    between atoms: C_37  and  C_39 
ROOT
ATOM      1  C   LIG d   1       7.219   0.922  -4.778  0.00  0.00    -0.011 C 
ATOM      2  H   LIG d   1       7.039   1.863  -5.296  0.00  0.00     0.035 H 
ATOM      3  C   LIG d   1       5.921   0.451  -4.119  0.00  0.00    -0.042 C 
ATOM      4  C   LIG d   1       6.124  -0.988  -3.623  0.00  0.00    -0.027 C 
ATOM      5  H   LIG d   1       7.021  -1.040  -3.008  0.00  0.00     0.031 H 
ATOM      6  C   LIG d   1       6.280  -1.901  -4.841  0.00  0.00     0.021 C 
ATOM      7  H   LIG d   1       5.322  -1.991  -5.351  0.00  0.00     0.040 H 
ATOM      8  C   LIG d   1       7.297  -1.331  -5.787  0.00  0.00    -0.076 C 
ATOM      9  C   LIG d   1       7.699  -0.105  -5.760  0.00  0.00    -0.072 C 
ATOM     10  H   LIG d   1       5.682   1.098  -3.275  0.00  0.00     0.027 H 
ATOM     11  H   LIG d   1       5.110   0.477  -4.847  0.00  0.00     0.027 H 
ATOM     12  H   LIG d   1       7.716  -1.987  -6.536  0.00  0.00     0.058 H 
ENDROOT
BRANCH   6  13
ATOM     13  C   LIG d   1       6.741  -3.285  -4.380  0.00  0.00    -0.025 C 
ATOM     14  H   LIG d   1       7.831  -3.311  -4.339  0.00  0.00     0.082 H 
ATOM     15  H   LIG d   1       6.335  -3.492  -3.390  0.00  0.00     0.082 H 
BRANCH  13  16
ATOM     16  N   LIG d   1       6.264  -4.301  -5.328  0.00  0.00     0.238 N 
ATOM     17  C   LIG d   1       7.213  -5.421  -5.361  0.00  0.00    -0.016 C 
ATOM     18  C   LIG d   1       6.776  -6.427  -6.432  0.00  0.00     0.055 C 
ATOM     19  H   LIG d   1       8.208  -5.047  -5.599  0.00  0.00     0.083 H 
ATOM     20  H   LIG d   1       7.231  -5.911  -4.387  0.00  0.00     0.083 H 
ATOM     21  N   LIG d   1       5.384  -6.819  -6.163  0.00  0.00    -0.289 N 
ATOM     22  H   LIG d   1       7.419  -7.307  -6.390  0.00  0.00     0.052 H 
ATOM     23  H   LIG d   1       6.843  -5.966  -7.416  0.00  0.00     0.052 H 
ATOM     24  C   LIG d   1       4.392  -5.753  -5.952  0.00  0.00     0.055 C 
ATOM     25  C   LIG d   1       4.941  -4.778  -4.905  0.00  0.00    -0.016 C 
ATOM     26  H   LIG d   1       3.459  -6.187  -5.595  0.00  0.00     0.052 H 
ATOM     27  H   LIG d   1       4.218  -5.224  -6.889  0.00  0.00     0.052 H 
ATOM     28  H   LIG d   1       5.029  -5.289  -3.945  0.00  0.00     0.083 H 
ATOM     29  H   LIG d   1       4.263  -3.931  -4.806  0.00  0.00     0.083 H 
ATOM     30  H   LIG d   1       6.193  -3.894  -6.248  0.00  0.00     0.203 HD
BRANCH  21  31
ATOM     31  C   LIG d   1       5.018  -8.152  -6.110  0.00  0.00     0.218 A 
ATOM     32  N   LIG d   1       4.971  -8.856  -7.231  0.00  0.00    -0.223 NA
ATOM     33  C   LIG d   1       4.629 -10.134  -7.215  0.00  0.00     0.033 A 
ATOM     34  C   LIG d   1       4.309 -10.732  -6.006  0.00  0.00    -0.025 A 
ATOM     35  H   LIG d   1       4.598 -10.702  -8.132  0.00  0.00     0.083 H 
ATOM     36  C   LIG d   1       4.364  -9.966  -4.852  0.00  0.00     0.033 A 
ATOM     37  H   LIG d   1       4.023 -11.773  -5.965  0.00  0.00     0.065 H 
ATOM     38  N   LIG d   1       4.718  -8.694  -4.938  0.00  0.00    -0.223 NA
ATOM     39  H   LIG d   1       4.121 -10.402  -3.895  0.00  0.00     0.083 H 
ENDBRANCH  21  31
ENDBRANCH  13  16
ENDBRANCH   6  13
BRANCH   4  40
ATOM     40  C   LIG d   1       4.910  -1.424  -2.800  0.00  0.00    -0.043 C 
ATOM     41  H   LIG d   1       5.124  -2.373  -2.311  0.00  0.00     0.030 H 
BRANCH  40  42
ATOM     42  C   LIG d   1       4.602  -0.362  -1.743  0.00  0.00    -0.062 C 
ATOM     43  H   LIG d   1       5.100  -0.623  -0.809  0.00  0.00     0.023 H 
ATOM     44  H   LIG d   1       4.960   0.608  -2.087  0.00  0.00     0.023 H 
ATOM     45  H   LIG d   1       3.525  -0.313  -1.580  0.00  0.00     0.023 H 
ENDBRANCH  40  42
BRANCH  40  46
ATOM     46  C   LIG d   1       3.700  -1.588  -3.723  0.00  0.00    -0.062 C 
ATOM     47  H   LIG d   1       2.892  -0.941  -3.381  0.00  0.00     0.023 H 
ATOM     48  H   LIG d   1       3.979  -1.314  -4.741  0.00  0.00     0.023 H 
ATOM     49  H   LIG d   1       3.367  -2.626  -3.705  0.00  0.00     0.023 H 
ENDBRANCH  40  46
ENDBRANCH   4  40
BRANCH   9  50
ATOM     50  C   LIG d   1       8.720   0.321  -6.785  0.00  0.00    -0.043 C 
ATOM     51  H   LIG d   1       9.692   0.435  -6.305  0.00  0.00     0.027 H 
ATOM     52  H   LIG d   1       8.787  -0.435  -7.567  0.00  0.00     0.027 H 
ATOM     53  H   LIG d   1       8.418   1.272  -7.225  0.00  0.00     0.027 H 
ENDBRANCH   9  50
BRANCH   1  54
ATOM     54  C   LIG d   1       8.287   1.133  -3.702  0.00  0.00     0.032 C 
ATOM     55  H   LIG d   1       9.081   0.398  -3.829  0.00  0.00     0.037 H 
ATOM     56  H   LIG d   1       7.837   1.014  -2.715  0.00  0.00     0.037 H 
BRANCH  54  57
ATOM     57  C   LIG d   1       8.860   2.521  -3.829  0.00  0.00     0.218 A 
ATOM     58  N   LIG d   1       9.623   3.121  -2.960  0.00  0.00    -0.112 NA
ATOM     59  N   LIG d   1       9.928   4.294  -3.392  0.00  0.00    -0.107 NA
ATOM     60  C   LIG d   1       9.365   4.484  -4.562  0.00  0.00     0.248 A 
ATOM     61  O   LIG d   1       8.673   3.366  -4.858  0.00  0.00    -0.420 OA
BRANCH  60  62
ATOM     62  C   LIG d   1       9.463   5.700  -5.397  0.00  0.00     0.038 A 
ATOM     63  C   LIG d   1       9.836   5.600  -6.738  0.00  0.00    -0.049 A 
ATOM     64  C   LIG d   1       9.926   6.739  -7.512  0.00  0.00    -0.058 A 
ATOM     65  H   LIG d   1      10.054   4.635  -7.169  0.00  0.00     0.062 H 
ATOM     66  C   LIG d   1       9.647   7.977  -6.962  0.00  0.00    -0.050 A 
ATOM     67  H   LIG d   1      10.215   6.664  -8.550  0.00  0.00     0.062 H 
ATOM     68  C   LIG d   1       9.282   8.083  -5.631  0.00  0.00    -0.058 A 
ATOM     69  C   LIG d   1       9.183   6.952  -4.848  0.00  0.00    -0.049 A 
ATOM     70  H   LIG d   1       9.071   9.054  -5.206  0.00  0.00     0.062 H 
ATOM     71  H   LIG d   1       8.894   7.035  -3.810  0.00  0.00     0.062 H 
BRANCH  66  72
ATOM     72  C   LIG d   1       9.748   9.216  -7.813  0.00  0.00    -0.040 C 
ATOM     73  H   LIG d   1       9.839   8.931  -8.861  0.00  0.00     0.028 H 
ATOM     74  H   LIG d   1       8.852   9.823  -7.678  0.00  0.00     0.028 H 
ATOM     75  H   LIG d   1      10.625   9.792  -7.515  0.00  0.00     0.028 H 
ENDBRANCH  66  72
ENDBRANCH  60  62
ENDBRANCH  54  57
ENDBRANCH   1  54
TORSDOF 11
ENDMDL
MODEL 9
REMARK VINA RESULT:      -6.4      5.297      9.861
REMARK  11 active torsions:
REMARK  status: ('A' for Active; 'I' for Inactive)
REMARK    1  A    between atoms: C_1  and  C_2 
REMARK    2  A    between atoms: C_5  and  C_8 
REMARK    3  A    between atoms: C_11  and  C_13 
REMARK    4  A    between atoms: C_13  and  C_14 
REMARK    5  A    between atoms: C_17  and  C_37 
REMARK    6  A    between atoms: C_19  and  C_24 
REMARK    7  A    between atoms: C_22  and  C_23 
REMARK    8  A    between atoms: C_24  and  N_25 
REMARK    9  A    between atoms: N_28  and  C_31 
REMARK   10  A    between atoms: C_37  and  C_38 
REMARK   11  A    between atoms: C_37  and  C_39 
ROOT
ATOM      1  C   LIG d   1       5.213  -3.596  -4.582  0.00  0.00    -0.011 C 
ATOM      2  H   LIG d   1       5.161  -4.389  -3.838  0.00  0.00     0.035 H 
ATOM      3  C   LIG d   1       4.365  -2.409  -4.118  0.00  0.00    -0.042 C 
ATOM      4  C   LIG d   1       4.657  -1.216  -5.037  0.00  0.00    -0.027 C 
ATOM      5  H   LIG d   1       4.534  -1.516  -6.077  0.00  0.00     0.031 H 
ATOM      6  C   LIG d   1       6.099  -0.763  -4.798  0.00  0.00     0.021 C 
ATOM      7  H   LIG d   1       6.174  -0.293  -3.819  0.00  0.00     0.040 H 
ATOM      8  C   LIG d   1       7.027  -1.942  -4.857  0.00  0.00    -0.076 C 
ATOM      9  C   LIG d   1       6.640  -3.170  -4.758  0.00  0.00    -0.072 C 
ATOM     10  H   LIG d   1       3.308  -2.668  -4.178  0.00  0.00     0.027 H 
ATOM     11  H   LIG d   1       4.625  -2.153  -3.091  0.00  0.00     0.027 H 
ATOM     12  H   LIG d   1       8.082  -1.750  -4.988  0.00  0.00     0.058 H 
ENDROOT
BRANCH   6  13
ATOM     13  C   LIG d   1       6.499   0.246  -5.877  0.00  0.00    -0.025 C 
ATOM     14  H   LIG d   1       6.710  -0.281  -6.808  0.00  0.00     0.082 H 
ATOM     15  H   LIG d   1       5.682   0.950  -6.035  0.00  0.00     0.082 H 
BRANCH  13  16
ATOM     16  N   LIG d   1       7.698   0.976  -5.444  0.00  0.00     0.238 N 
ATOM     17  C   LIG d   1       8.048   1.981  -6.456  0.00  0.00    -0.016 C 
ATOM     18  C   LIG d   1       9.362   2.665  -6.062  0.00  0.00     0.055 C 
ATOM     19  H   LIG d   1       8.167   1.495  -7.424  0.00  0.00     0.083 H 
ATOM     20  H   LIG d   1       7.255   2.727  -6.518  0.00  0.00     0.083 H 
ATOM     21  N   LIG d   1       9.219   3.199  -4.700  0.00  0.00    -0.289 N 
ATOM     22  H   LIG d   1       9.573   3.479  -6.755  0.00  0.00     0.052 H 
ATOM     23  H   LIG d   1      10.174   1.938  -6.087  0.00  0.00     0.052 H 
ATOM     24  C   LIG d   1       8.714   2.299  -3.650  0.00  0.00     0.055 C 
ATOM     25  C   LIG d   1       7.431   1.633  -4.159  0.00  0.00    -0.016 C 
ATOM     26  H   LIG d   1       8.498   2.872  -2.749  0.00  0.00     0.052 H 
ATOM     27  H   LIG d   1       9.461   1.536  -3.432  0.00  0.00     0.052 H 
ATOM     28  H   LIG d   1       6.657   2.389  -4.291  0.00  0.00     0.083 H 
ATOM     29  H   LIG d   1       7.096   0.891  -3.434  0.00  0.00     0.083 H 
ATOM     30  H   LIG d   1       8.464   0.328  -5.336  0.00  0.00     0.203 HD
BRANCH  21  31
ATOM     31  C   LIG d   1       9.549   4.512  -4.412  0.00  0.00     0.218 A 
ATOM     32  N   LIG d   1       9.670   5.381  -5.404  0.00  0.00    -0.223 NA
ATOM     33  C   LIG d   1       9.981   6.645  -5.164  0.00  0.00     0.033 A 
ATOM     34  C   LIG d   1      10.190   7.052  -3.856  0.00  0.00    -0.025 A 
ATOM     35  H   LIG d   1      10.073   7.348  -5.977  0.00  0.00     0.083 H 
ATOM     36  C   LIG d   1      10.059   6.116  -2.842  0.00  0.00     0.033 A 
ATOM     37  H   LIG d   1      10.447   8.076  -3.631  0.00  0.00     0.065 H 
ATOM     38  N   LIG d   1       9.742   4.869  -3.150  0.00  0.00    -0.223 NA
ATOM     39  H   LIG d   1      10.215   6.401  -1.812  0.00  0.00     0.083 H 
ENDBRANCH  21  31
ENDBRANCH  13  16
ENDBRANCH   6  13
BRANCH   4  40
ATOM     40  C   LIG d   1       3.694  -0.071  -4.714  0.00  0.00    -0.043 C 
ATOM     41  H   LIG d   1       4.264   0.820  -4.449  0.00  0.00     0.030 H 
BRANCH  40  42
ATOM     42  C   LIG d   1       2.825   0.225  -5.938  0.00  0.00    -0.062 C 
ATOM     43  H   LIG d   1       2.508  -0.714  -6.394  0.00  0.00     0.023 H 
ATOM     44  H   LIG d   1       1.948   0.794  -5.632  0.00  0.00     0.023 H 
ATOM     45  H   LIG d   1       3.399   0.805  -6.660  0.00  0.00     0.023 H 
ENDBRANCH  40  42
BRANCH  40  46
ATOM     46  C   LIG d   1       2.800  -0.472  -3.539  0.00  0.00    -0.062 C 
ATOM     47  H   LIG d   1       1.756  -0.300  -3.803  0.00  0.00     0.023 H 
ATOM     48  H   LIG d   1       2.948  -1.528  -3.314  0.00  0.00     0.023 H 
ATOM     49  H   LIG d   1       3.057   0.126  -2.665  0.00  0.00     0.023 H 
ENDBRANCH  40  46
ENDBRANCH   4  40
BRANCH   9  50
ATOM     50  C   LIG d   1       7.695  -4.245  -4.825  0.00  0.00    -0.043 C 
ATOM     51  H   LIG d   1       8.527  -3.900  -5.441  0.00  0.00     0.027 H 
ATOM     52  H   LIG d   1       8.053  -4.465  -3.820  0.00  0.00     0.027 H 
ATOM     53  H   LIG d   1       7.267  -5.146  -5.265  0.00  0.00     0.027 H 
ENDBRANCH   9  50
BRANCH   1  54
ATOM     54  C   LIG d   1       4.670  -4.116  -5.915  0.00  0.00     0.032 C 
ATOM     55  H   LIG d   1       5.305  -3.764  -6.728  0.00  0.00     0.037 H 
ATOM     56  H   LIG d   1       3.654  -3.747  -6.063  0.00  0.00     0.037 H 
BRANCH  54  57
ATOM     57  C   LIG d   1       4.660  -5.622  -5.900  0.00  0.00     0.218 A 
ATOM     58  N   LIG d   1       3.925  -6.395  -6.649  0.00  0.00    -0.112 NA
ATOM     59  N   LIG d   1       4.173  -7.627  -6.371  0.00  0.00    -0.107 NA
ATOM     60  C   LIG d   1       5.084  -7.682  -5.427  0.00  0.00     0.248 A 
ATOM     61  O   LIG d   1       5.405  -6.413  -5.107  0.00  0.00    -0.420 OA
BRANCH  60  62
ATOM     62  C   LIG d   1       5.646  -8.908  -4.821  0.00  0.00     0.038 A 
ATOM     63  C   LIG d   1       6.992  -8.952  -4.452  0.00  0.00    -0.049 A 
ATOM     64  C   LIG d   1       7.511 -10.099  -3.887  0.00  0.00    -0.058 A 
ATOM     65  H   LIG d   1       7.626  -8.092  -4.610  0.00  0.00     0.062 H 
ATOM     66  C   LIG d   1       6.702 -11.202  -3.685  0.00  0.00    -0.050 A 
ATOM     67  H   LIG d   1       8.553 -10.135  -3.602  0.00  0.00     0.062 H 
ATOM     68  C   LIG d   1       5.368 -11.165  -4.053  0.00  0.00    -0.058 A 
ATOM     69  C   LIG d   1       4.835 -10.024  -4.613  0.00  0.00    -0.049 A 
ATOM     70  H   LIG d   1       4.743 -12.032  -3.897  0.00  0.00     0.062 H 
ATOM     71  H   LIG d   1       3.793  -9.995  -4.897  0.00  0.00     0.062 H 
BRANCH  66  72
ATOM     72  C   LIG d   1       7.276 -12.450  -3.067  0.00  0.00    -0.040 C 
ATOM     73  H   LIG d   1       7.694 -13.084  -3.850  0.00  0.00     0.028 H 
ATOM     74  H   LIG d   1       8.059 -12.179  -2.360  0.00  0.00     0.028 H 
ATOM     75  H   LIG d   1       6.487 -12.993  -2.544  0.00  0.00     0.028 H 
ENDBRANCH  66  72
ENDBRANCH  60  62
ENDBRANCH  54  57
ENDBRANCH   1  54
TORSDOF 11
ENDMDL
MODEL 10
REMARK VINA RESULT:      -6.3      2.335      9.318
REMARK  11 active torsions:
REMARK  status: ('A' for Active; 'I' for Inactive)
REMARK    1  A    between atoms: C_1  and  C_2 
REMARK    2  A    between atoms: C_5  and  C_8 
REMARK    3  A    between atoms: C_11  and  C_13 
REMARK    4  A    between atoms: C_13  and  C_14 
REMARK    5  A    between atoms: C_17  and  C_37 
REMARK    6  A    between atoms: C_19  and  C_24 
REMARK    7  A    between atoms: C_22  and  C_23 
REMARK    8  A    between atoms: C_24  and  N_25 
REMARK    9  A    between atoms: N_28  and  C_31 
REMARK   10  A    between atoms: C_37  and  C_38 
REMARK   11  A    between atoms: C_37  and  C_39 
ROOT
ATOM      1  C   LIG d   1      11.860   3.883  -3.499  0.00  0.00    -0.011 C 
ATOM      2  H   LIG d   1      12.873   4.036  -3.126  0.00  0.00     0.035 H 
ATOM      3  C   LIG d   1      11.502   5.011  -4.469  0.00  0.00    -0.042 C 
ATOM      4  C   LIG d   1      10.192   4.643  -5.178  0.00  0.00    -0.027 C 
ATOM      5  H   LIG d   1       9.435   4.387  -4.438  0.00  0.00     0.031 H 
ATOM      6  C   LIG d   1      10.455   3.438  -6.084  0.00  0.00     0.021 C 
ATOM      7  H   LIG d   1      11.068   3.748  -6.929  0.00  0.00     0.040 H 
ATOM      8  C   LIG d   1      11.170   2.362  -5.319  0.00  0.00    -0.076 C 
ATOM      9  C   LIG d   1      11.782   2.559  -4.199  0.00  0.00    -0.072 C 
ATOM     10  H   LIG d   1      11.371   5.941  -3.916  0.00  0.00     0.027 H 
ATOM     11  H   LIG d   1      12.298   5.127  -5.205  0.00  0.00     0.027 H 
ATOM     12  H   LIG d   1      11.171   1.364  -5.731  0.00  0.00     0.058 H 
ENDROOT
BRANCH   6  13
ATOM     13  C   LIG d   1       9.123   2.890  -6.598  0.00  0.00    -0.025 C 
ATOM     14  H   LIG d   1       8.382   3.690  -6.614  0.00  0.00     0.082 H 
ATOM     15  H   LIG d   1       9.256   2.499  -7.608  0.00  0.00     0.082 H 
BRANCH  13  16
ATOM     16  N   LIG d   1       8.662   1.813  -5.713  0.00  0.00     0.238 N 
ATOM     17  C   LIG d   1       7.942   2.394  -4.572  0.00  0.00    -0.016 C 
ATOM     18  C   LIG d   1       7.561   1.282  -3.589  0.00  0.00     0.055 C 
ATOM     19  H   LIG d   1       8.583   3.119  -4.069  0.00  0.00     0.083 H 
ATOM     20  H   LIG d   1       7.039   2.891  -4.927  0.00  0.00     0.083 H 
ATOM     21  N   LIG d   1       6.808   0.252  -4.321  0.00  0.00    -0.289 N 
ATOM     22  H   LIG d   1       6.939   1.693  -2.794  0.00  0.00     0.052 H 
ATOM     23  H   LIG d   1       8.463   0.843  -3.165  0.00  0.00     0.052 H 
ATOM     24  C   LIG d   1       7.382  -0.272  -5.571  0.00  0.00     0.055 C 
ATOM     25  C   LIG d   1       7.773   0.914  -6.459  0.00  0.00    -0.016 C 
ATOM     26  H   LIG d   1       6.644  -0.887  -6.084  0.00  0.00     0.052 H 
ATOM     27  H   LIG d   1       8.267  -0.867  -5.346  0.00  0.00     0.052 H 
ATOM     28  H   LIG d   1       6.875   1.457  -6.757  0.00  0.00     0.083 H 
ATOM     29  H   LIG d   1       8.288   0.549  -7.348  0.00  0.00     0.083 H 
ATOM     30  H   LIG d   1       9.458   1.292  -5.377  0.00  0.00     0.203 HD
BRANCH  21  31
ATOM     31  C   LIG d   1       5.593  -0.212  -3.848  0.00  0.00     0.218 A 
ATOM     32  N   LIG d   1       5.578  -1.178  -2.942  0.00  0.00    -0.223 NA
ATOM     33  C   LIG d   1       4.434  -1.642  -2.465  0.00  0.00     0.033 A 
ATOM     34  C   LIG d   1       3.242  -1.111  -2.934  0.00  0.00    -0.025 A 
ATOM     35  H   LIG d   1       4.429  -2.427  -1.724  0.00  0.00     0.083 H 
ATOM     36  C   LIG d   1       3.294  -0.104  -3.885  0.00  0.00     0.033 A 
ATOM     37  H   LIG d   1       2.294  -1.473  -2.564  0.00  0.00     0.065 H 
ATOM     38  N   LIG d   1       4.472   0.317  -4.316  0.00  0.00    -0.223 NA
ATOM     39  H   LIG d   1       2.384   0.332  -4.269  0.00  0.00     0.083 H 
ENDBRANCH  21  31
ENDBRANCH  13  16
ENDBRANCH   6  13
BRANCH   4  40
ATOM     40  C   LIG d   1       9.712   5.828  -6.018  0.00  0.00    -0.043 C 
ATOM     41  H   LIG d   1       8.829   5.537  -6.587  0.00  0.00     0.030 H 
BRANCH  40  42
ATOM     42  C   LIG d   1       9.362   6.998  -5.096  0.00  0.00    -0.062 C 
ATOM     43  H   LIG d   1       8.951   7.817  -5.687  0.00  0.00     0.023 H 
ATOM     44  H   LIG d   1       8.625   6.675  -4.362  0.00  0.00     0.023 H 
ATOM     45  H   LIG d   1      10.261   7.337  -4.582  0.00  0.00     0.023 H 
ENDBRANCH  40  42
BRANCH  40  46
ATOM     46  C   LIG d   1      10.822   6.254  -6.981  0.00  0.00    -0.062 C 
ATOM     47  H   LIG d   1      10.386   6.801  -7.818  0.00  0.00     0.023 H 
ATOM     48  H   LIG d   1      11.531   6.895  -6.458  0.00  0.00     0.023 H 
ATOM     49  H   LIG d   1      11.338   5.370  -7.355  0.00  0.00     0.023 H 
ENDBRANCH  40  46
ENDBRANCH   4  40
BRANCH   9  50
ATOM     50  C   LIG d   1      12.463   1.378  -3.556  0.00  0.00    -0.043 C 
ATOM     51  H   LIG d   1      13.261   1.731  -2.901  0.00  0.00     0.027 H 
ATOM     52  H   LIG d   1      11.737   0.813  -2.972  0.00  0.00     0.027 H 
ATOM     53  H   LIG d   1      12.885   0.736  -4.329  0.00  0.00     0.027 H 
ENDBRANCH   9  50
BRANCH   1  54
ATOM     54  C   LIG d   1      10.880   3.894  -2.324  0.00  0.00     0.032 C 
ATOM     55  H   LIG d   1      10.961   2.956  -1.775  0.00  0.00     0.037 H 
ATOM     56  H   LIG d   1       9.863   4.008  -2.699  0.00  0.00     0.037 H 
BRANCH  54  57
ATOM     57  C   LIG d   1      11.210   5.043  -1.406  0.00  0.00     0.218 A 
ATOM     58  N   LIG d   1      12.057   5.020  -0.417  0.00  0.00    -0.112 NA
ATOM     59  N   LIG d   1      12.089   6.174   0.151  0.00  0.00    -0.107 NA
ATOM     60  C   LIG d   1      11.254   6.981  -0.463  0.00  0.00     0.248 A 
ATOM     61  O   LIG d   1      10.678   6.278  -1.458  0.00  0.00    -0.420 OA
BRANCH  60  62
ATOM     62  C   LIG d   1      10.990   8.395  -0.123  0.00  0.00     0.038 A 
ATOM     63  C   LIG d   1      11.726   9.022   0.885  0.00  0.00    -0.049 A 
ATOM     64  C   LIG d   1      11.475  10.342   1.198  0.00  0.00    -0.058 A 
ATOM     65  H   LIG d   1      12.488   8.475   1.419  0.00  0.00     0.062 H 
ATOM     66  C   LIG d   1      10.498  11.044   0.515  0.00  0.00    -0.050 A 
ATOM     67  H   LIG d   1      12.043  10.829   1.977  0.00  0.00     0.062 H 
ATOM     68  C   LIG d   1       9.763  10.427  -0.481  0.00  0.00    -0.058 A 
ATOM     69  C   LIG d   1      10.007   9.110  -0.808  0.00  0.00    -0.049 A 
ATOM     70  H   LIG d   1       8.998  10.980  -1.008  0.00  0.00     0.062 H 
ATOM     71  H   LIG d   1       9.435   8.630  -1.589  0.00  0.00     0.062 H 
BRANCH  66  72
ATOM     72  C   LIG d   1      10.230  12.486   0.862  0.00  0.00    -0.040 C 
ATOM     73  H   LIG d   1      10.549  13.124   0.037  0.00  0.00     0.028 H 
ATOM     74  H   LIG d   1       9.164  12.625   1.038  0.00  0.00     0.028 H 
ATOM     75  H   LIG d   1      10.785  12.753   1.762  0.00  0.00     0.028 H 
ENDBRANCH  66  72
ENDBRANCH  60  62
ENDBRANCH  54  57
ENDBRANCH   1  54
TORSDOF 11
ENDMDL
