MODEL 1
REMARK VINA RESULT:      -6.0      0.000      0.000
REMARK  11 active torsions:
REMARK  status: ('A' for Active; 'I' for Inactive)
REMARK    1  A    between atoms: C_1  and  C_2 
REMARK    2  A    between atoms: C_3  and  C_12 
REMARK    3  A    between atoms: C_4  and  C_10 
REMARK    4  A    between atoms: C_4  and  C_11 
REMARK    5  A    between atoms: C_6  and  O_9 
REMARK    6  A    between atoms: C_13  and  C_14 
REMARK    7  A    between atoms: C_14  and  C_23 
REMARK    8  A    between atoms: C_15  and  C_16 
REMARK    9  A    between atoms: C_17  and  C_18 
REMARK   10  A    between atoms: C_18  and  C_22 
REMARK   11  A    between atoms: C_19  and  C_20 
ROOT
ATOM      1  C   LIG d   1       2.718  -0.849 -10.017  0.00  0.00    -0.067 C 
ATOM      2  C   LIG d   1       3.148   0.100  -9.203  0.00  0.00    -0.043 C 
ATOM      3  C   LIG d   1       3.992   1.259  -9.645  0.00  0.00    -0.008 C 
ATOM      4  C   LIG d   1       3.918   1.415 -11.165  0.00  0.00    -0.017 C 
ATOM      5  C   LIG d   1       4.187   0.049 -11.809  0.00  0.00     0.060 C 
ATOM      6  H   LIG d   1       5.109  -0.371 -11.404  0.00  0.00     0.060 H 
ATOM      7  C   LIG d   1       3.019  -0.882 -11.488  0.00  0.00    -0.005 C 
ATOM      8  H   LIG d   1       2.925   1.763 -11.449  0.00  0.00     0.030 H 
ATOM      9  H   LIG d   1       4.670   2.131 -11.497  0.00  0.00     0.030 H 
ATOM     10  H   LIG d   1       3.276  -1.901 -11.781  0.00  0.00     0.034 H 
ATOM     11  H   LIG d   1       2.140  -0.559 -12.045  0.00  0.00     0.034 H 
ENDROOT
BRANCH   2  12
ATOM     12  C   LIG d   1       2.791   0.018  -7.833  0.00  0.00    -0.058 C 
ATOM     13  C   LIG d   1       3.694  -0.431  -6.921  0.00  0.00    -0.059 C 
ATOM     14  H   LIG d   1       4.669  -0.767  -7.246  0.00  0.00     0.062 H 
ATOM     15  H   LIG d   1       1.802   0.312  -7.514  0.00  0.00     0.062 H 
BRANCH  13  16
ATOM     16  C   LIG d   1       3.360  -0.459  -5.556  0.00  0.00    -0.050 C 
ATOM     17  C   LIG d   1       3.890  -1.419  -4.743  0.00  0.00    -0.059 C 
ATOM     18  H   LIG d   1       4.566  -2.158  -5.149  0.00  0.00     0.062 H 
BRANCH  17  19
ATOM     19  C   LIG d   1       3.558  -1.446  -3.382  0.00  0.00    -0.061 C 
ATOM     20  C   LIG d   1       4.407  -0.883  -2.454  0.00  0.00    -0.059 C 
ATOM     21  H   LIG d   1       4.103  -0.807  -1.421  0.00  0.00     0.062 H 
ATOM     22  H   LIG d   1       2.636  -1.908  -3.061  0.00  0.00     0.062 H 
BRANCH  20  23
ATOM     23  C   LIG d   1       5.663  -0.413  -2.851  0.00  0.00    -0.047 C 
ATOM     24  C   LIG d   1       5.864   0.937  -3.049  0.00  0.00    -0.019 C 
ATOM     25  H   LIG d   1       5.051   1.631  -2.898  0.00  0.00     0.065 H 
BRANCH  24  26
ATOM     26  C   LIG d   1       7.120   1.405  -3.446  0.00  0.00     0.143 C 
ATOM     27  O   LIG d   1       7.293   1.790  -4.587  0.00  0.00    -0.296 OA
ATOM     28  H   LIG d   1       7.936   1.426  -2.739  0.00  0.00     0.107 H 
ENDBRANCH  24  26
BRANCH  23  29
ATOM     29  C   LIG d   1       6.798  -1.383  -3.062  0.00  0.00    -0.040 C 
ATOM     30  H   LIG d   1       7.094  -1.809  -2.104  0.00  0.00     0.028 H 
ATOM     31  H   LIG d   1       6.473  -2.181  -3.730  0.00  0.00     0.028 H 
ATOM     32  H   LIG d   1       7.644  -0.860  -3.506  0.00  0.00     0.028 H 
ENDBRANCH  23  29
ENDBRANCH  20  23
ENDBRANCH  17  19
BRANCH  16  33
ATOM     33  C   LIG d   1       2.418   0.573  -4.990  0.00  0.00    -0.040 C 
ATOM     34  H   LIG d   1       2.663   1.552  -5.400  0.00  0.00     0.028 H 
ATOM     35  H   LIG d   1       1.394   0.313  -5.258  0.00  0.00     0.028 H 
ATOM     36  H   LIG d   1       2.516   0.598  -3.905  0.00  0.00     0.028 H 
ENDBRANCH  16  33
ENDBRANCH  13  16
ENDBRANCH   2  12
BRANCH   1  37
ATOM     37  C   LIG d   1       1.883  -1.961  -9.437  0.00  0.00    -0.043 C 
ATOM     38  H   LIG d   1       1.935  -1.925  -8.349  0.00  0.00     0.028 H 
ATOM     39  H   LIG d   1       0.847  -1.841  -9.755  0.00  0.00     0.028 H 
ATOM     40  H   LIG d   1       2.262  -2.921  -9.788  0.00  0.00     0.028 H 
ENDBRANCH   1  37
BRANCH   3  41
ATOM     41  C   LIG d   1       3.487   2.540  -8.978  0.00  0.00    -0.056 C 
ATOM     42  H   LIG d   1       4.070   2.735  -8.078  0.00  0.00     0.024 H 
ATOM     43  H   LIG d   1       3.594   3.375  -9.669  0.00  0.00     0.024 H 
ATOM     44  H   LIG d   1       2.437   2.420  -8.712  0.00  0.00     0.024 H 
ENDBRANCH   3  41
BRANCH   3  45
ATOM     45  C   LIG d   1       5.446   1.014  -9.231  0.00  0.00    -0.056 C 
ATOM     46  H   LIG d   1       5.876   1.939  -8.848  0.00  0.00     0.024 H 
ATOM     47  H   LIG d   1       5.478   0.249  -8.455  0.00  0.00     0.024 H 
ATOM     48  H   LIG d   1       6.018   0.677 -10.095  0.00  0.00     0.024 H 
ENDBRANCH   3  45
BRANCH   5  49
ATOM     49  O   LIG d   1       4.311   0.202 -13.225  0.00  0.00    -0.391 OA
ATOM     50  H   LIG d   1       3.799  -0.440 -13.735  0.00  0.00     0.210 HD
ENDBRANCH   5  49
TORSDOF 11
ENDMDL
MODEL 2
REMARK VINA RESULT:      -5.9      1.573      2.059
REMARK  11 active torsions:
REMARK  status: ('A' for Active; 'I' for Inactive)
REMARK    1  A    between atoms: C_1  and  C_2 
REMARK    2  A    between atoms: C_3  and  C_12 
REMARK    3  A    between atoms: C_4  and  C_10 
REMARK    4  A    between atoms: C_4  and  C_11 
REMARK    5  A    between atoms: C_6  and  O_9 
REMARK    6  A    between atoms: C_13  and  C_14 
REMARK    7  A    between atoms: C_14  and  C_23 
REMARK    8  A    between atoms: C_15  and  C_16 
REMARK    9  A    between atoms: C_17  and  C_18 
REMARK   10  A    between atoms: C_18  and  C_22 
REMARK   11  A    between atoms: C_19  and  C_20 
ROOT
ATOM      1  C   LIG d   1       3.844  -1.213  -8.701  0.00  0.00    -0.067 C 
ATOM      2  C   LIG d   1       3.834  -0.005  -8.165  0.00  0.00    -0.043 C 
ATOM      3  C   LIG d   1       3.757   1.262  -8.965  0.00  0.00    -0.008 C 
ATOM      4  C   LIG d   1       3.273   0.959 -10.384  0.00  0.00    -0.017 C 
ATOM      5  C   LIG d   1       4.112  -0.193 -10.951  0.00  0.00     0.060 C 
ATOM      6  H   LIG d   1       5.172   0.034 -10.834  0.00  0.00     0.060 H 
ATOM      7  C   LIG d   1       3.776  -1.468 -10.178  0.00  0.00    -0.005 C 
ATOM      8  H   LIG d   1       2.223   0.668 -10.358  0.00  0.00     0.030 H 
ATOM      9  H   LIG d   1       3.395   1.843 -11.010  0.00  0.00     0.030 H 
ATOM     10  H   LIG d   1       4.487  -2.251 -10.444  0.00  0.00     0.034 H 
ATOM     11  H   LIG d   1       2.769  -1.793 -10.444  0.00  0.00     0.034 H 
ENDROOT
BRANCH   2  12
ATOM     12  C   LIG d   1       3.900   0.101  -6.752  0.00  0.00    -0.058 C 
ATOM     13  C   LIG d   1       2.760   0.260  -6.029  0.00  0.00    -0.059 C 
ATOM     14  H   LIG d   1       1.808   0.350  -6.533  0.00  0.00     0.062 H 
ATOM     15  H   LIG d   1       4.855   0.055  -6.251  0.00  0.00     0.062 H 
BRANCH  13  16
ATOM     16  C   LIG d   1       2.819   0.308  -4.625  0.00  0.00    -0.050 C 
ATOM     17  C   LIG d   1       3.452   1.345  -4.004  0.00  0.00    -0.059 C 
ATOM     18  H   LIG d   1       3.909   2.129  -4.590  0.00  0.00     0.062 H 
BRANCH  17  19
ATOM     19  C   LIG d   1       3.510   1.393  -2.604  0.00  0.00    -0.061 C 
ATOM     20  C   LIG d   1       4.630   0.935  -1.945  0.00  0.00    -0.059 C 
ATOM     21  H   LIG d   1       4.722   1.071  -0.878  0.00  0.00     0.062 H 
ATOM     22  H   LIG d   1       2.678   1.790  -2.043  0.00  0.00     0.062 H 
BRANCH  20  23
ATOM     23  C   LIG d   1       5.647   0.292  -2.659  0.00  0.00    -0.047 C 
ATOM     24  C   LIG d   1       5.691  -1.086  -2.710  0.00  0.00    -0.019 C 
ATOM     25  H   LIG d   1       4.938  -1.668  -2.198  0.00  0.00     0.065 H 
BRANCH  24  26
ATOM     26  C   LIG d   1       6.707  -1.727  -3.423  0.00  0.00     0.143 C 
ATOM     27  O   LIG d   1       6.466  -2.746  -4.043  0.00  0.00    -0.296 OA
ATOM     28  H   LIG d   1       7.707  -1.318  -3.425  0.00  0.00     0.107 H 
ENDBRANCH  24  26
BRANCH  23  29
ATOM     29  C   LIG d   1       6.697   1.106  -3.372  0.00  0.00    -0.040 C 
ATOM     30  H   LIG d   1       6.214   1.802  -4.057  0.00  0.00     0.028 H 
ATOM     31  H   LIG d   1       7.283   1.663  -2.641  0.00  0.00     0.028 H 
ATOM     32  H   LIG d   1       7.353   0.440  -3.932  0.00  0.00     0.028 H 
ENDBRANCH  23  29
ENDBRANCH  20  23
ENDBRANCH  17  19
BRANCH  16  33
ATOM     33  C   LIG d   1       2.182  -0.786  -3.807  0.00  0.00    -0.040 C 
ATOM     34  H   LIG d   1       2.543  -0.729  -2.780  0.00  0.00     0.028 H 
ATOM     35  H   LIG d   1       1.099  -0.662  -3.818  0.00  0.00     0.028 H 
ATOM     36  H   LIG d   1       2.442  -1.756  -4.231  0.00  0.00     0.028 H 
ENDBRANCH  16  33
ENDBRANCH  13  16
ENDBRANCH   2  12
BRANCH   1  37
ATOM     37  C   LIG d   1       3.933  -2.401  -7.777  0.00  0.00    -0.043 C 
ATOM     38  H   LIG d   1       4.803  -2.293  -7.129  0.00  0.00     0.028 H 
ATOM     39  H   LIG d   1       3.030  -2.456  -7.169  0.00  0.00     0.028 H 
ATOM     40  H   LIG d   1       4.030  -3.312  -8.366  0.00  0.00     0.028 H 
ENDBRANCH   1  37
BRANCH   3  41
ATOM     41  C   LIG d   1       2.783   2.231  -8.293  0.00  0.00    -0.056 C 
ATOM     42  H   LIG d   1       2.672   3.122  -8.911  0.00  0.00     0.024 H 
ATOM     43  H   LIG d   1       1.814   1.748  -8.174  0.00  0.00     0.024 H 
ATOM     44  H   LIG d   1       3.171   2.514  -7.314  0.00  0.00     0.024 H 
ENDBRANCH   3  41
BRANCH   3  45
ATOM     45  C   LIG d   1       5.145   1.906  -9.030  0.00  0.00    -0.056 C 
ATOM     46  H   LIG d   1       5.667   1.740  -8.089  0.00  0.00     0.024 H 
ATOM     47  H   LIG d   1       5.714   1.459  -9.846  0.00  0.00     0.024 H 
ATOM     48  H   LIG d   1       5.041   2.977  -9.205  0.00  0.00     0.024 H 
ENDBRANCH   3  45
BRANCH   5  49
ATOM     49  O   LIG d   1       3.810  -0.371 -12.336  0.00  0.00    -0.391 OA
ATOM     50  H   LIG d   1       3.484  -1.255 -12.557  0.00  0.00     0.210 HD
ENDBRANCH   5  49
TORSDOF 11
ENDMDL
MODEL 3
REMARK VINA RESULT:      -5.8      1.273      2.565
REMARK  11 active torsions:
REMARK  status: ('A' for Active; 'I' for Inactive)
REMARK    1  A    between atoms: C_1  and  C_2 
REMARK    2  A    between atoms: C_3  and  C_12 
REMARK    3  A    between atoms: C_4  and  C_10 
REMARK    4  A    between atoms: C_4  and  C_11 
REMARK    5  A    between atoms: C_6  and  O_9 
REMARK    6  A    between atoms: C_13  and  C_14 
REMARK    7  A    between atoms: C_14  and  C_23 
REMARK    8  A    between atoms: C_15  and  C_16 
REMARK    9  A    between atoms: C_17  and  C_18 
REMARK   10  A    between atoms: C_18  and  C_22 
REMARK   11  A    between atoms: C_19  and  C_20 
ROOT
ATOM      1  C   LIG d   1       3.447   1.006  -9.785  0.00  0.00    -0.067 C 
ATOM      2  C   LIG d   1       2.966  -0.061  -9.170  0.00  0.00    -0.043 C 
ATOM      3  C   LIG d   1       2.857  -1.414  -9.810  0.00  0.00    -0.008 C 
ATOM      4  C   LIG d   1       3.743  -1.479 -11.056  0.00  0.00    -0.017 C 
ATOM      5  C   LIG d   1       3.450  -0.251 -11.928  0.00  0.00     0.060 C 
ATOM      6  H   LIG d   1       2.375  -0.170 -12.095  0.00  0.00     0.060 H 
ATOM      7  C   LIG d   1       3.948   0.996 -11.200  0.00  0.00    -0.005 C 
ATOM      8  H   LIG d   1       4.792  -1.474 -10.760  0.00  0.00     0.030 H 
ATOM      9  H   LIG d   1       3.522  -2.387 -11.616  0.00  0.00     0.030 H 
ATOM     10  H   LIG d   1       3.589   1.886 -11.717  0.00  0.00     0.034 H 
ATOM     11  H   LIG d   1       5.039   0.998 -11.197  0.00  0.00     0.034 H 
ENDROOT
BRANCH   2  12
ATOM     12  C   LIG d   1       2.526   0.080  -7.829  0.00  0.00    -0.058 C 
ATOM     13  C   LIG d   1       3.409  -0.072  -6.806  0.00  0.00    -0.059 C 
ATOM     14  H   LIG d   1       4.434  -0.344  -7.012  0.00  0.00     0.062 H 
ATOM     15  H   LIG d   1       1.492   0.310  -7.621  0.00  0.00     0.062 H 
BRANCH  13  16
ATOM     16  C   LIG d   1       2.987   0.124  -5.479  0.00  0.00    -0.050 C 
ATOM     17  C   LIG d   1       3.093  -0.891  -4.573  0.00  0.00    -0.059 C 
ATOM     18  H   LIG d   1       3.500  -1.845  -4.875  0.00  0.00     0.062 H 
BRANCH  17  19
ATOM     19  C   LIG d   1       2.673  -0.696  -3.250  0.00  0.00    -0.061 C 
ATOM     20  C   LIG d   1       3.595  -0.390  -2.273  0.00  0.00    -0.059 C 
ATOM     21  H   LIG d   1       3.262  -0.133  -1.278  0.00  0.00     0.062 H 
ATOM     22  H   LIG d   1       1.627  -0.784  -2.997  0.00  0.00     0.062 H 
BRANCH  20  23
ATOM     23  C   LIG d   1       4.962  -0.415  -2.569  0.00  0.00    -0.047 C 
ATOM     24  C   LIG d   1       5.610  -1.620  -2.737  0.00  0.00    -0.019 C 
ATOM     25  H   LIG d   1       5.062  -2.545  -2.641  0.00  0.00     0.065 H 
BRANCH  24  26
ATOM     26  C   LIG d   1       6.976  -1.643  -3.033  0.00  0.00     0.143 C 
ATOM     27  O   LIG d   1       7.437  -2.544  -3.709  0.00  0.00    -0.296 OA
ATOM     28  H   LIG d   1       7.623  -0.862  -2.662  0.00  0.00     0.107 H 
ENDBRANCH  24  26
BRANCH  23  29
ATOM     29  C   LIG d   1       5.727   0.878  -2.703  0.00  0.00    -0.040 C 
ATOM     30  H   LIG d   1       5.166   1.568  -3.332  0.00  0.00     0.028 H 
ATOM     31  H   LIG d   1       5.869   1.319  -1.716  0.00  0.00     0.028 H 
ATOM     32  H   LIG d   1       6.698   0.679  -3.155  0.00  0.00     0.028 H 
ENDBRANCH  23  29
ENDBRANCH  20  23
ENDBRANCH  17  19
BRANCH  16  33
ATOM     33  C   LIG d   1       2.419   1.455  -5.058  0.00  0.00    -0.040 C 
ATOM     34  H   LIG d   1       1.477   1.298  -4.532  0.00  0.00     0.028 H 
ATOM     35  H   LIG d   1       3.125   1.957  -4.397  0.00  0.00     0.028 H 
ATOM     36  H   LIG d   1       2.245   2.071  -5.940  0.00  0.00     0.028 H 
ENDBRANCH  16  33
ENDBRANCH  13  16
ENDBRANCH   2  12
BRANCH   1  37
ATOM     37  C   LIG d   1       3.490   2.307  -9.024  0.00  0.00    -0.043 C 
ATOM     38  H   LIG d   1       2.609   2.385  -8.387  0.00  0.00     0.028 H 
ATOM     39  H   LIG d   1       4.389   2.336  -8.407  0.00  0.00     0.028 H 
ATOM     40  H   LIG d   1       3.505   3.138  -9.728  0.00  0.00     0.028 H 
ENDBRANCH   1  37
BRANCH   3  41
ATOM     41  C   LIG d   1       3.304  -2.485  -8.814  0.00  0.00    -0.056 C 
ATOM     42  H   LIG d   1       4.393  -2.517  -8.779  0.00  0.00     0.024 H 
ATOM     43  H   LIG d   1       2.916  -2.246  -7.824  0.00  0.00     0.024 H 
ATOM     44  H   LIG d   1       2.922  -3.456  -9.130  0.00  0.00     0.024 H 
ENDBRANCH   3  41
BRANCH   3  45
ATOM     45  C   LIG d   1       1.402  -1.671 -10.209  0.00  0.00    -0.056 C 
ATOM     46  H   LIG d   1       1.364  -2.017 -11.241  0.00  0.00     0.024 H 
ATOM     47  H   LIG d   1       0.975  -2.431  -9.555  0.00  0.00     0.024 H 
ATOM     48  H   LIG d   1       0.831  -0.747 -10.114  0.00  0.00     0.024 H 
ENDBRANCH   3  45
BRANCH   5  49
ATOM     49  O   LIG d   1       4.122  -0.382 -13.183  0.00  0.00    -0.391 OA
ATOM     50  H   LIG d   1       4.367   0.462 -13.586  0.00  0.00     0.210 HD
ENDBRANCH   5  49
TORSDOF 11
ENDMDL
MODEL 4
REMARK VINA RESULT:      -5.7      1.470      2.450
REMARK  11 active torsions:
REMARK  status: ('A' for Active; 'I' for Inactive)
REMARK    1  A    between atoms: C_1  and  C_2 
REMARK    2  A    between atoms: C_3  and  C_12 
REMARK    3  A    between atoms: C_4  and  C_10 
REMARK    4  A    between atoms: C_4  and  C_11 
REMARK    5  A    between atoms: C_6  and  O_9 
REMARK    6  A    between atoms: C_13  and  C_14 
REMARK    7  A    between atoms: C_14  and  C_23 
REMARK    8  A    between atoms: C_15  and  C_16 
REMARK    9  A    between atoms: C_17  and  C_18 
REMARK   10  A    between atoms: C_18  and  C_22 
REMARK   11  A    between atoms: C_19  and  C_20 
ROOT
ATOM      1  C   LIG d   1       5.713  -0.917  -9.047  0.00  0.00    -0.067 C 
ATOM      2  C   LIG d   1       4.725  -0.535  -8.257  0.00  0.00    -0.043 C 
ATOM      3  C   LIG d   1       3.498   0.181  -8.743  0.00  0.00    -0.008 C 
ATOM      4  C   LIG d   1       3.360   0.019 -10.258  0.00  0.00    -0.017 C 
ATOM      5  C   LIG d   1       4.701   0.378 -10.911  0.00  0.00     0.060 C 
ATOM      6  H   LIG d   1       5.035   1.352 -10.550  0.00  0.00     0.060 H 
ATOM      7  C   LIG d   1       5.730  -0.686 -10.531  0.00  0.00    -0.005 C 
ATOM      8  H   LIG d   1       3.103  -1.013 -10.494  0.00  0.00     0.030 H 
ATOM      9  H   LIG d   1       2.582   0.687 -10.628  0.00  0.00     0.030 H 
ATOM     10  H   LIG d   1       6.724  -0.354 -10.834  0.00  0.00     0.034 H 
ATOM     11  H   LIG d   1       5.490  -1.616 -11.045  0.00  0.00     0.034 H 
ENDROOT
BRANCH   2  12
ATOM     12  C   LIG d   1       4.828  -0.817  -6.871  0.00  0.00    -0.058 C 
ATOM     13  C   LIG d   1       4.558  -2.067  -6.411  0.00  0.00    -0.059 C 
ATOM     14  H   LIG d   1       4.222  -2.834  -7.094  0.00  0.00     0.062 H 
ATOM     15  H   LIG d   1       5.123  -0.040  -6.183  0.00  0.00     0.062 H 
BRANCH  13  16
ATOM     16  C   LIG d   1       4.716  -2.363  -5.045  0.00  0.00    -0.050 C 
ATOM     17  C   LIG d   1       3.848  -1.843  -4.130  0.00  0.00    -0.059 C 
ATOM     18  H   LIG d   1       3.039  -1.204  -4.454  0.00  0.00     0.062 H 
BRANCH  17  19
ATOM     19  C   LIG d   1       4.004  -2.137  -2.769  0.00  0.00    -0.061 C 
ATOM     20  C   LIG d   1       4.478  -1.173  -1.906  0.00  0.00    -0.059 C 
ATOM     21  H   LIG d   1       4.496  -1.363  -0.842  0.00  0.00     0.062 H 
ATOM     22  H   LIG d   1       3.753  -3.120  -2.397  0.00  0.00     0.062 H 
BRANCH  20  23
ATOM     23  C   LIG d   1       4.936   0.050  -2.406  0.00  0.00    -0.047 C 
ATOM     24  C   LIG d   1       6.198   0.142  -2.954  0.00  0.00    -0.019 C 
ATOM     25  H   LIG d   1       6.833  -0.731  -2.997  0.00  0.00     0.065 H 
BRANCH  24  26
ATOM     26  C   LIG d   1       6.655   1.365  -3.454  0.00  0.00     0.143 C 
ATOM     27  O   LIG d   1       6.925   1.476  -4.636  0.00  0.00    -0.296 OA
ATOM     28  H   LIG d   1       6.768   2.211  -2.793  0.00  0.00     0.107 H 
ENDBRANCH  24  26
BRANCH  23  29
ATOM     29  C   LIG d   1       4.049   1.268  -2.346  0.00  0.00    -0.040 C 
ATOM     30  H   LIG d   1       3.014   0.972  -2.511  0.00  0.00     0.028 H 
ATOM     31  H   LIG d   1       4.143   1.736  -1.366  0.00  0.00     0.028 H 
ATOM     32  H   LIG d   1       4.352   1.976  -3.117  0.00  0.00     0.028 H 
ENDBRANCH  23  29
ENDBRANCH  20  23
ENDBRANCH  17  19
BRANCH  16  33
ATOM     33  C   LIG d   1       5.844  -3.255  -4.593  0.00  0.00    -0.040 C 
ATOM     34  H   LIG d   1       5.510  -3.867  -3.755  0.00  0.00     0.028 H 
ATOM     35  H   LIG d   1       6.147  -3.901  -5.417  0.00  0.00     0.028 H 
ATOM     36  H   LIG d   1       6.689  -2.642  -4.281  0.00  0.00     0.028 H 
ENDBRANCH  16  33
ENDBRANCH  13  16
ENDBRANCH   2  12
BRANCH   1  37
ATOM     37  C   LIG d   1       6.891  -1.621  -8.424  0.00  0.00    -0.043 C 
ATOM     38  H   LIG d   1       7.589  -1.924  -9.206  0.00  0.00     0.028 H 
ATOM     39  H   LIG d   1       7.393  -0.944  -7.732  0.00  0.00     0.028 H 
ATOM     40  H   LIG d   1       6.544  -2.501  -7.885  0.00  0.00     0.028 H 
ENDBRANCH   1  37
BRANCH   3  41
ATOM     41  C   LIG d   1       2.262  -0.404  -8.056  0.00  0.00    -0.056 C 
ATOM     42  H   LIG d   1       2.532  -0.753  -7.059  0.00  0.00     0.024 H 
ATOM     43  H   LIG d   1       1.493   0.363  -7.977  0.00  0.00     0.024 H 
ATOM     44  H   LIG d   1       1.883  -1.241  -8.643  0.00  0.00     0.024 H 
ENDBRANCH   3  41
BRANCH   3  45
ATOM     45  C   LIG d   1       3.610   1.668  -8.399  0.00  0.00    -0.056 C 
ATOM     46  H   LIG d   1       3.872   1.780  -7.348  0.00  0.00     0.024 H 
ATOM     47  H   LIG d   1       4.382   2.126  -9.017  0.00  0.00     0.024 H 
ATOM     48  H   LIG d   1       2.655   2.158  -8.590  0.00  0.00     0.024 H 
ENDBRANCH   3  45
BRANCH   5  49
ATOM     49  O   LIG d   1       4.547   0.420 -12.331  0.00  0.00    -0.391 OA
ATOM     50  H   LIG d   1       5.165  -0.151 -12.810  0.00  0.00     0.210 HD
ENDBRANCH   5  49
TORSDOF 11
ENDMDL
MODEL 5
REMARK VINA RESULT:      -5.6      1.990      2.743
REMARK  11 active torsions:
REMARK  status: ('A' for Active; 'I' for Inactive)
REMARK    1  A    between atoms: C_1  and  C_2 
REMARK    2  A    between atoms: C_3  and  C_12 
REMARK    3  A    between atoms: C_4  and  C_10 
REMARK    4  A    between atoms: C_4  and  C_11 
REMARK    5  A    between atoms: C_6  and  O_9 
REMARK    6  A    between atoms: C_13  and  C_14 
REMARK    7  A    between atoms: C_14  and  C_23 
REMARK    8  A    between atoms: C_15  and  C_16 
REMARK    9  A    between atoms: C_17  and  C_18 
REMARK   10  A    between atoms: C_18  and  C_22 
REMARK   11  A    between atoms: C_19  and  C_20 
ROOT
ATOM      1  C   LIG d   1       2.728  -2.659  -9.520  0.00  0.00    -0.067 C 
ATOM      2  C   LIG d   1       3.238  -1.460  -9.297  0.00  0.00    -0.043 C 
ATOM      3  C   LIG d   1       2.684  -0.195  -9.886  0.00  0.00    -0.008 C 
ATOM      4  C   LIG d   1       1.260  -0.432 -10.395  0.00  0.00    -0.017 C 
ATOM      5  C   LIG d   1       1.258  -1.689 -11.273  0.00  0.00     0.060 C 
ATOM      6  H   LIG d   1       2.041  -1.609 -12.029  0.00  0.00     0.060 H 
ATOM      7  C   LIG d   1       1.528  -2.905 -10.388  0.00  0.00    -0.005 C 
ATOM      8  H   LIG d   1       0.589  -0.576  -9.549  0.00  0.00     0.030 H 
ATOM      9  H   LIG d   1       0.934   0.426 -10.983  0.00  0.00     0.030 H 
ATOM     10  H   LIG d   1       1.709  -3.778 -11.016  0.00  0.00     0.034 H 
ATOM     11  H   LIG d   1       0.657  -3.089  -9.758  0.00  0.00     0.034 H 
ENDROOT
BRANCH   2  12
ATOM     12  C   LIG d   1       4.373  -1.361  -8.454  0.00  0.00    -0.058 C 
ATOM     13  C   LIG d   1       4.216  -1.332  -7.104  0.00  0.00    -0.059 C 
ATOM     14  H   LIG d   1       3.224  -1.338  -6.675  0.00  0.00     0.062 H 
ATOM     15  H   LIG d   1       5.363  -1.311  -8.883  0.00  0.00     0.062 H 
BRANCH  13  16
ATOM     16  C   LIG d   1       5.344  -1.292  -6.265  0.00  0.00    -0.050 C 
ATOM     17  C   LIG d   1       5.407  -2.101  -5.168  0.00  0.00    -0.059 C 
ATOM     18  H   LIG d   1       4.591  -2.773  -4.943  0.00  0.00     0.062 H 
BRANCH  17  19
ATOM     19  C   LIG d   1       6.531  -2.062  -4.332  0.00  0.00    -0.061 C 
ATOM     20  C   LIG d   1       6.449  -1.460  -3.095  0.00  0.00    -0.059 C 
ATOM     21  H   LIG d   1       7.279  -1.524  -2.407  0.00  0.00     0.062 H 
ATOM     22  H   LIG d   1       7.461  -2.503  -4.658  0.00  0.00     0.062 H 
BRANCH  20  23
ATOM     23  C   LIG d   1       5.291  -0.765  -2.731  0.00  0.00    -0.047 C 
ATOM     24  C   LIG d   1       5.214   0.598  -2.926  0.00  0.00    -0.019 C 
ATOM     25  H   LIG d   1       6.048   1.129  -3.360  0.00  0.00     0.065 H 
BRANCH  24  26
ATOM     26  C   LIG d   1       4.056   1.291  -2.562  0.00  0.00     0.143 C 
ATOM     27  O   LIG d   1       3.540   2.067  -3.345  0.00  0.00    -0.296 OA
ATOM     28  H   LIG d   1       3.620   1.139  -1.586  0.00  0.00     0.107 H 
ENDBRANCH  24  26
BRANCH  23  29
ATOM     29  C   LIG d   1       4.127  -1.507  -2.124  0.00  0.00    -0.040 C 
ATOM     30  H   LIG d   1       4.492  -2.392  -1.604  0.00  0.00     0.028 H 
ATOM     31  H   LIG d   1       3.611  -0.857  -1.418  0.00  0.00     0.028 H 
ATOM     32  H   LIG d   1       3.437  -1.806  -2.913  0.00  0.00     0.028 H 
ENDBRANCH  23  29
ENDBRANCH  20  23
ENDBRANCH  17  19
BRANCH  16  33
ATOM     33  C   LIG d   1       6.482  -0.356  -6.579  0.00  0.00    -0.040 C 
ATOM     34  H   LIG d   1       6.834  -0.539  -7.594  0.00  0.00     0.028 H 
ATOM     35  H   LIG d   1       6.138   0.675  -6.494  0.00  0.00     0.028 H 
ATOM     36  H   LIG d   1       7.298  -0.526  -5.876  0.00  0.00     0.028 H 
ENDBRANCH  16  33
ENDBRANCH  13  16
ENDBRANCH   2  12
BRANCH   1  37
ATOM     37  C   LIG d   1       3.391  -3.846  -8.870  0.00  0.00    -0.043 C 
ATOM     38  H   LIG d   1       2.970  -3.999  -7.876  0.00  0.00     0.028 H 
ATOM     39  H   LIG d   1       3.220  -4.735  -9.478  0.00  0.00     0.028 H 
ATOM     40  H   LIG d   1       4.462  -3.663  -8.787  0.00  0.00     0.028 H 
ENDBRANCH   1  37
BRANCH   3  41
ATOM     41  C   LIG d   1       2.665   0.899  -8.817  0.00  0.00    -0.056 C 
ATOM     42  H   LIG d   1       3.516   1.565  -8.964  0.00  0.00     0.024 H 
ATOM     43  H   LIG d   1       1.740   1.468  -8.896  0.00  0.00     0.024 H 
ATOM     44  H   LIG d   1       2.729   0.442  -7.830  0.00  0.00     0.024 H 
ENDBRANCH   3  41
BRANCH   3  45
ATOM     45  C   LIG d   1       3.570   0.252 -11.051  0.00  0.00    -0.056 C 
ATOM     46  H   LIG d   1       3.127  -0.074 -11.991  0.00  0.00     0.024 H 
ATOM     47  H   LIG d   1       3.655   1.339 -11.046  0.00  0.00     0.024 H 
ATOM     48  H   LIG d   1       4.561  -0.189 -10.944  0.00  0.00     0.024 H 
ENDBRANCH   3  45
BRANCH   5  49
ATOM     49  O   LIG d   1      -0.012  -1.826 -11.913  0.00  0.00    -0.391 OA
ATOM     50  H   LIG d   1      -0.759  -1.857 -11.299  0.00  0.00     0.210 HD
ENDBRANCH   5  49
TORSDOF 11
ENDMDL
MODEL 6
REMARK VINA RESULT:      -5.6      3.696      5.446
REMARK  11 active torsions:
REMARK  status: ('A' for Active; 'I' for Inactive)
REMARK    1  A    between atoms: C_1  and  C_2 
REMARK    2  A    between atoms: C_3  and  C_12 
REMARK    3  A    between atoms: C_4  and  C_10 
REMARK    4  A    between atoms: C_4  and  C_11 
REMARK    5  A    between atoms: C_6  and  O_9 
REMARK    6  A    between atoms: C_13  and  C_14 
REMARK    7  A    between atoms: C_14  and  C_23 
REMARK    8  A    between atoms: C_15  and  C_16 
REMARK    9  A    between atoms: C_17  and  C_18 
REMARK   10  A    between atoms: C_18  and  C_22 
REMARK   11  A    between atoms: C_19  and  C_20 
ROOT
ATOM      1  C   LIG d   1       7.732   1.518  -7.292  0.00  0.00    -0.067 C 
ATOM      2  C   LIG d   1       8.026   1.304  -6.021  0.00  0.00    -0.043 C 
ATOM      3  C   LIG d   1       9.114   2.028  -5.283  0.00  0.00    -0.008 C 
ATOM      4  C   LIG d   1       9.517   3.291  -6.047  0.00  0.00    -0.017 C 
ATOM      5  C   LIG d   1       9.776   2.914  -7.511  0.00  0.00     0.060 C 
ATOM      6  H   LIG d   1      10.469   2.072  -7.555  0.00  0.00     0.060 H 
ATOM      7  C   LIG d   1       8.449   2.514  -8.156  0.00  0.00    -0.005 C 
ATOM      8  H   LIG d   1       8.711   4.022  -5.996  0.00  0.00     0.030 H 
ATOM      9  H   LIG d   1      10.424   3.709  -5.611  0.00  0.00     0.030 H 
ATOM     10  H   LIG d   1       8.640   2.074  -9.135  0.00  0.00     0.034 H 
ATOM     11  H   LIG d   1       7.828   3.402  -8.276  0.00  0.00     0.034 H 
ENDROOT
BRANCH   2  12
ATOM     12  C   LIG d   1       7.270   0.335  -5.313  0.00  0.00    -0.058 C 
ATOM     13  C   LIG d   1       7.683  -0.959  -5.283  0.00  0.00    -0.059 C 
ATOM     14  H   LIG d   1       8.563  -1.259  -5.834  0.00  0.00     0.062 H 
ATOM     15  H   LIG d   1       6.367   0.626  -4.798  0.00  0.00     0.062 H 
BRANCH  13  16
ATOM     16  C   LIG d   1       6.966  -1.909  -4.534  0.00  0.00    -0.050 C 
ATOM     17  C   LIG d   1       5.621  -2.049  -4.719  0.00  0.00    -0.059 C 
ATOM     18  H   LIG d   1       5.107  -1.430  -5.440  0.00  0.00     0.062 H 
BRANCH  17  19
ATOM     19  C   LIG d   1       4.906  -2.996  -3.974  0.00  0.00    -0.061 C 
ATOM     20  C   LIG d   1       3.954  -2.582  -3.066  0.00  0.00    -0.059 C 
ATOM     21  H   LIG d   1       3.327  -3.310  -2.572  0.00  0.00     0.062 H 
ATOM     22  H   LIG d   1       5.100  -4.049  -4.111  0.00  0.00     0.062 H 
BRANCH  20  23
ATOM     23  C   LIG d   1       3.802  -1.221  -2.785  0.00  0.00    -0.047 C 
ATOM     24  C   LIG d   1       4.691  -0.585  -1.944  0.00  0.00    -0.019 C 
ATOM     25  H   LIG d   1       5.507  -1.140  -1.504  0.00  0.00     0.065 H 
BRANCH  24  26
ATOM     26  C   LIG d   1       4.538   0.775  -1.664  0.00  0.00     0.143 C 
ATOM     27  O   LIG d   1       5.282   1.590  -2.178  0.00  0.00    -0.296 OA
ATOM     28  H   LIG d   1       3.760   1.104  -0.991  0.00  0.00     0.107 H 
ENDBRANCH  24  26
BRANCH  23  29
ATOM     29  C   LIG d   1       2.663  -0.447  -3.400  0.00  0.00    -0.040 C 
ATOM     30  H   LIG d   1       2.997   0.561  -3.641  0.00  0.00     0.028 H 
ATOM     31  H   LIG d   1       2.335  -0.949  -4.311  0.00  0.00     0.028 H 
ATOM     32  H   LIG d   1       1.835  -0.398  -2.694  0.00  0.00     0.028 H 
ENDBRANCH  23  29
ENDBRANCH  20  23
ENDBRANCH  17  19
BRANCH  16  33
ATOM     33  C   LIG d   1       7.683  -2.773  -3.529  0.00  0.00    -0.040 C 
ATOM     34  H   LIG d   1       8.482  -3.322  -4.026  0.00  0.00     0.028 H 
ATOM     35  H   LIG d   1       8.107  -2.143  -2.747  0.00  0.00     0.028 H 
ATOM     36  H   LIG d   1       6.978  -3.478  -3.087  0.00  0.00     0.028 H 
ENDBRANCH  16  33
ENDBRANCH  13  16
ENDBRANCH   2  12
BRANCH   1  37
ATOM     37  C   LIG d   1       6.618   0.712  -7.911  0.00  0.00    -0.043 C 
ATOM     38  H   LIG d   1       6.604   0.880  -8.988  0.00  0.00     0.028 H 
ATOM     39  H   LIG d   1       6.781  -0.347  -7.709  0.00  0.00     0.028 H 
ATOM     40  H   LIG d   1       5.666   1.022  -7.482  0.00  0.00     0.028 H 
ENDBRANCH   1  37
BRANCH   3  41
ATOM     41  C   LIG d   1       8.614   2.416  -3.890  0.00  0.00    -0.056 C 
ATOM     42  H   LIG d   1       9.415   2.275  -3.165  0.00  0.00     0.024 H 
ATOM     43  H   LIG d   1       8.305   3.460  -3.893  0.00  0.00     0.024 H 
ATOM     44  H   LIG d   1       7.766   1.786  -3.621  0.00  0.00     0.024 H 
ENDBRANCH   3  41
BRANCH   3  45
ATOM     45  C   LIG d   1      10.330   1.109  -5.145  0.00  0.00    -0.056 C 
ATOM     46  H   LIG d   1      10.962   1.462  -4.331  0.00  0.00     0.024 H 
ATOM     47  H   LIG d   1       9.996   0.094  -4.932  0.00  0.00     0.024 H 
ATOM     48  H   LIG d   1      10.899   1.116  -6.075  0.00  0.00     0.024 H 
ENDBRANCH   3  45
BRANCH   5  49
ATOM     49  O   LIG d   1      10.335   4.032  -8.203  0.00  0.00    -0.391 OA
ATOM     50  H   LIG d   1      11.060   4.464  -7.730  0.00  0.00     0.210 HD
ENDBRANCH   5  49
TORSDOF 11
ENDMDL
MODEL 7
REMARK VINA RESULT:      -5.5      1.741      2.380
REMARK  11 active torsions:
REMARK  status: ('A' for Active; 'I' for Inactive)
REMARK    1  A    between atoms: C_1  and  C_2 
REMARK    2  A    between atoms: C_3  and  C_12 
REMARK    3  A    between atoms: C_4  and  C_10 
REMARK    4  A    between atoms: C_4  and  C_11 
REMARK    5  A    between atoms: C_6  and  O_9 
REMARK    6  A    between atoms: C_13  and  C_14 
REMARK    7  A    between atoms: C_14  and  C_23 
REMARK    8  A    between atoms: C_15  and  C_16 
REMARK    9  A    between atoms: C_17  and  C_18 
REMARK   10  A    between atoms: C_18  and  C_22 
REMARK   11  A    between atoms: C_19  and  C_20 
ROOT
ATOM      1  C   LIG d   1       3.625  -2.214  -9.065  0.00  0.00    -0.067 C 
ATOM      2  C   LIG d   1       3.798  -1.217  -8.215  0.00  0.00    -0.043 C 
ATOM      3  C   LIG d   1       3.863   0.226  -8.623  0.00  0.00    -0.008 C 
ATOM      4  C   LIG d   1       3.289   0.401 -10.030  0.00  0.00    -0.017 C 
ATOM      5  C   LIG d   1       3.944  -0.633 -10.956  0.00  0.00     0.060 C 
ATOM      6  H   LIG d   1       5.029  -0.576 -10.858  0.00  0.00     0.060 H 
ATOM      7  C   LIG d   1       3.468  -2.026 -10.546  0.00  0.00    -0.005 C 
ATOM      8  H   LIG d   1       2.212   0.241 -10.009  0.00  0.00     0.030 H 
ATOM      9  H   LIG d   1       3.506   1.406 -10.392  0.00  0.00     0.030 H 
ATOM     10  H   LIG d   1       4.057  -2.779 -11.071  0.00  0.00     0.034 H 
ATOM     11  H   LIG d   1       2.418  -2.140 -10.817  0.00  0.00     0.034 H 
ENDROOT
BRANCH   2  12
ATOM     12  C   LIG d   1       3.930  -1.528  -6.837  0.00  0.00    -0.058 C 
ATOM     13  C   LIG d   1       5.068  -2.113  -6.379  0.00  0.00    -0.059 C 
ATOM     14  H   LIG d   1       5.854  -2.382  -7.071  0.00  0.00     0.062 H 
ATOM     15  H   LIG d   1       3.128  -1.299  -6.153  0.00  0.00     0.062 H 
BRANCH  13  16
ATOM     16  C   LIG d   1       5.223  -2.370  -5.005  0.00  0.00    -0.050 C 
ATOM     17  C   LIG d   1       4.153  -2.261  -4.166  0.00  0.00    -0.059 C 
ATOM     18  H   LIG d   1       3.186  -1.978  -4.557  0.00  0.00     0.062 H 
BRANCH  17  19
ATOM     19  C   LIG d   1       4.307  -2.517  -2.797  0.00  0.00    -0.061 C 
ATOM     20  C   LIG d   1       4.385  -1.470  -1.905  0.00  0.00    -0.059 C 
ATOM     21  H   LIG d   1       4.394  -1.665  -0.843  0.00  0.00     0.062 H 
ATOM     22  H   LIG d   1       4.364  -3.535  -2.442  0.00  0.00     0.062 H 
BRANCH  20  23
ATOM     23  C   LIG d   1       4.454  -0.154  -2.375  0.00  0.00    -0.047 C 
ATOM     24  C   LIG d   1       3.298   0.571  -2.570  0.00  0.00    -0.019 C 
ATOM     25  H   LIG d   1       2.338   0.123  -2.358  0.00  0.00     0.065 H 
BRANCH  24  26
ATOM     26  C   LIG d   1       3.368   1.886  -3.040  0.00  0.00     0.143 C 
ATOM     27  O   LIG d   1       2.955   2.157  -4.152  0.00  0.00    -0.296 OA
ATOM     28  H   LIG d   1       3.790   2.660  -2.417  0.00  0.00     0.107 H 
ENDBRANCH  24  26
BRANCH  23  29
ATOM     29  C   LIG d   1       5.794   0.470  -2.671  0.00  0.00    -0.040 C 
ATOM     30  H   LIG d   1       5.862   1.437  -2.174  0.00  0.00     0.028 H 
ATOM     31  H   LIG d   1       6.587  -0.182  -2.305  0.00  0.00     0.028 H 
ATOM     32  H   LIG d   1       5.903   0.605  -3.746  0.00  0.00     0.028 H 
ENDBRANCH  23  29
ENDBRANCH  20  23
ENDBRANCH  17  19
BRANCH  16  33
ATOM     33  C   LIG d   1       6.572  -2.765  -4.461  0.00  0.00    -0.040 C 
ATOM     34  H   LIG d   1       7.241  -3.004  -5.288  0.00  0.00     0.028 H 
ATOM     35  H   LIG d   1       6.987  -1.938  -3.885  0.00  0.00     0.028 H 
ATOM     36  H   LIG d   1       6.463  -3.639  -3.818  0.00  0.00     0.028 H 
ENDBRANCH  16  33
ENDBRANCH  13  16
ENDBRANCH   2  12
BRANCH   1  37
ATOM     37  C   LIG d   1       3.587  -3.618  -8.518  0.00  0.00    -0.043 C 
ATOM     38  H   LIG d   1       2.707  -3.739  -7.888  0.00  0.00     0.028 H 
ATOM     39  H   LIG d   1       3.543  -4.328  -9.345  0.00  0.00     0.028 H 
ATOM     40  H   LIG d   1       4.485  -3.802  -7.929  0.00  0.00     0.028 H 
ENDBRANCH   1  37
BRANCH   3  41
ATOM     41  C   LIG d   1       3.053   1.070  -7.637  0.00  0.00    -0.056 C 
ATOM     42  H   LIG d   1       2.123   1.388  -8.109  0.00  0.00     0.024 H 
ATOM     43  H   LIG d   1       2.827   0.478  -6.751  0.00  0.00     0.024 H 
ATOM     44  H   LIG d   1       3.633   1.948  -7.350  0.00  0.00     0.024 H 
ENDBRANCH   3  41
BRANCH   3  45
ATOM     45  C   LIG d   1       5.320   0.692  -8.608  0.00  0.00    -0.056 C 
ATOM     46  H   LIG d   1       5.841   0.232  -7.769  0.00  0.00     0.024 H 
ATOM     47  H   LIG d   1       5.804   0.400  -9.540  0.00  0.00     0.024 H 
ATOM     48  H   LIG d   1       5.354   1.777  -8.507  0.00  0.00     0.024 H 
ENDBRANCH   3  45
BRANCH   5  49
ATOM     49  O   LIG d   1       3.569  -0.370 -12.310  0.00  0.00    -0.391 OA
ATOM     50  H   LIG d   1       2.633  -0.527 -12.496  0.00  0.00     0.210 HD
ENDBRANCH   5  49
TORSDOF 11
ENDMDL
MODEL 8
REMARK VINA RESULT:      -5.5      2.265      3.430
REMARK  11 active torsions:
REMARK  status: ('A' for Active; 'I' for Inactive)
REMARK    1  A    between atoms: C_1  and  C_2 
REMARK    2  A    between atoms: C_3  and  C_12 
REMARK    3  A    between atoms: C_4  and  C_10 
REMARK    4  A    between atoms: C_4  and  C_11 
REMARK    5  A    between atoms: C_6  and  O_9 
REMARK    6  A    between atoms: C_13  and  C_14 
REMARK    7  A    between atoms: C_14  and  C_23 
REMARK    8  A    between atoms: C_15  and  C_16 
REMARK    9  A    between atoms: C_17  and  C_18 
REMARK   10  A    between atoms: C_18  and  C_22 
REMARK   11  A    between atoms: C_19  and  C_20 
ROOT
ATOM      1  C   LIG d   1       2.585  -0.773  -8.735  0.00  0.00    -0.067 C 
ATOM      2  C   LIG d   1       3.481  -1.741  -8.819  0.00  0.00    -0.043 C 
ATOM      3  C   LIG d   1       3.547  -2.722  -9.952  0.00  0.00    -0.008 C 
ATOM      4  C   LIG d   1       2.750  -2.198 -11.148  0.00  0.00    -0.017 C 
ATOM      5  C   LIG d   1       1.362  -1.765 -10.658  0.00  0.00     0.060 C 
ATOM      6  H   LIG d   1       0.908  -2.573 -10.083  0.00  0.00     0.060 H 
ATOM      7  C   LIG d   1       1.521  -0.534  -9.766  0.00  0.00    -0.005 C 
ATOM      8  H   LIG d   1       3.265  -1.343 -11.585  0.00  0.00     0.030 H 
ATOM      9  H   LIG d   1       2.645  -2.986 -11.893  0.00  0.00     0.030 H 
ATOM     10  H   LIG d   1       0.574  -0.322  -9.268  0.00  0.00     0.034 H 
ATOM     11  H   LIG d   1       1.800   0.321 -10.383  0.00  0.00     0.034 H 
ENDROOT
BRANCH   2  12
ATOM     12  C   LIG d   1       4.437  -1.859  -7.778  0.00  0.00    -0.058 C 
ATOM     13  C   LIG d   1       4.251  -2.769  -6.785  0.00  0.00    -0.059 C 
ATOM     14  H   LIG d   1       3.354  -3.371  -6.764  0.00  0.00     0.062 H 
ATOM     15  H   LIG d   1       5.313  -1.228  -7.774  0.00  0.00     0.062 H 
BRANCH  13  16
ATOM     16  C   LIG d   1       5.226  -2.926  -5.784  0.00  0.00    -0.050 C 
ATOM     17  C   LIG d   1       5.810  -1.829  -5.222  0.00  0.00    -0.059 C 
ATOM     18  H   LIG d   1       5.524  -0.838  -5.546  0.00  0.00     0.062 H 
BRANCH  17  19
ATOM     19  C   LIG d   1       6.781  -1.986  -4.224  0.00  0.00    -0.061 C 
ATOM     20  C   LIG d   1       6.509  -1.595  -2.930  0.00  0.00    -0.059 C 
ATOM     21  H   LIG d   1       7.212  -1.815  -2.141  0.00  0.00     0.062 H 
ATOM     22  H   LIG d   1       7.742  -2.413  -4.468  0.00  0.00     0.062 H 
BRANCH  20  23
ATOM     23  C   LIG d   1       5.322  -0.914  -2.641  0.00  0.00    -0.047 C 
ATOM     24  C   LIG d   1       5.290   0.464  -2.678  0.00  0.00    -0.019 C 
ATOM     25  H   LIG d   1       6.183   1.017  -2.931  0.00  0.00     0.065 H 
BRANCH  24  26
ATOM     26  C   LIG d   1       4.104   1.144  -2.388  0.00  0.00     0.143 C 
ATOM     27  O   LIG d   1       3.654   1.948  -3.183  0.00  0.00    -0.296 OA
ATOM     28  H   LIG d   1       3.586   0.956  -1.459  0.00  0.00     0.107 H 
ENDBRANCH  24  26
BRANCH  23  29
ATOM     29  C   LIG d   1       4.077  -1.687  -2.287  0.00  0.00    -0.040 C 
ATOM     30  H   LIG d   1       3.392  -1.680  -3.134  0.00  0.00     0.028 H 
ATOM     31  H   LIG d   1       4.345  -2.715  -2.045  0.00  0.00     0.028 H 
ATOM     32  H   LIG d   1       3.596  -1.226  -1.425  0.00  0.00     0.028 H 
ENDBRANCH  23  29
ENDBRANCH  20  23
ENDBRANCH  17  19
BRANCH  16  33
ATOM     33  C   LIG d   1       5.624  -4.308  -5.331  0.00  0.00    -0.040 C 
ATOM     34  H   LIG d   1       6.636  -4.280  -4.928  0.00  0.00     0.028 H 
ATOM     35  H   LIG d   1       4.935  -4.649  -4.558  0.00  0.00     0.028 H 
ATOM     36  H   LIG d   1       5.588  -4.992  -6.179  0.00  0.00     0.028 H 
ENDBRANCH  16  33
ENDBRANCH  13  16
ENDBRANCH   2  12
BRANCH   1  37
ATOM     37  C   LIG d   1       2.630   0.138  -7.535  0.00  0.00    -0.043 C 
ATOM     38  H   LIG d   1       3.666   0.298  -7.239  0.00  0.00     0.028 H 
ATOM     39  H   LIG d   1       2.172   1.094  -7.788  0.00  0.00     0.028 H 
ATOM     40  H   LIG d   1       2.083  -0.320  -6.711  0.00  0.00     0.028 H 
ENDBRANCH   1  37
BRANCH   3  41
ATOM     41  C   LIG d   1       5.005  -2.926 -10.365  0.00  0.00    -0.056 C 
ATOM     42  H   LIG d   1       5.060  -3.075 -11.444  0.00  0.00     0.024 H 
ATOM     43  H   LIG d   1       5.588  -2.048 -10.090  0.00  0.00     0.024 H 
ATOM     44  H   LIG d   1       5.407  -3.803  -9.857  0.00  0.00     0.024 H 
ENDBRANCH   3  41
BRANCH   3  45
ATOM     45  C   LIG d   1       2.958  -4.060  -9.499  0.00  0.00    -0.056 C 
ATOM     46  H   LIG d   1       3.237  -4.248  -8.462  0.00  0.00     0.024 H 
ATOM     47  H   LIG d   1       1.872  -4.026  -9.583  0.00  0.00     0.024 H 
ATOM     48  H   LIG d   1       3.346  -4.860 -10.130  0.00  0.00     0.024 H 
ENDBRANCH   3  45
BRANCH   5  49
ATOM     49  O   LIG d   1       0.534  -1.449 -11.779  0.00  0.00    -0.391 OA
ATOM     50  H   LIG d   1      -0.114  -0.752 -11.605  0.00  0.00     0.210 HD
ENDBRANCH   5  49
TORSDOF 11
ENDMDL
MODEL 9
REMARK VINA RESULT:      -5.2      3.399      6.379
REMARK  11 active torsions:
REMARK  status: ('A' for Active; 'I' for Inactive)
REMARK    1  A    between atoms: C_1  and  C_2 
REMARK    2  A    between atoms: C_3  and  C_12 
REMARK    3  A    between atoms: C_4  and  C_10 
REMARK    4  A    between atoms: C_4  and  C_11 
REMARK    5  A    between atoms: C_6  and  O_9 
REMARK    6  A    between atoms: C_13  and  C_14 
REMARK    7  A    between atoms: C_14  and  C_23 
REMARK    8  A    between atoms: C_15  and  C_16 
REMARK    9  A    between atoms: C_17  and  C_18 
REMARK   10  A    between atoms: C_18  and  C_22 
REMARK   11  A    between atoms: C_19  and  C_20 
ROOT
ATOM      1  C   LIG d   1       8.702   2.077  -6.639  0.00  0.00    -0.067 C 
ATOM      2  C   LIG d   1       8.785   2.192  -5.324  0.00  0.00    -0.043 C 
ATOM      3  C   LIG d   1       9.949   2.819  -4.614  0.00  0.00    -0.008 C 
ATOM      4  C   LIG d   1      10.775   3.656  -5.593  0.00  0.00    -0.017 C 
ATOM      5  C   LIG d   1      11.071   2.803  -6.834  0.00  0.00     0.060 C 
ATOM      6  H   LIG d   1      11.495   1.846  -6.528  0.00  0.00     0.060 H 
ATOM      7  C   LIG d   1       9.762   2.562  -7.585  0.00  0.00    -0.005 C 
ATOM      8  H   LIG d   1      10.210   4.541  -5.885  0.00  0.00     0.030 H 
ATOM      9  H   LIG d   1      11.712   3.953  -5.122  0.00  0.00     0.030 H 
ATOM     10  H   LIG d   1       9.922   1.815  -8.363  0.00  0.00     0.034 H 
ATOM     11  H   LIG d   1       9.436   3.496  -8.046  0.00  0.00     0.034 H 
ENDROOT
BRANCH   2  12
ATOM     12  C   LIG d   1       7.713   1.696  -4.540  0.00  0.00    -0.058 C 
ATOM     13  C   LIG d   1       7.688   0.386  -4.175  0.00  0.00    -0.059 C 
ATOM     14  H   LIG d   1       8.461  -0.286  -4.520  0.00  0.00     0.062 H 
ATOM     15  H   LIG d   1       6.918   2.357  -4.232  0.00  0.00     0.062 H 
BRANCH  13  16
ATOM     16  C   LIG d   1       6.656  -0.094  -3.350  0.00  0.00    -0.050 C 
ATOM     17  C   LIG d   1       5.795   0.782  -2.755  0.00  0.00    -0.059 C 
ATOM     18  H   LIG d   1       5.906   1.844  -2.918  0.00  0.00     0.062 H 
BRANCH  17  19
ATOM     19  C   LIG d   1       4.765   0.303  -1.934  0.00  0.00    -0.061 C 
ATOM     20  C   LIG d   1       3.481   0.205  -2.424  0.00  0.00    -0.059 C 
ATOM     21  H   LIG d   1       2.711  -0.264  -1.830  0.00  0.00     0.062 H 
ATOM     22  H   LIG d   1       4.979   0.010  -0.916  0.00  0.00     0.062 H 
BRANCH  20  23
ATOM     23  C   LIG d   1       3.176   0.715  -3.690  0.00  0.00    -0.047 C 
ATOM     24  C   LIG d   1       3.141  -0.124  -4.783  0.00  0.00    -0.019 C 
ATOM     25  H   LIG d   1       3.350  -1.177  -4.661  0.00  0.00     0.065 H 
BRANCH  24  26
ATOM     26  C   LIG d   1       2.836   0.387  -6.048  0.00  0.00     0.143 C 
ATOM     27  O   LIG d   1       3.723   0.570  -6.860  0.00  0.00    -0.296 OA
ATOM     28  H   LIG d   1       1.813   0.619  -6.304  0.00  0.00     0.107 H 
ENDBRANCH  24  26
BRANCH  23  29
ATOM     29  C   LIG d   1       2.885   2.185  -3.859  0.00  0.00    -0.040 C 
ATOM     30  H   LIG d   1       3.050   2.471  -4.898  0.00  0.00     0.028 H 
ATOM     31  H   LIG d   1       1.848   2.383  -3.588  0.00  0.00     0.028 H 
ATOM     32  H   LIG d   1       3.545   2.763  -3.213  0.00  0.00     0.028 H 
ENDBRANCH  23  29
ENDBRANCH  20  23
ENDBRANCH  17  19
BRANCH  16  33
ATOM     33  C   LIG d   1       6.501  -1.576  -3.124  0.00  0.00    -0.040 C 
ATOM     34  H   LIG d   1       6.700  -2.108  -4.055  0.00  0.00     0.028 H 
ATOM     35  H   LIG d   1       7.208  -1.902  -2.361  0.00  0.00     0.028 H 
ATOM     36  H   LIG d   1       5.484  -1.789  -2.795  0.00  0.00     0.028 H 
ENDBRANCH  16  33
ENDBRANCH  13  16
ENDBRANCH   2  12
BRANCH   1  37
ATOM     37  C   LIG d   1       7.477   1.418  -7.220  0.00  0.00    -0.043 C 
ATOM     38  H   LIG d   1       6.664   1.458  -6.495  0.00  0.00     0.028 H 
ATOM     39  H   LIG d   1       7.180   1.942  -8.129  0.00  0.00     0.028 H 
ATOM     40  H   LIG d   1       7.702   0.379  -7.456  0.00  0.00     0.028 H 
ENDBRANCH   1  37
BRANCH   3  41
ATOM     41  C   LIG d   1       9.434   3.718  -3.488  0.00  0.00    -0.056 C 
ATOM     42  H   LIG d   1       9.434   4.755  -3.823  0.00  0.00     0.024 H 
ATOM     43  H   LIG d   1       8.420   3.422  -3.222  0.00  0.00     0.024 H 
ATOM     44  H   LIG d   1      10.084   3.617  -2.618  0.00  0.00     0.024 H 
ENDBRANCH   3  41
BRANCH   3  45
ATOM     45  C   LIG d   1      10.831   1.719  -4.018  0.00  0.00    -0.056 C 
ATOM     46  H   LIG d   1      10.234   1.091  -3.359  0.00  0.00     0.024 H 
ATOM     47  H   LIG d   1      11.245   1.111  -4.823  0.00  0.00     0.024 H 
ATOM     48  H   LIG d   1      11.644   2.172  -3.451  0.00  0.00     0.024 H 
ENDBRANCH   3  45
BRANCH   5  49
ATOM     49  O   LIG d   1      11.996   3.490  -7.679  0.00  0.00    -0.391 OA
ATOM     50  H   LIG d   1      12.921   3.259  -7.518  0.00  0.00     0.210 HD
ENDBRANCH   5  49
TORSDOF 11
ENDMDL
MODEL 10
REMARK VINA RESULT:      -5.1      2.145      3.244
REMARK  11 active torsions:
REMARK  status: ('A' for Active; 'I' for Inactive)
REMARK    1  A    between atoms: C_1  and  C_2 
REMARK    2  A    between atoms: C_3  and  C_12 
REMARK    3  A    between atoms: C_4  and  C_10 
REMARK    4  A    between atoms: C_4  and  C_11 
REMARK    5  A    between atoms: C_6  and  O_9 
REMARK    6  A    between atoms: C_13  and  C_14 
REMARK    7  A    between atoms: C_14  and  C_23 
REMARK    8  A    between atoms: C_15  and  C_16 
REMARK    9  A    between atoms: C_17  and  C_18 
REMARK   10  A    between atoms: C_18  and  C_22 
REMARK   11  A    between atoms: C_19  and  C_20 
ROOT
ATOM      1  C   LIG d   1       3.249  -1.778  -8.770  0.00  0.00    -0.067 C 
ATOM      2  C   LIG d   1       3.554  -0.495  -8.675  0.00  0.00    -0.043 C 
ATOM      3  C   LIG d   1       2.925   0.576  -9.518  0.00  0.00    -0.008 C 
ATOM      4  C   LIG d   1       1.635   0.055 -10.154  0.00  0.00    -0.017 C 
ATOM      5  C   LIG d   1       1.930  -1.296 -10.820  0.00  0.00     0.060 C 
ATOM      6  H   LIG d   1       2.796  -1.198 -11.476  0.00  0.00     0.060 H 
ATOM      7  C   LIG d   1       2.232  -2.323  -9.729  0.00  0.00    -0.005 C 
ATOM      8  H   LIG d   1       0.874  -0.076  -9.385  0.00  0.00     0.030 H 
ATOM      9  H   LIG d   1       1.284   0.763 -10.904  0.00  0.00     0.030 H 
ATOM     10  H   LIG d   1       2.617  -3.235 -10.186  0.00  0.00     0.034 H 
ATOM     11  H   LIG d   1       1.312  -2.553  -9.190  0.00  0.00     0.034 H 
ENDROOT
BRANCH   2  12
ATOM     12  C   LIG d   1       4.532  -0.108  -7.724  0.00  0.00    -0.058 C 
ATOM     13  C   LIG d   1       5.828   0.044  -8.106  0.00  0.00    -0.059 C 
ATOM     14  H   LIG d   1       6.121  -0.174  -9.123  0.00  0.00     0.062 H 
ATOM     15  H   LIG d   1       4.247   0.068  -6.698  0.00  0.00     0.062 H 
BRANCH  13  16
ATOM     16  C   LIG d   1       6.788   0.483  -7.177  0.00  0.00    -0.050 C 
ATOM     17  C   LIG d   1       6.746   0.033  -5.889  0.00  0.00    -0.059 C 
ATOM     18  H   LIG d   1       5.976  -0.660  -5.583  0.00  0.00     0.062 H 
BRANCH  17  19
ATOM     19  C   LIG d   1       7.703   0.470  -4.963  0.00  0.00    -0.061 C 
ATOM     20  C   LIG d   1       7.440   0.394  -3.613  0.00  0.00    -0.059 C 
ATOM     21  H   LIG d   1       8.215   0.627  -2.898  0.00  0.00     0.062 H 
ATOM     22  H   LIG d   1       8.647   0.866  -5.308  0.00  0.00     0.062 H 
BRANCH  20  23
ATOM     23  C   LIG d   1       6.168   0.016  -3.168  0.00  0.00    -0.047 C 
ATOM     24  C   LIG d   1       5.838  -1.319  -3.074  0.00  0.00    -0.019 C 
ATOM     25  H   LIG d   1       6.563  -2.074  -3.343  0.00  0.00     0.065 H 
BRANCH  24  26
ATOM     26  C   LIG d   1       4.567  -1.695  -2.630  0.00  0.00     0.143 C 
ATOM     27  O   LIG d   1       4.010  -2.657  -3.125  0.00  0.00    -0.296 OA
ATOM     28  H   LIG d   1       4.080  -1.133  -1.847  0.00  0.00     0.107 H 
ENDBRANCH  24  26
BRANCH  23  29
ATOM     29  C   LIG d   1       5.158   1.071  -2.794  0.00  0.00    -0.040 C 
ATOM     30  H   LIG d   1       4.570   0.725  -1.944  0.00  0.00     0.028 H 
ATOM     31  H   LIG d   1       5.676   1.991  -2.527  0.00  0.00     0.028 H 
ATOM     32  H   LIG d   1       4.498   1.258  -3.640  0.00  0.00     0.028 H 
ENDBRANCH  23  29
ENDBRANCH  20  23
ENDBRANCH  17  19
BRANCH  16  33
ATOM     33  C   LIG d   1       7.863   1.449  -7.604  0.00  0.00    -0.040 C 
ATOM     34  H   LIG d   1       8.690   0.898  -8.050  0.00  0.00     0.028 H 
ATOM     35  H   LIG d   1       7.453   2.145  -8.337  0.00  0.00     0.028 H 
ATOM     36  H   LIG d   1       8.220   2.002  -6.736  0.00  0.00     0.028 H 
ENDBRANCH  16  33
ENDBRANCH  13  16
ENDBRANCH   2  12
BRANCH   1  37
ATOM     37  C   LIG d   1       3.966  -2.748  -7.866  0.00  0.00    -0.043 C 
ATOM     38  H   LIG d   1       4.965  -2.372  -7.648  0.00  0.00     0.028 H 
ATOM     39  H   LIG d   1       3.408  -2.857  -6.936  0.00  0.00     0.028 H 
ATOM     40  H   LIG d   1       4.041  -3.716  -8.360  0.00  0.00     0.028 H 
ENDBRANCH   1  37
BRANCH   3  41
ATOM     41  C   LIG d   1       2.604   1.789  -8.643  0.00  0.00    -0.056 C 
ATOM     42  H   LIG d   1       1.924   1.491  -7.844  0.00  0.00     0.024 H 
ATOM     43  H   LIG d   1       3.525   2.178  -8.209  0.00  0.00     0.024 H 
ATOM     44  H   LIG d   1       2.134   2.561  -9.251  0.00  0.00     0.024 H 
ENDBRANCH   3  41
BRANCH   3  45
ATOM     45  C   LIG d   1       3.901   0.993 -10.620  0.00  0.00    -0.056 C 
ATOM     46  H   LIG d   1       4.850   1.288 -10.173  0.00  0.00     0.024 H 
ATOM     47  H   LIG d   1       4.064   0.154 -11.297  0.00  0.00     0.024 H 
ATOM     48  H   LIG d   1       3.484   1.833 -11.177  0.00  0.00     0.024 H 
ENDBRANCH   3  45
BRANCH   5  49
ATOM     49  O   LIG d   1       0.796  -1.714 -11.581  0.00  0.00    -0.391 OA
ATOM     50  H   LIG d   1       0.294  -0.985 -11.971  0.00  0.00     0.210 HD
ENDBRANCH   5  49
TORSDOF 11
ENDMDL
