MODEL 1
REMARK VINA RESULT:      -6.8      0.000      0.000
REMARK  12 active torsions:
REMARK  status: ('A' for Active; 'I' for Inactive)
REMARK    1  A    between atoms: C_1  and  C_2 
REMARK    2  A    between atoms: C_4  and  C_26 
REMARK    3  A    between atoms: C_6  and  C_23 
REMARK    4  A    between atoms: C_9  and  C_11 
REMARK    5  A    between atoms: C_11  and  C_12 
REMARK       I    between atoms: C_12  and  N_14 
REMARK    6  A    between atoms: N_14  and  C_15 
REMARK    7  A    between atoms: C_15  and  C_16 
REMARK    8  A    between atoms: C_16  and  N_17 
REMARK    9  A    between atoms: C_23  and  C_24 
REMARK   10  A    between atoms: C_23  and  C_25 
REMARK   11  A    between atoms: C_26  and  N_27 
REMARK       I    between atoms: N_27  and  C_28 
REMARK       I    between atoms: C_28  and  N_30 
REMARK   12  A    between atoms: N_30  and  C_31 
ROOT
ATOM      1  C   LIG d   1       2.285  -1.125 -11.032  0.00  0.00    -0.073 C 
ATOM      2  C   LIG d   1       2.916  -0.085 -10.591  0.00  0.00    -0.080 C 
ATOM      3  C   LIG d   1       4.285  -0.128  -9.977  0.00  0.00    -0.004 C 
ATOM      4  H   LIG d   1       5.006   0.223 -10.730  0.00  0.00     0.036 H 
ATOM      5  C   LIG d   1       4.631  -1.560  -9.564  0.00  0.00    -0.030 C 
ATOM      6  H   LIG d   1       4.029  -1.855  -8.691  0.00  0.00     0.031 H 
ATOM      7  C   LIG d   1       4.342  -2.491 -10.748  0.00  0.00    -0.042 C 
ATOM      8  C   LIG d   1       2.829  -2.523 -10.981  0.00  0.00    -0.012 C 
ATOM      9  H   LIG d   1       2.615  -3.007 -11.945  0.00  0.00     0.035 H 
ATOM     10  H   LIG d   1       2.448   0.909 -10.656  0.00  0.00     0.058 H 
ATOM     11  H   LIG d   1       4.852  -2.112 -11.646  0.00  0.00     0.027 H 
ATOM     12  H   LIG d   1       4.708  -3.502 -10.518  0.00  0.00     0.027 H 
ENDROOT
BRANCH   8  13
ATOM     13  C   LIG d   1       2.157  -3.288  -9.840  0.00  0.00     0.030 C 
ATOM     14  H   LIG d   1       2.925  -3.781  -9.226  0.00  0.00     0.036 H 
ATOM     15  H   LIG d   1       1.584  -2.587  -9.215  0.00  0.00     0.036 H 
BRANCH  13  16
ATOM     16  C   LIG d   1       1.226  -4.328 -10.411  0.00  0.00     0.214 C 
ATOM     17  O   LIG d   1       1.672  -5.242 -11.070  0.00  0.00    -0.276 OA
ATOM     18  N   LIG d   1      -0.100  -4.242 -10.187  0.00  0.00    -0.310 N 
ATOM     19  H   LIG d   1      -0.503  -3.412  -9.588  0.00  0.00     0.149 HD
BRANCH  18  20
ATOM     20  C   LIG d   1      -1.003  -5.252 -10.742  0.00  0.00     0.052 C 
ATOM     21  H   LIG d   1      -1.327  -4.942 -11.747  0.00  0.00     0.051 H 
ATOM     22  H   LIG d   1      -0.479  -6.216 -10.807  0.00  0.00     0.051 H 
BRANCH  20  23
ATOM     23  C   LIG d   1      -2.226  -5.396  -9.834  0.00  0.00    -0.016 C 
ATOM     24  H   LIG d   1      -2.662  -6.398  -9.963  0.00  0.00     0.083 H 
ATOM     25  H   LIG d   1      -1.923  -5.260  -8.786  0.00  0.00     0.083 H 
BRANCH  23  26
ATOM     26  N   LIG d   1      -3.224  -4.378 -10.192  0.00  0.00     0.240 N 
ATOM     27  C   LIG d   1      -3.485  -4.383 -11.639  0.00  0.00    -0.008 C 
ATOM     28  C   LIG d   1      -4.482  -3.272 -11.977  0.00  0.00     0.088 C 
ATOM     29  H   LIG d   1      -2.544  -4.213 -12.182  0.00  0.00     0.084 H 
ATOM     30  H   LIG d   1      -3.905  -5.358 -11.932  0.00  0.00     0.084 H 
ATOM     31  O   LIG d   1      -5.675  -3.460 -11.211  0.00  0.00    -0.369 OA
ATOM     32  H   LIG d   1      -4.725  -3.308 -13.048  0.00  0.00     0.061 H 
ATOM     33  H   LIG d   1      -4.040  -2.294 -11.733  0.00  0.00     0.061 H 
ATOM     34  C   LIG d   1      -5.457  -3.460  -9.797  0.00  0.00     0.088 C 
ATOM     35  C   LIG d   1      -4.470  -4.574  -9.437  0.00  0.00    -0.008 C 
ATOM     36  H   LIG d   1      -6.411  -3.633  -9.277  0.00  0.00     0.061 H 
ATOM     37  H   LIG d   1      -5.043  -2.489  -9.488  0.00  0.00     0.061 H 
ATOM     38  H   LIG d   1      -4.907  -5.550  -9.695  0.00  0.00     0.084 H 
ATOM     39  H   LIG d   1      -4.254  -4.541  -8.359  0.00  0.00     0.084 H 
ATOM     40  H   LIG d   1      -2.812  -3.395  -9.923  0.00  0.00     0.204 HD
ENDBRANCH  23  26
ENDBRANCH  20  23
ENDBRANCH  18  20
ENDBRANCH  13  16
ENDBRANCH   8  13
BRANCH   1  41
ATOM     41  C   LIG d   1       0.918  -0.922 -11.633  0.00  0.00    -0.043 C 
ATOM     42  H   LIG d   1       0.667   0.149 -11.617  0.00  0.00     0.027 H 
ATOM     43  H   LIG d   1       0.173  -1.483 -11.051  0.00  0.00     0.027 H 
ATOM     44  H   LIG d   1       0.918  -1.283 -12.673  0.00  0.00     0.027 H 
ENDBRANCH   1  41
BRANCH   5  45
ATOM     45  C   LIG d   1       6.112  -1.648  -9.190  0.00  0.00    -0.043 C 
ATOM     46  H   LIG d   1       6.489  -0.644  -8.947  0.00  0.00     0.030 H 
BRANCH  45  47
ATOM     47  C   LIG d   1       6.278  -2.564  -7.976  0.00  0.00    -0.062 C 
ATOM     48  H   LIG d   1       5.298  -2.730  -7.504  0.00  0.00     0.023 H 
ATOM     49  H   LIG d   1       6.958  -2.093  -7.252  0.00  0.00     0.023 H 
ATOM     50  H   LIG d   1       6.697  -3.529  -8.299  0.00  0.00     0.023 H 
ENDBRANCH  45  47
BRANCH  45  51
ATOM     51  C   LIG d   1       6.902  -2.217 -10.370  0.00  0.00    -0.062 C 
ATOM     52  H   LIG d   1       6.227  -2.790 -11.022  0.00  0.00     0.023 H 
ATOM     53  H   LIG d   1       7.698  -2.877  -9.994  0.00  0.00     0.023 H 
ATOM     54  H   LIG d   1       7.351  -1.391 -10.943  0.00  0.00     0.023 H 
ENDBRANCH  45  51
ENDBRANCH   5  45
BRANCH   3  55
ATOM     55  C   LIG d   1       4.316   0.777  -8.745  0.00  0.00     0.020 C 
ATOM     56  H   LIG d   1       5.340   0.818  -8.346  0.00  0.00     0.047 H 
ATOM     57  H   LIG d   1       3.991   1.790  -9.026  0.00  0.00     0.047 H 
BRANCH  55  58
ATOM     58  N   LIG d   1       3.414   0.241  -7.722  0.00  0.00    -0.299 N 
ATOM     59  C   LIG d   1       3.864   0.033  -6.469  0.00  0.00     0.304 C 
ATOM     60  O   LIG d   1       5.018   0.290  -6.187  0.00  0.00    -0.253 OA
ATOM     61  N   LIG d   1       3.034  -0.460  -5.528  0.00  0.00    -0.270 N 
ATOM     62  H   LIG d   1       2.014  -0.766  -5.801  0.00  0.00     0.156 HD
ATOM     63  H   LIG d   1       2.370   0.009  -7.977  0.00  0.00     0.150 HD
BRANCH  61  64
ATOM     64  C   LIG d   1       3.471  -0.582  -4.204  0.00  0.00     0.035 A 
ATOM     65  C   LIG d   1       3.515   0.534  -3.380  0.00  0.00    -0.040 A 
ATOM     66  C   LIG d   1       3.946   0.410  -2.074  0.00  0.00    -0.060 A 
ATOM     67  H   LIG d   1       3.213   1.499  -3.760  0.00  0.00     0.064 H 
ATOM     68  C   LIG d   1       4.334  -0.824  -1.587  0.00  0.00    -0.062 A 
ATOM     69  H   LIG d   1       3.981   1.278  -1.432  0.00  0.00     0.062 H 
ATOM     70  C   LIG d   1       4.292  -1.938  -2.405  0.00  0.00    -0.060 A 
ATOM     71  H   LIG d   1       4.671  -0.919  -0.565  0.00  0.00     0.062 H 
ATOM     72  C   LIG d   1       3.856  -1.822  -3.710  0.00  0.00    -0.040 A 
ATOM     73  H   LIG d   1       4.595  -2.902  -2.022  0.00  0.00     0.062 H 
ATOM     74  H   LIG d   1       3.819  -2.693  -4.347  0.00  0.00     0.064 H 
ENDBRANCH  61  64
ENDBRANCH  55  58
ENDBRANCH   3  55
TORSDOF 12
ENDMDL
MODEL 2
REMARK VINA RESULT:      -6.7      6.299      8.694
REMARK  12 active torsions:
REMARK  status: ('A' for Active; 'I' for Inactive)
REMARK    1  A    between atoms: C_1  and  C_2 
REMARK    2  A    between atoms: C_4  and  C_26 
REMARK    3  A    between atoms: C_6  and  C_23 
REMARK    4  A    between atoms: C_9  and  C_11 
REMARK    5  A    between atoms: C_11  and  C_12 
REMARK       I    between atoms: C_12  and  N_14 
REMARK    6  A    between atoms: N_14  and  C_15 
REMARK    7  A    between atoms: C_15  and  C_16 
REMARK    8  A    between atoms: C_16  and  N_17 
REMARK    9  A    between atoms: C_23  and  C_24 
REMARK   10  A    between atoms: C_23  and  C_25 
REMARK   11  A    between atoms: C_26  and  N_27 
REMARK       I    between atoms: N_27  and  C_28 
REMARK       I    between atoms: C_28  and  N_30 
REMARK   12  A    between atoms: N_30  and  C_31 
ROOT
ATOM      1  C   LIG d   1       6.861  -3.216  -4.252  0.00  0.00    -0.073 C 
ATOM      2  C   LIG d   1       7.282  -2.026  -3.970  0.00  0.00    -0.080 C 
ATOM      3  C   LIG d   1       6.390  -0.895  -3.549  0.00  0.00    -0.004 C 
ATOM      4  H   LIG d   1       6.485  -0.775  -2.460  0.00  0.00     0.036 H 
ATOM      5  C   LIG d   1       4.936  -1.211  -3.906  0.00  0.00    -0.030 C 
ATOM      6  H   LIG d   1       4.797  -1.158  -4.997  0.00  0.00     0.031 H 
ATOM      7  C   LIG d   1       4.606  -2.619  -3.397  0.00  0.00    -0.042 C 
ATOM      8  C   LIG d   1       5.420  -3.630  -4.207  0.00  0.00    -0.012 C 
ATOM      9  H   LIG d   1       5.365  -4.618  -3.725  0.00  0.00     0.035 H 
ATOM     10  H   LIG d   1       8.356  -1.793  -4.034  0.00  0.00     0.058 H 
ATOM     11  H   LIG d   1       4.867  -2.694  -2.331  0.00  0.00     0.027 H 
ATOM     12  H   LIG d   1       3.531  -2.812  -3.524  0.00  0.00     0.027 H 
ENDROOT
BRANCH   8  13
ATOM     13  C   LIG d   1       4.867  -3.701  -5.631  0.00  0.00     0.030 C 
ATOM     14  H   LIG d   1       4.010  -3.017  -5.726  0.00  0.00     0.036 H 
ATOM     15  H   LIG d   1       5.651  -3.407  -6.344  0.00  0.00     0.036 H 
BRANCH  13  16
ATOM     16  C   LIG d   1       4.420  -5.110  -5.929  0.00  0.00     0.214 C 
ATOM     17  O   LIG d   1       3.305  -5.313  -6.360  0.00  0.00    -0.276 OA
ATOM     18  N   LIG d   1       5.259  -6.143  -5.716  0.00  0.00    -0.310 N 
ATOM     19  H   LIG d   1       6.270  -5.957  -5.325  0.00  0.00     0.149 HD
BRANCH  18  20
ATOM     20  C   LIG d   1       4.825  -7.511  -6.005  0.00  0.00     0.052 C 
ATOM     21  H   LIG d   1       3.850  -7.694  -5.529  0.00  0.00     0.051 H 
ATOM     22  H   LIG d   1       4.731  -7.644  -7.093  0.00  0.00     0.051 H 
BRANCH  20  23
ATOM     23  C   LIG d   1       5.855  -8.500  -5.456  0.00  0.00    -0.016 C 
ATOM     24  H   LIG d   1       6.607  -8.712  -6.231  0.00  0.00     0.083 H 
ATOM     25  H   LIG d   1       6.347  -8.064  -4.575  0.00  0.00     0.083 H 
BRANCH  23  26
ATOM     26  N   LIG d   1       5.179  -9.748  -5.075  0.00  0.00     0.240 N 
ATOM     27  C   LIG d   1       4.197  -9.509  -4.006  0.00  0.00    -0.008 C 
ATOM     28  C   LIG d   1       3.561 -10.840  -3.598  0.00  0.00     0.088 C 
ATOM     29  H   LIG d   1       4.701  -9.059  -3.139  0.00  0.00     0.084 H 
ATOM     30  H   LIG d   1       3.417  -8.824  -4.373  0.00  0.00     0.084 H 
ATOM     31  O   LIG d   1       2.972 -11.454  -4.748  0.00  0.00    -0.369 OA
ATOM     32  H   LIG d   1       2.785 -10.661  -2.840  0.00  0.00     0.061 H 
ATOM     33  H   LIG d   1       4.332 -11.505  -3.183  0.00  0.00     0.061 H 
ATOM     34  C   LIG d   1       3.901 -11.701  -5.808  0.00  0.00     0.088 C 
ATOM     35  C   LIG d   1       4.541 -10.378  -6.238  0.00  0.00    -0.008 C 
ATOM     36  H   LIG d   1       3.373 -12.150  -6.663  0.00  0.00     0.061 H 
ATOM     37  H   LIG d   1       4.684 -12.390  -5.458  0.00  0.00     0.061 H 
ATOM     38  H   LIG d   1       3.766  -9.709  -6.640  0.00  0.00     0.084 H 
ATOM     39  H   LIG d   1       5.298 -10.570  -7.013  0.00  0.00     0.084 H 
ATOM     40  H   LIG d   1       5.943 -10.438  -4.688  0.00  0.00     0.204 HD
ENDBRANCH  23  26
ENDBRANCH  20  23
ENDBRANCH  18  20
ENDBRANCH  13  16
ENDBRANCH   8  13
BRANCH   1  41
ATOM     41  C   LIG d   1       7.881  -4.252  -4.651  0.00  0.00    -0.043 C 
ATOM     42  H   LIG d   1       7.712  -5.172  -4.072  0.00  0.00     0.027 H 
ATOM     43  H   LIG d   1       8.892  -3.870  -4.446  0.00  0.00     0.027 H 
ATOM     44  H   LIG d   1       7.782  -4.469  -5.724  0.00  0.00     0.027 H 
ENDBRANCH   1  41
BRANCH   5  45
ATOM     45  C   LIG d   1       4.007  -0.192  -3.243  0.00  0.00    -0.043 C 
ATOM     46  H   LIG d   1       4.050   0.758  -3.796  0.00  0.00     0.030 H 
BRANCH  45  47
ATOM     47  C   LIG d   1       2.573  -0.726  -3.257  0.00  0.00    -0.062 C 
ATOM     48  H   LIG d   1       1.887   0.053  -2.890  0.00  0.00     0.023 H 
ATOM     49  H   LIG d   1       2.504  -1.610  -2.607  0.00  0.00     0.023 H 
ATOM     50  H   LIG d   1       2.295  -1.004  -4.285  0.00  0.00     0.023 H 
ENDBRANCH  45  47
BRANCH  45  51
ATOM     51  C   LIG d   1       4.450   0.038  -1.797  0.00  0.00    -0.062 C 
ATOM     52  H   LIG d   1       5.420   0.559  -1.789  0.00  0.00     0.023 H 
ATOM     53  H   LIG d   1       4.550  -0.931  -1.286  0.00  0.00     0.023 H 
ATOM     54  H   LIG d   1       3.700   0.652  -1.277  0.00  0.00     0.023 H 
ENDBRANCH  45  51
ENDBRANCH   5  45
BRANCH   3  55
ATOM     55  C   LIG d   1       6.821   0.386  -4.266  0.00  0.00     0.020 C 
ATOM     56  H   LIG d   1       6.877   0.199  -5.348  0.00  0.00     0.047 H 
ATOM     57  H   LIG d   1       6.088   1.181  -4.068  0.00  0.00     0.047 H 
BRANCH  55  58
ATOM     58  N   LIG d   1       8.138   0.801  -3.774  0.00  0.00    -0.299 N 
ATOM     59  C   LIG d   1       8.579   2.053  -4.004  0.00  0.00     0.304 C 
ATOM     60  O   LIG d   1       7.886   2.838  -4.621  0.00  0.00    -0.253 OA
ATOM     61  N   LIG d   1       9.790   2.435  -3.552  0.00  0.00    -0.270 N 
ATOM     62  H   LIG d   1      10.450   1.703  -3.064  0.00  0.00     0.156 HD
ATOM     63  H   LIG d   1       8.765   0.091  -3.216  0.00  0.00     0.150 HD
BRANCH  61  64
ATOM     64  C   LIG d   1      10.207   3.762  -3.704  0.00  0.00     0.035 A 
ATOM     65  C   LIG d   1       9.913   4.701  -2.724  0.00  0.00    -0.040 A 
ATOM     66  C   LIG d   1      10.326   6.009  -2.876  0.00  0.00    -0.060 A 
ATOM     67  H   LIG d   1       9.361   4.407  -1.844  0.00  0.00     0.064 H 
ATOM     68  C   LIG d   1      11.033   6.386  -4.004  0.00  0.00    -0.062 A 
ATOM     69  H   LIG d   1      10.098   6.740  -2.115  0.00  0.00     0.062 H 
ATOM     70  C   LIG d   1      11.327   5.454  -4.982  0.00  0.00    -0.060 A 
ATOM     71  H   LIG d   1      11.354   7.410  -4.121  0.00  0.00     0.062 H 
ATOM     72  C   LIG d   1      10.921   4.142  -4.833  0.00  0.00    -0.040 A 
ATOM     73  H   LIG d   1      11.879   5.751  -5.862  0.00  0.00     0.062 H 
ATOM     74  H   LIG d   1      11.156   3.414  -5.595  0.00  0.00     0.064 H 
ENDBRANCH  61  64
ENDBRANCH  55  58
ENDBRANCH   3  55
TORSDOF 12
ENDMDL
MODEL 3
REMARK VINA RESULT:      -6.7      8.478     13.873
REMARK  12 active torsions:
REMARK  status: ('A' for Active; 'I' for Inactive)
REMARK    1  A    between atoms: C_1  and  C_2 
REMARK    2  A    between atoms: C_4  and  C_26 
REMARK    3  A    between atoms: C_6  and  C_23 
REMARK    4  A    between atoms: C_9  and  C_11 
REMARK    5  A    between atoms: C_11  and  C_12 
REMARK       I    between atoms: C_12  and  N_14 
REMARK    6  A    between atoms: N_14  and  C_15 
REMARK    7  A    between atoms: C_15  and  C_16 
REMARK    8  A    between atoms: C_16  and  N_17 
REMARK    9  A    between atoms: C_23  and  C_24 
REMARK   10  A    between atoms: C_23  and  C_25 
REMARK   11  A    between atoms: C_26  and  N_27 
REMARK       I    between atoms: N_27  and  C_28 
REMARK       I    between atoms: C_28  and  N_30 
REMARK   12  A    between atoms: N_30  and  C_31 
ROOT
ATOM      1  C   LIG d   1      10.235   4.767  -3.643  0.00  0.00    -0.073 C 
ATOM      2  C   LIG d   1       9.914   3.576  -4.034  0.00  0.00    -0.080 C 
ATOM      3  C   LIG d   1       9.841   3.153  -5.472  0.00  0.00    -0.004 C 
ATOM      4  H   LIG d   1      10.747   2.574  -5.702  0.00  0.00     0.036 H 
ATOM      5  C   LIG d   1       9.774   4.383  -6.379  0.00  0.00    -0.030 C 
ATOM      6  H   LIG d   1       8.792   4.869  -6.281  0.00  0.00     0.031 H 
ATOM      7  C   LIG d   1      10.890   5.352  -5.968  0.00  0.00    -0.042 C 
ATOM      8  C   LIG d   1      10.569   5.896  -4.574  0.00  0.00    -0.012 C 
ATOM      9  H   LIG d   1      11.448   6.420  -4.172  0.00  0.00     0.035 H 
ATOM     10  H   LIG d   1       9.673   2.801  -3.291  0.00  0.00     0.058 H 
ATOM     11  H   LIG d   1      11.851   4.818  -5.951  0.00  0.00     0.027 H 
ATOM     12  H   LIG d   1      10.943   6.178  -6.692  0.00  0.00     0.027 H 
ENDROOT
BRANCH   8  13
ATOM     13  C   LIG d   1       9.376   6.849  -4.664  0.00  0.00     0.030 C 
ATOM     14  H   LIG d   1       8.878   6.722  -5.637  0.00  0.00     0.036 H 
ATOM     15  H   LIG d   1       8.665   6.624  -3.857  0.00  0.00     0.036 H 
BRANCH  13  16
ATOM     16  C   LIG d   1       9.858   8.272  -4.529  0.00  0.00     0.214 C 
ATOM     17  O   LIG d   1      10.910   8.505  -3.973  0.00  0.00    -0.276 OA
ATOM     18  N   LIG d   1       9.119   9.283  -5.027  0.00  0.00    -0.310 N 
ATOM     19  H   LIG d   1       8.165   9.071  -5.531  0.00  0.00     0.149 HD
BRANCH  18  20
ATOM     20  C   LIG d   1       9.587  10.665  -4.895  0.00  0.00     0.052 C 
ATOM     21  H   LIG d   1      10.674  10.670  -4.728  0.00  0.00     0.051 H 
ATOM     22  H   LIG d   1       9.356  11.219  -5.817  0.00  0.00     0.051 H 
BRANCH  20  23
ATOM     23  C   LIG d   1       8.885  11.331  -3.710  0.00  0.00    -0.016 C 
ATOM     24  H   LIG d   1       8.735  12.399  -3.927  0.00  0.00     0.083 H 
ATOM     25  H   LIG d   1       7.911  10.849  -3.543  0.00  0.00     0.083 H 
BRANCH  23  26
ATOM     26  N   LIG d   1       9.716  11.187  -2.506  0.00  0.00     0.240 N 
ATOM     27  C   LIG d   1      10.024  12.500  -1.920  0.00  0.00    -0.008 C 
ATOM     28  C   LIG d   1      10.938  12.310  -0.706  0.00  0.00     0.088 C 
ATOM     29  H   LIG d   1      10.531  13.126  -2.669  0.00  0.00     0.084 H 
ATOM     30  H   LIG d   1       9.090  12.989  -1.605  0.00  0.00     0.084 H 
ATOM     31  O   LIG d   1      10.303  11.435   0.229  0.00  0.00    -0.369 OA
ATOM     32  H   LIG d   1      11.125  13.283  -0.230  0.00  0.00     0.061 H 
ATOM     33  H   LIG d   1      11.893  11.870  -1.030  0.00  0.00     0.061 H 
ATOM     34  C   LIG d   1       9.989  10.147  -0.309  0.00  0.00     0.088 C 
ATOM     35  C   LIG d   1       9.065  10.315  -1.518  0.00  0.00    -0.008 C 
ATOM     36  H   LIG d   1       9.483   9.541   0.458  0.00  0.00     0.061 H 
ATOM     37  H   LIG d   1      10.915   9.643  -0.622  0.00  0.00     0.061 H 
ATOM     38  H   LIG d   1       8.116  10.769  -1.196  0.00  0.00     0.084 H 
ATOM     39  H   LIG d   1       8.867   9.332  -1.970  0.00  0.00     0.084 H 
ATOM     40  H   LIG d   1      10.663  10.716  -2.806  0.00  0.00     0.204 HD
ENDBRANCH  23  26
ENDBRANCH  20  23
ENDBRANCH  18  20
ENDBRANCH  13  16
ENDBRANCH   8  13
BRANCH   1  41
ATOM     41  C   LIG d   1      10.276   5.039  -2.161  0.00  0.00    -0.043 C 
ATOM     42  H   LIG d   1       9.653   5.918  -1.934  0.00  0.00     0.027 H 
ATOM     43  H   LIG d   1      11.312   5.233  -1.852  0.00  0.00     0.027 H 
ATOM     44  H   LIG d   1       9.889   4.165  -1.617  0.00  0.00     0.027 H 
ENDBRANCH   1  41
BRANCH   5  45
ATOM     45  C   LIG d   1       9.970   3.963  -7.837  0.00  0.00    -0.043 C 
ATOM     46  H   LIG d   1       9.429   3.023  -8.024  0.00  0.00     0.030 H 
BRANCH  45  47
ATOM     47  C   LIG d   1       9.426   5.055  -8.760  0.00  0.00    -0.062 C 
ATOM     48  H   LIG d   1      10.265   5.576  -9.246  0.00  0.00     0.023 H 
ATOM     49  H   LIG d   1       8.840   5.775  -8.171  0.00  0.00     0.023 H 
ATOM     50  H   LIG d   1       8.784   4.600  -9.529  0.00  0.00     0.023 H 
ENDBRANCH  45  47
BRANCH  45  51
ATOM     51  C   LIG d   1      11.460   3.757  -8.113  0.00  0.00    -0.062 C 
ATOM     52  H   LIG d   1      12.029   4.606  -7.707  0.00  0.00     0.023 H 
ATOM     53  H   LIG d   1      11.626   3.690  -9.199  0.00  0.00     0.023 H 
ATOM     54  H   LIG d   1      11.797   2.826  -7.632  0.00  0.00     0.023 H 
ENDBRANCH  45  51
ENDBRANCH   5  45
BRANCH   3  55
ATOM     55  C   LIG d   1       8.592   2.297  -5.686  0.00  0.00     0.020 C 
ATOM     56  H   LIG d   1       7.989   2.723  -6.501  0.00  0.00     0.047 H 
ATOM     57  H   LIG d   1       8.891   1.271  -5.949  0.00  0.00     0.047 H 
BRANCH  55  58
ATOM     58  N   LIG d   1       7.799   2.273  -4.453  0.00  0.00    -0.299 N 
ATOM     59  C   LIG d   1       6.799   1.382  -4.313  0.00  0.00     0.304 C 
ATOM     60  O   LIG d   1       6.553   0.597  -5.208  0.00  0.00    -0.253 OA
ATOM     61  N   LIG d   1       6.069   1.360  -3.179  0.00  0.00    -0.270 N 
ATOM     62  H   LIG d   1       6.239   2.120  -2.402  0.00  0.00     0.156 HD
ATOM     63  H   LIG d   1       8.022   2.983  -3.643  0.00  0.00     0.150 HD
BRANCH  61  64
ATOM     64  C   LIG d   1       5.097   0.371  -2.991  0.00  0.00     0.035 A 
ATOM     65  C   LIG d   1       5.471  -0.910  -2.608  0.00  0.00    -0.040 A 
ATOM     66  C   LIG d   1       4.510  -1.882  -2.423  0.00  0.00    -0.060 A 
ATOM     67  H   LIG d   1       6.514  -1.144  -2.455  0.00  0.00     0.064 H 
ATOM     68  C   LIG d   1       3.174  -1.582  -2.620  0.00  0.00    -0.062 A 
ATOM     69  H   LIG d   1       4.800  -2.879  -2.125  0.00  0.00     0.062 H 
ATOM     70  C   LIG d   1       2.798  -0.308  -3.002  0.00  0.00    -0.060 A 
ATOM     71  H   LIG d   1       2.424  -2.345  -2.474  0.00  0.00     0.062 H 
ATOM     72  C   LIG d   1       3.754   0.671  -3.183  0.00  0.00    -0.040 A 
ATOM     73  H   LIG d   1       1.753  -0.076  -3.154  0.00  0.00     0.062 H 
ATOM     74  H   LIG d   1       3.459   1.667  -3.476  0.00  0.00     0.064 H 
ENDBRANCH  61  64
ENDBRANCH  55  58
ENDBRANCH   3  55
TORSDOF 12
ENDMDL
MODEL 4
REMARK VINA RESULT:      -6.6      4.915     11.521
REMARK  12 active torsions:
REMARK  status: ('A' for Active; 'I' for Inactive)
REMARK    1  A    between atoms: C_1  and  C_2 
REMARK    2  A    between atoms: C_4  and  C_26 
REMARK    3  A    between atoms: C_6  and  C_23 
REMARK    4  A    between atoms: C_9  and  C_11 
REMARK    5  A    between atoms: C_11  and  C_12 
REMARK       I    between atoms: C_12  and  N_14 
REMARK    6  A    between atoms: N_14  and  C_15 
REMARK    7  A    between atoms: C_15  and  C_16 
REMARK    8  A    between atoms: C_16  and  N_17 
REMARK    9  A    between atoms: C_23  and  C_24 
REMARK   10  A    between atoms: C_23  and  C_25 
REMARK   11  A    between atoms: C_26  and  N_27 
REMARK       I    between atoms: N_27  and  C_28 
REMARK       I    between atoms: C_28  and  N_30 
REMARK   12  A    between atoms: N_30  and  C_31 
ROOT
ATOM      1  C   LIG d   1       5.388  -0.116  -2.642  0.00  0.00    -0.073 C 
ATOM      2  C   LIG d   1       4.857  -1.242  -2.995  0.00  0.00    -0.080 C 
ATOM      3  C   LIG d   1       5.574  -2.301  -3.782  0.00  0.00    -0.004 C 
ATOM      4  H   LIG d   1       5.875  -3.096  -3.085  0.00  0.00     0.036 H 
ATOM      5  C   LIG d   1       6.814  -1.708  -4.453  0.00  0.00    -0.030 C 
ATOM      6  H   LIG d   1       6.514  -1.040  -5.275  0.00  0.00     0.031 H 
ATOM      7  C   LIG d   1       7.611  -0.929  -3.400  0.00  0.00    -0.042 C 
ATOM      8  C   LIG d   1       6.792   0.293  -2.979  0.00  0.00    -0.012 C 
ATOM      9  H   LIG d   1       7.239   0.746  -2.081  0.00  0.00     0.035 H 
ATOM     10  H   LIG d   1       3.817  -1.470  -2.718  0.00  0.00     0.058 H 
ATOM     11  H   LIG d   1       7.796  -1.575  -2.529  0.00  0.00     0.027 H 
ATOM     12  H   LIG d   1       8.572  -0.609  -3.829  0.00  0.00     0.027 H 
ENDROOT
BRANCH   8  13
ATOM     13  C   LIG d   1       6.764   1.304  -4.127  0.00  0.00     0.030 C 
ATOM     14  H   LIG d   1       6.381   0.816  -5.036  0.00  0.00     0.036 H 
ATOM     15  H   LIG d   1       6.109   2.145  -3.859  0.00  0.00     0.036 H 
BRANCH  13  16
ATOM     16  C   LIG d   1       8.160   1.815  -4.382  0.00  0.00     0.214 C 
ATOM     17  O   LIG d   1       8.682   1.637  -5.462  0.00  0.00    -0.276 OA
ATOM     18  N   LIG d   1       8.826   2.470  -3.411  0.00  0.00    -0.310 N 
ATOM     19  H   LIG d   1       8.352   2.631  -2.431  0.00  0.00     0.149 HD
BRANCH  18  20
ATOM     20  C   LIG d   1      10.181   2.966  -3.658  0.00  0.00     0.052 C 
ATOM     21  H   LIG d   1      10.810   2.769  -2.777  0.00  0.00     0.051 H 
ATOM     22  H   LIG d   1      10.606   2.451  -4.533  0.00  0.00     0.051 H 
BRANCH  20  23
ATOM     23  C   LIG d   1      10.133   4.471  -3.925  0.00  0.00    -0.016 C 
ATOM     24  H   LIG d   1      11.088   4.796  -4.364  0.00  0.00     0.083 H 
ATOM     25  H   LIG d   1       9.314   4.693  -4.625  0.00  0.00     0.083 H 
BRANCH  23  26
ATOM     26  N   LIG d   1       9.906   5.185  -2.661  0.00  0.00     0.240 N 
ATOM     27  C   LIG d   1      11.055   5.030  -1.756  0.00  0.00    -0.008 C 
ATOM     28  C   LIG d   1      10.754   5.738  -0.432  0.00  0.00     0.088 C 
ATOM     29  H   LIG d   1      11.235   3.962  -1.571  0.00  0.00     0.084 H 
ATOM     30  H   LIG d   1      11.948   5.478  -2.219  0.00  0.00     0.084 H 
ATOM     31  O   LIG d   1      10.449   7.111  -0.690  0.00  0.00    -0.369 OA
ATOM     32  H   LIG d   1      11.632   5.675   0.227  0.00  0.00     0.061 H 
ATOM     33  H   LIG d   1       9.894   5.256   0.055  0.00  0.00     0.061 H 
ATOM     34  C   LIG d   1       9.335   7.298  -1.568  0.00  0.00     0.088 C 
ATOM     35  C   LIG d   1       9.621   6.607  -2.903  0.00  0.00    -0.008 C 
ATOM     36  H   LIG d   1       9.176   8.374  -1.737  0.00  0.00     0.061 H 
ATOM     37  H   LIG d   1       8.432   6.861  -1.115  0.00  0.00     0.061 H 
ATOM     38  H   LIG d   1      10.491   7.080  -3.383  0.00  0.00     0.084 H 
ATOM     39  H   LIG d   1       8.745   6.698  -3.561  0.00  0.00     0.084 H 
ATOM     40  H   LIG d   1       9.027   4.738  -2.176  0.00  0.00     0.204 HD
ENDBRANCH  23  26
ENDBRANCH  20  23
ENDBRANCH  18  20
ENDBRANCH  13  16
ENDBRANCH   8  13
BRANCH   1  41
ATOM     41  C   LIG d   1       4.545   0.845  -1.843  0.00  0.00    -0.043 C 
ATOM     42  H   LIG d   1       4.798   0.751  -0.776  0.00  0.00     0.027 H 
ATOM     43  H   LIG d   1       3.482   0.611  -1.991  0.00  0.00     0.027 H 
ATOM     44  H   LIG d   1       4.745   1.873  -2.178  0.00  0.00     0.027 H 
ENDBRANCH   1  41
BRANCH   5  45
ATOM     45  C   LIG d   1       7.680  -2.832  -5.026  0.00  0.00    -0.043 C 
ATOM     46  H   LIG d   1       7.036  -3.576  -5.517  0.00  0.00     0.030 H 
BRANCH  45  47
ATOM     47  C   LIG d   1       8.660  -2.251  -6.047  0.00  0.00    -0.062 C 
ATOM     48  H   LIG d   1       9.160  -1.370  -5.616  0.00  0.00     0.023 H 
ATOM     49  H   LIG d   1       8.112  -1.954  -6.953  0.00  0.00     0.023 H 
ATOM     50  H   LIG d   1       9.413  -3.010  -6.306  0.00  0.00     0.023 H 
ENDBRANCH  45  47
BRANCH  45  51
ATOM     51  C   LIG d   1       8.461  -3.502  -3.894  0.00  0.00    -0.062 C 
ATOM     52  H   LIG d   1       8.747  -2.745  -3.147  0.00  0.00     0.023 H 
ATOM     53  H   LIG d   1       9.367  -3.974  -4.302  0.00  0.00     0.023 H 
ATOM     54  H   LIG d   1       7.831  -4.268  -3.417  0.00  0.00     0.023 H 
ENDBRANCH  45  51
ENDBRANCH   5  45
BRANCH   3  55
ATOM     55  C   LIG d   1       4.635  -2.858  -4.853  0.00  0.00     0.020 C 
ATOM     56  H   LIG d   1       5.228  -3.287  -5.674  0.00  0.00     0.047 H 
ATOM     57  H   LIG d   1       3.999  -3.640  -4.413  0.00  0.00     0.047 H 
BRANCH  55  58
ATOM     58  N   LIG d   1       3.791  -1.778  -5.373  0.00  0.00    -0.299 N 
ATOM     59  C   LIG d   1       4.016  -1.281  -6.605  0.00  0.00     0.304 C 
ATOM     60  O   LIG d   1       4.919  -1.727  -7.285  0.00  0.00    -0.253 OA
ATOM     61  N   LIG d   1       3.240  -0.288  -7.083  0.00  0.00    -0.270 N 
ATOM     62  H   LIG d   1       2.474   0.169  -6.439  0.00  0.00     0.156 HD
ATOM     63  H   LIG d   1       2.973  -1.375  -4.757  0.00  0.00     0.150 HD
BRANCH  61  64
ATOM     64  C   LIG d   1       3.408   0.161  -8.398  0.00  0.00     0.035 A 
ATOM     65  C   LIG d   1       2.773  -0.495  -9.444  0.00  0.00    -0.040 A 
ATOM     66  C   LIG d   1       2.940  -0.049 -10.739  0.00  0.00    -0.060 A 
ATOM     67  H   LIG d   1       2.148  -1.353  -9.243  0.00  0.00     0.064 H 
ATOM     68  C   LIG d   1       3.741   1.049 -10.996  0.00  0.00    -0.062 A 
ATOM     69  H   LIG d   1       2.446  -0.558 -11.554  0.00  0.00     0.062 H 
ATOM     70  C   LIG d   1       4.375   1.704  -9.957  0.00  0.00    -0.060 A 
ATOM     71  H   LIG d   1       3.870   1.395 -12.011  0.00  0.00     0.062 H 
ATOM     72  C   LIG d   1       4.206   1.267  -8.658  0.00  0.00    -0.040 A 
ATOM     73  H   LIG d   1       4.999   2.562 -10.161  0.00  0.00     0.062 H 
ATOM     74  H   LIG d   1       4.699   1.782  -7.847  0.00  0.00     0.064 H 
ENDBRANCH  61  64
ENDBRANCH  55  58
ENDBRANCH   3  55
TORSDOF 12
ENDMDL
MODEL 5
REMARK VINA RESULT:      -6.6      8.346     14.119
REMARK  12 active torsions:
REMARK  status: ('A' for Active; 'I' for Inactive)
REMARK    1  A    between atoms: C_1  and  C_2 
REMARK    2  A    between atoms: C_4  and  C_26 
REMARK    3  A    between atoms: C_6  and  C_23 
REMARK    4  A    between atoms: C_9  and  C_11 
REMARK    5  A    between atoms: C_11  and  C_12 
REMARK       I    between atoms: C_12  and  N_14 
REMARK    6  A    between atoms: N_14  and  C_15 
REMARK    7  A    between atoms: C_15  and  C_16 
REMARK    8  A    between atoms: C_16  and  N_17 
REMARK    9  A    between atoms: C_23  and  C_24 
REMARK   10  A    between atoms: C_23  and  C_25 
REMARK   11  A    between atoms: C_26  and  N_27 
REMARK       I    between atoms: N_27  and  C_28 
REMARK       I    between atoms: C_28  and  N_30 
REMARK   12  A    between atoms: N_30  and  C_31 
ROOT
ATOM      1  C   LIG d   1      10.683   3.966  -3.868  0.00  0.00    -0.073 C 
ATOM      2  C   LIG d   1      10.472   2.847  -4.481  0.00  0.00    -0.080 C 
ATOM      3  C   LIG d   1      10.198   2.730  -5.951  0.00  0.00    -0.004 C 
ATOM      4  H   LIG d   1      11.121   2.388  -6.443  0.00  0.00     0.036 H 
ATOM      5  C   LIG d   1       9.787   4.089  -6.519  0.00  0.00    -0.030 C 
ATOM      6  H   LIG d   1       8.779   4.356  -6.165  0.00  0.00     0.031 H 
ATOM      7  C   LIG d   1      10.806   5.137  -6.057  0.00  0.00    -0.042 C 
ATOM      8  C   LIG d   1      10.673   5.307  -4.542  0.00  0.00    -0.012 C 
ATOM      9  H   LIG d   1      11.526   5.887  -4.159  0.00  0.00     0.035 H 
ATOM     10  H   LIG d   1      10.487   1.901  -3.917  0.00  0.00     0.058 H 
ATOM     11  H   LIG d   1      11.822   4.797  -6.308  0.00  0.00     0.027 H 
ATOM     12  H   LIG d   1      10.605   6.093  -6.562  0.00  0.00     0.027 H 
ENDROOT
BRANCH   8  13
ATOM     13  C   LIG d   1       9.358   6.024  -4.226  0.00  0.00     0.030 C 
ATOM     14  H   LIG d   1       8.916   6.404  -5.159  0.00  0.00     0.036 H 
ATOM     15  H   LIG d   1       8.661   5.318  -3.752  0.00  0.00     0.036 H 
BRANCH  13  16
ATOM     16  C   LIG d   1       9.624   7.175  -3.290  0.00  0.00     0.214 C 
ATOM     17  O   LIG d   1      10.294   8.115  -3.662  0.00  0.00    -0.276 OA
ATOM     18  N   LIG d   1       9.118   7.160  -2.042  0.00  0.00    -0.310 N 
ATOM     19  H   LIG d   1       8.511   6.306  -1.705  0.00  0.00     0.149 HD
BRANCH  18  20
ATOM     20  C   LIG d   1       9.376   8.278  -1.133  0.00  0.00     0.052 C 
ATOM     21  H   LIG d   1       9.693   9.157  -1.713  0.00  0.00     0.051 H 
ATOM     22  H   LIG d   1       8.458   8.519  -0.577  0.00  0.00     0.051 H 
BRANCH  20  23
ATOM     23  C   LIG d   1      10.482   7.891  -0.148  0.00  0.00    -0.016 C 
ATOM     24  H   LIG d   1      10.041   7.356   0.706  0.00  0.00     0.083 H 
ATOM     25  H   LIG d   1      11.210   7.240  -0.653  0.00  0.00     0.083 H 
BRANCH  23  26
ATOM     26  N   LIG d   1      11.158   9.105   0.330  0.00  0.00     0.240 N 
ATOM     27  C   LIG d   1      10.264  10.270   0.253  0.00  0.00    -0.008 C 
ATOM     28  C   LIG d   1      11.024  11.521   0.703  0.00  0.00     0.088 C 
ATOM     29  H   LIG d   1       9.919  10.401  -0.782  0.00  0.00     0.084 H 
ATOM     30  H   LIG d   1       9.396  10.109   0.911  0.00  0.00     0.084 H 
ATOM     31  O   LIG d   1      11.533  11.314   2.023  0.00  0.00    -0.369 OA
ATOM     32  H   LIG d   1      10.344  12.385   0.703  0.00  0.00     0.061 H 
ATOM     33  H   LIG d   1      11.860  11.712   0.014  0.00  0.00     0.061 H 
ATOM     34  C   LIG d   1      12.407  10.187   2.133  0.00  0.00     0.088 C 
ATOM     35  C   LIG d   1      11.661   8.923   1.698  0.00  0.00    -0.008 C 
ATOM     36  H   LIG d   1      12.738  10.078   3.177  0.00  0.00     0.061 H 
ATOM     37  H   LIG d   1      13.284  10.337   1.486  0.00  0.00     0.061 H 
ATOM     38  H   LIG d   1      10.817   8.742   2.379  0.00  0.00     0.084 H 
ATOM     39  H   LIG d   1      12.347   8.063   1.726  0.00  0.00     0.084 H 
ATOM     40  H   LIG d   1      12.019   9.292  -0.329  0.00  0.00     0.204 HD
ENDBRANCH  23  26
ENDBRANCH  20  23
ENDBRANCH  18  20
ENDBRANCH  13  16
ENDBRANCH   8  13
BRANCH   1  41
ATOM     41  C   LIG d   1      10.956   3.923  -2.386  0.00  0.00    -0.043 C 
ATOM     42  H   LIG d   1      11.171   2.887  -2.085  0.00  0.00     0.027 H 
ATOM     43  H   LIG d   1      10.076   4.290  -1.840  0.00  0.00     0.027 H 
ATOM     44  H   LIG d   1      11.823   4.560  -2.155  0.00  0.00     0.027 H 
ENDBRANCH   1  41
BRANCH   5  45
ATOM     45  C   LIG d   1       9.769   4.029  -8.048  0.00  0.00    -0.043 C 
ATOM     46  H   LIG d   1       9.042   3.272  -8.376  0.00  0.00     0.030 H 
BRANCH  45  47
ATOM     47  C   LIG d   1       9.371   5.396  -8.608  0.00  0.00    -0.062 C 
ATOM     48  H   LIG d   1       9.998   6.176  -8.151  0.00  0.00     0.023 H 
ATOM     49  H   LIG d   1       8.314   5.592  -8.378  0.00  0.00     0.023 H 
ATOM     50  H   LIG d   1       9.516   5.401  -9.699  0.00  0.00     0.023 H 
ENDBRANCH  45  47
BRANCH  45  51
ATOM     51  C   LIG d   1      11.162   3.654  -8.560  0.00  0.00    -0.062 C 
ATOM     52  H   LIG d   1      11.072   3.157  -9.538  0.00  0.00     0.023 H 
ATOM     53  H   LIG d   1      11.643   2.971  -7.845  0.00  0.00     0.023 H 
ATOM     54  H   LIG d   1      11.771   4.565  -8.665  0.00  0.00     0.023 H 
ENDBRANCH  45  51
ENDBRANCH   5  45
BRANCH   3  55
ATOM     55  C   LIG d   1       9.068   1.723  -6.178  0.00  0.00     0.020 C 
ATOM     56  H   LIG d   1       8.140   2.262  -6.421  0.00  0.00     0.047 H 
ATOM     57  H   LIG d   1       9.334   1.056  -7.011  0.00  0.00     0.047 H 
BRANCH  55  58
ATOM     58  N   LIG d   1       8.869   0.930  -4.962  0.00  0.00    -0.299 N 
ATOM     59  C   LIG d   1       7.627   0.558  -4.596  0.00  0.00     0.304 C 
ATOM     60  O   LIG d   1       6.671   0.879  -5.275  0.00  0.00    -0.253 OA
ATOM     61  N   LIG d   1       7.444  -0.171  -3.477  0.00  0.00    -0.270 N 
ATOM     62  H   LIG d   1       8.298  -0.395  -2.822  0.00  0.00     0.156 HD
ATOM     63  H   LIG d   1       9.734   0.639  -4.347  0.00  0.00     0.150 HD
BRANCH  61  64
ATOM     64  C   LIG d   1       6.167  -0.643  -3.151  0.00  0.00     0.035 A 
ATOM     65  C   LIG d   1       5.264   0.186  -2.499  0.00  0.00    -0.040 A 
ATOM     66  C   LIG d   1       4.006  -0.283  -2.179  0.00  0.00    -0.060 A 
ATOM     67  H   LIG d   1       5.546   1.196  -2.242  0.00  0.00     0.064 H 
ATOM     68  C   LIG d   1       3.644  -1.577  -2.506  0.00  0.00    -0.062 A 
ATOM     69  H   LIG d   1       3.302   0.361  -1.672  0.00  0.00     0.062 H 
ATOM     70  C   LIG d   1       4.541  -2.405  -3.155  0.00  0.00    -0.060 A 
ATOM     71  H   LIG d   1       2.659  -1.941  -2.254  0.00  0.00     0.062 H 
ATOM     72  C   LIG d   1       5.799  -1.940  -3.483  0.00  0.00    -0.040 A 
ATOM     73  H   LIG d   1       4.256  -3.415  -3.410  0.00  0.00     0.062 H 
ATOM     74  H   LIG d   1       6.498  -2.586  -3.994  0.00  0.00     0.064 H 
ENDBRANCH  61  64
ENDBRANCH  55  58
ENDBRANCH   3  55
TORSDOF 12
ENDMDL
MODEL 6
REMARK VINA RESULT:      -6.5      7.847     13.443
REMARK  12 active torsions:
REMARK  status: ('A' for Active; 'I' for Inactive)
REMARK    1  A    between atoms: C_1  and  C_2 
REMARK    2  A    between atoms: C_4  and  C_26 
REMARK    3  A    between atoms: C_6  and  C_23 
REMARK    4  A    between atoms: C_9  and  C_11 
REMARK    5  A    between atoms: C_11  and  C_12 
REMARK       I    between atoms: C_12  and  N_14 
REMARK    6  A    between atoms: N_14  and  C_15 
REMARK    7  A    between atoms: C_15  and  C_16 
REMARK    8  A    between atoms: C_16  and  N_17 
REMARK    9  A    between atoms: C_23  and  C_24 
REMARK   10  A    between atoms: C_23  and  C_25 
REMARK   11  A    between atoms: C_26  and  N_27 
REMARK       I    between atoms: N_27  and  C_28 
REMARK       I    between atoms: C_28  and  N_30 
REMARK   12  A    between atoms: N_30  and  C_31 
ROOT
ATOM      1  C   LIG d   1      10.479   4.074  -4.249  0.00  0.00    -0.073 C 
ATOM      2  C   LIG d   1      10.255   2.894  -4.730  0.00  0.00    -0.080 C 
ATOM      3  C   LIG d   1      10.028   2.606  -6.185  0.00  0.00    -0.004 C 
ATOM      4  H   LIG d   1      10.957   2.183  -6.596  0.00  0.00     0.036 H 
ATOM      5  C   LIG d   1       9.680   3.897  -6.928  0.00  0.00    -0.030 C 
ATOM      6  H   LIG d   1       8.669   4.232  -6.648  0.00  0.00     0.031 H 
ATOM      7  C   LIG d   1      10.715   4.967  -6.557  0.00  0.00    -0.042 C 
ATOM      8  C   LIG d   1      10.534   5.323  -5.079  0.00  0.00    -0.012 C 
ATOM      9  H   LIG d   1      11.390   5.922  -4.737  0.00  0.00     0.035 H 
ATOM     10  H   LIG d   1      10.221   2.024  -4.056  0.00  0.00     0.058 H 
ATOM     11  H   LIG d   1      11.727   4.571  -6.726  0.00  0.00     0.027 H 
ATOM     12  H   LIG d   1      10.561   5.859  -7.180  0.00  0.00     0.027 H 
ENDROOT
BRANCH   8  13
ATOM     13  C   LIG d   1       9.232   6.107  -4.903  0.00  0.00     0.030 C 
ATOM     14  H   LIG d   1       8.664   6.091  -5.845  0.00  0.00     0.036 H 
ATOM     15  H   LIG d   1       8.631   5.646  -4.106  0.00  0.00     0.036 H 
BRANCH  13  16
ATOM     16  C   LIG d   1       9.549   7.533  -4.532  0.00  0.00     0.214 C 
ATOM     17  O   LIG d   1       9.606   8.385  -5.394  0.00  0.00    -0.276 OA
ATOM     18  N   LIG d   1       9.769   7.862  -3.244  0.00  0.00    -0.310 N 
ATOM     19  H   LIG d   1       9.717   7.089  -2.463  0.00  0.00     0.149 HD
BRANCH  18  20
ATOM     20  C   LIG d   1      10.077   9.247  -2.883  0.00  0.00     0.052 C 
ATOM     21  H   LIG d   1      10.767   9.675  -3.627  0.00  0.00     0.051 H 
ATOM     22  H   LIG d   1       9.149   9.837  -2.865  0.00  0.00     0.051 H 
BRANCH  20  23
ATOM     23  C   LIG d   1      10.732   9.282  -1.501  0.00  0.00    -0.016 C 
ATOM     24  H   LIG d   1      11.559  10.007  -1.506  0.00  0.00     0.083 H 
ATOM     25  H   LIG d   1       9.986   9.580  -0.750  0.00  0.00     0.083 H 
BRANCH  23  26
ATOM     26  N   LIG d   1      11.252   7.947  -1.173  0.00  0.00     0.240 N 
ATOM     27  C   LIG d   1      12.718   7.914  -1.275  0.00  0.00    -0.008 C 
ATOM     28  C   LIG d   1      13.213   6.494  -0.983  0.00  0.00     0.088 C 
ATOM     29  H   LIG d   1      13.023   8.210  -2.289  0.00  0.00     0.084 H 
ATOM     30  H   LIG d   1      13.152   8.613  -0.543  0.00  0.00     0.084 H 
ATOM     31  O   LIG d   1      12.750   6.089   0.308  0.00  0.00    -0.369 OA
ATOM     32  H   LIG d   1      14.312   6.476  -1.001  0.00  0.00     0.061 H 
ATOM     33  H   LIG d   1      12.822   5.805  -1.746  0.00  0.00     0.061 H 
ATOM     34  C   LIG d   1      11.326   6.110   0.441  0.00  0.00     0.088 C 
ATOM     35  C   LIG d   1      10.812   7.525   0.165  0.00  0.00    -0.008 C 
ATOM     36  H   LIG d   1      11.047   5.811   1.463  0.00  0.00     0.061 H 
ATOM     37  H   LIG d   1      10.878   5.410  -0.279  0.00  0.00     0.061 H 
ATOM     38  H   LIG d   1      11.216   8.217   0.919  0.00  0.00     0.084 H 
ATOM     39  H   LIG d   1       9.713   7.534   0.209  0.00  0.00     0.084 H 
ATOM     40  H   LIG d   1      10.842   7.238  -1.906  0.00  0.00     0.204 HD
ENDBRANCH  23  26
ENDBRANCH  20  23
ENDBRANCH  18  20
ENDBRANCH  13  16
ENDBRANCH   8  13
BRANCH   1  41
ATOM     41  C   LIG d   1      10.699   4.204  -2.763  0.00  0.00    -0.043 C 
ATOM     42  H   LIG d   1      10.706   3.203  -2.307  0.00  0.00     0.027 H 
ATOM     43  H   LIG d   1       9.889   4.803  -2.323  0.00  0.00     0.027 H 
ATOM     44  H   LIG d   1      11.664   4.699  -2.578  0.00  0.00     0.027 H 
ENDBRANCH   1  41
BRANCH   5  45
ATOM     45  C   LIG d   1       9.714   3.652  -8.438  0.00  0.00    -0.043 C 
ATOM     46  H   LIG d   1       9.260   2.675  -8.661  0.00  0.00     0.030 H 
BRANCH  45  47
ATOM     47  C   LIG d   1       8.928   4.754  -9.152  0.00  0.00    -0.062 C 
ATOM     48  H   LIG d   1       9.291   5.738  -8.818  0.00  0.00     0.023 H 
ATOM     49  H   LIG d   1       7.859   4.657  -8.911  0.00  0.00     0.023 H 
ATOM     50  H   LIG d   1       9.070   4.660 -10.239  0.00  0.00     0.023 H 
ENDBRANCH  45  47
BRANCH  45  51
ATOM     51  C   LIG d   1      11.164   3.663  -8.924  0.00  0.00    -0.062 C 
ATOM     52  H   LIG d   1      11.353   4.585  -9.494  0.00  0.00     0.023 H 
ATOM     53  H   LIG d   1      11.341   2.790  -9.569  0.00  0.00     0.023 H 
ATOM     54  H   LIG d   1      11.841   3.622  -8.057  0.00  0.00     0.023 H 
ENDBRANCH  45  51
ENDBRANCH   5  45
BRANCH   3  55
ATOM     55  C   LIG d   1       8.877   1.610  -6.332  0.00  0.00     0.020 C 
ATOM     56  H   LIG d   1       7.946   2.155  -6.547  0.00  0.00     0.047 H 
ATOM     57  H   LIG d   1       9.095   0.917  -7.157  0.00  0.00     0.047 H 
BRANCH  55  58
ATOM     58  N   LIG d   1       8.723   0.854  -5.086  0.00  0.00    -0.299 N 
ATOM     59  C   LIG d   1       7.502   0.444  -4.693  0.00  0.00     0.304 C 
ATOM     60  O   LIG d   1       6.526   0.703  -5.371  0.00  0.00    -0.253 OA
ATOM     61  N   LIG d   1       7.360  -0.251  -3.547  0.00  0.00    -0.270 N 
ATOM     62  H   LIG d   1       8.230  -0.417  -2.894  0.00  0.00     0.156 HD
ATOM     63  H   LIG d   1       9.606   0.620  -4.473  0.00  0.00     0.150 HD
BRANCH  61  64
ATOM     64  C   LIG d   1       6.108  -0.763  -3.188  0.00  0.00     0.035 A 
ATOM     65  C   LIG d   1       5.727  -2.030  -3.609  0.00  0.00    -0.040 A 
ATOM     66  C   LIG d   1       4.492  -2.532  -3.253  0.00  0.00    -0.060 A 
ATOM     67  H   LIG d   1       6.398  -2.622  -4.214  0.00  0.00     0.064 H 
ATOM     68  C   LIG d   1       3.633  -1.774  -2.478  0.00  0.00    -0.062 A 
ATOM     69  H   LIG d   1       4.195  -3.518  -3.579  0.00  0.00     0.062 H 
ATOM     70  C   LIG d   1       4.008  -0.511  -2.059  0.00  0.00    -0.060 A 
ATOM     71  H   LIG d   1       2.666  -2.169  -2.202  0.00  0.00     0.062 H 
ATOM     72  C   LIG d   1       5.246  -0.006  -2.406  0.00  0.00    -0.040 A 
ATOM     73  H   LIG d   1       3.336   0.079  -1.453  0.00  0.00     0.062 H 
ATOM     74  H   LIG d   1       5.540   0.978  -2.074  0.00  0.00     0.064 H 
ENDBRANCH  61  64
ENDBRANCH  55  58
ENDBRANCH   3  55
TORSDOF 12
ENDMDL
MODEL 7
REMARK VINA RESULT:      -6.5      1.842      2.766
REMARK  12 active torsions:
REMARK  status: ('A' for Active; 'I' for Inactive)
REMARK    1  A    between atoms: C_1  and  C_2 
REMARK    2  A    between atoms: C_4  and  C_26 
REMARK    3  A    between atoms: C_6  and  C_23 
REMARK    4  A    between atoms: C_9  and  C_11 
REMARK    5  A    between atoms: C_11  and  C_12 
REMARK       I    between atoms: C_12  and  N_14 
REMARK    6  A    between atoms: N_14  and  C_15 
REMARK    7  A    between atoms: C_15  and  C_16 
REMARK    8  A    between atoms: C_16  and  N_17 
REMARK    9  A    between atoms: C_23  and  C_24 
REMARK   10  A    between atoms: C_23  and  C_25 
REMARK   11  A    between atoms: C_26  and  N_27 
REMARK       I    between atoms: N_27  and  C_28 
REMARK       I    between atoms: C_28  and  N_30 
REMARK   12  A    between atoms: N_30  and  C_31 
ROOT
ATOM      1  C   LIG d   1       3.964   0.991 -10.115  0.00  0.00    -0.073 C 
ATOM      2  C   LIG d   1       5.099   0.648  -9.596  0.00  0.00    -0.080 C 
ATOM      3  C   LIG d   1       5.724  -0.706  -9.757  0.00  0.00    -0.004 C 
ATOM      4  H   LIG d   1       6.524  -0.624 -10.507  0.00  0.00     0.036 H 
ATOM      5  C   LIG d   1       4.677  -1.716 -10.231  0.00  0.00    -0.030 C 
ATOM      6  H   LIG d   1       3.970  -1.935  -9.416  0.00  0.00     0.031 H 
ATOM      7  C   LIG d   1       3.933  -1.117 -11.431  0.00  0.00    -0.042 C 
ATOM      8  C   LIG d   1       3.110   0.077 -10.944  0.00  0.00    -0.012 C 
ATOM      9  H   LIG d   1       2.741   0.648 -11.809  0.00  0.00     0.035 H 
ATOM     10  H   LIG d   1       5.667   1.372  -8.992  0.00  0.00     0.058 H 
ATOM     11  H   LIG d   1       4.662  -0.788 -12.187  0.00  0.00     0.027 H 
ATOM     12  H   LIG d   1       3.270  -1.878 -11.869  0.00  0.00     0.027 H 
ENDROOT
BRANCH   8  13
ATOM     13  C   LIG d   1       1.938  -0.426 -10.100  0.00  0.00     0.030 C 
ATOM     14  H   LIG d   1       2.322  -0.889  -9.178  0.00  0.00     0.036 H 
ATOM     15  H   LIG d   1       1.284   0.419  -9.839  0.00  0.00     0.036 H 
BRANCH  13  16
ATOM     16  C   LIG d   1       1.153  -1.447 -10.884  0.00  0.00     0.214 C 
ATOM     17  O   LIG d   1       0.690  -1.154 -11.966  0.00  0.00    -0.276 OA
ATOM     18  N   LIG d   1       0.967  -2.684 -10.384  0.00  0.00    -0.310 N 
ATOM     19  H   LIG d   1       1.387  -2.949  -9.402  0.00  0.00     0.149 HD
BRANCH  18  20
ATOM     20  C   LIG d   1       0.205  -3.675 -11.146  0.00  0.00     0.052 C 
ATOM     21  H   LIG d   1      -0.864  -3.416 -11.119  0.00  0.00     0.051 H 
ATOM     22  H   LIG d   1       0.554  -3.683 -12.189  0.00  0.00     0.051 H 
BRANCH  20  23
ATOM     23  C   LIG d   1       0.409  -5.061 -10.529  0.00  0.00    -0.016 C 
ATOM     24  H   LIG d   1       0.663  -5.780 -11.322  0.00  0.00     0.083 H 
ATOM     25  H   LIG d   1       1.228  -5.018  -9.796  0.00  0.00     0.083 H 
BRANCH  23  26
ATOM     26  N   LIG d   1      -0.828  -5.485  -9.860  0.00  0.00     0.240 N 
ATOM     27  C   LIG d   1      -2.006  -4.879 -10.499  0.00  0.00    -0.008 C 
ATOM     28  C   LIG d   1      -3.266  -5.299  -9.736  0.00  0.00     0.088 C 
ATOM     29  H   LIG d   1      -1.911  -3.784 -10.480  0.00  0.00     0.084 H 
ATOM     30  H   LIG d   1      -2.074  -5.224 -11.542  0.00  0.00     0.084 H 
ATOM     31  O   LIG d   1      -3.342  -6.726  -9.701  0.00  0.00    -0.369 OA
ATOM     32  H   LIG d   1      -4.154  -4.896 -10.243  0.00  0.00     0.061 H 
ATOM     33  H   LIG d   1      -3.221  -4.909  -8.708  0.00  0.00     0.061 H 
ATOM     34  C   LIG d   1      -2.211  -7.349  -9.086  0.00  0.00     0.088 C 
ATOM     35  C   LIG d   1      -0.941  -6.950  -9.841  0.00  0.00    -0.008 C 
ATOM     36  H   LIG d   1      -2.329  -8.442  -9.117  0.00  0.00     0.061 H 
ATOM     37  H   LIG d   1      -2.134  -7.019  -8.039  0.00  0.00     0.061 H 
ATOM     38  H   LIG d   1      -0.993  -7.328 -10.873  0.00  0.00     0.084 H 
ATOM     39  H   LIG d   1      -0.062  -7.379  -9.338  0.00  0.00     0.084 H 
ATOM     40  H   LIG d   1      -0.784  -5.132  -8.819  0.00  0.00     0.204 HD
ENDBRANCH  23  26
ENDBRANCH  20  23
ENDBRANCH  18  20
ENDBRANCH  13  16
ENDBRANCH   8  13
BRANCH   1  41
ATOM     41  C   LIG d   1       3.470   2.394  -9.875  0.00  0.00    -0.043 C 
ATOM     42  H   LIG d   1       3.106   2.481  -8.840  0.00  0.00     0.027 H 
ATOM     43  H   LIG d   1       2.651   2.619 -10.572  0.00  0.00     0.027 H 
ATOM     44  H   LIG d   1       4.294   3.105 -10.035  0.00  0.00     0.027 H 
ENDBRANCH   1  41
BRANCH   5  45
ATOM     45  C   LIG d   1       5.363  -3.018 -10.649  0.00  0.00    -0.043 C 
ATOM     46  H   LIG d   1       6.020  -3.363  -9.836  0.00  0.00     0.030 H 
BRANCH  45  47
ATOM     47  C   LIG d   1       4.304  -4.084 -10.936  0.00  0.00    -0.062 C 
ATOM     48  H   LIG d   1       4.489  -4.965 -10.303  0.00  0.00     0.023 H 
ATOM     49  H   LIG d   1       4.356  -4.376 -11.995  0.00  0.00     0.023 H 
ATOM     50  H   LIG d   1       3.306  -3.678 -10.716  0.00  0.00     0.023 H 
ENDBRANCH  45  47
BRANCH  45  51
ATOM     51  C   LIG d   1       6.196  -2.774 -11.908  0.00  0.00    -0.062 C 
ATOM     52  H   LIG d   1       6.784  -1.852 -11.787  0.00  0.00     0.023 H 
ATOM     53  H   LIG d   1       5.527  -2.671 -12.776  0.00  0.00     0.023 H 
ATOM     54  H   LIG d   1       6.876  -3.624 -12.068  0.00  0.00     0.023 H 
ENDBRANCH  45  51
ENDBRANCH   5  45
BRANCH   3  55
ATOM     55  C   LIG d   1       6.297  -1.163  -8.414  0.00  0.00     0.020 C 
ATOM     56  H   LIG d   1       6.892  -2.076  -8.561  0.00  0.00     0.047 H 
ATOM     57  H   LIG d   1       6.937  -0.370  -8.000  0.00  0.00     0.047 H 
BRANCH  55  58
ATOM     58  N   LIG d   1       5.199  -1.440  -7.483  0.00  0.00    -0.299 N 
ATOM     59  C   LIG d   1       5.190  -0.869  -6.264  0.00  0.00     0.304 C 
ATOM     60  O   LIG d   1       6.092  -0.124  -5.934  0.00  0.00    -0.253 OA
ATOM     61  N   LIG d   1       4.180  -1.125  -5.407  0.00  0.00    -0.270 N 
ATOM     62  H   LIG d   1       3.406  -1.859  -5.674  0.00  0.00     0.156 HD
ATOM     63  H   LIG d   1       4.383  -2.115  -7.782  0.00  0.00     0.150 HD
BRANCH  61  64
ATOM     64  C   LIG d   1       4.117  -0.455  -4.180  0.00  0.00     0.035 A 
ATOM     65  C   LIG d   1       4.627  -1.053  -3.034  0.00  0.00    -0.040 A 
ATOM     66  C   LIG d   1       4.563  -0.389  -1.826  0.00  0.00    -0.060 A 
ATOM     67  H   LIG d   1       5.072  -2.035  -3.090  0.00  0.00     0.064 H 
ATOM     68  C   LIG d   1       3.993   0.869  -1.754  0.00  0.00    -0.062 A 
ATOM     69  H   LIG d   1       4.960  -0.853  -0.934  0.00  0.00     0.062 H 
ATOM     70  C   LIG d   1       3.484   1.465  -2.892  0.00  0.00    -0.060 A 
ATOM     71  H   LIG d   1       3.945   1.385  -0.807  0.00  0.00     0.062 H 
ATOM     72  C   LIG d   1       3.550   0.810  -4.106  0.00  0.00    -0.040 A 
ATOM     73  H   LIG d   1       3.039   2.448  -2.834  0.00  0.00     0.062 H 
ATOM     74  H   LIG d   1       3.157   1.279  -4.996  0.00  0.00     0.064 H 
ENDBRANCH  61  64
ENDBRANCH  55  58
ENDBRANCH   3  55
TORSDOF 12
ENDMDL
MODEL 8
REMARK VINA RESULT:      -6.5      4.182     10.032
REMARK  12 active torsions:
REMARK  status: ('A' for Active; 'I' for Inactive)
REMARK    1  A    between atoms: C_1  and  C_2 
REMARK    2  A    between atoms: C_4  and  C_26 
REMARK    3  A    between atoms: C_6  and  C_23 
REMARK    4  A    between atoms: C_9  and  C_11 
REMARK    5  A    between atoms: C_11  and  C_12 
REMARK       I    between atoms: C_12  and  N_14 
REMARK    6  A    between atoms: N_14  and  C_15 
REMARK    7  A    between atoms: C_15  and  C_16 
REMARK    8  A    between atoms: C_16  and  N_17 
REMARK    9  A    between atoms: C_23  and  C_24 
REMARK   10  A    between atoms: C_23  and  C_25 
REMARK   11  A    between atoms: C_26  and  N_27 
REMARK       I    between atoms: N_27  and  C_28 
REMARK       I    between atoms: C_28  and  N_30 
REMARK   12  A    between atoms: N_30  and  C_31 
ROOT
ATOM      1  C   LIG d   1       3.528   1.323  -9.937  0.00  0.00    -0.073 C 
ATOM      2  C   LIG d   1       3.848   0.917 -11.123  0.00  0.00    -0.080 C 
ATOM      3  C   LIG d   1       3.264  -0.297 -11.784  0.00  0.00    -0.004 C 
ATOM      4  H   LIG d   1       2.515   0.041 -12.514  0.00  0.00     0.036 H 
ATOM      5  C   LIG d   1       2.596  -1.194 -10.740  0.00  0.00    -0.030 C 
ATOM      6  H   LIG d   1       3.361  -1.676 -10.113  0.00  0.00     0.031 H 
ATOM      7  C   LIG d   1       1.670  -0.328  -9.877  0.00  0.00    -0.042 C 
ATOM      8  C   LIG d   1       2.534   0.629  -9.051  0.00  0.00    -0.012 C 
ATOM      9  H   LIG d   1       1.896   1.397  -8.590  0.00  0.00     0.035 H 
ATOM     10  H   LIG d   1       4.593   1.474 -11.711  0.00  0.00     0.058 H 
ATOM     11  H   LIG d   1       0.992   0.245 -10.526  0.00  0.00     0.027 H 
ATOM     12  H   LIG d   1       1.081  -0.973  -9.209  0.00  0.00     0.027 H 
ENDROOT
BRANCH   8  13
ATOM     13  C   LIG d   1       3.279  -0.161  -7.974  0.00  0.00     0.030 C 
ATOM     14  H   LIG d   1       2.987  -1.221  -8.029  0.00  0.00     0.036 H 
ATOM     15  H   LIG d   1       4.363  -0.072  -8.137  0.00  0.00     0.036 H 
BRANCH  13  16
ATOM     16  C   LIG d   1       2.927   0.386  -6.614  0.00  0.00     0.214 C 
ATOM     17  O   LIG d   1       2.748   1.577  -6.469  0.00  0.00    -0.276 OA
ATOM     18  N   LIG d   1       2.811  -0.447  -5.562  0.00  0.00    -0.310 N 
ATOM     19  H   LIG d   1       2.973  -1.527  -5.695  0.00  0.00     0.149 HD
BRANCH  18  20
ATOM     20  C   LIG d   1       2.470   0.085  -4.241  0.00  0.00     0.052 C 
ATOM     21  H   LIG d   1       2.749   1.148  -4.190  0.00  0.00     0.051 H 
ATOM     22  H   LIG d   1       1.387  -0.017  -4.073  0.00  0.00     0.051 H 
BRANCH  20  23
ATOM     23  C   LIG d   1       3.229  -0.694  -3.165  0.00  0.00    -0.016 C 
ATOM     24  H   LIG d   1       3.279  -0.093  -2.245  0.00  0.00     0.083 H 
ATOM     25  H   LIG d   1       2.705  -1.639  -2.959  0.00  0.00     0.083 H 
BRANCH  23  26
ATOM     26  N   LIG d   1       4.590  -0.981  -3.638  0.00  0.00     0.240 N 
ATOM     27  C   LIG d   1       5.584  -0.207  -2.880  0.00  0.00    -0.008 C 
ATOM     28  C   LIG d   1       6.981  -0.489  -3.442  0.00  0.00     0.088 C 
ATOM     29  H   LIG d   1       5.361   0.866  -2.969  0.00  0.00     0.084 H 
ATOM     30  H   LIG d   1       5.547  -0.501  -1.820  0.00  0.00     0.084 H 
ATOM     31  O   LIG d   1       7.234  -1.896  -3.390  0.00  0.00    -0.369 OA
ATOM     32  H   LIG d   1       7.734   0.042  -2.842  0.00  0.00     0.061 H 
ATOM     33  H   LIG d   1       7.033  -0.146  -4.486  0.00  0.00     0.061 H 
ATOM     34  C   LIG d   1       6.284  -2.679  -4.118  0.00  0.00     0.088 C 
ATOM     35  C   LIG d   1       4.882  -2.419  -3.562  0.00  0.00    -0.008 C 
ATOM     36  H   LIG d   1       6.530  -3.747  -4.012  0.00  0.00     0.061 H 
ATOM     37  H   LIG d   1       6.315  -2.401  -5.182  0.00  0.00     0.061 H 
ATOM     38  H   LIG d   1       4.834  -2.750  -2.514  0.00  0.00     0.084 H 
ATOM     39  H   LIG d   1       4.142  -2.975  -4.156  0.00  0.00     0.084 H 
ATOM     40  H   LIG d   1       4.651  -0.675  -4.692  0.00  0.00     0.204 HD
ENDBRANCH  23  26
ENDBRANCH  20  23
ENDBRANCH  18  20
ENDBRANCH  13  16
ENDBRANCH   8  13
BRANCH   1  41
ATOM     41  C   LIG d   1       4.193   2.569  -9.411  0.00  0.00    -0.043 C 
ATOM     42  H   LIG d   1       5.230   2.337  -9.126  0.00  0.00     0.027 H 
ATOM     43  H   LIG d   1       3.644   2.934  -8.531  0.00  0.00     0.027 H 
ATOM     44  H   LIG d   1       4.191   3.343 -10.192  0.00  0.00     0.027 H 
ENDBRANCH   1  41
BRANCH   5  45
ATOM     45  C   LIG d   1       1.777  -2.281 -11.439  0.00  0.00    -0.043 C 
ATOM     46  H   LIG d   1       2.435  -2.871 -12.094  0.00  0.00     0.030 H 
BRANCH  45  47
ATOM     47  C   LIG d   1       1.147  -3.199 -10.390  0.00  0.00    -0.062 C 
ATOM     48  H   LIG d   1       1.907  -3.901 -10.012  0.00  0.00     0.023 H 
ATOM     49  H   LIG d   1       0.321  -3.764 -10.845  0.00  0.00     0.023 H 
ATOM     50  H   LIG d   1       0.761  -2.593  -9.556  0.00  0.00     0.023 H 
ENDBRANCH  45  47
BRANCH  45  51
ATOM     51  C   LIG d   1       0.674  -1.631 -12.276  0.00  0.00    -0.062 C 
ATOM     52  H   LIG d   1       0.013  -1.045 -11.620  0.00  0.00     0.023 H 
ATOM     53  H   LIG d   1       0.088  -2.413 -12.782  0.00  0.00     0.023 H 
ATOM     54  H   LIG d   1       1.127  -0.967 -13.028  0.00  0.00     0.023 H 
ENDBRANCH  45  51
ENDBRANCH   5  45
BRANCH   3  55
ATOM     55  C   LIG d   1       4.378  -1.078 -12.484  0.00  0.00     0.020 C 
ATOM     56  H   LIG d   1       5.166  -1.324 -11.758  0.00  0.00     0.047 H 
ATOM     57  H   LIG d   1       3.965  -2.006 -12.906  0.00  0.00     0.047 H 
BRANCH  55  58
ATOM     58  N   LIG d   1       4.944  -0.262 -13.562  0.00  0.00    -0.299 N 
ATOM     59  C   LIG d   1       4.399  -0.299 -14.793  0.00  0.00     0.304 C 
ATOM     60  O   LIG d   1       3.438  -1.011 -15.011  0.00  0.00    -0.253 OA
ATOM     61  N   LIG d   1       4.920   0.451 -15.784  0.00  0.00    -0.270 N 
ATOM     62  H   LIG d   1       5.836   1.034 -15.608  0.00  0.00     0.156 HD
ATOM     63  H   LIG d   1       5.814   0.382 -13.364  0.00  0.00     0.150 HD
BRANCH  61  64
ATOM     64  C   LIG d   1       4.295   0.489 -17.036  0.00  0.00     0.035 A 
ATOM     65  C   LIG d   1       3.304   1.427 -17.291  0.00  0.00    -0.040 A 
ATOM     66  C   LIG d   1       2.690   1.462 -18.526  0.00  0.00    -0.060 A 
ATOM     67  H   LIG d   1       3.013   2.128 -16.523  0.00  0.00     0.064 H 
ATOM     68  C   LIG d   1       3.061   0.564 -19.511  0.00  0.00    -0.062 A 
ATOM     69  H   LIG d   1       1.919   2.192 -18.726  0.00  0.00     0.062 H 
ATOM     70  C   LIG d   1       4.047  -0.372 -19.260  0.00  0.00    -0.060 A 
ATOM     71  H   LIG d   1       2.579   0.594 -20.477  0.00  0.00     0.062 H 
ATOM     72  C   LIG d   1       4.669  -0.408 -18.028  0.00  0.00    -0.040 A 
ATOM     73  H   LIG d   1       4.336  -1.072 -20.030  0.00  0.00     0.062 H 
ATOM     74  H   LIG d   1       5.443  -1.136 -17.834  0.00  0.00     0.064 H 
ENDBRANCH  61  64
ENDBRANCH  55  58
ENDBRANCH   3  55
TORSDOF 12
ENDMDL
MODEL 9
REMARK VINA RESULT:      -6.4      8.392     13.829
REMARK  12 active torsions:
REMARK  status: ('A' for Active; 'I' for Inactive)
REMARK    1  A    between atoms: C_1  and  C_2 
REMARK    2  A    between atoms: C_4  and  C_26 
REMARK    3  A    between atoms: C_6  and  C_23 
REMARK    4  A    between atoms: C_9  and  C_11 
REMARK    5  A    between atoms: C_11  and  C_12 
REMARK       I    between atoms: C_12  and  N_14 
REMARK    6  A    between atoms: N_14  and  C_15 
REMARK    7  A    between atoms: C_15  and  C_16 
REMARK    8  A    between atoms: C_16  and  N_17 
REMARK    9  A    between atoms: C_23  and  C_24 
REMARK   10  A    between atoms: C_23  and  C_25 
REMARK   11  A    between atoms: C_26  and  N_27 
REMARK       I    between atoms: N_27  and  C_28 
REMARK       I    between atoms: C_28  and  N_30 
REMARK   12  A    between atoms: N_30  and  C_31 
ROOT
ATOM      1  C   LIG d   1      10.735   4.022  -3.728  0.00  0.00    -0.073 C 
ATOM      2  C   LIG d   1      10.419   2.938  -4.359  0.00  0.00    -0.080 C 
ATOM      3  C   LIG d   1      10.079   2.882  -5.820  0.00  0.00    -0.004 C 
ATOM      4  H   LIG d   1      10.954   2.488  -6.357  0.00  0.00     0.036 H 
ATOM      5  C   LIG d   1       9.748   4.284  -6.336  0.00  0.00    -0.030 C 
ATOM      6  H   LIG d   1       8.777   4.613  -5.935  0.00  0.00     0.031 H 
ATOM      7  C   LIG d   1      10.859   5.242  -5.890  0.00  0.00    -0.042 C 
ATOM      8  C   LIG d   1      10.798   5.379  -4.367  0.00  0.00    -0.012 C 
ATOM      9  H   LIG d   1      11.706   5.884  -4.005  0.00  0.00     0.035 H 
ATOM     10  H   LIG d   1      10.386   1.979  -3.820  0.00  0.00     0.058 H 
ATOM     11  H   LIG d   1      11.836   4.835  -6.191  0.00  0.00     0.027 H 
ATOM     12  H   LIG d   1      10.709   6.223  -6.362  0.00  0.00     0.027 H 
ENDROOT
BRANCH   8  13
ATOM     13  C   LIG d   1       9.553   6.179  -3.980  0.00  0.00     0.030 C 
ATOM     14  H   LIG d   1       9.185   6.732  -4.858  0.00  0.00     0.036 H 
ATOM     15  H   LIG d   1       8.771   5.493  -3.625  0.00  0.00     0.036 H 
BRANCH  13  16
ATOM     16  C   LIG d   1       9.902   7.154  -2.884  0.00  0.00     0.214 C 
ATOM     17  O   LIG d   1      10.996   7.676  -2.864  0.00  0.00    -0.276 OA
ATOM     18  N   LIG d   1       8.998   7.446  -1.929  0.00  0.00    -0.310 N 
ATOM     19  H   LIG d   1       8.005   6.973  -1.948  0.00  0.00     0.149 HD
BRANCH  18  20
ATOM     20  C   LIG d   1       9.337   8.393  -0.864  0.00  0.00     0.052 C 
ATOM     21  H   LIG d   1       8.873   8.066   0.079  0.00  0.00     0.051 H 
ATOM     22  H   LIG d   1      10.429   8.429  -0.740  0.00  0.00     0.051 H 
BRANCH  20  23
ATOM     23  C   LIG d   1       8.818   9.784  -1.233  0.00  0.00    -0.016 C 
ATOM     24  H   LIG d   1       7.953   9.685  -1.906  0.00  0.00     0.083 H 
ATOM     25  H   LIG d   1       8.513  10.315  -0.320  0.00  0.00     0.083 H 
BRANCH  23  26
ATOM     26  N   LIG d   1       9.882  10.539  -1.909  0.00  0.00     0.240 N 
ATOM     27  C   LIG d   1       9.473  10.923  -3.268  0.00  0.00    -0.008 C 
ATOM     28  C   LIG d   1      10.629  11.654  -3.956  0.00  0.00     0.088 C 
ATOM     29  H   LIG d   1       9.214  10.021  -3.842  0.00  0.00     0.084 H 
ATOM     30  H   LIG d   1       8.596  11.587  -3.214  0.00  0.00     0.084 H 
ATOM     31  O   LIG d   1      11.008  12.784  -3.166  0.00  0.00    -0.369 OA
ATOM     32  H   LIG d   1      10.309  11.994  -4.952  0.00  0.00     0.061 H 
ATOM     33  H   LIG d   1      11.486  10.973  -4.058  0.00  0.00     0.061 H 
ATOM     34  C   LIG d   1      11.412  12.446  -1.836  0.00  0.00     0.088 C 
ATOM     35  C   LIG d   1      10.265  11.723  -1.127  0.00  0.00    -0.008 C 
ATOM     36  H   LIG d   1      11.666  13.364  -1.284  0.00  0.00     0.061 H 
ATOM     37  H   LIG d   1      12.293  11.788  -1.874  0.00  0.00     0.061 H 
ATOM     38  H   LIG d   1       9.402  12.400  -1.038  0.00  0.00     0.084 H 
ATOM     39  H   LIG d   1      10.590  11.410  -0.123  0.00  0.00     0.084 H 
ATOM     40  H   LIG d   1      10.760   9.883  -1.989  0.00  0.00     0.204 HD
ENDBRANCH  23  26
ENDBRANCH  20  23
ENDBRANCH  18  20
ENDBRANCH  13  16
ENDBRANCH   8  13
BRANCH   1  41
ATOM     41  C   LIG d   1      11.062   3.918  -2.260  0.00  0.00    -0.043 C 
ATOM     42  H   LIG d   1      11.749   3.073  -2.098  0.00  0.00     0.027 H 
ATOM     43  H   LIG d   1      10.138   3.755  -1.689  0.00  0.00     0.027 H 
ATOM     44  H   LIG d   1      11.541   4.850  -1.925  0.00  0.00     0.027 H 
ENDBRANCH   1  41
BRANCH   5  45
ATOM     45  C   LIG d   1       9.666   4.267  -7.864  0.00  0.00    -0.043 C 
ATOM     46  H   LIG d   1       8.826   3.631  -8.179  0.00  0.00     0.030 H 
BRANCH  45  47
ATOM     47  C   LIG d   1       9.449   5.691  -8.379  0.00  0.00    -0.062 C 
ATOM     48  H   LIG d   1       8.795   5.666  -9.264  0.00  0.00     0.023 H 
ATOM     49  H   LIG d   1      10.418   6.135  -8.651  0.00  0.00     0.023 H 
ATOM     50  H   LIG d   1       8.977   6.298  -7.592  0.00  0.00     0.023 H 
ENDBRANCH  45  47
BRANCH  45  51
ATOM     51  C   LIG d   1      10.970   3.711  -8.439  0.00  0.00    -0.062 C 
ATOM     52  H   LIG d   1      10.952   2.611  -8.392  0.00  0.00     0.023 H 
ATOM     53  H   LIG d   1      11.820   4.089  -7.852  0.00  0.00     0.023 H 
ATOM     54  H   LIG d   1      11.075   4.032  -9.486  0.00  0.00     0.023 H 
ENDBRANCH  45  51
ENDBRANCH   5  45
BRANCH   3  55
ATOM     55  C   LIG d   1       8.871   1.968  -6.025  0.00  0.00     0.020 C 
ATOM     56  H   LIG d   1       7.962   2.578  -6.134  0.00  0.00     0.047 H 
ATOM     57  H   LIG d   1       9.018   1.364  -6.932  0.00  0.00     0.047 H 
BRANCH  55  58
ATOM     58  N   LIG d   1       8.727   1.081  -4.867  0.00  0.00    -0.299 N 
ATOM     59  C   LIG d   1       7.512   0.612  -4.524  0.00  0.00     0.304 C 
ATOM     60  O   LIG d   1       6.533   0.924  -5.174  0.00  0.00    -0.253 OA
ATOM     61  N   LIG d   1       7.379  -0.204  -3.459  0.00  0.00    -0.270 N 
ATOM     62  H   LIG d   1       8.250  -0.423  -2.824  0.00  0.00     0.156 HD
ATOM     63  H   LIG d   1       9.612   0.798  -4.278  0.00  0.00     0.150 HD
BRANCH  61  64
ATOM     64  C   LIG d   1       6.135  -0.771  -3.161  0.00  0.00     0.035 A 
ATOM     65  C   LIG d   1       5.804  -2.024  -3.660  0.00  0.00    -0.040 A 
ATOM     66  C   LIG d   1       4.576  -2.580  -3.364  0.00  0.00    -0.060 A 
ATOM     67  H   LIG d   1       6.507  -2.562  -4.278  0.00  0.00     0.064 H 
ATOM     68  C   LIG d   1       3.675  -1.892  -2.573  0.00  0.00    -0.062 A 
ATOM     69  H   LIG d   1       4.318  -3.555  -3.751  0.00  0.00     0.062 H 
ATOM     70  C   LIG d   1       4.001  -0.644  -2.075  0.00  0.00    -0.060 A 
ATOM     71  H   LIG d   1       2.715  -2.329  -2.343  0.00  0.00     0.062 H 
ATOM     72  C   LIG d   1       5.230  -0.084  -2.362  0.00  0.00    -0.040 A 
ATOM     73  H   LIG d   1       3.296  -0.108  -1.457  0.00  0.00     0.062 H 
ATOM     74  H   LIG d   1       5.487   0.889  -1.969  0.00  0.00     0.064 H 
ENDBRANCH  61  64
ENDBRANCH  55  58
ENDBRANCH   3  55
TORSDOF 12
ENDMDL
