MODEL 1
REMARK VINA RESULT:      -7.0      0.000      0.000
REMARK  13 active torsions:
REMARK  status: ('A' for Active; 'I' for Inactive)
REMARK    1  A    between atoms: C_1  and  C_2 
REMARK    2  A    between atoms: C_2  and  C_3 
REMARK    3  A    between atoms: C_2  and  C_4 
REMARK    4  A    between atoms: C_2  and  C_5 
REMARK    5  A    between atoms: C_7  and  C_16 
REMARK    6  A    between atoms: C_9  and  C_12 
REMARK    7  A    between atoms: C_10  and  O_11 
REMARK    8  A    between atoms: C_12  and  C_13 
REMARK    9  A    between atoms: C_12  and  C_14 
REMARK   10  A    between atoms: C_12  and  C_15 
REMARK   11  A    between atoms: C_16  and  C_17 
REMARK   12  A    between atoms: C_17  and  C_18 
REMARK       I    between atoms: C_18  and  N_20 
REMARK   13  A    between atoms: N_20  and  C_21 
ROOT
ATOM      1  C   LIG d   1      10.351   6.502  -2.424  0.00  0.00    -0.000 A 
ATOM      2  C   LIG d   1      10.048   5.154  -2.389  0.00  0.00    -0.051 A 
ATOM      3  C   LIG d   1       9.784   4.475  -3.563  0.00  0.00    -0.046 A 
ATOM      4  C   LIG d   1       9.828   5.139  -4.775  0.00  0.00    -0.051 A 
ATOM      5  C   LIG d   1      10.124   6.488  -4.814  0.00  0.00    -0.000 A 
ATOM      6  C   LIG d   1      10.390   7.173  -3.637  0.00  0.00     0.124 A 
ATOM      7  H   LIG d   1      10.018   4.632  -1.445  0.00  0.00     0.062 H 
ATOM      8  H   LIG d   1       9.625   4.606  -5.692  0.00  0.00     0.062 H 
ENDROOT
BRANCH   3   9
ATOM      9  C   LIG d   1       9.454   3.005  -3.524  0.00  0.00    -0.019 C 
ATOM     10  H   LIG d   1      10.287   2.456  -3.083  0.00  0.00     0.032 H 
ATOM     11  H   LIG d   1       8.558   2.850  -2.924  0.00  0.00     0.032 H 
BRANCH   9  12
ATOM     12  C   LIG d   1       9.208   2.499  -4.948  0.00  0.00     0.028 C 
ATOM     13  H   LIG d   1       8.856   3.323  -5.569  0.00  0.00     0.036 H 
ATOM     14  H   LIG d   1      10.138   2.105  -5.359  0.00  0.00     0.036 H 
BRANCH  12  15
ATOM     15  C   LIG d   1       8.168   1.409  -4.922  0.00  0.00     0.217 C 
ATOM     16  O   LIG d   1       7.358   1.324  -5.820  0.00  0.00    -0.276 OA
ATOM     17  N   LIG d   1       8.139   0.529  -3.902  0.00  0.00    -0.285 N 
ATOM     18  H   LIG d   1       8.831   0.552  -3.223  0.00  0.00     0.155 HD
BRANCH  17  19
ATOM     19  C   LIG d   1       7.113  -0.413  -3.823  0.00  0.00     0.043 A 
ATOM     20  C   LIG d   1       5.889  -0.087  -3.241  0.00  0.00    -0.005 A 
ATOM     21  C   LIG d   1       4.898  -1.044  -3.179  0.00  0.00     0.046 A 
ATOM     22  C   LIG d   1       5.404   1.203  -2.619  0.00  0.00    -0.024 C 
ATOM     23  N   LIG d   1       5.108  -2.255  -3.667  0.00  0.00    -0.256 NA
ATOM     24  C   LIG d   1       3.670  -0.460  -2.510  0.00  0.00    -0.010 C 
ATOM     25  C   LIG d   1       6.253  -2.608  -4.228  0.00  0.00     0.046 A 
ATOM     26  C   LIG d   1       7.287  -1.700  -4.329  0.00  0.00    -0.005 A 
ATOM     27  C   LIG d   1       6.676  -3.929  -4.835  0.00  0.00    -0.010 C 
ATOM     28  C   LIG d   1       8.479  -2.345  -5.000  0.00  0.00    -0.024 C 
ATOM     29  C   LIG d   1       7.914  -3.601  -5.697  0.00  0.00    -0.043 C 
ATOM     30  H   LIG d   1       9.227  -2.627  -4.261  0.00  0.00     0.031 H 
ATOM     31  H   LIG d   1       8.909  -1.665  -5.736  0.00  0.00     0.031 H 
ATOM     32  H   LIG d   1       8.635  -4.419  -5.668  0.00  0.00     0.027 H 
ATOM     33  H   LIG d   1       7.623  -3.377  -6.724  0.00  0.00     0.027 H 
ATOM     34  H   LIG d   1       6.940  -4.639  -4.051  0.00  0.00     0.033 H 
ATOM     35  H   LIG d   1       5.877  -4.333  -5.457  0.00  0.00     0.033 H 
ATOM     36  C   LIG d   1       4.169   0.806  -1.782  0.00  0.00    -0.043 C 
ATOM     37  H   LIG d   1       3.258  -1.171  -1.792  0.00  0.00     0.033 H 
ATOM     38  H   LIG d   1       2.920  -0.197  -3.254  0.00  0.00     0.033 H 
ATOM     39  H   LIG d   1       4.455   0.577  -0.755  0.00  0.00     0.027 H 
ATOM     40  H   LIG d   1       3.414   1.591  -1.809  0.00  0.00     0.027 H 
ATOM     41  H   LIG d   1       6.175   1.628  -1.977  0.00  0.00     0.031 H 
ATOM     42  H   LIG d   1       5.122   1.915  -3.395  0.00  0.00     0.031 H 
ENDBRANCH  17  19
ENDBRANCH  12  15
ENDBRANCH   9  12
ENDBRANCH   3   9
BRANCH   1  43
ATOM     43  C   LIG d   1      10.640   7.242  -1.143  0.00  0.00    -0.009 C 
BRANCH  43  44
ATOM     44  C   LIG d   1      11.981   7.968  -1.265  0.00  0.00    -0.056 C 
ATOM     45  H   LIG d   1      12.769   7.350  -0.835  0.00  0.00     0.024 H 
ATOM     46  H   LIG d   1      12.199   8.153  -2.317  0.00  0.00     0.024 H 
ATOM     47  H   LIG d   1      11.931   8.917  -0.732  0.00  0.00     0.024 H 
ENDBRANCH  43  44
BRANCH  43  48
ATOM     48  C   LIG d   1       9.530   8.261  -0.880  0.00  0.00    -0.056 C 
ATOM     49  H   LIG d   1       9.156   8.137   0.136  0.00  0.00     0.024 H 
ATOM     50  H   LIG d   1       9.926   9.269  -1.000  0.00  0.00     0.024 H 
ATOM     51  H   LIG d   1       8.717   8.104  -1.588  0.00  0.00     0.024 H 
ENDBRANCH  43  48
BRANCH  43  52
ATOM     52  C   LIG d   1      10.703   6.246   0.018  0.00  0.00    -0.056 C 
ATOM     53  H   LIG d   1      10.919   5.251  -0.369  0.00  0.00     0.024 H 
ATOM     54  H   LIG d   1      11.489   6.545   0.711  0.00  0.00     0.024 H 
ATOM     55  H   LIG d   1       9.745   6.233   0.539  0.00  0.00     0.024 H 
ENDBRANCH  43  52
ENDBRANCH   1  43
BRANCH   5  56
ATOM     56  C   LIG d   1      10.166   7.214  -6.134  0.00  0.00    -0.009 C 
BRANCH  56  57
ATOM     57  C   LIG d   1      11.570   7.773  -6.365  0.00  0.00    -0.056 C 
ATOM     58  H   LIG d   1      11.508   8.844  -6.560  0.00  0.00     0.024 H 
ATOM     59  H   LIG d   1      12.181   7.601  -5.478  0.00  0.00     0.024 H 
ATOM     60  H   LIG d   1      12.024   7.274  -7.221  0.00  0.00     0.024 H 
ENDBRANCH  56  57
BRANCH  56  61
ATOM     61  C   LIG d   1       9.813   6.241  -7.261  0.00  0.00    -0.056 C 
ATOM     62  H   LIG d   1       9.126   5.483  -6.885  0.00  0.00     0.024 H 
ATOM     63  H   LIG d   1       9.340   6.787  -8.078  0.00  0.00     0.024 H 
ATOM     64  H   LIG d   1      10.721   5.760  -7.624  0.00  0.00     0.024 H 
ENDBRANCH  56  61
BRANCH  56  65
ATOM     65  C   LIG d   1       9.155   8.363  -6.118  0.00  0.00    -0.056 C 
ATOM     66  H   LIG d   1       9.095   8.807  -7.112  0.00  0.00     0.024 H 
ATOM     67  H   LIG d   1       8.175   7.982  -5.830  0.00  0.00     0.024 H 
ATOM     68  H   LIG d   1       9.476   9.119  -5.401  0.00  0.00     0.024 H 
ENDBRANCH  56  65
ENDBRANCH   5  56
BRANCH   6  69
ATOM     69  O   LIG d   1      10.687   8.499  -3.672  0.00  0.00    -0.506 OA
ATOM     70  H   LIG d   1      10.485   8.968  -2.851  0.00  0.00     0.292 HD
ENDBRANCH   6  69
TORSDOF 13
ENDMDL
MODEL 2
REMARK VINA RESULT:      -7.0      0.019      2.670
REMARK  13 active torsions:
REMARK  status: ('A' for Active; 'I' for Inactive)
REMARK    1  A    between atoms: C_1  and  C_2 
REMARK    2  A    between atoms: C_2  and  C_3 
REMARK    3  A    between atoms: C_2  and  C_4 
REMARK    4  A    between atoms: C_2  and  C_5 
REMARK    5  A    between atoms: C_7  and  C_16 
REMARK    6  A    between atoms: C_9  and  C_12 
REMARK    7  A    between atoms: C_10  and  O_11 
REMARK    8  A    between atoms: C_12  and  C_13 
REMARK    9  A    between atoms: C_12  and  C_14 
REMARK   10  A    between atoms: C_12  and  C_15 
REMARK   11  A    between atoms: C_16  and  C_17 
REMARK   12  A    between atoms: C_17  and  C_18 
REMARK       I    between atoms: C_18  and  N_20 
REMARK   13  A    between atoms: N_20  and  C_21 
ROOT
ATOM      1  C   LIG d   1      10.345   6.502  -2.422  0.00  0.00    -0.000 A 
ATOM      2  C   LIG d   1      10.043   5.154  -2.394  0.00  0.00    -0.051 A 
ATOM      3  C   LIG d   1       9.780   4.480  -3.572  0.00  0.00    -0.046 A 
ATOM      4  C   LIG d   1       9.824   5.151  -4.780  0.00  0.00    -0.051 A 
ATOM      5  C   LIG d   1      10.120   6.500  -4.812  0.00  0.00    -0.000 A 
ATOM      6  C   LIG d   1      10.385   7.179  -3.632  0.00  0.00     0.124 A 
ATOM      7  H   LIG d   1      10.011   4.628  -1.452  0.00  0.00     0.062 H 
ATOM      8  H   LIG d   1       9.622   4.622  -5.700  0.00  0.00     0.062 H 
ENDROOT
BRANCH   3   9
ATOM      9  C   LIG d   1       9.450   3.011  -3.540  0.00  0.00    -0.019 C 
ATOM     10  H   LIG d   1      10.288   2.459  -3.112  0.00  0.00     0.032 H 
ATOM     11  H   LIG d   1       8.561   2.851  -2.931  0.00  0.00     0.032 H 
BRANCH   9  12
ATOM     12  C   LIG d   1       9.189   2.515  -4.964  0.00  0.00     0.028 C 
ATOM     13  H   LIG d   1       8.823   3.341  -5.574  0.00  0.00     0.036 H 
ATOM     14  H   LIG d   1      10.116   2.132  -5.391  0.00  0.00     0.036 H 
BRANCH  12  15
ATOM     15  C   LIG d   1       8.157   1.417  -4.934  0.00  0.00     0.217 C 
ATOM     16  O   LIG d   1       7.343   1.327  -5.828  0.00  0.00    -0.276 OA
ATOM     17  N   LIG d   1       8.139   0.537  -3.915  0.00  0.00    -0.285 N 
ATOM     18  H   LIG d   1       8.835   0.563  -3.239  0.00  0.00     0.155 HD
BRANCH  17  19
ATOM     19  C   LIG d   1       7.121  -0.414  -3.831  0.00  0.00     0.043 A 
ATOM     20  C   LIG d   1       7.306  -1.703  -4.328  0.00  0.00    -0.005 A 
ATOM     21  C   LIG d   1       6.277  -2.616  -4.229  0.00  0.00     0.046 A 
ATOM     22  C   LIG d   1       8.499  -2.338  -5.004  0.00  0.00    -0.024 C 
ATOM     23  N   LIG d   1       5.130  -2.270  -3.667  0.00  0.00    -0.256 NA
ATOM     24  C   LIG d   1       6.710  -3.936  -4.832  0.00  0.00    -0.010 C 
ATOM     25  C   LIG d   1       4.911  -1.059  -3.182  0.00  0.00     0.046 A 
ATOM     26  C   LIG d   1       5.898  -0.096  -3.243  0.00  0.00    -0.005 A 
ATOM     27  C   LIG d   1       3.680  -0.484  -2.513  0.00  0.00    -0.010 C 
ATOM     28  C   LIG d   1       5.401   1.194  -2.629  0.00  0.00    -0.024 C 
ATOM     29  C   LIG d   1       4.170   0.789  -1.790  0.00  0.00    -0.043 C 
ATOM     30  H   LIG d   1       5.113   1.900  -3.407  0.00  0.00     0.031 H 
ATOM     31  H   LIG d   1       6.170   1.625  -1.989  0.00  0.00     0.031 H 
ATOM     32  H   LIG d   1       3.408   1.569  -1.818  0.00  0.00     0.027 H 
ATOM     33  H   LIG d   1       4.458   0.565  -0.763  0.00  0.00     0.027 H 
ATOM     34  H   LIG d   1       2.928  -0.228  -3.260  0.00  0.00     0.033 H 
ATOM     35  H   LIG d   1       3.273  -1.195  -1.795  0.00  0.00     0.033 H 
ATOM     36  C   LIG d   1       7.944  -3.600  -5.697  0.00  0.00    -0.043 C 
ATOM     37  H   LIG d   1       5.913  -4.346  -5.453  0.00  0.00     0.033 H 
ATOM     38  H   LIG d   1       6.979  -4.642  -4.048  0.00  0.00     0.033 H 
ATOM     39  H   LIG d   1       7.650  -3.381  -6.724  0.00  0.00     0.027 H 
ATOM     40  H   LIG d   1       8.671  -4.412  -5.666  0.00  0.00     0.027 H 
ATOM     41  H   LIG d   1       8.924  -1.657  -5.742  0.00  0.00     0.031 H 
ATOM     42  H   LIG d   1       9.252  -2.613  -4.264  0.00  0.00     0.031 H 
ENDBRANCH  17  19
ENDBRANCH  12  15
ENDBRANCH   9  12
ENDBRANCH   3   9
BRANCH   1  43
ATOM     43  C   LIG d   1      10.633   7.236  -1.137  0.00  0.00    -0.009 C 
BRANCH  43  44
ATOM     44  C   LIG d   1      11.975   7.961  -1.254  0.00  0.00    -0.056 C 
ATOM     45  H   LIG d   1      11.928   8.902  -0.708  0.00  0.00     0.024 H 
ATOM     46  H   LIG d   1      12.763   7.336  -0.831  0.00  0.00     0.024 H 
ATOM     47  H   LIG d   1      12.192   8.158  -2.303  0.00  0.00     0.024 H 
ENDBRANCH  43  44
BRANCH  43  48
ATOM     48  C   LIG d   1       9.523   8.256  -0.872  0.00  0.00    -0.056 C 
ATOM     49  H   LIG d   1       8.791   7.827  -0.188  0.00  0.00     0.024 H 
ATOM     50  H   LIG d   1       9.953   9.153  -0.427  0.00  0.00     0.024 H 
ATOM     51  H   LIG d   1       9.035   8.515  -1.811  0.00  0.00     0.024 H 
ENDBRANCH  43  48
BRANCH  43  52
ATOM     52  C   LIG d   1      10.692   6.235   0.020  0.00  0.00    -0.056 C 
ATOM     53  H   LIG d   1      11.712   5.870   0.131  0.00  0.00     0.024 H 
ATOM     54  H   LIG d   1      10.379   6.726   0.941  0.00  0.00     0.024 H 
ATOM     55  H   LIG d   1      10.027   5.398  -0.190  0.00  0.00     0.024 H 
ENDBRANCH  43  52
ENDBRANCH   1  43
BRANCH   5  56
ATOM     56  C   LIG d   1      10.163   7.232  -6.129  0.00  0.00    -0.009 C 
BRANCH  56  57
ATOM     57  C   LIG d   1      11.564   7.803  -6.350  0.00  0.00    -0.056 C 
ATOM     58  H   LIG d   1      12.301   7.158  -5.869  0.00  0.00     0.024 H 
ATOM     59  H   LIG d   1      11.771   7.855  -7.419  0.00  0.00     0.024 H 
ATOM     60  H   LIG d   1      11.621   8.803  -5.920  0.00  0.00     0.024 H 
ENDBRANCH  56  57
BRANCH  56  61
ATOM     61  C   LIG d   1       9.823   6.261  -7.262  0.00  0.00    -0.056 C 
ATOM     62  H   LIG d   1       9.928   5.237  -6.907  0.00  0.00     0.024 H 
ATOM     63  H   LIG d   1       8.796   6.429  -7.588  0.00  0.00     0.024 H 
ATOM     64  H   LIG d   1      10.502   6.428  -8.099  0.00  0.00     0.024 H 
ENDBRANCH  56  61
BRANCH  56  65
ATOM     65  C   LIG d   1       9.144   8.373  -6.113  0.00  0.00    -0.056 C 
ATOM     66  H   LIG d   1       9.666   9.327  -6.188  0.00  0.00     0.024 H 
ATOM     67  H   LIG d   1       8.462   8.265  -6.956  0.00  0.00     0.024 H 
ATOM     68  H   LIG d   1       8.578   8.342  -5.182  0.00  0.00     0.024 H 
ENDBRANCH  56  65
ENDBRANCH   5  56
BRANCH   6  69
ATOM     69  O   LIG d   1      10.682   8.506  -3.661  0.00  0.00    -0.506 OA
ATOM     70  H   LIG d   1      11.506   8.733  -3.211  0.00  0.00     0.292 HD
ENDBRANCH   6  69
TORSDOF 13
ENDMDL
MODEL 3
REMARK VINA RESULT:      -7.0      0.139      4.115
REMARK  13 active torsions:
REMARK  status: ('A' for Active; 'I' for Inactive)
REMARK    1  A    between atoms: C_1  and  C_2 
REMARK    2  A    between atoms: C_2  and  C_3 
REMARK    3  A    between atoms: C_2  and  C_4 
REMARK    4  A    between atoms: C_2  and  C_5 
REMARK    5  A    between atoms: C_7  and  C_16 
REMARK    6  A    between atoms: C_9  and  C_12 
REMARK    7  A    between atoms: C_10  and  O_11 
REMARK    8  A    between atoms: C_12  and  C_13 
REMARK    9  A    between atoms: C_12  and  C_14 
REMARK   10  A    between atoms: C_12  and  C_15 
REMARK   11  A    between atoms: C_16  and  C_17 
REMARK   12  A    between atoms: C_17  and  C_18 
REMARK       I    between atoms: C_18  and  N_20 
REMARK   13  A    between atoms: N_20  and  C_21 
ROOT
ATOM      1  C   LIG d   1      10.146   6.386  -4.738  0.00  0.00    -0.000 A 
ATOM      2  C   LIG d   1       9.837   5.040  -4.697  0.00  0.00    -0.051 A 
ATOM      3  C   LIG d   1       9.801   4.376  -3.485  0.00  0.00    -0.046 A 
ATOM      4  C   LIG d   1      10.068   5.057  -2.312  0.00  0.00    -0.051 A 
ATOM      5  C   LIG d   1      10.384   6.402  -2.350  0.00  0.00    -0.000 A 
ATOM      6  C   LIG d   1      10.420   7.071  -3.564  0.00  0.00     0.124 A 
ATOM      7  H   LIG d   1       9.623   4.507  -5.611  0.00  0.00     0.062 H 
ATOM      8  H   LIG d   1      10.036   4.537  -1.366  0.00  0.00     0.062 H 
ENDROOT
BRANCH   3   9
ATOM      9  C   LIG d   1       9.464   2.908  -3.442  0.00  0.00    -0.019 C 
ATOM     10  H   LIG d   1      10.278   2.361  -2.966  0.00  0.00     0.032 H 
ATOM     11  H   LIG d   1       8.547   2.763  -2.870  0.00  0.00     0.032 H 
BRANCH   9  12
ATOM     12  C   LIG d   1       9.264   2.387  -4.867  0.00  0.00     0.028 C 
ATOM     13  H   LIG d   1       8.974   3.213  -5.517  0.00  0.00     0.036 H 
ATOM     14  H   LIG d   1      10.196   1.951  -5.228  0.00  0.00     0.036 H 
BRANCH  12  15
ATOM     15  C   LIG d   1       8.182   1.338  -4.873  0.00  0.00     0.217 C 
ATOM     16  O   LIG d   1       7.405   1.276  -5.801  0.00  0.00    -0.276 OA
ATOM     17  N   LIG d   1       8.079   0.470  -3.848  0.00  0.00    -0.285 N 
ATOM     18  H   LIG d   1       8.745   0.472  -3.143  0.00  0.00     0.155 HD
BRANCH  17  19
ATOM     19  C   LIG d   1       7.015  -0.431  -3.801  0.00  0.00     0.043 A 
ATOM     20  C   LIG d   1       7.154  -1.724  -4.303  0.00  0.00    -0.005 A 
ATOM     21  C   LIG d   1       6.080  -2.588  -4.241  0.00  0.00     0.046 A 
ATOM     22  C   LIG d   1       8.335  -2.411  -4.950  0.00  0.00    -0.024 C 
ATOM     23  N   LIG d   1       4.935  -2.192  -3.710  0.00  0.00    -0.256 NA
ATOM     24  C   LIG d   1       6.468  -3.923  -4.843  0.00  0.00    -0.010 C 
ATOM     25  C   LIG d   1       4.759  -0.976  -3.222  0.00  0.00     0.046 A 
ATOM     26  C   LIG d   1       5.791  -0.060  -3.246  0.00  0.00    -0.005 A 
ATOM     27  C   LIG d   1       3.538  -0.347  -2.584  0.00  0.00    -0.010 C 
ATOM     28  C   LIG d   1       5.338   1.248  -2.637  0.00  0.00    -0.024 C 
ATOM     29  C   LIG d   1       4.066   0.896  -1.837  0.00  0.00    -0.043 C 
ATOM     30  H   LIG d   1       5.107   1.972  -3.417  0.00  0.00     0.031 H 
ATOM     31  H   LIG d   1       6.108   1.638  -1.972  0.00  0.00     0.031 H 
ATOM     32  H   LIG d   1       3.343   1.711  -1.881  0.00  0.00     0.027 H 
ATOM     33  H   LIG d   1       4.313   0.652  -0.804  0.00  0.00     0.027 H 
ATOM     34  H   LIG d   1       2.821  -0.051  -3.351  0.00  0.00     0.033 H 
ATOM     35  H   LIG d   1       3.076  -1.043  -1.884  0.00  0.00     0.033 H 
ATOM     36  C   LIG d   1       7.741  -3.641  -5.669  0.00  0.00    -0.043 C 
ATOM     37  H   LIG d   1       5.671  -4.291  -5.490  0.00  0.00     0.033 H 
ATOM     38  H   LIG d   1       6.681  -4.647  -4.057  0.00  0.00     0.033 H 
ATOM     39  H   LIG d   1       7.488  -3.401  -6.702  0.00  0.00     0.027 H 
ATOM     40  H   LIG d   1       8.428  -4.486  -5.623  0.00  0.00     0.027 H 
ATOM     41  H   LIG d   1       8.813  -1.746  -5.669  0.00  0.00     0.031 H 
ATOM     42  H   LIG d   1       9.052  -2.726  -4.191  0.00  0.00     0.031 H 
ENDBRANCH  17  19
ENDBRANCH  12  15
ENDBRANCH   9  12
ENDBRANCH   3   9
BRANCH   1  43
ATOM     43  C   LIG d   1      10.183   7.110  -6.060  0.00  0.00    -0.009 C 
BRANCH  43  44
ATOM     44  C   LIG d   1       9.135   8.224  -6.061  0.00  0.00    -0.056 C 
ATOM     45  H   LIG d   1       8.852   8.456  -5.035  0.00  0.00     0.024 H 
ATOM     46  H   LIG d   1       9.552   9.114  -6.533  0.00  0.00     0.024 H 
ATOM     47  H   LIG d   1       8.257   7.896  -6.617  0.00  0.00     0.024 H 
ENDBRANCH  43  44
BRANCH  43  48
ATOM     48  C   LIG d   1      11.572   7.715  -6.271  0.00  0.00    -0.056 C 
ATOM     49  H   LIG d   1      12.031   7.917  -5.303  0.00  0.00     0.024 H 
ATOM     50  H   LIG d   1      12.194   7.014  -6.828  0.00  0.00     0.024 H 
ATOM     51  H   LIG d   1      11.482   8.645  -6.832  0.00  0.00     0.024 H 
ENDBRANCH  43  48
BRANCH  43  52
ATOM     52  C   LIG d   1       9.880   6.123  -7.190  0.00  0.00    -0.056 C 
ATOM     53  H   LIG d   1      10.590   5.297  -7.151  0.00  0.00     0.024 H 
ATOM     54  H   LIG d   1       8.868   5.737  -7.074  0.00  0.00     0.024 H 
ATOM     55  H   LIG d   1       9.967   6.631  -8.151  0.00  0.00     0.024 H 
ENDBRANCH  43  52
ENDBRANCH   1  43
BRANCH   5  56
ATOM     56  C   LIG d   1      10.681   7.142  -1.071  0.00  0.00    -0.009 C 
BRANCH  56  57
ATOM     57  C   LIG d   1       9.576   8.166  -0.806  0.00  0.00    -0.056 C 
ATOM     58  H   LIG d   1       9.065   8.401  -1.740  0.00  0.00     0.024 H 
ATOM     59  H   LIG d   1       8.861   7.753  -0.094  0.00  0.00     0.024 H 
ATOM     60  H   LIG d   1      10.014   9.075  -0.394  0.00  0.00     0.024 H 
ENDBRANCH  56  57
BRANCH  56  61
ATOM     61  C   LIG d   1      10.745   6.148   0.091  0.00  0.00    -0.056 C 
ATOM     62  H   LIG d   1      11.219   6.622   0.949  0.00  0.00     0.024 H 
ATOM     63  H   LIG d   1       9.734   5.838   0.359  0.00  0.00     0.024 H 
ATOM     64  H   LIG d   1      11.325   5.276  -0.209  0.00  0.00     0.024 H 
ENDBRANCH  56  61
BRANCH  56  65
ATOM     65  C   LIG d   1      12.024   7.863  -1.199  0.00  0.00    -0.056 C 
ATOM     66  H   LIG d   1      12.064   8.392  -2.151  0.00  0.00     0.024 H 
ATOM     67  H   LIG d   1      12.134   8.577  -0.383  0.00  0.00     0.024 H 
ATOM     68  H   LIG d   1      12.834   7.134  -1.155  0.00  0.00     0.024 H 
ENDBRANCH  56  65
ENDBRANCH   5  56
BRANCH   6  69
ATOM     69  O   LIG d   1      10.725   8.395  -3.603  0.00  0.00    -0.506 OA
ATOM     70  H   LIG d   1       9.995   8.974  -3.344  0.00  0.00     0.292 HD
ENDBRANCH   6  69
TORSDOF 13
ENDMDL
MODEL 4
REMARK VINA RESULT:      -7.0      0.133      3.106
REMARK  13 active torsions:
REMARK  status: ('A' for Active; 'I' for Inactive)
REMARK    1  A    between atoms: C_1  and  C_2 
REMARK    2  A    between atoms: C_2  and  C_3 
REMARK    3  A    between atoms: C_2  and  C_4 
REMARK    4  A    between atoms: C_2  and  C_5 
REMARK    5  A    between atoms: C_7  and  C_16 
REMARK    6  A    between atoms: C_9  and  C_12 
REMARK    7  A    between atoms: C_10  and  O_11 
REMARK    8  A    between atoms: C_12  and  C_13 
REMARK    9  A    between atoms: C_12  and  C_14 
REMARK   10  A    between atoms: C_12  and  C_15 
REMARK   11  A    between atoms: C_16  and  C_17 
REMARK   12  A    between atoms: C_17  and  C_18 
REMARK       I    between atoms: C_18  and  N_20 
REMARK   13  A    between atoms: N_20  and  C_21 
ROOT
ATOM      1  C   LIG d   1      10.146   6.386  -4.740  0.00  0.00    -0.000 A 
ATOM      2  C   LIG d   1       9.838   5.039  -4.699  0.00  0.00    -0.051 A 
ATOM      3  C   LIG d   1       9.805   4.374  -3.489  0.00  0.00    -0.046 A 
ATOM      4  C   LIG d   1      10.074   5.054  -2.315  0.00  0.00    -0.051 A 
ATOM      5  C   LIG d   1      10.388   6.399  -2.351  0.00  0.00    -0.000 A 
ATOM      6  C   LIG d   1      10.421   7.070  -3.565  0.00  0.00     0.124 A 
ATOM      7  H   LIG d   1       9.623   4.507  -5.614  0.00  0.00     0.062 H 
ATOM      8  H   LIG d   1      10.043   4.533  -1.369  0.00  0.00     0.062 H 
ENDROOT
BRANCH   3   9
ATOM      9  C   LIG d   1       9.469   2.906  -3.446  0.00  0.00    -0.019 C 
ATOM     10  H   LIG d   1      10.285   2.359  -2.973  0.00  0.00     0.032 H 
ATOM     11  H   LIG d   1       8.553   2.759  -2.873  0.00  0.00     0.032 H 
BRANCH   9  12
ATOM     12  C   LIG d   1       9.268   2.386  -4.872  0.00  0.00     0.028 C 
ATOM     13  H   LIG d   1       8.975   3.212  -5.520  0.00  0.00     0.036 H 
ATOM     14  H   LIG d   1      10.199   1.952  -5.235  0.00  0.00     0.036 H 
BRANCH  12  15
ATOM     15  C   LIG d   1       8.187   1.336  -4.877  0.00  0.00     0.217 C 
ATOM     16  O   LIG d   1       7.407   1.275  -5.804  0.00  0.00    -0.276 OA
ATOM     17  N   LIG d   1       8.088   0.466  -3.853  0.00  0.00    -0.285 N 
ATOM     18  H   LIG d   1       8.755   0.468  -3.150  0.00  0.00     0.155 HD
BRANCH  17  19
ATOM     19  C   LIG d   1       7.025  -0.437  -3.806  0.00  0.00     0.043 A 
ATOM     20  C   LIG d   1       5.801  -0.067  -3.252  0.00  0.00    -0.005 A 
ATOM     21  C   LIG d   1       4.772  -0.986  -3.220  0.00  0.00     0.046 A 
ATOM     22  C   LIG d   1       5.350   1.236  -2.633  0.00  0.00    -0.024 C 
ATOM     23  N   LIG d   1       4.949  -2.202  -3.712  0.00  0.00    -0.256 NA
ATOM     24  C   LIG d   1       3.552  -0.360  -2.577  0.00  0.00    -0.010 C 
ATOM     25  C   LIG d   1       6.092  -2.595  -4.247  0.00  0.00     0.046 A 
ATOM     26  C   LIG d   1       7.163  -1.727  -4.316  0.00  0.00    -0.005 A 
ATOM     27  C   LIG d   1       6.480  -3.928  -4.852  0.00  0.00    -0.010 C 
ATOM     28  C   LIG d   1       8.345  -2.413  -4.962  0.00  0.00    -0.024 C 
ATOM     29  C   LIG d   1       7.750  -3.642  -5.682  0.00  0.00    -0.043 C 
ATOM     30  H   LIG d   1       9.064  -2.728  -4.207  0.00  0.00     0.031 H 
ATOM     31  H   LIG d   1       8.819  -1.746  -5.683  0.00  0.00     0.031 H 
ATOM     32  H   LIG d   1       8.439  -4.487  -5.640  0.00  0.00     0.027 H 
ATOM     33  H   LIG d   1       7.494  -3.402  -6.713  0.00  0.00     0.027 H 
ATOM     34  H   LIG d   1       6.697  -4.651  -4.066  0.00  0.00     0.033 H 
ATOM     35  H   LIG d   1       5.682  -4.298  -5.496  0.00  0.00     0.033 H 
ATOM     36  C   LIG d   1       4.081   0.882  -1.829  0.00  0.00    -0.043 C 
ATOM     37  H   LIG d   1       3.095  -1.059  -1.875  0.00  0.00     0.033 H 
ATOM     38  H   LIG d   1       2.831  -0.065  -3.338  0.00  0.00     0.033 H 
ATOM     39  H   LIG d   1       4.332   0.636  -0.797  0.00  0.00     0.027 H 
ATOM     40  H   LIG d   1       3.356   1.696  -1.869  0.00  0.00     0.027 H 
ATOM     41  H   LIG d   1       6.121   1.628  -1.970  0.00  0.00     0.031 H 
ATOM     42  H   LIG d   1       5.115   1.963  -3.411  0.00  0.00     0.031 H 
ENDBRANCH  17  19
ENDBRANCH  12  15
ENDBRANCH   9  12
ENDBRANCH   3   9
BRANCH   1  43
ATOM     43  C   LIG d   1      10.181   7.111  -6.061  0.00  0.00    -0.009 C 
BRANCH  43  44
ATOM     44  C   LIG d   1       9.876   6.127  -7.191  0.00  0.00    -0.056 C 
ATOM     45  H   LIG d   1      10.060   5.110  -6.847  0.00  0.00     0.024 H 
ATOM     46  H   LIG d   1       8.831   6.226  -7.487  0.00  0.00     0.024 H 
ATOM     47  H   LIG d   1      10.517   6.344  -8.045  0.00  0.00     0.024 H 
ENDBRANCH  43  44
BRANCH  43  48
ATOM     48  C   LIG d   1       9.133   8.226  -6.058  0.00  0.00    -0.056 C 
ATOM     49  H   LIG d   1       9.286   8.870  -6.925  0.00  0.00     0.024 H 
ATOM     50  H   LIG d   1       8.136   7.789  -6.104  0.00  0.00     0.024 H 
ATOM     51  H   LIG d   1       9.231   8.815  -5.147  0.00  0.00     0.024 H 
ENDBRANCH  43  48
BRANCH  43  52
ATOM     52  C   LIG d   1      11.570   7.717  -6.273  0.00  0.00    -0.056 C 
ATOM     53  H   LIG d   1      12.187   7.526  -5.395  0.00  0.00     0.024 H 
ATOM     54  H   LIG d   1      12.034   7.264  -7.149  0.00  0.00     0.024 H 
ATOM     55  H   LIG d   1      11.479   8.793  -6.425  0.00  0.00     0.024 H 
ENDBRANCH  43  52
ENDBRANCH   1  43
BRANCH   5  56
ATOM     56  C   LIG d   1      10.686   7.138  -1.073  0.00  0.00    -0.009 C 
BRANCH  56  57
ATOM     57  C   LIG d   1       9.582   8.162  -0.805  0.00  0.00    -0.056 C 
ATOM     58  H   LIG d   1       9.768   8.657   0.149  0.00  0.00     0.024 H 
ATOM     59  H   LIG d   1       9.572   8.904  -1.604  0.00  0.00     0.024 H 
ATOM     60  H   LIG d   1       8.618   7.655  -0.768  0.00  0.00     0.024 H 
ENDBRANCH  56  57
BRANCH  56  61
ATOM     61  C   LIG d   1      10.752   6.143   0.088  0.00  0.00    -0.056 C 
ATOM     62  H   LIG d   1      10.332   5.188  -0.227  0.00  0.00     0.024 H 
ATOM     63  H   LIG d   1      11.791   6.002   0.388  0.00  0.00     0.024 H 
ATOM     64  H   LIG d   1      10.179   6.530   0.931  0.00  0.00     0.024 H 
ENDBRANCH  56  61
BRANCH  56  65
ATOM     65  C   LIG d   1      12.030   7.859  -1.201  0.00  0.00    -0.056 C 
ATOM     66  H   LIG d   1      12.090   8.343  -2.177  0.00  0.00     0.024 H 
ATOM     67  H   LIG d   1      12.116   8.612  -0.417  0.00  0.00     0.024 H 
ATOM     68  H   LIG d   1      12.841   7.138  -1.103  0.00  0.00     0.024 H 
ENDBRANCH  56  65
ENDBRANCH   5  56
BRANCH   6  69
ATOM     69  O   LIG d   1      10.725   8.394  -3.603  0.00  0.00    -0.506 OA
ATOM     70  H   LIG d   1      11.154   8.722  -2.801  0.00  0.00     0.292 HD
ENDBRANCH   6  69
TORSDOF 13
ENDMDL
MODEL 5
REMARK VINA RESULT:      -6.9      6.435      9.236
REMARK  13 active torsions:
REMARK  status: ('A' for Active; 'I' for Inactive)
REMARK    1  A    between atoms: C_1  and  C_2 
REMARK    2  A    between atoms: C_2  and  C_3 
REMARK    3  A    between atoms: C_2  and  C_4 
REMARK    4  A    between atoms: C_2  and  C_5 
REMARK    5  A    between atoms: C_7  and  C_16 
REMARK    6  A    between atoms: C_9  and  C_12 
REMARK    7  A    between atoms: C_10  and  O_11 
REMARK    8  A    between atoms: C_12  and  C_13 
REMARK    9  A    between atoms: C_12  and  C_14 
REMARK   10  A    between atoms: C_12  and  C_15 
REMARK   11  A    between atoms: C_16  and  C_17 
REMARK   12  A    between atoms: C_17  and  C_18 
REMARK       I    between atoms: C_18  and  N_20 
REMARK   13  A    between atoms: N_20  and  C_21 
ROOT
ATOM      1  C   LIG d   1       5.244  -2.169  -3.917  0.00  0.00    -0.000 A 
ATOM      2  C   LIG d   1       4.491  -3.040  -4.679  0.00  0.00    -0.051 A 
ATOM      3  C   LIG d   1       5.107  -4.074  -5.358  0.00  0.00    -0.046 A 
ATOM      4  C   LIG d   1       6.477  -4.243  -5.271  0.00  0.00    -0.051 A 
ATOM      5  C   LIG d   1       7.235  -3.370  -4.515  0.00  0.00    -0.000 A 
ATOM      6  C   LIG d   1       6.619  -2.332  -3.832  0.00  0.00     0.124 A 
ATOM      7  H   LIG d   1       3.421  -2.913  -4.745  0.00  0.00     0.062 H 
ATOM      8  H   LIG d   1       6.956  -5.054  -5.800  0.00  0.00     0.062 H 
ENDROOT
BRANCH   3   9
ATOM      9  C   LIG d   1       4.285  -5.024  -6.190  0.00  0.00    -0.019 C 
ATOM     10  H   LIG d   1       4.249  -5.999  -5.702  0.00  0.00     0.032 H 
ATOM     11  H   LIG d   1       3.272  -4.633  -6.293  0.00  0.00     0.032 H 
BRANCH   9  12
ATOM     12  C   LIG d   1       4.919  -5.171  -7.575  0.00  0.00     0.028 C 
ATOM     13  H   LIG d   1       6.005  -5.157  -7.479  0.00  0.00     0.036 H 
ATOM     14  H   LIG d   1       4.606  -6.116  -8.019  0.00  0.00     0.036 H 
BRANCH  12  15
ATOM     15  C   LIG d   1       4.477  -4.031  -8.455  0.00  0.00     0.217 C 
ATOM     16  O   LIG d   1       5.266  -3.514  -9.218  0.00  0.00    -0.276 OA
ATOM     17  N   LIG d   1       3.207  -3.586  -8.394  0.00  0.00    -0.285 N 
ATOM     18  H   LIG d   1       2.558  -4.046  -7.839  0.00  0.00     0.155 HD
BRANCH  17  19
ATOM     19  C   LIG d   1       2.825  -2.463  -9.130  0.00  0.00     0.043 A 
ATOM     20  C   LIG d   1       2.989  -1.180  -8.608  0.00  0.00    -0.005 A 
ATOM     21  C   LIG d   1       2.600  -0.093  -9.363  0.00  0.00     0.046 A 
ATOM     22  C   LIG d   1       3.548  -0.717  -7.283  0.00  0.00    -0.024 C 
ATOM     23  N   LIG d   1       2.078  -0.269 -10.566  0.00  0.00    -0.256 NA
ATOM     24  C   LIG d   1       2.874   1.182  -8.594  0.00  0.00    -0.010 C 
ATOM     25  C   LIG d   1       1.906  -1.466 -11.100  0.00  0.00     0.046 A 
ATOM     26  C   LIG d   1       2.277  -2.599 -10.404  0.00  0.00    -0.005 A 
ATOM     27  C   LIG d   1       1.333  -1.863 -12.445  0.00  0.00    -0.010 C 
ATOM     28  C   LIG d   1       1.974  -3.833 -11.223  0.00  0.00    -0.024 C 
ATOM     29  C   LIG d   1       1.792  -3.320 -12.667  0.00  0.00    -0.043 C 
ATOM     30  H   LIG d   1       1.059  -4.309 -10.872  0.00  0.00     0.031 H 
ATOM     31  H   LIG d   1       2.809  -4.531 -11.173  0.00  0.00     0.031 H 
ATOM     32  H   LIG d   1       1.024  -3.893 -13.188  0.00  0.00     0.027 H 
ATOM     33  H   LIG d   1       2.735  -3.350 -13.212  0.00  0.00     0.027 H 
ATOM     34  H   LIG d   1       0.244  -1.809 -12.423  0.00  0.00     0.033 H 
ATOM     35  H   LIG d   1       1.727  -1.216 -13.229  0.00  0.00     0.033 H 
ATOM     36  C   LIG d   1       3.061   0.739  -7.127  0.00  0.00    -0.043 C 
ATOM     37  H   LIG d   1       2.026   1.863  -8.678  0.00  0.00     0.033 H 
ATOM     38  H   LIG d   1       3.780   1.662  -8.962  0.00  0.00     0.033 H 
ATOM     39  H   LIG d   1       2.115   0.776  -6.587  0.00  0.00     0.027 H 
ATOM     40  H   LIG d   1       3.816   1.350  -6.631  0.00  0.00     0.027 H 
ATOM     41  H   LIG d   1       3.162  -1.334  -6.472  0.00  0.00     0.031 H 
ATOM     42  H   LIG d   1       4.638  -0.752  -7.298  0.00  0.00     0.031 H 
ENDBRANCH  17  19
ENDBRANCH  12  15
ENDBRANCH   9  12
ENDBRANCH   3   9
BRANCH   1  43
ATOM     43  C   LIG d   1       4.571  -1.041  -3.175  0.00  0.00    -0.009 C 
BRANCH  43  44
ATOM     44  C   LIG d   1       4.652  -1.301  -1.670  0.00  0.00    -0.056 C 
ATOM     45  H   LIG d   1       5.639  -1.691  -1.422  0.00  0.00     0.024 H 
ATOM     46  H   LIG d   1       4.484  -0.368  -1.131  0.00  0.00     0.024 H 
ATOM     47  H   LIG d   1       3.891  -2.027  -1.385  0.00  0.00     0.024 H 
ENDBRANCH  43  44
BRANCH  43  48
ATOM     48  C   LIG d   1       5.274   0.277  -3.505  0.00  0.00    -0.056 C 
ATOM     49  H   LIG d   1       6.073   0.453  -2.784  0.00  0.00     0.024 H 
ATOM     50  H   LIG d   1       5.695   0.224  -4.508  0.00  0.00     0.024 H 
ATOM     51  H   LIG d   1       4.555   1.094  -3.456  0.00  0.00     0.024 H 
ENDBRANCH  43  48
BRANCH  43  52
ATOM     52  C   LIG d   1       3.103  -0.957  -3.600  0.00  0.00    -0.056 C 
ATOM     53  H   LIG d   1       2.972  -1.464  -4.556  0.00  0.00     0.024 H 
ATOM     54  H   LIG d   1       2.479  -1.437  -2.847  0.00  0.00     0.024 H 
ATOM     55  H   LIG d   1       2.813   0.089  -3.701  0.00  0.00     0.024 H 
ENDBRANCH  43  52
ENDBRANCH   1  43
BRANCH   5  56
ATOM     56  C   LIG d   1       8.728  -3.551  -4.425  0.00  0.00    -0.009 C 
BRANCH  56  57
ATOM     57  C   LIG d   1       9.152  -4.734  -5.296  0.00  0.00    -0.056 C 
ATOM     58  H   LIG d   1      10.221  -4.672  -5.500  0.00  0.00     0.024 H 
ATOM     59  H   LIG d   1       8.936  -5.667  -4.774  0.00  0.00     0.024 H 
ATOM     60  H   LIG d   1       8.602  -4.709  -6.237  0.00  0.00     0.024 H 
ENDBRANCH  56  57
BRANCH  56  61
ATOM     61  C   LIG d   1       9.426  -2.281  -4.916  0.00  0.00    -0.056 C 
ATOM     62  H   LIG d   1       9.468  -2.287  -6.005  0.00  0.00     0.024 H 
ATOM     63  H   LIG d   1       8.868  -1.407  -4.579  0.00  0.00     0.024 H 
ATOM     64  H   LIG d   1      10.438  -2.244  -4.513  0.00  0.00     0.024 H 
ENDBRANCH  56  61
BRANCH  56  65
ATOM     65  C   LIG d   1       9.124  -3.820  -2.972  0.00  0.00    -0.056 C 
ATOM     66  H   LIG d   1       8.284  -3.584  -2.317  0.00  0.00     0.024 H 
ATOM     67  H   LIG d   1       9.391  -4.870  -2.855  0.00  0.00     0.024 H 
ATOM     68  H   LIG d   1       9.977  -3.196  -2.706  0.00  0.00     0.024 H 
ENDBRANCH  56  65
ENDBRANCH   5  56
BRANCH   6  69
ATOM     69  O   LIG d   1       7.362  -1.474  -3.082  0.00  0.00    -0.506 OA
ATOM     70  H   LIG d   1       6.880  -1.083  -2.341  0.00  0.00     0.292 HD
ENDBRANCH   6  69
TORSDOF 13
ENDMDL
MODEL 6
REMARK VINA RESULT:      -6.7      2.317      9.373
REMARK  13 active torsions:
REMARK  status: ('A' for Active; 'I' for Inactive)
REMARK    1  A    between atoms: C_1  and  C_2 
REMARK    2  A    between atoms: C_2  and  C_3 
REMARK    3  A    between atoms: C_2  and  C_4 
REMARK    4  A    between atoms: C_2  and  C_5 
REMARK    5  A    between atoms: C_7  and  C_16 
REMARK    6  A    between atoms: C_9  and  C_12 
REMARK    7  A    between atoms: C_10  and  O_11 
REMARK    8  A    between atoms: C_12  and  C_13 
REMARK    9  A    between atoms: C_12  and  C_14 
REMARK   10  A    between atoms: C_12  and  C_15 
REMARK   11  A    between atoms: C_16  and  C_17 
REMARK   12  A    between atoms: C_17  and  C_18 
REMARK       I    between atoms: C_18  and  N_20 
REMARK   13  A    between atoms: N_20  and  C_21 
ROOT
ATOM      1  C   LIG d   1       7.663  -1.199  -4.423  0.00  0.00    -0.000 A 
ATOM      2  C   LIG d   1       8.295   0.024  -4.537  0.00  0.00    -0.051 A 
ATOM      3  C   LIG d   1       7.688   1.165  -4.046  0.00  0.00    -0.046 A 
ATOM      4  C   LIG d   1       6.451   1.085  -3.434  0.00  0.00    -0.051 A 
ATOM      5  C   LIG d   1       5.812  -0.136  -3.323  0.00  0.00    -0.000 A 
ATOM      6  C   LIG d   1       6.419  -1.282  -3.814  0.00  0.00     0.124 A 
ATOM      7  H   LIG d   1       9.263   0.089  -5.011  0.00  0.00     0.062 H 
ATOM      8  H   LIG d   1       5.980   1.976  -3.047  0.00  0.00     0.062 H 
ENDROOT
BRANCH   3   9
ATOM      9  C   LIG d   1       8.379   2.498  -4.172  0.00  0.00    -0.019 C 
ATOM     10  H   LIG d   1       8.556   2.719  -5.225  0.00  0.00     0.032 H 
ATOM     11  H   LIG d   1       7.750   3.275  -3.739  0.00  0.00     0.032 H 
BRANCH   9  12
ATOM     12  C   LIG d   1       9.717   2.452  -3.430  0.00  0.00     0.028 C 
ATOM     13  H   LIG d   1       9.569   2.013  -2.443  0.00  0.00     0.036 H 
ATOM     14  H   LIG d   1      10.425   1.845  -3.994  0.00  0.00     0.036 H 
BRANCH  12  15
ATOM     15  C   LIG d   1      10.259   3.850  -3.281  0.00  0.00     0.217 C 
ATOM     16  O   LIG d   1      11.405   4.092  -3.597  0.00  0.00    -0.276 OA
ATOM     17  N   LIG d   1       9.471   4.830  -2.799  0.00  0.00    -0.285 N 
ATOM     18  H   LIG d   1       8.535   4.655  -2.616  0.00  0.00     0.155 HD
BRANCH  17  19
ATOM     19  C   LIG d   1      10.003   6.099  -2.561  0.00  0.00     0.043 A 
ATOM     20  C   LIG d   1      10.611   6.400  -1.344  0.00  0.00    -0.005 A 
ATOM     21  C   LIG d   1      11.125   7.664  -1.144  0.00  0.00     0.046 A 
ATOM     22  C   LIG d   1      10.832   5.551  -0.113  0.00  0.00    -0.024 C 
ATOM     23  N   LIG d   1      11.039   8.578  -2.097  0.00  0.00    -0.256 NA
ATOM     24  C   LIG d   1      11.731   7.752   0.241  0.00  0.00    -0.010 C 
ATOM     25  C   LIG d   1      10.472   8.336  -3.267  0.00  0.00     0.046 A 
ATOM     26  C   LIG d   1       9.941   7.091  -3.539  0.00  0.00    -0.005 A 
ATOM     27  C   LIG d   1      10.281   9.241  -4.466  0.00  0.00    -0.010 C 
ATOM     28  C   LIG d   1       9.350   7.072  -4.930  0.00  0.00    -0.024 C 
ATOM     29  C   LIG d   1       9.969   8.293  -5.643  0.00  0.00    -0.043 C 
ATOM     30  H   LIG d   1       8.266   7.168  -4.886  0.00  0.00     0.031 H 
ATOM     31  H   LIG d   1       9.630   6.153  -5.444  0.00  0.00     0.031 H 
ATOM     32  H   LIG d   1       9.250   8.748  -6.327  0.00  0.00     0.027 H 
ATOM     33  H   LIG d   1      10.881   8.015  -6.169  0.00  0.00     0.027 H 
ATOM     34  H   LIG d   1       9.446   9.922  -4.297  0.00  0.00     0.033 H 
ATOM     35  H   LIG d   1      11.194   9.804  -4.663  0.00  0.00     0.033 H 
ATOM     36  C   LIG d   1      11.145   6.554   1.017  0.00  0.00    -0.043 C 
ATOM     37  H   LIG d   1      11.444   8.689   0.720  0.00  0.00     0.033 H 
ATOM     38  H   LIG d   1      12.816   7.673   0.187  0.00  0.00     0.033 H 
ATOM     39  H   LIG d   1      10.234   6.840   1.544  0.00  0.00     0.027 H 
ATOM     40  H   LIG d   1      11.881   6.142   1.708  0.00  0.00     0.027 H 
ATOM     41  H   LIG d   1       9.932   4.983   0.122  0.00  0.00     0.031 H 
ATOM     42  H   LIG d   1      11.675   4.876  -0.265  0.00  0.00     0.031 H 
ENDBRANCH  17  19
ENDBRANCH  12  15
ENDBRANCH   9  12
ENDBRANCH   3   9
BRANCH   1  43
ATOM     43  C   LIG d   1       8.326  -2.443  -4.957  0.00  0.00    -0.009 C 
BRANCH  43  44
ATOM     44  C   LIG d   1       9.695  -2.082  -5.537  0.00  0.00    -0.056 C 
ATOM     45  H   LIG d   1      10.254  -1.497  -4.808  0.00  0.00     0.024 H 
ATOM     46  H   LIG d   1      10.244  -2.996  -5.767  0.00  0.00     0.024 H 
ATOM     47  H   LIG d   1       9.562  -1.499  -6.448  0.00  0.00     0.024 H 
ENDBRANCH  43  44
BRANCH  43  48
ATOM     48  C   LIG d   1       8.501  -3.455  -3.824  0.00  0.00    -0.056 C 
ATOM     49  H   LIG d   1       9.537  -3.445  -3.485  0.00  0.00     0.024 H 
ATOM     50  H   LIG d   1       7.846  -3.190  -2.995  0.00  0.00     0.024 H 
ATOM     51  H   LIG d   1       8.247  -4.451  -4.184  0.00  0.00     0.024 H 
ENDBRANCH  43  48
BRANCH  43  52
ATOM     52  C   LIG d   1       7.452  -3.054  -6.056  0.00  0.00    -0.056 C 
ATOM     53  H   LIG d   1       7.395  -4.133  -5.916  0.00  0.00     0.024 H 
ATOM     54  H   LIG d   1       6.450  -2.627  -6.002  0.00  0.00     0.024 H 
ATOM     55  H   LIG d   1       7.888  -2.836  -7.031  0.00  0.00     0.024 H 
ENDBRANCH  43  52
ENDBRANCH   1  43
BRANCH   5  56
ATOM     56  C   LIG d   1       4.461  -0.222  -2.661  0.00  0.00    -0.009 C 
BRANCH  56  57
ATOM     57  C   LIG d   1       3.372  -0.301  -3.731  0.00  0.00    -0.056 C 
ATOM     58  H   LIG d   1       3.586   0.420  -4.522  0.00  0.00     0.024 H 
ATOM     59  H   LIG d   1       3.349  -1.306  -4.153  0.00  0.00     0.024 H 
ATOM     60  H   LIG d   1       2.405  -0.072  -3.284  0.00  0.00     0.024 H 
ENDBRANCH  56  57
BRANCH  56  61
ATOM     61  C   LIG d   1       4.404  -1.473  -1.781  0.00  0.00    -0.056 C 
ATOM     62  H   LIG d   1       3.758  -2.216  -2.249  0.00  0.00     0.024 H 
ATOM     63  H   LIG d   1       5.407  -1.884  -1.667  0.00  0.00     0.024 H 
ATOM     64  H   LIG d   1       4.005  -1.210  -0.801  0.00  0.00     0.024 H 
ENDBRANCH  56  61
BRANCH  56  65
ATOM     65  C   LIG d   1       4.237   1.019  -1.795  0.00  0.00    -0.056 C 
ATOM     66  H   LIG d   1       3.284   0.930  -1.272  0.00  0.00     0.024 H 
ATOM     67  H   LIG d   1       5.043   1.107  -1.067  0.00  0.00     0.024 H 
ATOM     68  H   LIG d   1       4.221   1.907  -2.428  0.00  0.00     0.024 H 
ENDBRANCH  56  65
ENDBRANCH   5  56
BRANCH   6  69
ATOM     69  O   LIG d   1       5.796  -2.485  -3.701  0.00  0.00    -0.506 OA
ATOM     70  H   LIG d   1       4.852  -2.420  -3.504  0.00  0.00     0.292 HD
ENDBRANCH   6  69
TORSDOF 13
ENDMDL
MODEL 7
REMARK VINA RESULT:      -6.6      1.630      3.782
REMARK  13 active torsions:
REMARK  status: ('A' for Active; 'I' for Inactive)
REMARK    1  A    between atoms: C_1  and  C_2 
REMARK    2  A    between atoms: C_2  and  C_3 
REMARK    3  A    between atoms: C_2  and  C_4 
REMARK    4  A    between atoms: C_2  and  C_5 
REMARK    5  A    between atoms: C_7  and  C_16 
REMARK    6  A    between atoms: C_9  and  C_12 
REMARK    7  A    between atoms: C_10  and  O_11 
REMARK    8  A    between atoms: C_12  and  C_13 
REMARK    9  A    between atoms: C_12  and  C_14 
REMARK   10  A    between atoms: C_12  and  C_15 
REMARK   11  A    between atoms: C_16  and  C_17 
REMARK   12  A    between atoms: C_17  and  C_18 
REMARK       I    between atoms: C_18  and  N_20 
REMARK   13  A    between atoms: N_20  and  C_21 
ROOT
ATOM      1  C   LIG d   1       9.684   4.429  -7.236  0.00  0.00    -0.000 A 
ATOM      2  C   LIG d   1       9.407   3.427  -6.326  0.00  0.00    -0.051 A 
ATOM      3  C   LIG d   1       9.392   3.708  -4.973  0.00  0.00    -0.046 A 
ATOM      4  C   LIG d   1       9.649   4.992  -4.527  0.00  0.00    -0.051 A 
ATOM      5  C   LIG d   1       9.933   5.995  -5.433  0.00  0.00    -0.000 A 
ATOM      6  C   LIG d   1       9.948   5.716  -6.792  0.00  0.00     0.124 A 
ATOM      7  H   LIG d   1       9.202   2.426  -6.672  0.00  0.00     0.062 H 
ATOM      8  H   LIG d   1       9.634   5.210  -3.469  0.00  0.00     0.062 H 
ENDROOT
BRANCH   3   9
ATOM      9  C   LIG d   1       9.090   2.615  -3.981  0.00  0.00    -0.019 C 
ATOM     10  H   LIG d   1       9.754   2.709  -3.121  0.00  0.00     0.032 H 
ATOM     11  H   LIG d   1       8.054   2.700  -3.651  0.00  0.00     0.032 H 
BRANCH   9  12
ATOM     12  C   LIG d   1       9.304   1.252  -4.642  0.00  0.00     0.028 C 
ATOM     13  H   LIG d   1       9.702   1.395  -5.647  0.00  0.00     0.036 H 
ATOM     14  H   LIG d   1      10.010   0.668  -4.052  0.00  0.00     0.036 H 
BRANCH  12  15
ATOM     15  C   LIG d   1       7.989   0.519  -4.723  0.00  0.00     0.217 C 
ATOM     16  O   LIG d   1       7.224   0.748  -5.636  0.00  0.00    -0.276 OA
ATOM     17  N   LIG d   1       7.665  -0.389  -3.783  0.00  0.00    -0.285 N 
ATOM     18  H   LIG d   1       8.306  -0.625  -3.095  0.00  0.00     0.155 HD
BRANCH  17  19
ATOM     19  C   LIG d   1       6.404  -0.989  -3.797  0.00  0.00     0.043 A 
ATOM     20  C   LIG d   1       5.286  -0.308  -3.319  0.00  0.00    -0.005 A 
ATOM     21  C   LIG d   1       4.056  -0.933  -3.348  0.00  0.00     0.046 A 
ATOM     22  C   LIG d   1       5.149   1.078  -2.732  0.00  0.00    -0.024 C 
ATOM     23  N   LIG d   1       3.943  -2.162  -3.825  0.00  0.00    -0.256 NA
ATOM     24  C   LIG d   1       3.002  -0.004  -2.781  0.00  0.00    -0.010 C 
ATOM     25  C   LIG d   1       4.977  -2.843  -4.289  0.00  0.00     0.046 A 
ATOM     26  C   LIG d   1       6.237  -2.279  -4.296  0.00  0.00    -0.005 A 
ATOM     27  C   LIG d   1       5.044  -4.241  -4.867  0.00  0.00    -0.010 C 
ATOM     28  C   LIG d   1       7.239  -3.256  -4.868  0.00  0.00    -0.024 C 
ATOM     29  C   LIG d   1       6.391  -4.305  -5.619  0.00  0.00    -0.043 C 
ATOM     30  H   LIG d   1       7.808  -3.731  -4.069  0.00  0.00     0.031 H 
ATOM     31  H   LIG d   1       7.908  -2.746  -5.559  0.00  0.00     0.031 H 
ATOM     32  H   LIG d   1       6.836  -5.297  -5.534  0.00  0.00     0.027 H 
ATOM     33  H   LIG d   1       6.265  -4.025  -6.664  0.00  0.00     0.027 H 
ATOM     34  H   LIG d   1       5.023  -4.983  -4.068  0.00  0.00     0.033 H 
ATOM     35  H   LIG d   1       4.216  -4.406  -5.557  0.00  0.00     0.033 H 
ATOM     36  C   LIG d   1       3.787   1.074  -2.005  0.00  0.00    -0.043 C 
ATOM     37  H   LIG d   1       2.342  -0.550  -2.107  0.00  0.00     0.033 H 
ATOM     38  H   LIG d   1       2.426   0.453  -3.585  0.00  0.00     0.033 H 
ATOM     39  H   LIG d   1       3.907   0.790  -0.959  0.00  0.00     0.027 H 
ATOM     40  H   LIG d   1       3.300   2.046  -2.091  0.00  0.00     0.027 H 
ATOM     41  H   LIG d   1       5.955   1.271  -2.024  0.00  0.00     0.031 H 
ATOM     42  H   LIG d   1       5.154   1.827  -3.524  0.00  0.00     0.031 H 
ENDBRANCH  17  19
ENDBRANCH  12  15
ENDBRANCH   9  12
ENDBRANCH   3   9
BRANCH   1  43
ATOM     43  C   LIG d   1       9.699   4.122  -8.712  0.00  0.00    -0.009 C 
BRANCH  43  44
ATOM     44  C   LIG d   1      11.116   4.308  -9.258  0.00  0.00    -0.056 C 
ATOM     45  H   LIG d   1      11.729   4.811  -8.511  0.00  0.00     0.024 H 
ATOM     46  H   LIG d   1      11.548   3.333  -9.484  0.00  0.00     0.024 H 
ATOM     47  H   LIG d   1      11.080   4.909 -10.166  0.00  0.00     0.024 H 
ENDBRANCH  43  44
BRANCH  43  48
ATOM     48  C   LIG d   1       9.250   2.678  -8.938  0.00  0.00    -0.056 C 
ATOM     49  H   LIG d   1       8.926   2.555  -9.972  0.00  0.00     0.024 H 
ATOM     50  H   LIG d   1      10.081   2.003  -8.736  0.00  0.00     0.024 H 
ATOM     51  H   LIG d   1       8.422   2.445  -8.269  0.00  0.00     0.024 H 
ENDBRANCH  43  48
BRANCH  43  52
ATOM     52  C   LIG d   1       8.744   5.073  -9.439  0.00  0.00    -0.056 C 
ATOM     53  H   LIG d   1       7.715   4.777  -9.238  0.00  0.00     0.024 H 
ATOM     54  H   LIG d   1       8.905   6.091  -9.085  0.00  0.00     0.024 H 
ATOM     55  H   LIG d   1       8.932   5.027 -10.512  0.00  0.00     0.024 H 
ENDBRANCH  43  52
ENDBRANCH   1  43
BRANCH   5  56
ATOM     56  C   LIG d   1      10.219   7.392  -4.947  0.00  0.00    -0.009 C 
BRANCH  56  57
ATOM     57  C   LIG d   1      11.672   7.754  -5.260  0.00  0.00    -0.056 C 
ATOM     58  H   LIG d   1      11.696   8.597  -5.952  0.00  0.00     0.024 H 
ATOM     59  H   LIG d   1      12.185   8.027  -4.338  0.00  0.00     0.024 H 
ATOM     60  H   LIG d   1      12.171   6.898  -5.713  0.00  0.00     0.024 H 
ENDBRANCH  56  57
BRANCH  56  61
ATOM     61  C   LIG d   1       9.285   8.378  -5.651  0.00  0.00    -0.056 C 
ATOM     62  H   LIG d   1       9.823   9.301  -5.863  0.00  0.00     0.024 H 
ATOM     63  H   LIG d   1       8.932   7.940  -6.585  0.00  0.00     0.024 H 
ATOM     64  H   LIG d   1       8.433   8.594  -5.006  0.00  0.00     0.024 H 
ENDBRANCH  56  61
BRANCH  56  65
ATOM     65  C   LIG d   1       9.990   7.463  -3.436  0.00  0.00    -0.056 C 
ATOM     66  H   LIG d   1      10.952   7.498  -2.924  0.00  0.00     0.024 H 
ATOM     67  H   LIG d   1       9.419   8.360  -3.196  0.00  0.00     0.024 H 
ATOM     68  H   LIG d   1       9.436   6.583  -3.110  0.00  0.00     0.024 H 
ENDBRANCH  56  65
ENDBRANCH   5  56
BRANCH   6  69
ATOM     69  O   LIG d   1      10.222   6.703  -7.687  0.00  0.00    -0.506 OA
ATOM     70  H   LIG d   1      11.164   6.810  -7.876  0.00  0.00     0.292 HD
ENDBRANCH   6  69
TORSDOF 13
ENDMDL
MODEL 8
REMARK VINA RESULT:      -6.6      1.643      4.616
REMARK  13 active torsions:
REMARK  status: ('A' for Active; 'I' for Inactive)
REMARK    1  A    between atoms: C_1  and  C_2 
REMARK    2  A    between atoms: C_2  and  C_3 
REMARK    3  A    between atoms: C_2  and  C_4 
REMARK    4  A    between atoms: C_2  and  C_5 
REMARK    5  A    between atoms: C_7  and  C_16 
REMARK    6  A    between atoms: C_9  and  C_12 
REMARK    7  A    between atoms: C_10  and  O_11 
REMARK    8  A    between atoms: C_12  and  C_13 
REMARK    9  A    between atoms: C_12  and  C_14 
REMARK   10  A    between atoms: C_12  and  C_15 
REMARK   11  A    between atoms: C_16  and  C_17 
REMARK   12  A    between atoms: C_17  and  C_18 
REMARK       I    between atoms: C_18  and  N_20 
REMARK   13  A    between atoms: N_20  and  C_21 
ROOT
ATOM      1  C   LIG d   1       9.721   4.384  -7.239  0.00  0.00    -0.000 A 
ATOM      2  C   LIG d   1       9.442   3.380  -6.332  0.00  0.00    -0.051 A 
ATOM      3  C   LIG d   1       9.412   3.659  -4.979  0.00  0.00    -0.046 A 
ATOM      4  C   LIG d   1       9.655   4.944  -4.530  0.00  0.00    -0.051 A 
ATOM      5  C   LIG d   1       9.940   5.950  -5.433  0.00  0.00    -0.000 A 
ATOM      6  C   LIG d   1       9.970   5.673  -6.792  0.00  0.00     0.124 A 
ATOM      7  H   LIG d   1       9.248   2.377  -6.681  0.00  0.00     0.062 H 
ATOM      8  H   LIG d   1       9.627   5.161  -3.472  0.00  0.00     0.062 H 
ENDROOT
BRANCH   3   9
ATOM      9  C   LIG d   1       9.108   2.563  -3.991  0.00  0.00    -0.019 C 
ATOM     10  H   LIG d   1       9.781   2.645  -3.137  0.00  0.00     0.032 H 
ATOM     11  H   LIG d   1       8.077   2.656  -3.651  0.00  0.00     0.032 H 
BRANCH   9  12
ATOM     12  C   LIG d   1       9.302   1.201  -4.663  0.00  0.00     0.028 C 
ATOM     13  H   LIG d   1       9.688   1.347  -5.673  0.00  0.00     0.036 H 
ATOM     14  H   LIG d   1      10.011   0.609  -4.086  0.00  0.00     0.036 H 
BRANCH  12  15
ATOM     15  C   LIG d   1       7.981   0.480  -4.730  0.00  0.00     0.217 C 
ATOM     16  O   LIG d   1       7.208   0.715  -5.636  0.00  0.00    -0.276 OA
ATOM     17  N   LIG d   1       7.658  -0.424  -3.786  0.00  0.00    -0.285 N 
ATOM     18  H   LIG d   1       8.304  -0.665  -3.104  0.00  0.00     0.155 HD
BRANCH  17  19
ATOM     19  C   LIG d   1       6.392  -1.014  -3.787  0.00  0.00     0.043 A 
ATOM     20  C   LIG d   1       6.210  -2.307  -4.274  0.00  0.00    -0.005 A 
ATOM     21  C   LIG d   1       4.946  -2.858  -4.261  0.00  0.00     0.046 A 
ATOM     22  C   LIG d   1       7.198  -3.292  -4.856  0.00  0.00    -0.024 C 
ATOM     23  N   LIG d   1       3.921  -2.165  -3.791  0.00  0.00    -0.256 NA
ATOM     24  C   LIG d   1       4.997  -4.259  -4.834  0.00  0.00    -0.010 C 
ATOM     25  C   LIG d   1       4.049  -0.936  -3.319  0.00  0.00     0.046 A 
ATOM     26  C   LIG d   1       5.285  -0.324  -3.297  0.00  0.00    -0.005 A 
ATOM     27  C   LIG d   1       3.007   0.003  -2.748  0.00  0.00    -0.010 C 
ATOM     28  C   LIG d   1       5.164   1.068  -2.719  0.00  0.00    -0.024 C 
ATOM     29  C   LIG d   1       3.808   1.078  -1.982  0.00  0.00    -0.043 C 
ATOM     30  H   LIG d   1       5.168   1.813  -3.514  0.00  0.00     0.031 H 
ATOM     31  H   LIG d   1       5.977   1.256  -2.018  0.00  0.00     0.031 H 
ATOM     32  H   LIG d   1       3.327   2.054  -2.068  0.00  0.00     0.027 H 
ATOM     33  H   LIG d   1       3.932   0.798  -0.937  0.00  0.00     0.027 H 
ATOM     34  H   LIG d   1       2.430   0.462  -3.551  0.00  0.00     0.033 H 
ATOM     35  H   LIG d   1       2.346  -0.534  -2.067  0.00  0.00     0.033 H 
ATOM     36  C   LIG d   1       6.336  -4.336  -5.596  0.00  0.00    -0.043 C 
ATOM     37  H   LIG d   1       4.162  -4.417  -5.518  0.00  0.00     0.033 H 
ATOM     38  H   LIG d   1       4.974  -4.998  -4.034  0.00  0.00     0.033 H 
ATOM     39  H   LIG d   1       6.204  -4.059  -6.642  0.00  0.00     0.027 H 
ATOM     40  H   LIG d   1       6.774  -5.331  -5.511  0.00  0.00     0.027 H 
ATOM     41  H   LIG d   1       7.867  -2.790  -5.554  0.00  0.00     0.031 H 
ATOM     42  H   LIG d   1       7.771  -3.769  -4.060  0.00  0.00     0.031 H 
ENDBRANCH  17  19
ENDBRANCH  12  15
ENDBRANCH   9  12
ENDBRANCH   3   9
BRANCH   1  43
ATOM     43  C   LIG d   1       9.752   4.079  -8.715  0.00  0.00    -0.009 C 
BRANCH  43  44
ATOM     44  C   LIG d   1      11.177   4.261  -9.243  0.00  0.00    -0.056 C 
ATOM     45  H   LIG d   1      11.256   5.223  -9.749  0.00  0.00     0.024 H 
ATOM     46  H   LIG d   1      11.879   4.230  -8.410  0.00  0.00     0.024 H 
ATOM     47  H   LIG d   1      11.409   3.460  -9.944  0.00  0.00     0.024 H 
ENDBRANCH  43  44
BRANCH  43  48
ATOM     48  C   LIG d   1       9.302   2.636  -8.948  0.00  0.00    -0.056 C 
ATOM     49  H   LIG d   1       9.643   2.011  -8.122  0.00  0.00     0.024 H 
ATOM     50  H   LIG d   1       8.214   2.599  -9.005  0.00  0.00     0.024 H 
ATOM     51  H   LIG d   1       9.728   2.268  -9.881  0.00  0.00     0.024 H 
ENDBRANCH  43  48
BRANCH  43  52
ATOM     52  C   LIG d   1       8.809   5.033  -9.453  0.00  0.00    -0.056 C 
ATOM     53  H   LIG d   1       7.776   4.739  -9.265  0.00  0.00     0.024 H 
ATOM     54  H   LIG d   1       8.968   6.050  -9.095  0.00  0.00     0.024 H 
ATOM     55  H   LIG d   1       9.010   4.988 -10.523  0.00  0.00     0.024 H 
ENDBRANCH  43  52
ENDBRANCH   1  43
BRANCH   5  56
ATOM     56  C   LIG d   1      10.210   7.349  -4.942  0.00  0.00    -0.009 C 
BRANCH  56  57
ATOM     57  C   LIG d   1      11.666   7.719  -5.230  0.00  0.00    -0.056 C 
ATOM     58  H   LIG d   1      12.150   6.902  -5.765  0.00  0.00     0.024 H 
ATOM     59  H   LIG d   1      11.699   8.622  -5.839  0.00  0.00     0.024 H 
ATOM     60  H   LIG d   1      12.188   7.896  -4.289  0.00  0.00     0.024 H 
ENDBRANCH  56  57
BRANCH  56  61
ATOM     61  C   LIG d   1       9.283   8.330  -5.664  0.00  0.00    -0.056 C 
ATOM     62  H   LIG d   1       9.560   8.385  -6.716  0.00  0.00     0.024 H 
ATOM     63  H   LIG d   1       8.252   7.986  -5.577  0.00  0.00     0.024 H 
ATOM     64  H   LIG d   1       9.376   9.317  -5.211  0.00  0.00     0.024 H 
ENDBRANCH  56  61
BRANCH  56  65
ATOM     65  C   LIG d   1       9.954   7.421  -3.436  0.00  0.00    -0.056 C 
ATOM     66  H   LIG d   1      10.906   7.460  -2.906  0.00  0.00     0.024 H 
ATOM     67  H   LIG d   1       9.374   8.315  -3.207  0.00  0.00     0.024 H 
ATOM     68  H   LIG d   1       9.399   6.537  -3.119  0.00  0.00     0.024 H 
ENDBRANCH  56  65
ENDBRANCH   5  56
BRANCH   6  69
ATOM     69  O   LIG d   1      10.245   6.662  -7.683  0.00  0.00    -0.506 OA
ATOM     70  H   LIG d   1       9.620   7.399  -7.657  0.00  0.00     0.292 HD
ENDBRANCH   6  69
TORSDOF 13
ENDMDL
MODEL 9
REMARK VINA RESULT:      -6.6      2.505      9.454
REMARK  13 active torsions:
REMARK  status: ('A' for Active; 'I' for Inactive)
REMARK    1  A    between atoms: C_1  and  C_2 
REMARK    2  A    between atoms: C_2  and  C_3 
REMARK    3  A    between atoms: C_2  and  C_4 
REMARK    4  A    between atoms: C_2  and  C_5 
REMARK    5  A    between atoms: C_7  and  C_16 
REMARK    6  A    between atoms: C_9  and  C_12 
REMARK    7  A    between atoms: C_10  and  O_11 
REMARK    8  A    between atoms: C_12  and  C_13 
REMARK    9  A    between atoms: C_12  and  C_14 
REMARK   10  A    between atoms: C_12  and  C_15 
REMARK   11  A    between atoms: C_16  and  C_17 
REMARK   12  A    between atoms: C_17  and  C_18 
REMARK       I    between atoms: C_18  and  N_20 
REMARK   13  A    between atoms: N_20  and  C_21 
ROOT
ATOM      1  C   LIG d   1       6.710  -0.379  -5.659  0.00  0.00    -0.000 A 
ATOM      2  C   LIG d   1       7.677   0.565  -5.370  0.00  0.00    -0.051 A 
ATOM      3  C   LIG d   1       7.582   1.321  -4.216  0.00  0.00    -0.046 A 
ATOM      4  C   LIG d   1       6.524   1.130  -3.346  0.00  0.00    -0.051 A 
ATOM      5  C   LIG d   1       5.552   0.191  -3.635  0.00  0.00    -0.000 A 
ATOM      6  C   LIG d   1       5.645  -0.569  -4.791  0.00  0.00     0.124 A 
ATOM      7  H   LIG d   1       8.506   0.713  -6.045  0.00  0.00     0.062 H 
ATOM      8  H   LIG d   1       6.454   1.718  -2.444  0.00  0.00     0.062 H 
ENDROOT
BRANCH   3   9
ATOM      9  C   LIG d   1       8.637   2.349  -3.902  0.00  0.00    -0.019 C 
ATOM     10  H   LIG d   1       8.205   3.137  -3.283  0.00  0.00     0.032 H 
ATOM     11  H   LIG d   1       9.458   1.875  -3.365  0.00  0.00     0.032 H 
BRANCH   9  12
ATOM     12  C   LIG d   1       9.162   2.957  -5.205  0.00  0.00     0.028 C 
ATOM     13  H   LIG d   1       9.922   2.301  -5.629  0.00  0.00     0.036 H 
ATOM     14  H   LIG d   1       8.340   3.066  -5.912  0.00  0.00     0.036 H 
BRANCH  12  15
ATOM     15  C   LIG d   1       9.765   4.309  -4.922  0.00  0.00     0.217 C 
ATOM     16  O   LIG d   1      10.938   4.510  -5.159  0.00  0.00    -0.276 OA
ATOM     17  N   LIG d   1       9.003   5.293  -4.408  0.00  0.00    -0.285 N 
ATOM     18  H   LIG d   1       8.050   5.156  -4.288  0.00  0.00     0.155 HD
BRANCH  17  19
ATOM     19  C   LIG d   1       9.584   6.510  -4.048  0.00  0.00     0.043 A 
ATOM     20  C   LIG d   1       9.604   7.581  -4.939  0.00  0.00    -0.005 A 
ATOM     21  C   LIG d   1      10.187   8.769  -4.549  0.00  0.00     0.046 A 
ATOM     22  C   LIG d   1       9.075   7.702  -6.350  0.00  0.00    -0.024 C 
ATOM     23  N   LIG d   1      10.719   8.887  -3.344  0.00  0.00    -0.256 NA
ATOM     24  C   LIG d   1      10.088   9.776  -5.676  0.00  0.00    -0.010 C 
ATOM     25  C   LIG d   1      10.722   7.897  -2.466  0.00  0.00     0.046 A 
ATOM     26  C   LIG d   1      10.151   6.682  -2.786  0.00  0.00    -0.005 A 
ATOM     27  C   LIG d   1      11.275   7.843  -1.058  0.00  0.00    -0.010 C 
ATOM     28  C   LIG d   1      10.287   5.724  -1.624  0.00  0.00    -0.024 C 
ATOM     29  C   LIG d   1      10.602   6.617  -0.405  0.00  0.00    -0.043 C 
ATOM     30  H   LIG d   1      11.102   5.023  -1.801  0.00  0.00     0.031 H 
ATOM     31  H   LIG d   1       9.351   5.188  -1.469  0.00  0.00     0.031 H 
ATOM     32  H   LIG d   1      11.289   6.114   0.276  0.00  0.00     0.027 H 
ATOM     33  H   LIG d   1       9.687   6.906   0.111  0.00  0.00     0.027 H 
ATOM     34  H   LIG d   1      12.357   7.712  -1.082  0.00  0.00     0.033 H 
ATOM     35  H   LIG d   1      11.017   8.752  -0.515  0.00  0.00     0.033 H 
ATOM     36  C   LIG d   1       9.779   8.944  -6.938  0.00  0.00    -0.043 C 
ATOM     37  H   LIG d   1      11.035  10.304  -5.794  0.00  0.00     0.033 H 
ATOM     38  H   LIG d   1       9.283  10.484  -5.484  0.00  0.00     0.033 H 
ATOM     39  H   LIG d   1      10.698   8.661  -7.452  0.00  0.00     0.027 H 
ATOM     40  H   LIG d   1       9.111   9.487  -7.607  0.00  0.00     0.027 H 
ATOM     41  H   LIG d   1       9.329   6.814  -6.928  0.00  0.00     0.031 H 
ATOM     42  H   LIG d   1       7.994   7.850  -6.338  0.00  0.00     0.031 H 
ENDBRANCH  17  19
ENDBRANCH  12  15
ENDBRANCH   9  12
ENDBRANCH   3   9
BRANCH   1  43
ATOM     43  C   LIG d   1       6.815  -1.203  -6.917  0.00  0.00    -0.009 C 
BRANCH  43  44
ATOM     44  C   LIG d   1       6.897  -2.686  -6.549  0.00  0.00    -0.056 C 
ATOM     45  H   LIG d   1       7.666  -3.167  -7.153  0.00  0.00     0.024 H 
ATOM     46  H   LIG d   1       7.150  -2.784  -5.493  0.00  0.00     0.024 H 
ATOM     47  H   LIG d   1       5.935  -3.161  -6.738  0.00  0.00     0.024 H 
ENDBRANCH  43  44
BRANCH  43  48
ATOM     48  C   LIG d   1       5.583  -0.960  -7.790  0.00  0.00    -0.056 C 
ATOM     49  H   LIG d   1       4.697  -0.897  -7.158  0.00  0.00     0.024 H 
ATOM     50  H   LIG d   1       5.704  -0.027  -8.339  0.00  0.00     0.024 H 
ATOM     51  H   LIG d   1       5.469  -1.784  -8.494  0.00  0.00     0.024 H 
ENDBRANCH  43  48
BRANCH  43  52
ATOM     52  C   LIG d   1       8.074  -0.798  -7.688  0.00  0.00    -0.056 C 
ATOM     53  H   LIG d   1       7.997   0.248  -7.984  0.00  0.00     0.024 H 
ATOM     54  H   LIG d   1       8.949  -0.932  -7.052  0.00  0.00     0.024 H 
ATOM     55  H   LIG d   1       8.172  -1.421  -8.577  0.00  0.00     0.024 H 
ENDBRANCH  43  52
ENDBRANCH   1  43
BRANCH   5  56
ATOM     56  C   LIG d   1       4.396  -0.012  -2.690  0.00  0.00    -0.009 C 
BRANCH  56  57
ATOM     57  C   LIG d   1       3.080   0.177  -3.445  0.00  0.00    -0.056 C 
ATOM     58  H   LIG d   1       2.963  -0.621  -4.179  0.00  0.00     0.024 H 
ATOM     59  H   LIG d   1       2.248   0.146  -2.740  0.00  0.00     0.024 H 
ATOM     60  H   LIG d   1       3.088   1.140  -3.955  0.00  0.00     0.024 H 
ENDBRANCH  56  57
BRANCH  56  61
ATOM     61  C   LIG d   1       4.454  -1.428  -2.111  0.00  0.00    -0.056 C 
ATOM     62  H   LIG d   1       3.538  -1.961  -2.363  0.00  0.00     0.024 H 
ATOM     63  H   LIG d   1       5.309  -1.957  -2.531  0.00  0.00     0.024 H 
ATOM     64  H   LIG d   1       4.557  -1.373  -1.027  0.00  0.00     0.024 H 
ENDBRANCH  56  61
BRANCH  56  65
ATOM     65  C   LIG d   1       4.482   1.007  -1.552  0.00  0.00    -0.056 C 
ATOM     66  H   LIG d   1       4.866   0.518  -0.655  0.00  0.00     0.024 H 
ATOM     67  H   LIG d   1       5.151   1.818  -1.838  0.00  0.00     0.024 H 
ATOM     68  H   LIG d   1       3.489   1.409  -1.348  0.00  0.00     0.024 H 
ENDBRANCH  56  65
ENDBRANCH   5  56
BRANCH   6  69
ATOM     69  O   LIG d   1       4.693  -1.497  -5.076  0.00  0.00    -0.506 OA
ATOM     70  H   LIG d   1       4.251  -1.857  -4.295  0.00  0.00     0.292 HD
ENDBRANCH   6  69
TORSDOF 13
ENDMDL
MODEL 10
REMARK VINA RESULT:      -6.4      7.421     12.030
REMARK  13 active torsions:
REMARK  status: ('A' for Active; 'I' for Inactive)
REMARK    1  A    between atoms: C_1  and  C_2 
REMARK    2  A    between atoms: C_2  and  C_3 
REMARK    3  A    between atoms: C_2  and  C_4 
REMARK    4  A    between atoms: C_2  and  C_5 
REMARK    5  A    between atoms: C_7  and  C_16 
REMARK    6  A    between atoms: C_9  and  C_12 
REMARK    7  A    between atoms: C_10  and  O_11 
REMARK    8  A    between atoms: C_12  and  C_13 
REMARK    9  A    between atoms: C_12  and  C_14 
REMARK   10  A    between atoms: C_12  and  C_15 
REMARK   11  A    between atoms: C_16  and  C_17 
REMARK   12  A    between atoms: C_17  and  C_18 
REMARK       I    between atoms: C_18  and  N_20 
REMARK   13  A    between atoms: N_20  and  C_21 
ROOT
ATOM      1  C   LIG d   1       6.276  -9.493  -3.968  0.00  0.00    -0.000 A 
ATOM      2  C   LIG d   1       5.516  -8.710  -4.817  0.00  0.00    -0.051 A 
ATOM      3  C   LIG d   1       6.031  -7.527  -5.312  0.00  0.00    -0.046 A 
ATOM      4  C   LIG d   1       7.308  -7.126  -4.965  0.00  0.00    -0.051 A 
ATOM      5  C   LIG d   1       8.069  -7.903  -4.112  0.00  0.00    -0.000 A 
ATOM      6  C   LIG d   1       7.555  -9.091  -3.614  0.00  0.00     0.124 A 
ATOM      7  H   LIG d   1       4.520  -9.023  -5.092  0.00  0.00     0.062 H 
ATOM      8  H   LIG d   1       7.710  -6.203  -5.356  0.00  0.00     0.062 H 
ENDROOT
BRANCH   3   9
ATOM      9  C   LIG d   1       5.201  -6.675  -6.237  0.00  0.00    -0.019 C 
ATOM     10  H   LIG d   1       5.036  -7.208  -7.174  0.00  0.00     0.032 H 
ATOM     11  H   LIG d   1       4.241  -6.458  -5.768  0.00  0.00     0.032 H 
BRANCH   9  12
ATOM     12  C   LIG d   1       5.938  -5.364  -6.522  0.00  0.00     0.028 C 
ATOM     13  H   LIG d   1       6.883  -5.353  -5.977  0.00  0.00     0.036 H 
ATOM     14  H   LIG d   1       6.135  -5.282  -7.590  0.00  0.00     0.036 H 
BRANCH  12  15
ATOM     15  C   LIG d   1       5.088  -4.202  -6.076  0.00  0.00     0.217 C 
ATOM     16  O   LIG d   1       3.918  -4.375  -5.809  0.00  0.00    -0.276 OA
ATOM     17  N   LIG d   1       5.628  -2.972  -5.975  0.00  0.00    -0.285 N 
ATOM     18  H   LIG d   1       6.579  -2.847  -6.117  0.00  0.00     0.155 HD
BRANCH  17  19
ATOM     19  C   LIG d   1       4.818  -1.878  -5.666  0.00  0.00     0.043 A 
ATOM     20  C   LIG d   1       4.174  -1.161  -6.673  0.00  0.00    -0.005 A 
ATOM     21  C   LIG d   1       3.383  -0.085  -6.332  0.00  0.00     0.046 A 
ATOM     22  C   LIG d   1       4.176  -1.347  -8.173  0.00  0.00    -0.024 C 
ATOM     23  N   LIG d   1       3.238   0.260  -5.062  0.00  0.00    -0.256 NA
ATOM     24  C   LIG d   1       2.793   0.530  -7.584  0.00  0.00    -0.010 C 
ATOM     25  C   LIG d   1       3.829  -0.391  -4.075  0.00  0.00     0.046 A 
ATOM     26  C   LIG d   1       4.632  -1.481  -4.343  0.00  0.00    -0.005 A 
ATOM     27  C   LIG d   1       3.785  -0.148  -2.581  0.00  0.00    -0.010 C 
ATOM     28  C   LIG d   1       5.190  -2.042  -3.055  0.00  0.00    -0.024 C 
ATOM     29  C   LIG d   1       4.293  -1.459  -1.943  0.00  0.00    -0.043 C 
ATOM     30  H   LIG d   1       6.222  -1.724  -2.915  0.00  0.00     0.031 H 
ATOM     31  H   LIG d   1       5.126  -3.130  -3.060  0.00  0.00     0.031 H 
ATOM     32  H   LIG d   1       4.875  -1.252  -1.043  0.00  0.00     0.027 H 
ATOM     33  H   LIG d   1       3.463  -2.129  -1.722  0.00  0.00     0.027 H 
ATOM     34  H   LIG d   1       4.440   0.681  -2.313  0.00  0.00     0.033 H 
ATOM     35  H   LIG d   1       2.763   0.058  -2.261  0.00  0.00     0.033 H 
ATOM     36  C   LIG d   1       3.654  -0.011  -8.745  0.00  0.00    -0.043 C 
ATOM     37  H   LIG d   1       2.860   1.617  -7.538  0.00  0.00     0.033 H 
ATOM     38  H   LIG d   1       1.756   0.220  -7.707  0.00  0.00     0.033 H 
ATOM     39  H   LIG d   1       4.480   0.666  -8.964  0.00  0.00     0.027 H 
ATOM     40  H   LIG d   1       3.045  -0.181  -9.633  0.00  0.00     0.027 H 
ATOM     41  H   LIG d   1       5.188  -1.541  -8.530  0.00  0.00     0.031 H 
ATOM     42  H   LIG d   1       3.512  -2.165  -8.455  0.00  0.00     0.031 H 
ENDBRANCH  17  19
ENDBRANCH  12  15
ENDBRANCH   9  12
ENDBRANCH   3   9
BRANCH   1  43
ATOM     43  C   LIG d   1       5.714 -10.784  -3.429  0.00  0.00    -0.009 C 
BRANCH  43  44
ATOM     44  C   LIG d   1       6.525 -11.960  -3.977  0.00  0.00    -0.056 C 
ATOM     45  H   LIG d   1       7.108 -11.630  -4.836  0.00  0.00     0.024 H 
ATOM     46  H   LIG d   1       7.198 -12.329  -3.202  0.00  0.00     0.024 H 
ATOM     47  H   LIG d   1       5.848 -12.758  -4.280  0.00  0.00     0.024 H 
ENDBRANCH  43  44
BRANCH  43  48
ATOM     48  C   LIG d   1       5.793 -10.776  -1.901  0.00  0.00    -0.056 C 
ATOM     49  H   LIG d   1       5.710  -9.752  -1.539  0.00  0.00     0.024 H 
ATOM     50  H   LIG d   1       4.978 -11.373  -1.493  0.00  0.00     0.024 H 
ATOM     51  H   LIG d   1       6.746 -11.198  -1.585  0.00  0.00     0.024 H 
ENDBRANCH  43  48
BRANCH  43  52
ATOM     52  C   LIG d   1       4.253 -10.925  -3.864  0.00  0.00    -0.056 C 
ATOM     53  H   LIG d   1       3.616 -10.982  -2.982  0.00  0.00     0.024 H 
ATOM     54  H   LIG d   1       3.967 -10.060  -4.462  0.00  0.00     0.024 H 
ATOM     55  H   LIG d   1       4.136 -11.832  -4.456  0.00  0.00     0.024 H 
ENDBRANCH  43  52
ENDBRANCH   1  43
BRANCH   5  56
ATOM     56  C   LIG d   1       9.458  -7.462  -3.730  0.00  0.00    -0.009 C 
BRANCH  56  57
ATOM     57  C   LIG d   1       9.544  -7.305  -2.211  0.00  0.00    -0.056 C 
ATOM     58  H   LIG d   1      10.528  -7.624  -1.867  0.00  0.00     0.024 H 
ATOM     59  H   LIG d   1       9.388  -6.259  -1.945  0.00  0.00     0.024 H 
ATOM     60  H   LIG d   1       8.778  -7.919  -1.738  0.00  0.00     0.024 H 
ENDBRANCH  56  57
BRANCH  56  61
ATOM     61  C   LIG d   1      10.471  -8.513  -4.192  0.00  0.00    -0.056 C 
ATOM     62  H   LIG d   1      11.125  -8.080  -4.948  0.00  0.00     0.024 H 
ATOM     63  H   LIG d   1      11.067  -8.841  -3.340  0.00  0.00     0.024 H 
ATOM     64  H   LIG d   1       9.941  -9.366  -4.615  0.00  0.00     0.024 H 
ENDBRANCH  56  61
BRANCH  56  65
ATOM     65  C   LIG d   1       9.773  -6.124  -4.400  0.00  0.00    -0.056 C 
ATOM     66  H   LIG d   1      10.381  -6.296  -5.289  0.00  0.00     0.024 H 
ATOM     67  H   LIG d   1       8.843  -5.633  -4.687  0.00  0.00     0.024 H 
ATOM     68  H   LIG d   1      10.319  -5.487  -3.704  0.00  0.00     0.024 H 
ENDBRANCH  56  65
ENDBRANCH   5  56
BRANCH   6  69
ATOM     69  O   LIG d   1       8.304  -9.859  -2.779  0.00  0.00    -0.506 OA
ATOM     70  H   LIG d   1       8.832  -9.353  -2.147  0.00  0.00     0.292 HD
ENDBRANCH   6  69
TORSDOF 13
ENDMDL
