MODEL 1
REMARK VINA RESULT:      -6.9      0.000      0.000
REMARK  7 active torsions:
REMARK  status: ('A' for Active; 'I' for Inactive)
REMARK    1  A    between atoms: C_1  and  C_2 
REMARK    2  A    between atoms: C_18  and  C_33 
REMARK    3  A    between atoms: C_20  and  O_31 
REMARK    4  A    between atoms: C_23  and  C_30 
REMARK    5  A    between atoms: C_24  and  C_25 
REMARK    6  A    between atoms: C_24  and  O_29 
REMARK    7  A    between atoms: C_25  and  C_27 
ROOT
ATOM      1  C   LIG d   1       3.035  -0.290  -3.677  0.00  0.00    -0.007 C 
ATOM      2  H   LIG d   1       2.074  -0.777  -3.509  0.00  0.00     0.033 H 
ATOM      3  C   LIG d   1       2.971   0.590  -4.954  0.00  0.00    -0.044 C 
ATOM      4  C   LIG d   1       3.534  -0.333  -6.041  0.00  0.00    -0.026 C 
ATOM      5  H   LIG d   1       2.797  -1.080  -6.335  0.00  0.00     0.031 H 
ATOM      6  C   LIG d   1       4.106   0.354  -7.267  0.00  0.00     0.003 C 
ATOM      7  H   LIG d   1       4.899   1.046  -6.982  0.00  0.00     0.034 H 
ATOM      8  C   LIG d   1       2.999   1.113  -8.002  0.00  0.00    -0.012 C 
ATOM      9  C   LIG d   1       3.590   1.838  -9.215  0.00  0.00     0.124 C 
ATOM     10  H   LIG d   1       4.296   2.598  -8.883  0.00  0.00     0.070 H 
ATOM     11  C   LIG d   1       4.308   0.813 -10.074  0.00  0.00    -0.020 A 
ATOM     12  C   LIG d   1       4.017   0.742 -11.365  0.00  0.00    -0.012 A 
ATOM     13  C   LIG d   1       4.662  -0.264 -12.224  0.00  0.00     0.179 A 
ATOM     14  O   LIG d   1       4.421  -0.312 -13.416  0.00  0.00    -0.288 OA
ATOM     15  C   LIG d   1       5.610  -1.209 -11.608  0.00  0.00    -0.018 A 
ATOM     16  C   LIG d   1       5.893  -1.112 -10.320  0.00  0.00    -0.067 A 
ATOM     17  C   LIG d   1       5.313  -0.082  -9.411  0.00  0.00     0.047 A 
ATOM     18  C   LIG d   1       4.678  -0.739  -8.183  0.00  0.00     0.153 C 
ATOM     19  C   LIG d   1       5.726  -1.584  -7.464  0.00  0.00     0.091 C 
ATOM     20  H   LIG d   1       6.034  -2.400  -8.117  0.00  0.00     0.063 H 
ATOM     21  C   LIG d   1       5.181  -2.171  -6.152  0.00  0.00    -0.015 C 
ATOM     22  C   LIG d   1       4.720  -1.005  -5.298  0.00  0.00     0.009 C 
ATOM     23  C   LIG d   1       4.131  -1.354  -3.934  0.00  0.00     0.133 C 
ATOM     24  F   LIG d   1       3.640  -1.582  -8.597  0.00  0.00    -0.238 F 
ATOM     25  F   LIG d   1       2.563   2.436  -9.954  0.00  0.00    -0.241 F 
ATOM     26  H   LIG d   1       1.941   0.870  -5.179  0.00  0.00     0.027 H 
ATOM     27  H   LIG d   1       3.596   1.477  -4.844  0.00  0.00     0.027 H 
ATOM     28  H   LIG d   1       2.549   1.841  -7.328  0.00  0.00     0.030 H 
ATOM     29  H   LIG d   1       2.237   0.408  -8.336  0.00  0.00     0.030 H 
ATOM     30  H   LIG d   1       3.298   1.427 -11.791  0.00  0.00     0.066 H 
ATOM     31  H   LIG d   1       6.072  -1.978 -12.208  0.00  0.00     0.065 H 
ATOM     32  H   LIG d   1       6.588  -1.823  -9.899  0.00  0.00     0.058 H 
ATOM     33  H   LIG d   1       4.341  -2.832  -6.363  0.00  0.00     0.030 H 
ATOM     34  H   LIG d   1       5.967  -2.722  -5.637  0.00  0.00     0.030 H 
ENDROOT
BRANCH  23  35
ATOM     35  C   LIG d   1       5.195  -1.276  -2.871  0.00  0.00     0.180 C 
ATOM     36  O   LIG d   1       4.903  -1.442  -1.711  0.00  0.00    -0.293 OA
BRANCH  35  37
ATOM     37  C   LIG d   1       6.625  -0.990  -3.253  0.00  0.00     0.084 C 
ATOM     38 CL   LIG d   1       7.535  -2.541  -3.377  0.00  0.00    -0.117 Cl
ATOM     39  H   LIG d   1       6.646  -0.519  -4.136  0.00  0.00     0.051 H 
ATOM     40  H   LIG d   1       7.084  -0.359  -2.493  0.00  0.00     0.051 H 
ENDBRANCH  35  37
ENDBRANCH  23  35
BRANCH  23  41
ATOM     41  O   LIG d   1       3.557  -2.663  -3.963  0.00  0.00    -0.380 OA
ATOM     42  H   LIG d   1       2.937  -2.804  -4.690  0.00  0.00     0.211 HD
ENDBRANCH  23  41
BRANCH   1  43
ATOM     43  C   LIG d   1       3.409   0.567  -2.466  0.00  0.00    -0.059 C 
ATOM     44  H   LIG d   1       2.503   0.950  -1.998  0.00  0.00     0.023 H 
ATOM     45  H   LIG d   1       3.960  -0.041  -1.748  0.00  0.00     0.023 H 
ATOM     46  H   LIG d   1       4.033   1.401  -2.789  0.00  0.00     0.023 H 
ENDBRANCH   1  43
BRANCH  22  47
ATOM     47  C   LIG d   1       5.862  -0.002  -5.128  0.00  0.00    -0.056 C 
ATOM     48  H   LIG d   1       6.723  -0.330  -5.711  0.00  0.00     0.024 H 
ATOM     49  H   LIG d   1       5.539   0.979  -5.476  0.00  0.00     0.024 H 
ATOM     50  H   LIG d   1       6.138   0.059  -4.075  0.00  0.00     0.024 H 
ENDBRANCH  22  47
BRANCH  19  51
ATOM     51  O   LIG d   1       6.863  -0.767  -7.173  0.00  0.00    -0.389 OA
ATOM     52  H   LIG d   1       7.697  -1.121  -7.508  0.00  0.00     0.210 HD
ENDBRANCH  19  51
BRANCH  17  53
ATOM     53  C   LIG d   1       6.459   0.797  -8.907  0.00  0.00    -0.049 C 
ATOM     54  H   LIG d   1       7.039   0.247  -8.166  0.00  0.00     0.024 H 
ATOM     55  H   LIG d   1       7.102   1.070  -9.742  0.00  0.00     0.024 H 
ATOM     56  H   LIG d   1       6.052   1.700  -8.452  0.00  0.00     0.024 H 
ENDBRANCH  17  53
TORSDOF 7
ENDMDL
MODEL 2
REMARK VINA RESULT:      -6.8      2.269      3.310
REMARK  7 active torsions:
REMARK  status: ('A' for Active; 'I' for Inactive)
REMARK    1  A    between atoms: C_1  and  C_2 
REMARK    2  A    between atoms: C_18  and  C_33 
REMARK    3  A    between atoms: C_20  and  O_31 
REMARK    4  A    between atoms: C_23  and  C_30 
REMARK    5  A    between atoms: C_24  and  C_25 
REMARK    6  A    between atoms: C_24  and  O_29 
REMARK    7  A    between atoms: C_25  and  C_27 
ROOT
ATOM      1  C   LIG d   1       5.120  -2.300  -4.681  0.00  0.00    -0.007 C 
ATOM      2  H   LIG d   1       6.037  -2.875  -4.552  0.00  0.00     0.033 H 
ATOM      3  C   LIG d   1       4.293  -2.872  -5.863  0.00  0.00    -0.044 C 
ATOM      4  C   LIG d   1       4.715  -1.987  -7.043  0.00  0.00    -0.026 C 
ATOM      5  H   LIG d   1       5.705  -2.266  -7.402  0.00  0.00     0.031 H 
ATOM      6  C   LIG d   1       3.736  -1.911  -8.200  0.00  0.00     0.003 C 
ATOM      7  H   LIG d   1       2.765  -1.557  -7.856  0.00  0.00     0.034 H 
ATOM      8  C   LIG d   1       3.585  -3.290  -8.845  0.00  0.00    -0.012 C 
ATOM      9  C   LIG d   1       2.566  -3.216  -9.986  0.00  0.00     0.124 C 
ATOM     10  H   LIG d   1       1.583  -2.968  -9.587  0.00  0.00     0.070 H 
ATOM     11  C   LIG d   1       3.015  -2.133 -10.950  0.00  0.00    -0.020 A 
ATOM     12  C   LIG d   1       3.118  -2.424 -12.239  0.00  0.00    -0.012 A 
ATOM     13  C   LIG d   1       3.588  -1.413 -13.200  0.00  0.00     0.179 A 
ATOM     14  O   LIG d   1       3.655  -1.667 -14.387  0.00  0.00    -0.288 OA
ATOM     15  C   LIG d   1       3.971  -0.085 -12.690  0.00  0.00    -0.018 A 
ATOM     16  C   LIG d   1       3.848   0.187 -11.401  0.00  0.00    -0.067 A 
ATOM     17  C   LIG d   1       3.329  -0.777 -10.389  0.00  0.00     0.047 A 
ATOM     18  C   LIG d   1       4.314  -0.923  -9.226  0.00  0.00     0.153 C 
ATOM     19  C   LIG d   1       4.568   0.448  -8.605  0.00  0.00     0.091 C 
ATOM     20  H   LIG d   1       5.061   1.085  -9.339  0.00  0.00     0.063 H 
ATOM     21  C   LIG d   1       5.453   0.350  -7.352  0.00  0.00    -0.015 C 
ATOM     22  C   LIG d   1       4.753  -0.583  -6.382  0.00  0.00     0.009 C 
ATOM     23  C   LIG d   1       5.460  -0.836  -5.054  0.00  0.00     0.133 C 
ATOM     24  F   LIG d   1       5.529  -1.420  -9.711  0.00  0.00    -0.238 F 
ATOM     25  F   LIG d   1       2.512  -4.446 -10.651  0.00  0.00    -0.241 F 
ATOM     26  H   LIG d   1       4.555  -3.914  -6.049  0.00  0.00     0.027 H 
ATOM     27  H   LIG d   1       3.225  -2.771  -5.672  0.00  0.00     0.027 H 
ATOM     28  H   LIG d   1       3.241  -4.004  -8.097  0.00  0.00     0.030 H 
ATOM     29  H   LIG d   1       4.548  -3.613  -9.239  0.00  0.00     0.030 H 
ATOM     30  H   LIG d   1       2.859  -3.413 -12.586  0.00  0.00     0.066 H 
ATOM     31  H   LIG d   1       4.350   0.665 -13.368  0.00  0.00     0.065 H 
ATOM     32  H   LIG d   1       4.142   1.168 -11.060  0.00  0.00     0.058 H 
ATOM     33  H   LIG d   1       6.429  -0.056  -7.619  0.00  0.00     0.030 H 
ATOM     34  H   LIG d   1       5.571   1.336  -6.902  0.00  0.00     0.030 H 
ENDROOT
BRANCH  23  35
ATOM     35  C   LIG d   1       4.941   0.107  -3.999  0.00  0.00     0.180 C 
ATOM     36  O   LIG d   1       3.882   0.665  -4.157  0.00  0.00    -0.293 OA
BRANCH  35  37
ATOM     37  C   LIG d   1       5.741   0.352  -2.746  0.00  0.00     0.084 C 
ATOM     38 CL   LIG d   1       4.668   1.040  -1.471  0.00  0.00    -0.117 Cl
ATOM     39  H   LIG d   1       6.130  -0.512  -2.424  0.00  0.00     0.051 H 
ATOM     40  H   LIG d   1       6.546   1.054  -2.961  0.00  0.00     0.051 H 
ENDBRANCH  35  37
ENDBRANCH  23  35
BRANCH  23  41
ATOM     41  O   LIG d   1       6.873  -0.676  -5.206  0.00  0.00    -0.380 OA
ATOM     42  H   LIG d   1       7.197  -0.871  -6.095  0.00  0.00     0.211 HD
ENDBRANCH  23  41
BRANCH   1  43
ATOM     43  C   LIG d   1       4.292  -2.335  -3.395  0.00  0.00    -0.059 C 
ATOM     44  H   LIG d   1       4.953  -2.481  -2.541  0.00  0.00     0.023 H 
ATOM     45  H   LIG d   1       3.756  -1.393  -3.283  0.00  0.00     0.023 H 
ATOM     46  H   LIG d   1       3.577  -3.157  -3.445  0.00  0.00     0.023 H 
ENDBRANCH   1  43
BRANCH  22  47
ATOM     47  C   LIG d   1       3.328  -0.091  -6.125  0.00  0.00    -0.056 C 
ATOM     48  H   LIG d   1       3.360   0.809  -5.509  0.00  0.00     0.024 H 
ATOM     49  H   LIG d   1       2.845   0.136  -7.075  0.00  0.00     0.024 H 
ATOM     50  H   LIG d   1       2.764  -0.866  -5.607  0.00  0.00     0.024 H 
ENDBRANCH  22  47
BRANCH  19  51
ATOM     51  O   LIG d   1       3.315   1.036  -8.246  0.00  0.00    -0.389 OA
ATOM     52  H   LIG d   1       2.783   0.493  -7.650  0.00  0.00     0.210 HD
ENDBRANCH  19  51
BRANCH  17  53
ATOM     53  C   LIG d   1       2.036  -0.199  -9.812  0.00  0.00    -0.049 C 
ATOM     54  H   LIG d   1       1.183  -0.599 -10.359  0.00  0.00     0.024 H 
ATOM     55  H   LIG d   1       1.954  -0.472  -8.760  0.00  0.00     0.024 H 
ATOM     56  H   LIG d   1       2.050   0.887  -9.904  0.00  0.00     0.024 H 
ENDBRANCH  17  53
TORSDOF 7
ENDMDL
MODEL 3
REMARK VINA RESULT:      -6.6     11.972     13.114
REMARK  7 active torsions:
REMARK  status: ('A' for Active; 'I' for Inactive)
REMARK    1  A    between atoms: C_1  and  C_2 
REMARK    2  A    between atoms: C_18  and  C_33 
REMARK    3  A    between atoms: C_20  and  O_31 
REMARK    4  A    between atoms: C_23  and  C_30 
REMARK    5  A    between atoms: C_24  and  C_25 
REMARK    6  A    between atoms: C_24  and  O_29 
REMARK    7  A    between atoms: C_25  and  C_27 
ROOT
ATOM      1  C   LIG d   1      10.622   9.296   0.643  0.00  0.00    -0.007 C 
ATOM      2  H   LIG d   1       9.644   9.245   1.120  0.00  0.00     0.033 H 
ATOM      3  C   LIG d   1      10.754  10.614  -0.167  0.00  0.00    -0.044 C 
ATOM      4  C   LIG d   1      10.365  10.190  -1.588  0.00  0.00    -0.026 C 
ATOM      5  H   LIG d   1       9.285  10.066  -1.673  0.00  0.00     0.031 H 
ATOM      6  C   LIG d   1      10.886  11.067  -2.711  0.00  0.00     0.003 C 
ATOM      7  H   LIG d   1      11.974  11.129  -2.674  0.00  0.00     0.034 H 
ATOM      8  C   LIG d   1      10.286  12.470  -2.596  0.00  0.00    -0.012 C 
ATOM      9  C   LIG d   1      10.847  13.362  -3.707  0.00  0.00     0.124 C 
ATOM     10  H   LIG d   1      11.920  13.490  -3.571  0.00  0.00     0.070 H 
ATOM     11  C   LIG d   1      10.577  12.685  -5.038  0.00  0.00    -0.020 A 
ATOM     12  C   LIG d   1       9.975  13.374  -5.998  0.00  0.00    -0.012 A 
ATOM     13  C   LIG d   1       9.660  12.741  -7.289  0.00  0.00     0.179 A 
ATOM     14  O   LIG d   1       9.136  13.378  -8.183  0.00  0.00    -0.288 OA
ATOM     15  C   LIG d   1       9.998  11.319  -7.475  0.00  0.00    -0.018 A 
ATOM     16  C   LIG d   1      10.609  10.655  -6.507  0.00  0.00    -0.067 A 
ATOM     17  C   LIG d   1      11.001  11.255  -5.200  0.00  0.00     0.047 A 
ATOM     18  C   LIG d   1      10.449  10.426  -4.037  0.00  0.00     0.153 C 
ATOM     19  C   LIG d   1      10.950   8.989  -4.159  0.00  0.00     0.091 C 
ATOM     20  H   LIG d   1      10.540   8.546  -5.066  0.00  0.00     0.063 H 
ATOM     21  C   LIG d   1      10.530   8.136  -2.951  0.00  0.00    -0.015 C 
ATOM     22  C   LIG d   1      11.078   8.816  -1.711  0.00  0.00     0.009 C 
ATOM     23  C   LIG d   1      10.777   8.140  -0.376  0.00  0.00     0.133 C 
ATOM     24  F   LIG d   1       9.051  10.413  -4.103  0.00  0.00    -0.238 F 
ATOM     25  F   LIG d   1      10.213  14.609  -3.676  0.00  0.00    -0.241 F 
ATOM     26  H   LIG d   1      10.067  11.370   0.213  0.00  0.00     0.027 H 
ATOM     27  H   LIG d   1      11.781  10.980  -0.144  0.00  0.00     0.027 H 
ATOM     28  H   LIG d   1      10.540  12.895  -1.625  0.00  0.00     0.030 H 
ATOM     29  H   LIG d   1       9.202  12.408  -2.692  0.00  0.00     0.030 H 
ATOM     30  H   LIG d   1       9.711  14.407  -5.830  0.00  0.00     0.066 H 
ATOM     31  H   LIG d   1       9.748  10.821  -8.399  0.00  0.00     0.065 H 
ATOM     32  H   LIG d   1      10.838   9.613  -6.674  0.00  0.00     0.058 H 
ATOM     33  H   LIG d   1       9.443   8.082  -2.895  0.00  0.00     0.030 H 
ATOM     34  H   LIG d   1      10.948   7.133  -3.041  0.00  0.00     0.030 H 
ENDROOT
BRANCH  23  35
ATOM     35  C   LIG d   1      11.919   7.241   0.022  0.00  0.00     0.180 C 
ATOM     36  O   LIG d   1      13.035   7.692   0.122  0.00  0.00    -0.293 OA
BRANCH  35  37
ATOM     37  C   LIG d   1      11.670   5.781   0.296  0.00  0.00     0.084 C 
ATOM     38 CL   LIG d   1      10.954   5.591   1.940  0.00  0.00    -0.117 Cl
ATOM     39  H   LIG d   1      11.036   5.417  -0.388  0.00  0.00     0.051 H 
ATOM     40  H   LIG d   1      12.612   5.236   0.245  0.00  0.00     0.051 H 
ENDBRANCH  35  37
ENDBRANCH  23  35
BRANCH  23  41
ATOM     41  O   LIG d   1       9.565   7.388  -0.464  0.00  0.00    -0.380 OA
ATOM     42  H   LIG d   1       9.298   6.974   0.367  0.00  0.00     0.211 HD
ENDBRANCH  23  41
BRANCH   1  43
ATOM     43  C   LIG d   1      11.726   9.215   1.699  0.00  0.00    -0.059 C 
ATOM     44  H   LIG d   1      12.085   8.189   1.772  0.00  0.00     0.023 H 
ATOM     45  H   LIG d   1      12.550   9.870   1.414  0.00  0.00     0.023 H 
ATOM     46  H   LIG d   1      11.330   9.532   2.665  0.00  0.00     0.023 H 
ENDBRANCH   1  43
BRANCH  22  47
ATOM     47  C   LIG d   1      12.586   9.026  -1.857  0.00  0.00    -0.056 C 
ATOM     48  H   LIG d   1      13.007   9.322  -0.895  0.00  0.00     0.024 H 
ATOM     49  H   LIG d   1      13.052   8.098  -2.187  0.00  0.00     0.024 H 
ATOM     50  H   LIG d   1      12.775   9.808  -2.592  0.00  0.00     0.024 H 
ENDBRANCH  22  47
BRANCH  19  51
ATOM     51  O   LIG d   1      12.376   8.999  -4.250  0.00  0.00    -0.389 OA
ATOM     52  H   LIG d   1      12.799   8.215  -3.874  0.00  0.00     0.210 HD
ENDBRANCH  19  51
BRANCH  17  53
ATOM     53  C   LIG d   1      12.526  11.206  -5.100  0.00  0.00    -0.049 C 
ATOM     54  H   LIG d   1      12.837  10.218  -4.762  0.00  0.00     0.024 H 
ATOM     55  H   LIG d   1      12.961  11.409  -6.079  0.00  0.00     0.024 H 
ATOM     56  H   LIG d   1      12.868  11.957  -4.389  0.00  0.00     0.024 H 
ENDBRANCH  17  53
TORSDOF 7
ENDMDL
MODEL 4
REMARK VINA RESULT:      -6.5      3.959      6.861
REMARK  7 active torsions:
REMARK  status: ('A' for Active; 'I' for Inactive)
REMARK    1  A    between atoms: C_1  and  C_2 
REMARK    2  A    between atoms: C_18  and  C_33 
REMARK    3  A    between atoms: C_20  and  O_31 
REMARK    4  A    between atoms: C_23  and  C_30 
REMARK    5  A    between atoms: C_24  and  C_25 
REMARK    6  A    between atoms: C_24  and  O_29 
REMARK    7  A    between atoms: C_25  and  C_27 
ROOT
ATOM      1  C   LIG d   1       8.518  -5.844  -5.766  0.00  0.00    -0.007 C 
ATOM      2  H   LIG d   1       8.893  -6.422  -4.922  0.00  0.00     0.033 H 
ATOM      3  C   LIG d   1       8.567  -4.327  -5.439  0.00  0.00    -0.044 C 
ATOM      4  C   LIG d   1       7.148  -4.034  -4.934  0.00  0.00    -0.026 C 
ATOM      5  H   LIG d   1       7.015  -4.405  -3.917  0.00  0.00     0.031 H 
ATOM      6  C   LIG d   1       6.691  -2.591  -5.033  0.00  0.00     0.003 C 
ATOM      7  H   LIG d   1       6.750  -2.242  -6.064  0.00  0.00     0.034 H 
ATOM      8  C   LIG d   1       7.561  -1.707  -4.138  0.00  0.00    -0.012 C 
ATOM      9  C   LIG d   1       7.122  -0.246  -4.274  0.00  0.00     0.124 C 
ATOM     10  H   LIG d   1       7.300   0.100  -5.291  0.00  0.00     0.070 H 
ATOM     11  C   LIG d   1       5.639  -0.168  -3.960  0.00  0.00    -0.020 A 
ATOM     12  C   LIG d   1       5.220   0.709  -3.059  0.00  0.00    -0.012 A 
ATOM     13  C   LIG d   1       3.795   0.788  -2.697  0.00  0.00     0.179 A 
ATOM     14  O   LIG d   1       3.402   1.613  -1.894  0.00  0.00    -0.288 OA
ATOM     15  C   LIG d   1       2.856  -0.151  -3.334  0.00  0.00    -0.018 A 
ATOM     16  C   LIG d   1       3.296  -1.010  -4.239  0.00  0.00    -0.067 A 
ATOM     17  C   LIG d   1       4.715  -1.102  -4.685  0.00  0.00     0.047 A 
ATOM     18  C   LIG d   1       5.233  -2.536  -4.551  0.00  0.00     0.153 C 
ATOM     19  C   LIG d   1       4.338  -3.473  -5.358  0.00  0.00     0.091 C 
ATOM     20  H   LIG d   1       3.338  -3.472  -4.923  0.00  0.00     0.063 H 
ATOM     21  C   LIG d   1       4.879  -4.912  -5.364  0.00  0.00    -0.015 C 
ATOM     22  C   LIG d   1       6.286  -4.858  -5.928  0.00  0.00     0.009 C 
ATOM     23  C   LIG d   1       7.030  -6.187  -6.025  0.00  0.00     0.133 C 
ATOM     24  F   LIG d   1       5.178  -2.922  -3.207  0.00  0.00    -0.238 F 
ATOM     25  F   LIG d   1       7.837   0.548  -3.371  0.00  0.00    -0.241 F 
ATOM     26  H   LIG d   1       9.304  -4.124  -4.661  0.00  0.00     0.027 H 
ATOM     27  H   LIG d   1       8.781  -3.745  -6.335  0.00  0.00     0.027 H 
ATOM     28  H   LIG d   1       8.605  -1.801  -4.439  0.00  0.00     0.030 H 
ATOM     29  H   LIG d   1       7.453  -2.024  -3.101  0.00  0.00     0.030 H 
ATOM     30  H   LIG d   1       5.930   1.369  -2.583  0.00  0.00     0.066 H 
ATOM     31  H   LIG d   1       1.811  -0.137  -3.063  0.00  0.00     0.065 H 
ATOM     32  H   LIG d   1       2.582  -1.688  -4.683  0.00  0.00     0.058 H 
ATOM     33  H   LIG d   1       4.902  -5.303  -4.347  0.00  0.00     0.030 H 
ATOM     34  H   LIG d   1       4.250  -5.543  -5.991  0.00  0.00     0.030 H 
ENDROOT
BRANCH  23  35
ATOM     35  C   LIG d   1       6.862  -6.779  -7.401  0.00  0.00     0.180 C 
ATOM     36  O   LIG d   1       7.326  -6.214  -8.362  0.00  0.00    -0.293 OA
BRANCH  35  37
ATOM     37  C   LIG d   1       6.116  -8.076  -7.578  0.00  0.00     0.084 C 
ATOM     38 CL   LIG d   1       4.345  -7.747  -7.642  0.00  0.00    -0.117 Cl
ATOM     39  H   LIG d   1       6.405  -8.513  -8.431  0.00  0.00     0.051 H 
ATOM     40  H   LIG d   1       6.333  -8.737  -6.739  0.00  0.00     0.051 H 
ENDBRANCH  35  37
ENDBRANCH  23  35
BRANCH  23  41
ATOM     41  O   LIG d   1       6.549  -7.097  -5.034  0.00  0.00    -0.380 OA
ATOM     42  H   LIG d   1       6.320  -7.970  -5.380  0.00  0.00     0.211 HD
ENDBRANCH  23  41
BRANCH   1  43
ATOM     43  C   LIG d   1       9.350  -6.138  -7.016  0.00  0.00    -0.059 C 
ATOM     44  H   LIG d   1       8.780  -6.777  -7.690  0.00  0.00     0.023 H 
ATOM     45  H   LIG d   1       9.592  -5.202  -7.520  0.00  0.00     0.023 H 
ATOM     46  H   LIG d   1      10.272  -6.644  -6.728  0.00  0.00     0.023 H 
ENDBRANCH   1  43
BRANCH  22  47
ATOM     47  C   LIG d   1       6.272  -4.171  -7.294  0.00  0.00    -0.056 C 
ATOM     48  H   LIG d   1       5.279  -4.264  -7.737  0.00  0.00     0.024 H 
ATOM     49  H   LIG d   1       6.518  -3.117  -7.174  0.00  0.00     0.024 H 
ATOM     50  H   LIG d   1       7.006  -4.644  -7.947  0.00  0.00     0.024 H 
ENDBRANCH  22  47
BRANCH  19  51
ATOM     51  O   LIG d   1       4.260  -2.999  -6.704  0.00  0.00    -0.389 OA
ATOM     52  H   LIG d   1       3.427  -3.209  -7.147  0.00  0.00     0.210 HD
ENDBRANCH  19  51
BRANCH  17  53
ATOM     53  C   LIG d   1       4.763  -0.745  -6.171  0.00  0.00    -0.049 C 
ATOM     54  H   LIG d   1       5.600  -0.072  -6.357  0.00  0.00     0.024 H 
ATOM     55  H   LIG d   1       4.891  -1.654  -6.759  0.00  0.00     0.024 H 
ATOM     56  H   LIG d   1       3.833  -0.255  -6.458  0.00  0.00     0.024 H 
ENDBRANCH  17  53
TORSDOF 7
ENDMDL
MODEL 5
REMARK VINA RESULT:      -6.5      8.979     10.064
REMARK  7 active torsions:
REMARK  status: ('A' for Active; 'I' for Inactive)
REMARK    1  A    between atoms: C_1  and  C_2 
REMARK    2  A    between atoms: C_18  and  C_33 
REMARK    3  A    between atoms: C_20  and  O_31 
REMARK    4  A    between atoms: C_23  and  C_30 
REMARK    5  A    between atoms: C_24  and  C_25 
REMARK    6  A    between atoms: C_24  and  O_29 
REMARK    7  A    between atoms: C_25  and  C_27 
ROOT
ATOM      1  C   LIG d   1      10.114   9.622  -1.545  0.00  0.00    -0.007 C 
ATOM      2  H   LIG d   1       9.133   9.952  -1.204  0.00  0.00     0.033 H 
ATOM      3  C   LIG d   1      10.206   9.727  -3.091  0.00  0.00    -0.044 C 
ATOM      4  C   LIG d   1       9.847   8.311  -3.558  0.00  0.00    -0.026 C 
ATOM      5  H   LIG d   1       8.773   8.138  -3.481  0.00  0.00     0.031 H 
ATOM      6  C   LIG d   1      10.347   7.918  -4.936  0.00  0.00     0.003 C 
ATOM      7  H   LIG d   1      11.431   8.016  -4.990  0.00  0.00     0.034 H 
ATOM      8  C   LIG d   1       9.694   8.805  -5.998  0.00  0.00    -0.012 C 
ATOM      9  C   LIG d   1      10.233   8.431  -7.382  0.00  0.00     0.124 C 
ATOM     10  H   LIG d   1      11.300   8.648  -7.434  0.00  0.00     0.070 H 
ATOM     11  C   LIG d   1      10.002   6.946  -7.594  0.00  0.00    -0.020 A 
ATOM     12  C   LIG d   1       9.386   6.544  -8.696  0.00  0.00    -0.012 A 
ATOM     13  C   LIG d   1       9.108   5.116  -8.920  0.00  0.00     0.179 A 
ATOM     14  O   LIG d   1       8.570   4.740  -9.944  0.00  0.00    -0.288 OA
ATOM     15  C   LIG d   1       9.500   4.153  -7.877  0.00  0.00    -0.018 A 
ATOM     16  C   LIG d   1      10.124   4.576  -6.790  0.00  0.00    -0.067 A 
ATOM     17  C   LIG d   1      10.480   6.001  -6.532  0.00  0.00     0.047 A 
ATOM     18  C   LIG d   1       9.947   6.453  -5.170  0.00  0.00     0.153 C 
ATOM     19  C   LIG d   1      10.502   5.538  -4.082  0.00  0.00     0.091 C 
ATOM     20  H   LIG d   1      10.118   4.530  -4.235  0.00  0.00     0.063 H 
ATOM     21  C   LIG d   1      10.102   6.018  -2.677  0.00  0.00    -0.015 C 
ATOM     22  C   LIG d   1      10.611   7.438  -2.527  0.00  0.00     0.009 C 
ATOM     23  C   LIG d   1      10.322   8.127  -1.196  0.00  0.00     0.133 C 
ATOM     24  F   LIG d   1       8.552   6.351  -5.164  0.00  0.00    -0.238 F 
ATOM     25  F   LIG d   1       9.554   9.159  -8.366  0.00  0.00    -0.241 F 
ATOM     26  H   LIG d   1       9.487  10.454  -3.471  0.00  0.00     0.027 H 
ATOM     27  H   LIG d   1      11.218   9.988  -3.401  0.00  0.00     0.027 H 
ATOM     28  H   LIG d   1       9.923   9.850  -5.790  0.00  0.00     0.030 H 
ATOM     29  H   LIG d   1       8.614   8.659  -5.978  0.00  0.00     0.030 H 
ATOM     30  H   LIG d   1       9.082   7.270  -9.435  0.00  0.00     0.066 H 
ATOM     31  H   LIG d   1       9.278   3.103  -7.999  0.00  0.00     0.065 H 
ATOM     32  H   LIG d   1      10.393   3.844  -6.042  0.00  0.00     0.058 H 
ATOM     33  H   LIG d   1       9.017   6.000  -2.574  0.00  0.00     0.030 H 
ATOM     34  H   LIG d   1      10.557   5.377  -1.921  0.00  0.00     0.030 H 
ENDROOT
BRANCH  23  35
ATOM     35  C   LIG d   1      11.492   7.966  -0.260  0.00  0.00     0.180 C 
ATOM     36  O   LIG d   1      12.611   8.199  -0.648  0.00  0.00    -0.293 OA
BRANCH  35  37
ATOM     37  C   LIG d   1      11.266   7.516   1.160  0.00  0.00     0.084 C 
ATOM     38 CL   LIG d   1      11.197   5.715   1.216  0.00  0.00    -0.117 Cl
ATOM     39  H   LIG d   1      12.017   7.839   1.736  0.00  0.00     0.051 H 
ATOM     40  H   LIG d   1      10.325   7.926   1.526  0.00  0.00     0.051 H 
ENDBRANCH  35  37
ENDBRANCH  23  35
BRANCH  23  41
ATOM     41  O   LIG d   1       9.139   7.585  -0.605  0.00  0.00    -0.380 OA
ATOM     42  H   LIG d   1       9.142   7.594   0.361  0.00  0.00     0.211 HD
ENDBRANCH  23  41
BRANCH   1  43
ATOM     43  C   LIG d   1      11.209  10.469  -0.894  0.00  0.00    -0.059 C 
ATOM     44  H   LIG d   1      12.011  10.640  -1.612  0.00  0.00     0.023 H 
ATOM     45  H   LIG d   1      10.790  11.426  -0.583  0.00  0.00     0.023 H 
ATOM     46  H   LIG d   1      11.605   9.946  -0.023  0.00  0.00     0.023 H 
ENDBRANCH   1  43
BRANCH  22  47
ATOM     47  C   LIG d   1      12.112   7.485  -2.819  0.00  0.00    -0.056 C 
ATOM     48  H   LIG d   1      12.275   7.432  -3.896  0.00  0.00     0.024 H 
ATOM     49  H   LIG d   1      12.528   8.416  -2.434  0.00  0.00     0.024 H 
ATOM     50  H   LIG d   1      12.603   6.641  -2.335  0.00  0.00     0.024 H 
ENDBRANCH  22  47
BRANCH  19  51
ATOM     51  O   LIG d   1      11.928   5.513  -4.176  0.00  0.00    -0.389 OA
ATOM     52  H   LIG d   1      12.260   5.217  -5.035  0.00  0.00     0.210 HD
ENDBRANCH  19  51
BRANCH  17  53
ATOM     53  C   LIG d   1      12.005   6.099  -6.471  0.00  0.00    -0.049 C 
ATOM     54  H   LIG d   1      12.337   6.970  -7.035  0.00  0.00     0.024 H 
ATOM     55  H   LIG d   1      12.322   6.196  -5.433  0.00  0.00     0.024 H 
ATOM     56  H   LIG d   1      12.445   5.199  -6.901  0.00  0.00     0.024 H 
ENDBRANCH  17  53
TORSDOF 7
ENDMDL
MODEL 6
REMARK VINA RESULT:      -6.4      8.956     11.358
REMARK  7 active torsions:
REMARK  status: ('A' for Active; 'I' for Inactive)
REMARK    1  A    between atoms: C_1  and  C_2 
REMARK    2  A    between atoms: C_18  and  C_33 
REMARK    3  A    between atoms: C_20  and  O_31 
REMARK    4  A    between atoms: C_23  and  C_30 
REMARK    5  A    between atoms: C_24  and  C_25 
REMARK    6  A    between atoms: C_24  and  O_29 
REMARK    7  A    between atoms: C_25  and  C_27 
ROOT
ATOM      1  C   LIG d   1      10.196   2.308  -3.646  0.00  0.00    -0.007 C 
ATOM      2  H   LIG d   1       9.348   1.740  -3.264  0.00  0.00     0.033 H 
ATOM      3  C   LIG d   1      10.800   3.190  -2.520  0.00  0.00    -0.044 C 
ATOM      4  C   LIG d   1      10.118   4.546  -2.737  0.00  0.00    -0.026 C 
ATOM      5  H   LIG d   1       9.089   4.524  -2.377  0.00  0.00     0.031 H 
ATOM      6  C   LIG d   1      10.847   5.754  -2.178  0.00  0.00     0.003 C 
ATOM      7  H   LIG d   1      11.851   5.822  -2.596  0.00  0.00     0.034 H 
ATOM      8  C   LIG d   1      10.928   5.652  -0.653  0.00  0.00    -0.012 C 
ATOM      9  C   LIG d   1      11.700   6.853  -0.098  0.00  0.00     0.124 C 
ATOM     10  H   LIG d   1      12.730   6.824  -0.450  0.00  0.00     0.070 H 
ATOM     11  C   LIG d   1      11.025   8.119  -0.594  0.00  0.00    -0.020 A 
ATOM     12  C   LIG d   1      10.684   9.050   0.285  0.00  0.00    -0.012 A 
ATOM     13  C   LIG d   1       9.992  10.274  -0.152  0.00  0.00     0.179 A 
ATOM     14  O   LIG d   1       9.705  11.145   0.647  0.00  0.00    -0.288 OA
ATOM     15  C   LIG d   1       9.659  10.421  -1.579  0.00  0.00    -0.018 A 
ATOM     16  C   LIG d   1      10.020   9.483  -2.440  0.00  0.00    -0.067 A 
ATOM     17  C   LIG d   1      10.768   8.249  -2.067  0.00  0.00     0.047 A 
ATOM     18  C   LIG d   1      10.037   7.000  -2.569  0.00  0.00     0.153 C 
ATOM     19  C   LIG d   1       9.851   7.099  -4.080  0.00  0.00     0.091 C 
ATOM     20  H   LIG d   1       9.196   7.941  -4.304  0.00  0.00     0.063 H 
ATOM     21  C   LIG d   1       9.233   5.817  -4.661  0.00  0.00    -0.015 C 
ATOM     22  C   LIG d   1      10.149   4.668  -4.284  0.00  0.00     0.009 C 
ATOM     23  C   LIG d   1       9.727   3.280  -4.757  0.00  0.00     0.133 C 
ATOM     24  F   LIG d   1       8.774   6.935  -1.971  0.00  0.00    -0.238 F 
ATOM     25  F   LIG d   1      11.676   6.824   1.301  0.00  0.00    -0.241 F 
ATOM     26  H   LIG d   1      10.552   2.784  -1.538  0.00  0.00     0.027 H 
ATOM     27  H   LIG d   1      11.880   3.281  -2.638  0.00  0.00     0.027 H 
ATOM     28  H   LIG d   1      11.443   4.732  -0.378  0.00  0.00     0.030 H 
ATOM     29  H   LIG d   1       9.921   5.644  -0.236  0.00  0.00     0.030 H 
ATOM     30  H   LIG d   1      10.912   8.909   1.330  0.00  0.00     0.066 H 
ATOM     31  H   LIG d   1       9.123  11.293  -1.922  0.00  0.00     0.065 H 
ATOM     32  H   LIG d   1       9.756   9.620  -3.478  0.00  0.00     0.058 H 
ATOM     33  H   LIG d   1       8.243   5.657  -4.236  0.00  0.00     0.030 H 
ATOM     34  H   LIG d   1       9.163   5.897  -5.746  0.00  0.00     0.030 H 
ENDROOT
BRANCH  23  35
ATOM     35  C   LIG d   1      10.402   2.946  -6.063  0.00  0.00     0.180 C 
ATOM     36  O   LIG d   1      11.596   2.766  -6.096  0.00  0.00    -0.293 OA
BRANCH  35  37
ATOM     37  C   LIG d   1       9.589   2.837  -7.326  0.00  0.00     0.084 C 
ATOM     38 CL   LIG d   1       9.456   4.461  -8.098  0.00  0.00    -0.117 Cl
ATOM     39  H   LIG d   1      10.037   2.203  -7.958  0.00  0.00     0.051 H 
ATOM     40  H   LIG d   1       8.592   2.467  -7.086  0.00  0.00     0.051 H 
ENDBRANCH  35  37
ENDBRANCH  23  35
BRANCH  23  41
ATOM     41  O   LIG d   1       8.307   3.217  -4.906  0.00  0.00    -0.380 OA
ATOM     42  H   LIG d   1       7.867   2.658  -4.252  0.00  0.00     0.211 HD
ENDBRANCH  23  41
BRANCH   1  43
ATOM     43  C   LIG d   1      11.261   1.357  -4.196  0.00  0.00    -0.059 C 
ATOM     44  H   LIG d   1      11.774   1.830  -5.033  0.00  0.00     0.023 H 
ATOM     45  H   LIG d   1      11.981   1.125  -3.411  0.00  0.00     0.023 H 
ATOM     46  H   LIG d   1      10.785   0.436  -4.535  0.00  0.00     0.023 H 
ENDBRANCH   1  43
BRANCH  22  47
ATOM     47  C   LIG d   1      11.574   4.964  -4.753  0.00  0.00    -0.056 C 
ATOM     48  H   LIG d   1      11.814   6.009  -4.550  0.00  0.00     0.024 H 
ATOM     49  H   LIG d   1      12.273   4.321  -4.219  0.00  0.00     0.024 H 
ATOM     50  H   LIG d   1      11.651   4.776  -5.824  0.00  0.00     0.024 H 
ENDBRANCH  22  47
BRANCH  19  51
ATOM     51  O   LIG d   1      11.123   7.323  -4.693  0.00  0.00    -0.389 OA
ATOM     52  H   LIG d   1      11.184   6.997  -5.601  0.00  0.00     0.210 HD
ENDBRANCH  19  51
BRANCH  17  53
ATOM     53  C   LIG d   1      12.123   8.290  -2.775  0.00  0.00    -0.049 C 
ATOM     54  H   LIG d   1      12.893   8.603  -2.070  0.00  0.00     0.024 H 
ATOM     55  H   LIG d   1      12.363   7.299  -3.159  0.00  0.00     0.024 H 
ATOM     56  H   LIG d   1      12.079   8.998  -3.603  0.00  0.00     0.024 H 
ENDBRANCH  17  53
TORSDOF 7
ENDMDL
MODEL 7
REMARK VINA RESULT:      -6.3      2.064      2.371
REMARK  7 active torsions:
REMARK  status: ('A' for Active; 'I' for Inactive)
REMARK    1  A    between atoms: C_1  and  C_2 
REMARK    2  A    between atoms: C_18  and  C_33 
REMARK    3  A    between atoms: C_20  and  O_31 
REMARK    4  A    between atoms: C_23  and  C_30 
REMARK    5  A    between atoms: C_24  and  C_25 
REMARK    6  A    between atoms: C_24  and  O_29 
REMARK    7  A    between atoms: C_25  and  C_27 
ROOT
ATOM      1  C   LIG d   1       2.696   0.261  -5.010  0.00  0.00    -0.007 C 
ATOM      2  H   LIG d   1       1.753  -0.128  -4.625  0.00  0.00     0.033 H 
ATOM      3  C   LIG d   1       2.611   0.437  -6.550  0.00  0.00    -0.044 C 
ATOM      4  C   LIG d   1       3.223  -0.864  -7.083  0.00  0.00    -0.026 C 
ATOM      5  H   LIG d   1       2.519  -1.691  -6.986  0.00  0.00     0.031 H 
ATOM      6  C   LIG d   1       3.781  -0.809  -8.493  0.00  0.00     0.003 C 
ATOM      7  H   LIG d   1       4.542  -0.033  -8.572  0.00  0.00     0.034 H 
ATOM      8  C   LIG d   1       2.652  -0.529  -9.488  0.00  0.00    -0.012 C 
ATOM      9  C   LIG d   1       3.227  -0.434 -10.905  0.00  0.00     0.124 C 
ATOM     10  H   LIG d   1       3.898   0.421 -10.974  0.00  0.00     0.070 H 
ATOM     11  C   LIG d   1       3.995  -1.712 -11.190  0.00  0.00    -0.020 A 
ATOM     12  C   LIG d   1       3.722  -2.391 -12.295  0.00  0.00    -0.012 A 
ATOM     13  C   LIG d   1       4.416  -3.655 -12.587  0.00  0.00     0.179 A 
ATOM     14  O   LIG d   1       4.191  -4.265 -13.615  0.00  0.00    -0.288 OA
ATOM     15  C   LIG d   1       5.394  -4.161 -11.609  0.00  0.00    -0.018 A 
ATOM     16  C   LIG d   1       5.658  -3.461 -10.518  0.00  0.00    -0.067 A 
ATOM     17  C   LIG d   1       5.027  -2.150 -10.194  0.00  0.00     0.047 A 
ATOM     18  C   LIG d   1       4.405  -2.180  -8.795  0.00  0.00     0.153 C 
ATOM     19  C   LIG d   1       5.479  -2.546  -7.773  0.00  0.00     0.091 C 
ATOM     20  H   LIG d   1       5.826  -3.560  -7.970  0.00  0.00     0.063 H 
ATOM     21  C   LIG d   1       4.943  -2.471  -6.334  0.00  0.00    -0.015 C 
ATOM     22  C   LIG d   1       4.426  -1.061  -6.122  0.00  0.00     0.009 C 
ATOM     23  C   LIG d   1       3.836  -0.754  -4.749  0.00  0.00     0.133 C 
ATOM     24  F   LIG d   1       3.407  -3.160  -8.757  0.00  0.00    -0.238 F 
ATOM     25  F   LIG d   1       2.185  -0.294 -11.828  0.00  0.00    -0.241 F 
ATOM     26  H   LIG d   1       1.574   0.537  -6.871  0.00  0.00     0.027 H 
ATOM     27  H   LIG d   1       3.199   1.296  -6.874  0.00  0.00     0.027 H 
ATOM     28  H   LIG d   1       2.166   0.412  -9.230  0.00  0.00     0.030 H 
ATOM     29  H   LIG d   1       1.923  -1.338  -9.446  0.00  0.00     0.030 H 
ATOM     30  H   LIG d   1       2.981  -2.015 -12.984  0.00  0.00     0.066 H 
ATOM     31  H   LIG d   1       5.893  -5.103 -11.782  0.00  0.00     0.065 H 
ATOM     32  H   LIG d   1       6.377  -3.863  -9.819  0.00  0.00     0.058 H 
ATOM     33  H   LIG d   1       4.132  -3.188  -6.203  0.00  0.00     0.030 H 
ATOM     34  H   LIG d   1       5.745  -2.685  -5.628  0.00  0.00     0.030 H 
ENDROOT
BRANCH  23  35
ATOM     35  C   LIG d   1       4.885  -0.143  -3.855  0.00  0.00     0.180 C 
ATOM     36  O   LIG d   1       5.672   0.654  -4.306  0.00  0.00    -0.293 OA
BRANCH  35  37
ATOM     37  C   LIG d   1       4.952  -0.526  -2.399  0.00  0.00     0.084 C 
ATOM     38 CL   LIG d   1       4.673   0.934  -1.380  0.00  0.00    -0.117 Cl
ATOM     39  H   LIG d   1       4.249  -1.210  -2.202  0.00  0.00     0.051 H 
ATOM     40  H   LIG d   1       5.935  -0.941  -2.178  0.00  0.00     0.051 H 
ENDBRANCH  35  37
ENDBRANCH  23  35
BRANCH  23  41
ATOM     41  O   LIG d   1       3.315  -1.945  -4.155  0.00  0.00    -0.380 OA
ATOM     42  H   LIG d   1       3.882  -2.324  -3.471  0.00  0.00     0.211 HD
ENDBRANCH  23  41
BRANCH   1  43
ATOM     43  C   LIG d   1       3.022   1.600  -4.345  0.00  0.00    -0.059 C 
ATOM     44  H   LIG d   1       4.067   1.851  -4.528  0.00  0.00     0.023 H 
ATOM     45  H   LIG d   1       2.382   2.378  -4.763  0.00  0.00     0.023 H 
ATOM     46  H   LIG d   1       2.848   1.524  -3.271  0.00  0.00     0.023 H 
ENDBRANCH   1  43
BRANCH  22  47
ATOM     47  C   LIG d   1       5.525  -0.050  -6.452  0.00  0.00    -0.056 C 
ATOM     48  H   LIG d   1       5.159   0.653  -7.201  0.00  0.00     0.024 H 
ATOM     49  H   LIG d   1       5.802   0.493  -5.549  0.00  0.00     0.024 H 
ATOM     50  H   LIG d   1       6.397  -0.575  -6.843  0.00  0.00     0.024 H 
ENDBRANCH  22  47
BRANCH  19  51
ATOM     51  O   LIG d   1       6.578  -1.643  -7.909  0.00  0.00    -0.389 OA
ATOM     52  H   LIG d   1       7.263  -1.753  -7.235  0.00  0.00     0.210 HD
ENDBRANCH  19  51
BRANCH  17  53
ATOM     53  C   LIG d   1       6.132  -1.092 -10.170  0.00  0.00    -0.049 C 
ATOM     54  H   LIG d   1       6.608  -1.041 -11.148  0.00  0.00     0.024 H 
ATOM     55  H   LIG d   1       5.701  -0.121  -9.925  0.00  0.00     0.024 H 
ATOM     56  H   LIG d   1       6.874  -1.358  -9.417  0.00  0.00     0.024 H 
ENDBRANCH  17  53
TORSDOF 7
ENDMDL
MODEL 8
REMARK VINA RESULT:      -6.3     10.909     13.527
REMARK  7 active torsions:
REMARK  status: ('A' for Active; 'I' for Inactive)
REMARK    1  A    between atoms: C_1  and  C_2 
REMARK    2  A    between atoms: C_18  and  C_33 
REMARK    3  A    between atoms: C_20  and  O_31 
REMARK    4  A    between atoms: C_23  and  C_30 
REMARK    5  A    between atoms: C_24  and  C_25 
REMARK    6  A    between atoms: C_24  and  O_29 
REMARK    7  A    between atoms: C_25  and  C_27 
ROOT
ATOM      1  C   LIG d   1       9.452   9.191  -6.553  0.00  0.00    -0.007 C 
ATOM      2  H   LIG d   1       8.371   9.232  -6.685  0.00  0.00     0.033 H 
ATOM      3  C   LIG d   1       9.843   7.936  -5.727  0.00  0.00    -0.044 C 
ATOM      4  C   LIG d   1       9.944   8.479  -4.296  0.00  0.00    -0.026 C 
ATOM      5  H   LIG d   1       8.952   8.638  -3.871  0.00  0.00     0.031 H 
ATOM      6  C   LIG d   1      10.805   7.677  -3.339  0.00  0.00     0.003 C 
ATOM      7  H   LIG d   1      11.820   7.583  -3.726  0.00  0.00     0.034 H 
ATOM      8  C   LIG d   1      10.199   6.286  -3.135  0.00  0.00    -0.012 C 
ATOM      9  C   LIG d   1      11.095   5.467  -2.200  0.00  0.00     0.124 C 
ATOM     10  H   LIG d   1      12.063   5.299  -2.670  0.00  0.00     0.070 H 
ATOM     11  C   LIG d   1      11.278   6.252  -0.915  0.00  0.00    -0.020 A 
ATOM     12  C   LIG d   1      11.026   5.656   0.242  0.00  0.00    -0.012 A 
ATOM     13  C   LIG d   1      11.154   6.395   1.509  0.00  0.00     0.179 A 
ATOM     14  O   LIG d   1      10.954   5.843   2.574  0.00  0.00    -0.288 OA
ATOM     15  C   LIG d   1      11.536   7.817   1.456  0.00  0.00    -0.018 A 
ATOM     16  C   LIG d   1      11.794   8.387   0.291  0.00  0.00    -0.067 A 
ATOM     17  C   LIG d   1      11.733   7.678  -1.019  0.00  0.00     0.047 A 
ATOM     18  C   LIG d   1      10.829   8.430  -2.000  0.00  0.00     0.153 C 
ATOM     19  C   LIG d   1      11.343   9.857  -2.167  0.00  0.00     0.091 C 
ATOM     20  H   LIG d   1      11.255  10.380  -1.215  0.00  0.00     0.063 H 
ATOM     21  C   LIG d   1      10.550  10.626  -3.236  0.00  0.00    -0.015 C 
ATOM     22  C   LIG d   1      10.658   9.837  -4.527  0.00  0.00     0.009 C 
ATOM     23  C   LIG d   1       9.935  10.417  -5.739  0.00  0.00     0.133 C 
ATOM     24  F   LIG d   1       9.531   8.486  -1.480  0.00  0.00    -0.238 F 
ATOM     25  F   LIG d   1      10.485   4.239  -1.920  0.00  0.00    -0.241 F 
ATOM     26  H   LIG d   1       9.068   7.172  -5.797  0.00  0.00     0.027 H 
ATOM     27  H   LIG d   1      10.804   7.541  -6.055  0.00  0.00     0.027 H 
ATOM     28  H   LIG d   1      10.120   5.780  -4.097  0.00  0.00     0.030 H 
ATOM     29  H   LIG d   1       9.208   6.384  -2.694  0.00  0.00     0.030 H 
ATOM     30  H   LIG d   1      10.721   4.620   0.255  0.00  0.00     0.066 H 
ATOM     31  H   LIG d   1      11.605   8.391   2.368  0.00  0.00     0.065 H 
ATOM     32  H   LIG d   1      12.066   9.432   0.288  0.00  0.00     0.058 H 
ATOM     33  H   LIG d   1       9.505  10.705  -2.936  0.00  0.00     0.030 H 
ATOM     34  H   LIG d   1      10.974  11.621  -3.370  0.00  0.00     0.030 H 
ENDROOT
BRANCH  23  35
ATOM     35  C   LIG d   1      10.882  11.251  -6.562  0.00  0.00     0.180 C 
ATOM     36  O   LIG d   1      11.766  10.718  -7.190  0.00  0.00    -0.293 OA
BRANCH  35  37
ATOM     37  C   LIG d   1      10.728  12.749  -6.604  0.00  0.00     0.084 C 
ATOM     38 CL   LIG d   1       9.592  13.201  -7.928  0.00  0.00    -0.117 Cl
ATOM     39  H   LIG d   1      10.365  13.071  -5.728  0.00  0.00     0.051 H 
ATOM     40  H   LIG d   1      11.699  13.209  -6.786  0.00  0.00     0.051 H 
ENDBRANCH  35  37
ENDBRANCH  23  35
BRANCH  23  41
ATOM     41  O   LIG d   1       8.819  11.206  -5.320  0.00  0.00    -0.380 OA
ATOM     42  H   LIG d   1       9.053  12.103  -5.047  0.00  0.00     0.211 HD
ENDBRANCH  23  41
BRANCH   1  43
ATOM     43  C   LIG d   1      10.147   9.159  -7.916  0.00  0.00    -0.059 C 
ATOM     44  H   LIG d   1      10.309  10.179  -8.265  0.00  0.00     0.023 H 
ATOM     45  H   LIG d   1      11.106   8.650  -7.823  0.00  0.00     0.023 H 
ATOM     46  H   LIG d   1       9.520   8.625  -8.631  0.00  0.00     0.023 H 
ENDBRANCH   1  43
BRANCH  22  47
ATOM     47  C   LIG d   1      12.130   9.598  -4.867  0.00  0.00    -0.056 C 
ATOM     48  H   LIG d   1      12.354  10.038  -5.840  0.00  0.00     0.024 H 
ATOM     49  H   LIG d   1      12.759  10.060  -4.106  0.00  0.00     0.024 H 
ATOM     50  H   LIG d   1      12.327   8.527  -4.899  0.00  0.00     0.024 H 
ENDBRANCH  22  47
BRANCH  19  51
ATOM     51  O   LIG d   1      12.720   9.815  -2.549  0.00  0.00    -0.389 OA
ATOM     52  H   LIG d   1      13.326  10.142  -1.870  0.00  0.00     0.210 HD
ENDBRANCH  19  51
BRANCH  17  53
ATOM     53  C   LIG d   1      13.140   7.677  -1.617  0.00  0.00    -0.049 C 
ATOM     54  H   LIG d   1      13.522   6.657  -1.648  0.00  0.00     0.024 H 
ATOM     55  H   LIG d   1      13.106   8.083  -2.628  0.00  0.00     0.024 H 
ATOM     56  H   LIG d   1      13.797   8.292  -1.002  0.00  0.00     0.024 H 
ENDBRANCH  17  53
TORSDOF 7
ENDMDL
MODEL 9
REMARK VINA RESULT:      -6.3      4.296      6.612
REMARK  7 active torsions:
REMARK  status: ('A' for Active; 'I' for Inactive)
REMARK    1  A    between atoms: C_1  and  C_2 
REMARK    2  A    between atoms: C_18  and  C_33 
REMARK    3  A    between atoms: C_20  and  O_31 
REMARK    4  A    between atoms: C_23  and  C_30 
REMARK    5  A    between atoms: C_24  and  C_25 
REMARK    6  A    between atoms: C_24  and  O_29 
REMARK    7  A    between atoms: C_25  and  C_27 
ROOT
ATOM      1  C   LIG d   1       5.715  -0.408  -3.004  0.00  0.00    -0.007 C 
ATOM      2  H   LIG d   1       6.263   0.534  -2.978  0.00  0.00     0.033 H 
ATOM      3  C   LIG d   1       6.682  -1.596  -2.752  0.00  0.00    -0.044 C 
ATOM      4  C   LIG d   1       7.043  -2.058  -4.169  0.00  0.00    -0.026 C 
ATOM      5  H   LIG d   1       7.758  -1.375  -4.629  0.00  0.00     0.031 H 
ATOM      6  C   LIG d   1       7.523  -3.491  -4.300  0.00  0.00     0.003 C 
ATOM      7  H   LIG d   1       6.774  -4.182  -3.911  0.00  0.00     0.034 H 
ATOM      8  C   LIG d   1       8.837  -3.671  -3.537  0.00  0.00    -0.012 C 
ATOM      9  C   LIG d   1       9.295  -5.129  -3.638  0.00  0.00     0.124 C 
ATOM     10  H   LIG d   1       8.575  -5.778  -3.141  0.00  0.00     0.070 H 
ATOM     11  C   LIG d   1       9.383  -5.495  -5.108  0.00  0.00    -0.020 A 
ATOM     12  C   LIG d   1      10.504  -6.033  -5.569  0.00  0.00    -0.012 A 
ATOM     13  C   LIG d   1      10.643  -6.365  -6.996  0.00  0.00     0.179 A 
ATOM     14  O   LIG d   1      11.658  -6.887  -7.418  0.00  0.00    -0.288 OA
ATOM     15  C   LIG d   1       9.522  -6.056  -7.901  0.00  0.00    -0.018 A 
ATOM     16  C   LIG d   1       8.409  -5.530  -7.417  0.00  0.00    -0.067 A 
ATOM     17  C   LIG d   1       8.190  -5.221  -5.975  0.00  0.00     0.047 A 
ATOM     18  C   LIG d   1       7.753  -3.765  -5.794  0.00  0.00     0.153 C 
ATOM     19  C   LIG d   1       6.490  -3.512  -6.613  0.00  0.00     0.091 C 
ATOM     20  H   LIG d   1       6.724  -3.627  -7.672  0.00  0.00     0.063 H 
ATOM     21  C   LIG d   1       5.931  -2.099  -6.375  0.00  0.00    -0.015 C 
ATOM     22  C   LIG d   1       5.669  -1.968  -4.887  0.00  0.00     0.009 C 
ATOM     23  C   LIG d   1       5.109  -0.630  -4.412  0.00  0.00     0.133 C 
ATOM     24  F   LIG d   1       8.763  -2.920  -6.267  0.00  0.00    -0.238 F 
ATOM     25  F   LIG d   1      10.553  -5.271  -3.041  0.00  0.00    -0.241 F 
ATOM     26  H   LIG d   1       7.571  -1.263  -2.216  0.00  0.00     0.027 H 
ATOM     27  H   LIG d   1       6.179  -2.394  -2.206  0.00  0.00     0.027 H 
ATOM     28  H   LIG d   1       8.687  -3.410  -2.489  0.00  0.00     0.030 H 
ATOM     29  H   LIG d   1       9.598  -3.021  -3.968  0.00  0.00     0.030 H 
ATOM     30  H   LIG d   1      11.323  -6.225  -4.893  0.00  0.00     0.066 H 
ATOM     31  H   LIG d   1       9.610  -6.259  -8.958  0.00  0.00     0.065 H 
ATOM     32  H   LIG d   1       7.609  -5.312  -8.108  0.00  0.00     0.058 H 
ATOM     33  H   LIG d   1       6.661  -1.354  -6.690  0.00  0.00     0.030 H 
ATOM     34  H   LIG d   1       5.003  -1.968  -6.930  0.00  0.00     0.030 H 
ENDROOT
BRANCH  23  35
ATOM     35  C   LIG d   1       3.605  -0.694  -4.330  0.00  0.00     0.180 C 
ATOM     36  O   LIG d   1       3.073  -1.571  -3.693  0.00  0.00    -0.293 OA
BRANCH  35  37
ATOM     37  C   LIG d   1       2.767   0.336  -5.041  0.00  0.00     0.084 C 
ATOM     38 CL   LIG d   1       2.752  -0.016  -6.809  0.00  0.00    -0.117 Cl
ATOM     39  H   LIG d   1       1.831   0.306  -4.687  0.00  0.00     0.051 H 
ATOM     40  H   LIG d   1       3.187   1.327  -4.871  0.00  0.00     0.051 H 
ENDBRANCH  35  37
ENDBRANCH  23  35
BRANCH  23  41
ATOM     41  O   LIG d   1       5.511   0.418  -5.298  0.00  0.00    -0.380 OA
ATOM     42  H   LIG d   1       4.837   1.097  -5.434  0.00  0.00     0.211 HD
ENDBRANCH  23  41
BRANCH   1  43
ATOM     43  C   LIG d   1       4.606  -0.400  -1.951  0.00  0.00    -0.059 C 
ATOM     44  H   LIG d   1       3.691  -0.805  -2.383  0.00  0.00     0.023 H 
ATOM     45  H   LIG d   1       4.908  -1.012  -1.101  0.00  0.00     0.023 H 
ATOM     46  H   LIG d   1       4.429   0.623  -1.616  0.00  0.00     0.023 H 
ENDBRANCH   1  43
BRANCH  22  47
ATOM     47  C   LIG d   1       4.762  -3.105  -4.416  0.00  0.00    -0.056 C 
ATOM     48  H   LIG d   1       3.860  -3.127  -5.029  0.00  0.00     0.024 H 
ATOM     49  H   LIG d   1       5.289  -4.054  -4.512  0.00  0.00     0.024 H 
ATOM     50  H   LIG d   1       4.489  -2.945  -3.373  0.00  0.00     0.024 H 
ENDBRANCH  22  47
BRANCH  19  51
ATOM     51  O   LIG d   1       5.497  -4.473  -6.249  0.00  0.00    -0.389 OA
ATOM     52  H   LIG d   1       4.719  -4.471  -6.822  0.00  0.00     0.210 HD
ENDBRANCH  19  51
BRANCH  17  53
ATOM     53  C   LIG d   1       7.040  -6.099  -5.478  0.00  0.00    -0.049 C 
ATOM     54  H   LIG d   1       7.209  -6.364  -4.435  0.00  0.00     0.024 H 
ATOM     55  H   LIG d   1       6.101  -5.552  -5.565  0.00  0.00     0.024 H 
ATOM     56  H   LIG d   1       6.988  -7.006  -6.080  0.00  0.00     0.024 H 
ENDBRANCH  17  53
TORSDOF 7
ENDMDL
