MODEL 1
REMARK VINA RESULT:      -4.7      0.000      0.000
REMARK  2 active torsions:
REMARK  status: ('A' for Active; 'I' for Inactive)
REMARK    1  A    between atoms: C_3  and  O_10 
REMARK    2  A    between atoms: C_6  and  C_7 
ROOT
ATOM      1  C   LIG d   1       4.217  -2.185  -2.776  0.00  0.00    -0.048 A 
ATOM      2  C   LIG d   1       4.153  -1.024  -2.043  0.00  0.00    -0.018 A 
ATOM      3  C   LIG d   1       5.032   0.020  -2.311  0.00  0.00     0.131 A 
ATOM      4  C   LIG d   1       5.976  -0.102  -3.327  0.00  0.00     0.060 A 
ATOM      5  C   LIG d   1       6.043  -1.259  -4.071  0.00  0.00    -0.034 A 
ATOM      6  C   LIG d   1       5.159  -2.312  -3.803  0.00  0.00     0.015 A 
ATOM      7 BR   LIG d   1       7.167   1.321  -3.686  0.00  0.00    -0.046 Br
ATOM      8  H   LIG d   1       3.537  -2.998  -2.563  0.00  0.00     0.063 H 
ATOM      9  H   LIG d   1       3.423  -0.923  -1.253  0.00  0.00     0.065 H 
ATOM     10  H   LIG d   1       6.776  -1.354  -4.859  0.00  0.00     0.064 H 
ENDROOT
BRANCH   6  11
ATOM     11  C   LIG d   1       5.227  -3.549  -4.593  0.00  0.00     0.150 C 
ATOM     12  O   LIG d   1       4.221  -4.194  -4.797  0.00  0.00    -0.296 OA
ATOM     13  H   LIG d   1       6.174  -3.884  -4.991  0.00  0.00     0.108 H 
ENDBRANCH   6  11
BRANCH   3  14
ATOM     14  O   LIG d   1       4.970   1.162  -1.581  0.00  0.00    -0.506 OA
ATOM     15  H   LIG d   1       4.790   1.954  -2.104  0.00  0.00     0.292 HD
ENDBRANCH   3  14
TORSDOF 2
ENDMDL
MODEL 2
REMARK VINA RESULT:      -4.7      2.116      4.076
REMARK  2 active torsions:
REMARK  status: ('A' for Active; 'I' for Inactive)
REMARK    1  A    between atoms: C_3  and  O_10 
REMARK    2  A    between atoms: C_6  and  C_7 
ROOT
ATOM      1  C   LIG d   1       3.887  -0.983  -2.147  0.00  0.00    -0.048 A 
ATOM      2  C   LIG d   1       4.076  -2.272  -2.587  0.00  0.00    -0.018 A 
ATOM      3  C   LIG d   1       4.324  -2.522  -3.933  0.00  0.00     0.131 A 
ATOM      4  C   LIG d   1       4.390  -1.467  -4.840  0.00  0.00     0.060 A 
ATOM      5  C   LIG d   1       4.209  -0.173  -4.408  0.00  0.00    -0.034 A 
ATOM      6  C   LIG d   1       3.958   0.081  -3.053  0.00  0.00     0.015 A 
ATOM      7 BR   LIG d   1       4.728  -1.814  -6.667  0.00  0.00    -0.046 Br
ATOM      8  H   LIG d   1       3.689  -0.791  -1.103  0.00  0.00     0.063 H 
ATOM      9  H   LIG d   1       4.025  -3.094  -1.888  0.00  0.00     0.065 H 
ATOM     10  H   LIG d   1       4.259   0.645  -5.112  0.00  0.00     0.064 H 
ENDROOT
BRANCH   6  11
ATOM     11  C   LIG d   1       3.763   1.460  -2.587  0.00  0.00     0.150 C 
ATOM     12  O   LIG d   1       3.578   2.352  -3.389  0.00  0.00    -0.296 OA
ATOM     13  H   LIG d   1       3.783   1.681  -1.529  0.00  0.00     0.108 H 
ENDBRANCH   6  11
BRANCH   3  14
ATOM     14  O   LIG d   1       4.504  -3.796  -4.363  0.00  0.00    -0.506 OA
ATOM     15  H   LIG d   1       4.739  -4.418  -3.662  0.00  0.00     0.292 HD
ENDBRANCH   3  14
TORSDOF 2
ENDMDL
MODEL 3
REMARK VINA RESULT:      -4.3      3.099      3.264
REMARK  2 active torsions:
REMARK  status: ('A' for Active; 'I' for Inactive)
REMARK    1  A    between atoms: C_3  and  O_10 
REMARK    2  A    between atoms: C_6  and  C_7 
ROOT
ATOM      1  C   LIG d   1       2.377  -0.080  -4.346  0.00  0.00    -0.048 A 
ATOM      2  C   LIG d   1       2.751  -0.419  -3.067  0.00  0.00    -0.018 A 
ATOM      3  C   LIG d   1       4.056  -0.823  -2.805  0.00  0.00     0.131 A 
ATOM      4  C   LIG d   1       4.991  -0.880  -3.835  0.00  0.00     0.060 A 
ATOM      5  C   LIG d   1       4.628  -0.535  -5.117  0.00  0.00    -0.034 A 
ATOM      6  C   LIG d   1       3.315  -0.128  -5.384  0.00  0.00     0.015 A 
ATOM      7 BR   LIG d   1       6.763  -1.430  -3.470  0.00  0.00    -0.046 Br
ATOM      8  H   LIG d   1       1.362   0.229  -4.550  0.00  0.00     0.063 H 
ATOM      9  H   LIG d   1       2.029  -0.378  -2.265  0.00  0.00     0.065 H 
ATOM     10  H   LIG d   1       5.354  -0.580  -5.916  0.00  0.00     0.064 H 
ENDROOT
BRANCH   6  11
ATOM     11  C   LIG d   1       2.922   0.239  -6.751  0.00  0.00     0.150 C 
ATOM     12  O   LIG d   1       3.262   1.308  -7.214  0.00  0.00    -0.296 OA
ATOM     13  H   LIG d   1       2.330  -0.444  -7.344  0.00  0.00     0.108 H 
ENDBRANCH   6  11
BRANCH   3  14
ATOM     14  O   LIG d   1       4.418  -1.163  -1.543  0.00  0.00    -0.506 OA
ATOM     15  H   LIG d   1       4.909  -1.994  -1.485  0.00  0.00     0.292 HD
ENDBRANCH   3  14
TORSDOF 2
ENDMDL
MODEL 4
REMARK VINA RESULT:      -4.3      2.553      3.896
REMARK  2 active torsions:
REMARK  status: ('A' for Active; 'I' for Inactive)
REMARK    1  A    between atoms: C_3  and  O_10 
REMARK    2  A    between atoms: C_6  and  C_7 
ROOT
ATOM      1  C   LIG d   1       5.374   1.235  -2.572  0.00  0.00    -0.048 A 
ATOM      2  C   LIG d   1       4.279   0.459  -2.272  0.00  0.00    -0.018 A 
ATOM      3  C   LIG d   1       4.158  -0.816  -2.814  0.00  0.00     0.131 A 
ATOM      4  C   LIG d   1       5.146  -1.316  -3.657  0.00  0.00     0.060 A 
ATOM      5  C   LIG d   1       6.250  -0.549  -3.958  0.00  0.00    -0.034 A 
ATOM      6  C   LIG d   1       6.375   0.736  -3.414  0.00  0.00     0.015 A 
ATOM      7 BR   LIG d   1       4.974  -3.050  -4.390  0.00  0.00    -0.046 Br
ATOM      8  H   LIG d   1       5.465   2.227  -2.155  0.00  0.00     0.063 H 
ATOM      9  H   LIG d   1       3.509   0.842  -1.619  0.00  0.00     0.065 H 
ATOM     10  H   LIG d   1       7.016  -0.937  -4.613  0.00  0.00     0.064 H 
ENDROOT
BRANCH   6  11
ATOM     11  C   LIG d   1       7.548   1.559  -3.733  0.00  0.00     0.150 C 
ATOM     12  O   LIG d   1       7.567   2.221  -4.749  0.00  0.00    -0.296 OA
ATOM     13  H   LIG d   1       8.396   1.575  -3.061  0.00  0.00     0.108 H 
ENDBRANCH   6  11
BRANCH   3  14
ATOM     14  O   LIG d   1       3.073  -1.576  -2.520  0.00  0.00    -0.506 OA
ATOM     15  H   LIG d   1       2.291  -1.065  -2.271  0.00  0.00     0.292 HD
ENDBRANCH   3  14
TORSDOF 2
ENDMDL
MODEL 5
REMARK VINA RESULT:      -4.1      2.410      3.009
REMARK  2 active torsions:
REMARK  status: ('A' for Active; 'I' for Inactive)
REMARK    1  A    between atoms: C_3  and  O_10 
REMARK    2  A    between atoms: C_6  and  C_7 
ROOT
ATOM      1  C   LIG d   1       5.960  -3.299  -4.665  0.00  0.00    -0.048 A 
ATOM      2  C   LIG d   1       4.628  -2.961  -4.604  0.00  0.00    -0.018 A 
ATOM      3  C   LIG d   1       4.213  -1.899  -3.807  0.00  0.00     0.131 A 
ATOM      4  C   LIG d   1       5.143  -1.170  -3.072  0.00  0.00     0.060 A 
ATOM      5  C   LIG d   1       6.479  -1.496  -3.131  0.00  0.00    -0.034 A 
ATOM      6  C   LIG d   1       6.901  -2.565  -3.933  0.00  0.00     0.015 A 
ATOM      7 BR   LIG d   1       4.571   0.271  -1.990  0.00  0.00    -0.046 Br
ATOM      8  H   LIG d   1       6.281  -4.126  -5.280  0.00  0.00     0.063 H 
ATOM      9  H   LIG d   1       3.902  -3.524  -5.172  0.00  0.00     0.065 H 
ATOM     10  H   LIG d   1       7.201  -0.931  -2.561  0.00  0.00     0.064 H 
ENDROOT
BRANCH   6  11
ATOM     11  C   LIG d   1       8.325  -2.919  -3.999  0.00  0.00     0.150 C 
ATOM     12  O   LIG d   1       8.714  -3.962  -3.517  0.00  0.00    -0.296 OA
ATOM     13  H   LIG d   1       9.026  -2.250  -4.478  0.00  0.00     0.108 H 
ENDBRANCH   6  11
BRANCH   3  14
ATOM     14  O   LIG d   1       2.897  -1.574  -3.745  0.00  0.00    -0.506 OA
ATOM     15  H   LIG d   1       2.424  -1.987  -3.011  0.00  0.00     0.292 HD
ENDBRANCH   3  14
TORSDOF 2
ENDMDL
MODEL 6
REMARK VINA RESULT:      -4.1      2.140      2.963
REMARK  2 active torsions:
REMARK  status: ('A' for Active; 'I' for Inactive)
REMARK    1  A    between atoms: C_3  and  O_10 
REMARK    2  A    between atoms: C_6  and  C_7 
ROOT
ATOM      1  C   LIG d   1       6.751  -3.658  -5.209  0.00  0.00    -0.048 A 
ATOM      2  C   LIG d   1       7.387  -2.628  -4.557  0.00  0.00    -0.018 A 
ATOM      3  C   LIG d   1       6.682  -1.820  -3.671  0.00  0.00     0.131 A 
ATOM      4  C   LIG d   1       5.330  -2.054  -3.435  0.00  0.00     0.060 A 
ATOM      5  C   LIG d   1       4.685  -3.087  -4.078  0.00  0.00    -0.034 A 
ATOM      6  C   LIG d   1       5.393  -3.902  -4.971  0.00  0.00     0.015 A 
ATOM      7 BR   LIG d   1       4.378  -0.952  -2.229  0.00  0.00    -0.046 Br
ATOM      8  H   LIG d   1       7.298  -4.281  -5.901  0.00  0.00     0.063 H 
ATOM      9  H   LIG d   1       8.436  -2.441  -4.737  0.00  0.00     0.065 H 
ATOM     10  H   LIG d   1       3.636  -3.268  -3.895  0.00  0.00     0.064 H 
ENDROOT
BRANCH   6  11
ATOM     11  C   LIG d   1       4.710  -5.004  -5.661  0.00  0.00     0.150 C 
ATOM     12  O   LIG d   1       4.003  -5.766  -5.035  0.00  0.00    -0.296 OA
ATOM     13  H   LIG d   1       4.837  -5.136  -6.726  0.00  0.00     0.108 H 
ENDBRANCH   6  11
BRANCH   3  14
ATOM     14  O   LIG d   1       7.313  -0.801  -3.035  0.00  0.00    -0.506 OA
ATOM     15  H   LIG d   1       6.849   0.044  -3.091  0.00  0.00     0.292 HD
ENDBRANCH   3  14
TORSDOF 2
ENDMDL
MODEL 7
REMARK VINA RESULT:      -3.9      2.723      4.127
REMARK  2 active torsions:
REMARK  status: ('A' for Active; 'I' for Inactive)
REMARK    1  A    between atoms: C_3  and  O_10 
REMARK    2  A    between atoms: C_6  and  C_7 
ROOT
ATOM      1  C   LIG d   1       6.258   1.282  -3.163  0.00  0.00    -0.048 A 
ATOM      2  C   LIG d   1       7.300   1.026  -4.024  0.00  0.00    -0.018 A 
ATOM      3  C   LIG d   1       7.602  -0.283  -4.384  0.00  0.00     0.131 A 
ATOM      4  C   LIG d   1       6.848  -1.340  -3.881  0.00  0.00     0.060 A 
ATOM      5  C   LIG d   1       5.799  -1.093  -3.024  0.00  0.00    -0.034 A 
ATOM      6  C   LIG d   1       5.493   0.224  -2.659  0.00  0.00     0.015 A 
ATOM      7 BR   LIG d   1       7.265  -3.117  -4.376  0.00  0.00    -0.046 Br
ATOM      8  H   LIG d   1       6.028   2.298  -2.880  0.00  0.00     0.063 H 
ATOM      9  H   LIG d   1       7.888   1.842  -4.417  0.00  0.00     0.065 H 
ATOM     10  H   LIG d   1       5.215  -1.913  -2.633  0.00  0.00     0.064 H 
ENDROOT
BRANCH   6  11
ATOM     11  C   LIG d   1       4.376   0.493  -1.743  0.00  0.00     0.150 C 
ATOM     12  O   LIG d   1       3.530   1.311  -2.042  0.00  0.00    -0.296 OA
ATOM     13  H   LIG d   1       4.308  -0.037  -0.804  0.00  0.00     0.108 H 
ENDBRANCH   6  11
BRANCH   3  14
ATOM     14  O   LIG d   1       8.634  -0.531  -5.229  0.00  0.00    -0.506 OA
ATOM     15  H   LIG d   1       9.134  -1.330  -5.015  0.00  0.00     0.292 HD
ENDBRANCH   3  14
TORSDOF 2
ENDMDL
MODEL 8
REMARK VINA RESULT:      -3.8      2.764      3.491
REMARK  2 active torsions:
REMARK  status: ('A' for Active; 'I' for Inactive)
REMARK    1  A    between atoms: C_3  and  O_10 
REMARK    2  A    between atoms: C_6  and  C_7 
ROOT
ATOM      1  C   LIG d   1       7.387   0.739  -3.960  0.00  0.00    -0.048 A 
ATOM      2  C   LIG d   1       6.375   1.294  -3.212  0.00  0.00    -0.018 A 
ATOM      3  C   LIG d   1       5.341   0.495  -2.734  0.00  0.00     0.131 A 
ATOM      4  C   LIG d   1       5.329  -0.870  -3.006  0.00  0.00     0.060 A 
ATOM      5  C   LIG d   1       6.341  -1.436  -3.747  0.00  0.00    -0.034 A 
ATOM      6  C   LIG d   1       7.383  -0.635  -4.230  0.00  0.00     0.015 A 
ATOM      7 BR   LIG d   1       3.920  -1.950  -2.353  0.00  0.00    -0.046 Br
ATOM      8  H   LIG d   1       8.186   1.361  -4.334  0.00  0.00     0.063 H 
ATOM      9  H   LIG d   1       6.379   2.353  -2.999  0.00  0.00     0.065 H 
ATOM     10  H   LIG d   1       6.331  -2.495  -3.958  0.00  0.00     0.064 H 
ENDROOT
BRANCH   6  11
ATOM     11  C   LIG d   1       8.465  -1.232  -5.023  0.00  0.00     0.150 C 
ATOM     12  O   LIG d   1       9.514  -0.639  -5.163  0.00  0.00    -0.296 OA
ATOM     13  H   LIG d   1       8.327  -2.201  -5.483  0.00  0.00     0.108 H 
ENDBRANCH   6  11
BRANCH   3  14
ATOM     14  O   LIG d   1       4.342   1.048  -2.002  0.00  0.00    -0.506 OA
ATOM     15  H   LIG d   1       4.458   0.959  -1.047  0.00  0.00     0.292 HD
ENDBRANCH   3  14
TORSDOF 2
ENDMDL
MODEL 9
REMARK VINA RESULT:      -3.8      3.210      4.472
REMARK  2 active torsions:
REMARK  status: ('A' for Active; 'I' for Inactive)
REMARK    1  A    between atoms: C_3  and  O_10 
REMARK    2  A    between atoms: C_6  and  C_7 
ROOT
ATOM      1  C   LIG d   1       2.522   0.536  -4.919  0.00  0.00    -0.048 A 
ATOM      2  C   LIG d   1       2.728   0.338  -6.264  0.00  0.00    -0.018 A 
ATOM      3  C   LIG d   1       3.883  -0.296  -6.709  0.00  0.00     0.131 A 
ATOM      4  C   LIG d   1       4.834  -0.740  -5.794  0.00  0.00     0.060 A 
ATOM      5  C   LIG d   1       4.634  -0.552  -4.445  0.00  0.00    -0.034 A 
ATOM      6  C   LIG d   1       3.472   0.086  -3.994  0.00  0.00     0.015 A 
ATOM      7 BR   LIG d   1       6.402  -1.601  -6.406  0.00  0.00    -0.046 Br
ATOM      8  H   LIG d   1       1.627   1.034  -4.575  0.00  0.00     0.063 H 
ATOM      9  H   LIG d   1       1.993   0.681  -6.978  0.00  0.00     0.065 H 
ATOM     10  H   LIG d   1       5.373  -0.896  -3.735  0.00  0.00     0.064 H 
ENDROOT
BRANCH   6  11
ATOM     11  C   LIG d   1       3.255   0.291  -2.556  0.00  0.00     0.150 C 
ATOM     12  O   LIG d   1       3.454   1.380  -2.061  0.00  0.00    -0.296 OA
ATOM     13  H   LIG d   1       2.917  -0.530  -1.939  0.00  0.00     0.108 H 
ENDBRANCH   6  11
BRANCH   3  14
ATOM     14  O   LIG d   1       4.084  -0.484  -8.037  0.00  0.00    -0.506 OA
ATOM     15  H   LIG d   1       4.073  -1.411  -8.309  0.00  0.00     0.292 HD
ENDBRANCH   3  14
TORSDOF 2
ENDMDL
