MODEL 1
REMARK VINA RESULT:      -7.7      0.000      0.000
REMARK  4 active torsions:
REMARK  status: ('A' for Active; 'I' for Inactive)
REMARK    1  A    between atoms: C_12  and  C_15 
REMARK    2  A    between atoms: C_15  and  C_16 
REMARK    3  A    between atoms: C_16  and  C_17 
REMARK    4  A    between atoms: N_22  and  C_25 
ROOT
ATOM      1  C   LIG d   1       5.503   0.019  -2.306  0.00  0.00    -0.061 A 
ATOM      2  C   LIG d   1       4.462   0.848  -1.929  0.00  0.00    -0.060 A 
ATOM      3  C   LIG d   1       3.448   1.142  -2.818  0.00  0.00    -0.040 A 
ATOM      4  C   LIG d   1       3.465   0.605  -4.103  0.00  0.00     0.039 A 
ATOM      5  C   LIG d   1       4.517  -0.229  -4.471  0.00  0.00     0.003 A 
ATOM      6  C   LIG d   1       5.527  -0.519  -3.581  0.00  0.00    -0.055 A 
ATOM      7  C   LIG d   1       4.243  -0.634  -5.891  0.00  0.00     0.136 A 
ATOM      8  C   LIG d   1       5.385  -0.216  -6.825  0.00  0.00     0.080 A 
ATOM      9  H   LIG d   1       5.959   0.624  -6.436  0.00  0.00     0.043 H 
ATOM     10  C   LIG d   1       6.241  -1.503  -6.995  0.00  0.00     0.065 A 
ATOM     11  H   LIG d   1       7.285  -1.356  -6.719  0.00  0.00     0.042 H 
ATOM     12  C   LIG d   1       5.541  -2.564  -6.119  0.00  0.00     0.021 C 
ATOM     13  H   LIG d   1       6.007  -2.612  -5.135  0.00  0.00     0.047 H 
ATOM     14  N   LIG d   1       4.126  -2.098  -6.025  0.00  0.00    -0.295 N 
ATOM     15  C   LIG d   1       6.068  -1.847  -8.456  0.00  0.00     0.232 A 
ATOM     16  O   LIG d   1       6.566  -2.802  -9.014  0.00  0.00    -0.274 OA
ATOM     17  N   LIG d   1       5.280  -0.936  -9.038  0.00  0.00    -0.210 N 
ATOM     18  C   LIG d   1       4.841   0.042  -8.212  0.00  0.00     0.233 A 
ATOM     19  O   LIG d   1       4.128   0.971  -8.522  0.00  0.00    -0.274 OA
ATOM     20  C   LIG d   1       2.956   0.057  -6.253  0.00  0.00     0.243 A 
ATOM     21  O   LIG d   1       2.378  -0.001  -7.319  0.00  0.00    -0.273 OA
ATOM     22  N   LIG d   1       2.570   0.750  -5.164  0.00  0.00    -0.283 N 
ATOM     23  H   LIG d   1       6.297  -0.204  -1.610  0.00  0.00     0.062 H 
ATOM     24  H   LIG d   1       4.443   1.268  -0.935  0.00  0.00     0.062 H 
ATOM     25  H   LIG d   1       2.639   1.790  -2.516  0.00  0.00     0.064 H 
ATOM     26  H   LIG d   1       6.337  -1.168  -3.877  0.00  0.00     0.062 H 
ATOM     27  H   LIG d   1       3.670  -2.498  -5.218  0.00  0.00     0.123 HD
ATOM     28  H   LIG d   1       1.764   1.288  -5.124  0.00  0.00     0.155 HD
ENDROOT
BRANCH  12  29
ATOM     29  C   LIG d   1       5.592  -3.933  -6.798  0.00  0.00    -0.032 C 
ATOM     30  H   LIG d   1       4.672  -4.095  -7.360  0.00  0.00     0.028 H 
ATOM     31  H   LIG d   1       6.444  -3.971  -7.477  0.00  0.00     0.028 H 
BRANCH  29  32
ATOM     32  C   LIG d   1       5.738  -5.025  -5.736  0.00  0.00    -0.012 C 
ATOM     33  H   LIG d   1       6.570  -5.679  -6.000  0.00  0.00     0.033 H 
ATOM     34  H   LIG d   1       5.931  -4.565  -4.767  0.00  0.00     0.033 H 
BRANCH  32  35
ATOM     35  C   LIG d   1       4.468  -5.832  -5.666  0.00  0.00     0.042 C 
ATOM     36  O   LIG d   1       3.410  -5.336  -6.012  0.00  0.00    -0.550 OA
ATOM     37  O   LIG d   1       4.498  -6.983  -5.265  0.00  0.00    -0.550 OA
ENDBRANCH  32  35
ENDBRANCH  29  32
ENDBRANCH  12  29
BRANCH  17  38
ATOM     38  C   LIG d   1       4.939  -0.984 -10.397  0.00  0.00     0.044 A 
ATOM     39  C   LIG d   1       5.854  -0.575 -11.358  0.00  0.00    -0.039 A 
ATOM     40  C   LIG d   1       5.518  -0.629 -12.697  0.00  0.00    -0.046 A 
ATOM     41  H   LIG d   1       6.829  -0.218 -11.059  0.00  0.00     0.064 H 
ATOM     42  C   LIG d   1       4.267  -1.079 -13.080  0.00  0.00     0.018 A 
ATOM     43  H   LIG d   1       6.230  -0.315 -13.445  0.00  0.00     0.063 H 
ATOM     44  C   LIG d   1       3.352  -1.483 -12.124  0.00  0.00    -0.046 A 
ATOM     45 BR   LIG d   1       3.808  -1.146 -14.912  0.00  0.00    -0.050 Br
ATOM     46  C   LIG d   1       3.685  -1.436 -10.784  0.00  0.00    -0.039 A 
ATOM     47  H   LIG d   1       2.377  -1.835 -12.424  0.00  0.00     0.063 H 
ATOM     48  H   LIG d   1       2.971  -1.752 -10.038  0.00  0.00     0.064 H 
ENDBRANCH  17  38
TORSDOF 4
ENDMDL
MODEL 2
REMARK VINA RESULT:      -7.3      3.975      6.925
REMARK  4 active torsions:
REMARK  status: ('A' for Active; 'I' for Inactive)
REMARK    1  A    between atoms: C_12  and  C_15 
REMARK    2  A    between atoms: C_15  and  C_16 
REMARK    3  A    between atoms: C_16  and  C_17 
REMARK    4  A    between atoms: N_22  and  C_25 
ROOT
ATOM      1  C   LIG d   1       2.423   0.929  -8.690  0.00  0.00    -0.061 A 
ATOM      2  C   LIG d   1       2.139   0.208  -9.836  0.00  0.00    -0.060 A 
ATOM      3  C   LIG d   1       2.652  -1.062 -10.005  0.00  0.00    -0.040 A 
ATOM      4  C   LIG d   1       3.461  -1.627  -9.022  0.00  0.00     0.039 A 
ATOM      5  C   LIG d   1       3.739  -0.893  -7.873  0.00  0.00     0.003 A 
ATOM      6  C   LIG d   1       3.225   0.374  -7.709  0.00  0.00    -0.055 A 
ATOM      7  C   LIG d   1       4.619  -1.769  -7.029  0.00  0.00     0.136 A 
ATOM      8  C   LIG d   1       5.969  -1.100  -6.741  0.00  0.00     0.080 A 
ATOM      9  H   LIG d   1       6.236  -0.356  -7.491  0.00  0.00     0.043 H 
ATOM     10  C   LIG d   1       5.809  -0.492  -5.320  0.00  0.00     0.065 A 
ATOM     11  H   LIG d   1       6.011   0.579  -5.293  0.00  0.00     0.042 H 
ATOM     12  C   LIG d   1       4.362  -0.833  -4.902  0.00  0.00     0.021 C 
ATOM     13  H   LIG d   1       3.696   0.001  -5.128  0.00  0.00     0.047 H 
ATOM     14  N   LIG d   1       4.013  -2.038  -5.711  0.00  0.00    -0.295 N 
ATOM     15  C   LIG d   1       6.785  -1.290  -4.487  0.00  0.00     0.232 A 
ATOM     16  O   LIG d   1       6.973  -1.144  -3.297  0.00  0.00    -0.274 OA
ATOM     17  N   LIG d   1       7.410  -2.181  -5.264  0.00  0.00    -0.210 N 
ATOM     18  C   LIG d   1       7.035  -2.158  -6.564  0.00  0.00     0.233 A 
ATOM     19  O   LIG d   1       7.471  -2.866  -7.446  0.00  0.00    -0.274 OA
ATOM     20  C   LIG d   1       4.790  -3.034  -7.824  0.00  0.00     0.243 A 
ATOM     21  O   LIG d   1       5.436  -4.010  -7.502  0.00  0.00    -0.273 OA
ATOM     22  N   LIG d   1       4.087  -2.874  -8.962  0.00  0.00    -0.283 N 
ATOM     23  H   LIG d   1       2.024   1.924  -8.565  0.00  0.00     0.062 H 
ATOM     24  H   LIG d   1       1.513   0.641 -10.602  0.00  0.00     0.062 H 
ATOM     25  H   LIG d   1       2.426  -1.618 -10.902  0.00  0.00     0.064 H 
ATOM     26  H   LIG d   1       3.447   0.934  -6.813  0.00  0.00     0.062 H 
ATOM     27  H   LIG d   1       3.011  -2.138  -5.789  0.00  0.00     0.123 HD
ATOM     28  H   LIG d   1       4.024  -3.546  -9.658  0.00  0.00     0.155 HD
ENDROOT
BRANCH  12  29
ATOM     29  C   LIG d   1       4.303  -1.173  -3.413  0.00  0.00    -0.032 C 
ATOM     30  H   LIG d   1       3.923  -2.186  -3.285  0.00  0.00     0.028 H 
ATOM     31  H   LIG d   1       5.304  -1.103  -2.985  0.00  0.00     0.028 H 
BRANCH  29  32
ATOM     32  C   LIG d   1       3.374  -0.187  -2.701  0.00  0.00    -0.012 C 
ATOM     33  H   LIG d   1       2.485  -0.021  -3.310  0.00  0.00     0.033 H 
ATOM     34  H   LIG d   1       3.081  -0.598  -1.735  0.00  0.00     0.033 H 
BRANCH  32  35
ATOM     35  C   LIG d   1       4.092   1.121  -2.494  0.00  0.00     0.042 C 
ATOM     36  O   LIG d   1       4.967   1.210  -1.649  0.00  0.00    -0.550 OA
ATOM     37  O   LIG d   1       3.801   2.091  -3.172  0.00  0.00    -0.550 OA
ENDBRANCH  32  35
ENDBRANCH  29  32
ENDBRANCH  12  29
BRANCH  17  38
ATOM     38  C   LIG d   1       8.381  -3.066  -4.776  0.00  0.00     0.044 A 
ATOM     39  C   LIG d   1       8.025  -4.356  -4.408  0.00  0.00    -0.039 A 
ATOM     40  C   LIG d   1       8.985  -5.228  -3.933  0.00  0.00    -0.046 A 
ATOM     41  H   LIG d   1       6.997  -4.679  -4.496  0.00  0.00     0.064 H 
ATOM     42  C   LIG d   1      10.299  -4.812  -3.813  0.00  0.00     0.018 A 
ATOM     43  H   LIG d   1       8.709  -6.232  -3.650  0.00  0.00     0.063 H 
ATOM     44  C   LIG d   1      10.656  -3.526  -4.174  0.00  0.00    -0.046 A 
ATOM     45 BR   LIG d   1      11.610  -6.006  -3.156  0.00  0.00    -0.050 Br
ATOM     46  C   LIG d   1       9.701  -2.651  -4.655  0.00  0.00    -0.039 A 
ATOM     47  H   LIG d   1      11.683  -3.203  -4.081  0.00  0.00     0.063 H 
ATOM     48  H   LIG d   1       9.980  -1.647  -4.938  0.00  0.00     0.064 H 
ENDBRANCH  17  38
TORSDOF 4
ENDMDL
MODEL 3
REMARK VINA RESULT:      -7.2      2.583      4.369
REMARK  4 active torsions:
REMARK  status: ('A' for Active; 'I' for Inactive)
REMARK    1  A    between atoms: C_12  and  C_15 
REMARK    2  A    between atoms: C_15  and  C_16 
REMARK    3  A    between atoms: C_16  and  C_17 
REMARK    4  A    between atoms: N_22  and  C_25 
ROOT
ATOM      1  C   LIG d   1       3.056  -0.771  -2.917  0.00  0.00    -0.061 A 
ATOM      2  C   LIG d   1       4.121  -0.498  -2.076  0.00  0.00    -0.060 A 
ATOM      3  C   LIG d   1       5.371  -0.235  -2.597  0.00  0.00    -0.040 A 
ATOM      4  C   LIG d   1       5.570  -0.242  -3.976  0.00  0.00     0.039 A 
ATOM      5  C   LIG d   1       4.492  -0.516  -4.812  0.00  0.00     0.003 A 
ATOM      6  C   LIG d   1       3.247  -0.779  -4.287  0.00  0.00    -0.055 A 
ATOM      7  C   LIG d   1       5.031  -0.447  -6.212  0.00  0.00     0.136 A 
ATOM      8  C   LIG d   1       4.835  -1.773  -6.956  0.00  0.00     0.080 A 
ATOM      9  H   LIG d   1       4.751  -2.625  -6.281  0.00  0.00     0.043 H 
ATOM     10  C   LIG d   1       3.556  -1.556  -7.813  0.00  0.00     0.065 A 
ATOM     11  H   LIG d   1       2.786  -2.302  -7.620  0.00  0.00     0.042 H 
ATOM     12  C   LIG d   1       3.091  -0.123  -7.476  0.00  0.00     0.021 C 
ATOM     13  H   LIG d   1       2.333  -0.145  -6.693  0.00  0.00     0.047 H 
ATOM     14  N   LIG d   1       4.328   0.573  -7.013  0.00  0.00    -0.295 N 
ATOM     15  C   LIG d   1       4.074  -1.608  -9.232  0.00  0.00     0.232 A 
ATOM     16  O   LIG d   1       3.398  -1.471 -10.229  0.00  0.00    -0.274 OA
ATOM     17  N   LIG d   1       5.393  -1.828  -9.217  0.00  0.00    -0.210 N 
ATOM     18  C   LIG d   1       5.933  -1.949  -7.982  0.00  0.00     0.233 A 
ATOM     19  O   LIG d   1       7.099  -2.159  -7.729  0.00  0.00    -0.274 OA
ATOM     20  C   LIG d   1       6.489  -0.114  -6.055  0.00  0.00     0.243 A 
ATOM     21  O   LIG d   1       7.299   0.033  -6.947  0.00  0.00    -0.273 OA
ATOM     22  N   LIG d   1       6.721  -0.009  -4.732  0.00  0.00    -0.283 N 
ATOM     23  H   LIG d   1       2.081  -0.982  -2.504  0.00  0.00     0.062 H 
ATOM     24  H   LIG d   1       3.972  -0.492  -1.007  0.00  0.00     0.062 H 
ATOM     25  H   LIG d   1       6.196  -0.023  -1.934  0.00  0.00     0.064 H 
ATOM     26  H   LIG d   1       2.417  -0.990  -4.946  0.00  0.00     0.062 H 
ATOM     27  H   LIG d   1       4.096   1.377  -6.449  0.00  0.00     0.123 HD
ATOM     28  H   LIG d   1       7.587   0.203  -4.350  0.00  0.00     0.155 HD
ENDROOT
BRANCH  12  29
ATOM     29  C   LIG d   1       2.544   0.567  -8.726  0.00  0.00    -0.032 C 
ATOM     30  H   LIG d   1       2.864   0.020  -9.613  0.00  0.00     0.028 H 
ATOM     31  H   LIG d   1       1.455   0.587  -8.683  0.00  0.00     0.028 H 
BRANCH  29  32
ATOM     32  C   LIG d   1       3.077   2.000  -8.793  0.00  0.00    -0.012 C 
ATOM     33  H   LIG d   1       2.287   2.665  -9.142  0.00  0.00     0.033 H 
ATOM     34  H   LIG d   1       3.403   2.313  -7.801  0.00  0.00     0.033 H 
BRANCH  32  35
ATOM     35  C   LIG d   1       4.241   2.060  -9.747  0.00  0.00     0.042 C 
ATOM     36  O   LIG d   1       5.319   2.486  -9.369  0.00  0.00    -0.550 OA
ATOM     37  O   LIG d   1       4.107   1.681 -10.898  0.00  0.00    -0.550 OA
ENDBRANCH  32  35
ENDBRANCH  29  32
ENDBRANCH  12  29
BRANCH  17  38
ATOM     38  C   LIG d   1       6.159  -1.933 -10.387  0.00  0.00     0.044 A 
ATOM     39  C   LIG d   1       6.734  -0.800 -10.946  0.00  0.00    -0.039 A 
ATOM     40  C   LIG d   1       7.493  -0.907 -12.094  0.00  0.00    -0.046 A 
ATOM     41  H   LIG d   1       6.591   0.165 -10.479  0.00  0.00     0.064 H 
ATOM     42  C   LIG d   1       7.670  -2.140 -12.696  0.00  0.00     0.018 A 
ATOM     43  H   LIG d   1       7.944  -0.026 -12.527  0.00  0.00     0.063 H 
ATOM     44  C   LIG d   1       7.094  -3.270 -12.144  0.00  0.00    -0.046 A 
ATOM     45 BR   LIG d   1       8.705  -2.282 -14.272  0.00  0.00    -0.050 Br
ATOM     46  C   LIG d   1       6.338  -3.170 -10.992  0.00  0.00    -0.039 A 
ATOM     47  H   LIG d   1       7.234  -4.232 -12.614  0.00  0.00     0.063 H 
ATOM     48  H   LIG d   1       5.889  -4.052 -10.561  0.00  0.00     0.064 H 
ENDBRANCH  17  38
TORSDOF 4
ENDMDL
MODEL 4
REMARK VINA RESULT:      -7.1      3.301      6.525
REMARK  4 active torsions:
REMARK  status: ('A' for Active; 'I' for Inactive)
REMARK    1  A    between atoms: C_12  and  C_15 
REMARK    2  A    between atoms: C_15  and  C_16 
REMARK    3  A    between atoms: C_16  and  C_17 
REMARK    4  A    between atoms: N_22  and  C_25 
ROOT
ATOM      1  C   LIG d   1       4.516   2.149  -9.253  0.00  0.00    -0.061 A 
ATOM      2  C   LIG d   1       3.863   1.913 -10.450  0.00  0.00    -0.060 A 
ATOM      3  C   LIG d   1       3.387   0.653 -10.747  0.00  0.00    -0.040 A 
ATOM      4  C   LIG d   1       3.560  -0.393  -9.844  0.00  0.00     0.039 A 
ATOM      5  C   LIG d   1       4.218  -0.144  -8.642  0.00  0.00     0.003 A 
ATOM      6  C   LIG d   1       4.691   1.116  -8.350  0.00  0.00    -0.055 A 
ATOM      7  C   LIG d   1       4.238  -1.453  -7.906  0.00  0.00     0.136 A 
ATOM      8  C   LIG d   1       5.672  -1.903  -7.601  0.00  0.00     0.080 A 
ATOM      9  H   LIG d   1       6.401  -1.477  -8.288  0.00  0.00     0.043 H 
ATOM     10  C   LIG d   1       5.910  -1.473  -6.126  0.00  0.00     0.065 A 
ATOM     11  H   LIG d   1       6.783  -0.830  -6.009  0.00  0.00     0.042 H 
ATOM     12  C   LIG d   1       4.600  -0.778  -5.698  0.00  0.00     0.021 C 
ATOM     13  H   LIG d   1       4.684   0.302  -5.828  0.00  0.00     0.047 H 
ATOM     14  N   LIG d   1       3.559  -1.352  -6.601  0.00  0.00    -0.295 N 
ATOM     15  C   LIG d   1       6.055  -2.789  -5.397  0.00  0.00     0.232 A 
ATOM     16  O   LIG d   1       6.245  -2.912  -4.206  0.00  0.00    -0.274 OA
ATOM     17  N   LIG d   1       5.941  -3.796  -6.270  0.00  0.00    -0.210 N 
ATOM     18  C   LIG d   1       5.731  -3.414  -7.551  0.00  0.00     0.233 A 
ATOM     19  O   LIG d   1       5.608  -4.150  -8.505  0.00  0.00    -0.274 OA
ATOM     20  C   LIG d   1       3.538  -2.424  -8.817  0.00  0.00     0.243 A 
ATOM     21  O   LIG d   1       3.339  -3.602  -8.603  0.00  0.00    -0.273 OA
ATOM     22  N   LIG d   1       3.174  -1.733  -9.914  0.00  0.00    -0.283 N 
ATOM     23  H   LIG d   1       4.892   3.135  -9.027  0.00  0.00     0.062 H 
ATOM     24  H   LIG d   1       3.726   2.719 -11.155  0.00  0.00     0.062 H 
ATOM     25  H   LIG d   1       2.879   0.477 -11.684  0.00  0.00     0.064 H 
ATOM     26  H   LIG d   1       5.199   1.297  -7.414  0.00  0.00     0.062 H 
ATOM     27  H   LIG d   1       2.758  -0.740  -6.658  0.00  0.00     0.123 HD
ATOM     28  H   LIG d   1       2.700  -2.122 -10.665  0.00  0.00     0.155 HD
ENDROOT
BRANCH  12  29
ATOM     29  C   LIG d   1       4.269  -1.115  -4.244  0.00  0.00    -0.032 C 
ATOM     30  H   LIG d   1       3.979  -2.163  -4.170  0.00  0.00     0.028 H 
ATOM     31  H   LIG d   1       5.145  -0.934  -3.620  0.00  0.00     0.028 H 
BRANCH  29  32
ATOM     32  C   LIG d   1       3.114  -0.232  -3.766  0.00  0.00    -0.012 C 
ATOM     33  H   LIG d   1       2.579   0.165  -4.629  0.00  0.00     0.033 H 
ATOM     34  H   LIG d   1       2.431  -0.825  -3.157  0.00  0.00     0.033 H 
BRANCH  32  35
ATOM     35  C   LIG d   1       3.658   0.908  -2.945  0.00  0.00     0.042 C 
ATOM     36  O   LIG d   1       4.141   0.692  -1.846  0.00  0.00    -0.550 OA
ATOM     37  O   LIG d   1       3.618   2.046  -3.379  0.00  0.00    -0.550 OA
ENDBRANCH  32  35
ENDBRANCH  29  32
ENDBRANCH  12  29
BRANCH  17  38
ATOM     38  C   LIG d   1       6.037  -5.143  -5.892  0.00  0.00     0.044 A 
ATOM     39  C   LIG d   1       4.887  -5.897  -5.705  0.00  0.00    -0.039 A 
ATOM     40  C   LIG d   1       4.984  -7.225  -5.339  0.00  0.00    -0.046 A 
ATOM     41  H   LIG d   1       3.915  -5.445  -5.850  0.00  0.00     0.064 H 
ATOM     42  C   LIG d   1       6.226  -7.801  -5.147  0.00  0.00     0.018 A 
ATOM     43  H   LIG d   1       4.089  -7.812  -5.197  0.00  0.00     0.063 H 
ATOM     44  C   LIG d   1       7.375  -7.051  -5.328  0.00  0.00    -0.046 A 
ATOM     45 BR   LIG d   1       6.356  -9.618  -4.640  0.00  0.00    -0.050 Br
ATOM     46  C   LIG d   1       7.283  -5.724  -5.699  0.00  0.00    -0.039 A 
ATOM     47  H   LIG d   1       8.344  -7.503  -5.179  0.00  0.00     0.063 H 
ATOM     48  H   LIG d   1       8.180  -5.139  -5.841  0.00  0.00     0.064 H 
ENDBRANCH  17  38
TORSDOF 4
ENDMDL
MODEL 5
REMARK VINA RESULT:      -7.1      3.569      5.815
REMARK  4 active torsions:
REMARK  status: ('A' for Active; 'I' for Inactive)
REMARK    1  A    between atoms: C_12  and  C_15 
REMARK    2  A    between atoms: C_15  and  C_16 
REMARK    3  A    between atoms: C_16  and  C_17 
REMARK    4  A    between atoms: N_22  and  C_25 
ROOT
ATOM      1  C   LIG d   1       8.651   2.569  -3.772  0.00  0.00    -0.061 A 
ATOM      2  C   LIG d   1       9.367   3.071  -4.844  0.00  0.00    -0.060 A 
ATOM      3  C   LIG d   1       9.243   2.501  -6.094  0.00  0.00    -0.040 A 
ATOM      4  C   LIG d   1       8.395   1.413  -6.287  0.00  0.00     0.039 A 
ATOM      5  C   LIG d   1       7.679   0.916  -5.202  0.00  0.00     0.003 A 
ATOM      6  C   LIG d   1       7.806   1.489  -3.956  0.00  0.00    -0.055 A 
ATOM      7  C   LIG d   1       6.873  -0.234  -5.734  0.00  0.00     0.136 A 
ATOM      8  C   LIG d   1       7.210  -1.541  -5.006  0.00  0.00     0.080 A 
ATOM      9  H   LIG d   1       8.206  -1.531  -4.565  0.00  0.00     0.043 H 
ATOM     10  C   LIG d   1       6.083  -1.700  -3.947  0.00  0.00     0.065 A 
ATOM     11  H   LIG d   1       6.468  -1.798  -2.932  0.00  0.00     0.042 H 
ATOM     12  C   LIG d   1       5.192  -0.452  -4.124  0.00  0.00     0.021 C 
ATOM     13  H   LIG d   1       5.485   0.327  -3.419  0.00  0.00     0.047 H 
ATOM     14  N   LIG d   1       5.427  -0.021  -5.534  0.00  0.00    -0.295 N 
ATOM     15  C   LIG d   1       5.341  -2.932  -4.409  0.00  0.00     0.232 A 
ATOM     16  O   LIG d   1       4.368  -3.409  -3.864  0.00  0.00    -0.274 OA
ATOM     17  N   LIG d   1       5.922  -3.414  -5.513  0.00  0.00    -0.210 N 
ATOM     18  C   LIG d   1       6.998  -2.713  -5.939  0.00  0.00     0.233 A 
ATOM     19  O   LIG d   1       7.681  -2.970  -6.906  0.00  0.00    -0.274 OA
ATOM     20  C   LIG d   1       7.221  -0.312  -7.195  0.00  0.00     0.243 A 
ATOM     21  O   LIG d   1       6.788  -1.110  -8.001  0.00  0.00    -0.273 OA
ATOM     22  N   LIG d   1       8.104   0.676  -7.436  0.00  0.00    -0.283 N 
ATOM     23  H   LIG d   1       8.755   3.015  -2.795  0.00  0.00     0.062 H 
ATOM     24  H   LIG d   1      10.027   3.914  -4.701  0.00  0.00     0.062 H 
ATOM     25  H   LIG d   1       9.806   2.899  -6.925  0.00  0.00     0.064 H 
ATOM     26  H   LIG d   1       7.244   1.095  -3.122  0.00  0.00     0.062 H 
ATOM     27  H   LIG d   1       5.186   0.951  -5.656  0.00  0.00     0.123 HD
ATOM     28  H   LIG d   1       8.493   0.853  -8.307  0.00  0.00     0.155 HD
ENDROOT
BRANCH  12  29
ATOM     29  C   LIG d   1       3.720  -0.817  -3.932  0.00  0.00    -0.032 C 
ATOM     30  H   LIG d   1       3.134  -0.413  -4.757  0.00  0.00     0.028 H 
ATOM     31  H   LIG d   1       3.615  -1.903  -3.908  0.00  0.00     0.028 H 
BRANCH  29  32
ATOM     32  C   LIG d   1       3.216  -0.228  -2.613  0.00  0.00    -0.012 C 
ATOM     33  H   LIG d   1       2.133  -0.109  -2.658  0.00  0.00     0.033 H 
ATOM     34  H   LIG d   1       3.474  -0.898  -1.793  0.00  0.00     0.033 H 
BRANCH  32  35
ATOM     35  C   LIG d   1       3.859   1.116  -2.385  0.00  0.00     0.042 C 
ATOM     36  O   LIG d   1       4.640   1.270  -1.461  0.00  0.00    -0.550 OA
ATOM     37  O   LIG d   1       3.600   2.050  -3.124  0.00  0.00    -0.550 OA
ENDBRANCH  32  35
ENDBRANCH  29  32
ENDBRANCH  12  29
BRANCH  17  38
ATOM     38  C   LIG d   1       5.460  -4.560  -6.175  0.00  0.00     0.044 A 
ATOM     39  C   LIG d   1       4.503  -4.448  -7.175  0.00  0.00    -0.039 A 
ATOM     40  C   LIG d   1       4.054  -5.577  -7.831  0.00  0.00    -0.046 A 
ATOM     41  H   LIG d   1       4.113  -3.476  -7.443  0.00  0.00     0.064 H 
ATOM     42  C   LIG d   1       4.548  -6.822  -7.484  0.00  0.00     0.018 A 
ATOM     43  H   LIG d   1       3.313  -5.490  -8.611  0.00  0.00     0.063 H 
ATOM     44  C   LIG d   1       5.498  -6.938  -6.485  0.00  0.00    -0.046 A 
ATOM     45 BR   LIG d   1       3.927  -8.367  -8.379  0.00  0.00    -0.050 Br
ATOM     46  C   LIG d   1       5.954  -5.810  -5.830  0.00  0.00    -0.039 A 
ATOM     47  H   LIG d   1       5.883  -7.910  -6.216  0.00  0.00     0.063 H 
ATOM     48  H   LIG d   1       6.696  -5.901  -5.050  0.00  0.00     0.064 H 
ENDBRANCH  17  38
TORSDOF 4
ENDMDL
MODEL 6
REMARK VINA RESULT:      -6.5      4.387      7.063
REMARK  4 active torsions:
REMARK  status: ('A' for Active; 'I' for Inactive)
REMARK    1  A    between atoms: C_12  and  C_15 
REMARK    2  A    between atoms: C_15  and  C_16 
REMARK    3  A    between atoms: C_16  and  C_17 
REMARK    4  A    between atoms: N_22  and  C_25 
ROOT
ATOM      1  C   LIG d   1       4.378   1.839  -9.796  0.00  0.00    -0.061 A 
ATOM      2  C   LIG d   1       3.036   1.609  -9.553  0.00  0.00    -0.060 A 
ATOM      3  C   LIG d   1       2.645   0.808  -8.500  0.00  0.00    -0.040 A 
ATOM      4  C   LIG d   1       3.601   0.225  -7.671  0.00  0.00     0.039 A 
ATOM      5  C   LIG d   1       4.948   0.464  -7.924  0.00  0.00     0.003 A 
ATOM      6  C   LIG d   1       5.333   1.264  -8.976  0.00  0.00    -0.055 A 
ATOM      7  C   LIG d   1       5.704  -0.294  -6.870  0.00  0.00     0.136 A 
ATOM      8  C   LIG d   1       6.659  -1.320  -7.492  0.00  0.00     0.080 A 
ATOM      9  H   LIG d   1       6.349  -1.631  -8.489  0.00  0.00     0.043 H 
ATOM     10  C   LIG d   1       8.046  -0.619  -7.484  0.00  0.00     0.065 A 
ATOM     11  H   LIG d   1       8.500  -0.568  -8.473  0.00  0.00     0.042 H 
ATOM     12  C   LIG d   1       7.782   0.777  -6.880  0.00  0.00     0.021 C 
ATOM     13  H   LIG d   1       7.628   1.510  -7.673  0.00  0.00     0.047 H 
ATOM     14  N   LIG d   1       6.548   0.602  -6.058  0.00  0.00    -0.295 N 
ATOM     15  C   LIG d   1       8.853  -1.453  -6.515  0.00  0.00     0.232 A 
ATOM     16  O   LIG d   1      10.006  -1.244  -6.203  0.00  0.00    -0.274 OA
ATOM     17  N   LIG d   1       8.097  -2.457  -6.055  0.00  0.00    -0.210 N 
ATOM     18  C   LIG d   1       6.837  -2.488  -6.547  0.00  0.00     0.233 A 
ATOM     19  O   LIG d   1       5.986  -3.308  -6.280  0.00  0.00    -0.274 OA
ATOM     20  C   LIG d   1       4.647  -0.961  -6.034  0.00  0.00     0.243 A 
ATOM     21  O   LIG d   1       4.830  -1.677  -5.071  0.00  0.00    -0.273 OA
ATOM     22  N   LIG d   1       3.458  -0.609  -6.560  0.00  0.00    -0.283 N 
ATOM     23  H   LIG d   1       4.679   2.462 -10.624  0.00  0.00     0.062 H 
ATOM     24  H   LIG d   1       2.290   2.058 -10.192  0.00  0.00     0.062 H 
ATOM     25  H   LIG d   1       1.595   0.633  -8.318  0.00  0.00     0.064 H 
ATOM     26  H   LIG d   1       6.382   1.443  -9.162  0.00  0.00     0.062 H 
ATOM     27  H   LIG d   1       6.091   1.490  -5.907  0.00  0.00     0.123 HD
ATOM     28  H   LIG d   1       2.603  -0.902  -6.208  0.00  0.00     0.155 HD
ENDROOT
BRANCH  12  29
ATOM     29  C   LIG d   1       8.947   1.199  -5.985  0.00  0.00    -0.032 C 
ATOM     30  H   LIG d   1       9.098   0.451  -5.207  0.00  0.00     0.028 H 
ATOM     31  H   LIG d   1       9.853   1.288  -6.585  0.00  0.00     0.028 H 
BRANCH  29  32
ATOM     32  C   LIG d   1       8.631   2.550  -5.339  0.00  0.00    -0.012 C 
ATOM     33  H   LIG d   1       9.447   3.246  -5.535  0.00  0.00     0.033 H 
ATOM     34  H   LIG d   1       7.706   2.946  -5.758  0.00  0.00     0.033 H 
BRANCH  32  35
ATOM     35  C   LIG d   1       8.471   2.370  -3.851  0.00  0.00     0.042 C 
ATOM     36  O   LIG d   1       9.308   2.823  -3.089  0.00  0.00    -0.550 OA
ATOM     37  O   LIG d   1       7.505   1.773  -3.409  0.00  0.00    -0.550 OA
ENDBRANCH  32  35
ENDBRANCH  29  32
ENDBRANCH  12  29
BRANCH  17  38
ATOM     38  C   LIG d   1       8.572  -3.407  -5.140  0.00  0.00     0.044 A 
ATOM     39  C   LIG d   1       8.553  -3.133  -3.780  0.00  0.00    -0.039 A 
ATOM     40  C   LIG d   1       9.016  -4.073  -2.880  0.00  0.00    -0.046 A 
ATOM     41  H   LIG d   1       8.173  -2.185  -3.424  0.00  0.00     0.064 H 
ATOM     42  C   LIG d   1       9.509  -5.283  -3.334  0.00  0.00     0.018 A 
ATOM     43  H   LIG d   1       8.997  -3.862  -1.821  0.00  0.00     0.063 H 
ATOM     44  C   LIG d   1       9.534  -5.557  -4.690  0.00  0.00    -0.046 A 
ATOM     45 BR   LIG d   1      10.147  -6.565  -2.101  0.00  0.00    -0.050 Br
ATOM     46  C   LIG d   1       9.067  -4.622  -5.594  0.00  0.00    -0.039 A 
ATOM     47  H   LIG d   1       9.919  -6.502  -5.043  0.00  0.00     0.063 H 
ATOM     48  H   LIG d   1       9.087  -4.836  -6.652  0.00  0.00     0.064 H 
ENDBRANCH  17  38
TORSDOF 4
ENDMDL
MODEL 7
REMARK VINA RESULT:      -6.5      4.519      6.171
REMARK  4 active torsions:
REMARK  status: ('A' for Active; 'I' for Inactive)
REMARK    1  A    between atoms: C_12  and  C_15 
REMARK    2  A    between atoms: C_15  and  C_16 
REMARK    3  A    between atoms: C_16  and  C_17 
REMARK    4  A    between atoms: N_22  and  C_25 
ROOT
ATOM      1  C   LIG d   1       4.232  -2.715  -3.298  0.00  0.00    -0.061 A 
ATOM      2  C   LIG d   1       3.889  -2.011  -2.158  0.00  0.00    -0.060 A 
ATOM      3  C   LIG d   1       4.400  -0.749  -1.937  0.00  0.00    -0.040 A 
ATOM      4  C   LIG d   1       5.267  -0.173  -2.863  0.00  0.00     0.039 A 
ATOM      5  C   LIG d   1       5.604  -0.889  -4.008  0.00  0.00     0.003 A 
ATOM      6  C   LIG d   1       5.092  -2.149  -4.223  0.00  0.00    -0.055 A 
ATOM      7  C   LIG d   1       6.536  -0.005  -4.786  0.00  0.00     0.136 A 
ATOM      8  C   LIG d   1       7.895  -0.680  -5.009  0.00  0.00     0.080 A 
ATOM      9  H   LIG d   1       8.115  -1.439  -4.259  0.00  0.00     0.043 H 
ATOM     10  C   LIG d   1       7.811  -1.262  -6.448  0.00  0.00     0.065 A 
ATOM     11  H   LIG d   1       8.006  -2.333  -6.483  0.00  0.00     0.042 H 
ATOM     12  C   LIG d   1       6.392  -0.902  -6.940  0.00  0.00     0.021 C 
ATOM     13  H   LIG d   1       5.709  -1.734  -6.767  0.00  0.00     0.047 H 
ATOM     14  N   LIG d   1       6.007   0.292  -6.130  0.00  0.00    -0.295 N 
ATOM     15  C   LIG d   1       8.838  -0.457  -7.211  0.00  0.00     0.232 A 
ATOM     16  O   LIG d   1       9.091  -0.583  -8.390  0.00  0.00    -0.274 OA
ATOM     17  N   LIG d   1       9.424   0.415  -6.384  0.00  0.00    -0.210 N 
ATOM     18  C   LIG d   1       8.977   0.373  -5.107  0.00  0.00     0.233 A 
ATOM     19  O   LIG d   1       9.368   1.061  -4.190  0.00  0.00    -0.274 OA
ATOM     20  C   LIG d   1       6.672   1.244  -3.959  0.00  0.00     0.243 A 
ATOM     21  O   LIG d   1       7.341   2.221  -4.227  0.00  0.00    -0.273 OA
ATOM     22  N   LIG d   1       5.905   1.070  -2.866  0.00  0.00    -0.283 N 
ATOM     23  H   LIG d   1       3.834  -3.704  -3.464  0.00  0.00     0.062 H 
ATOM     24  H   LIG d   1       3.218  -2.452  -1.436  0.00  0.00     0.062 H 
ATOM     25  H   LIG d   1       4.128  -0.206  -1.044  0.00  0.00     0.064 H 
ATOM     26  H   LIG d   1       5.360  -2.695  -5.115  0.00  0.00     0.062 H 
ATOM     27  H   LIG d   1       5.003   0.399  -6.106  0.00  0.00     0.123 HD
ATOM     28  H   LIG d   1       5.808   1.730  -2.162  0.00  0.00     0.155 HD
ENDROOT
BRANCH  12  29
ATOM     29  C   LIG d   1       6.420  -0.536  -8.424  0.00  0.00    -0.032 C 
ATOM     30  H   LIG d   1       6.930   0.419  -8.554  0.00  0.00     0.028 H 
ATOM     31  H   LIG d   1       6.949  -1.310  -8.979  0.00  0.00     0.028 H 
BRANCH  29  32
ATOM     32  C   LIG d   1       4.987  -0.423  -8.948  0.00  0.00    -0.012 C 
ATOM     33  H   LIG d   1       4.882  -1.023  -9.852  0.00  0.00     0.033 H 
ATOM     34  H   LIG d   1       4.292  -0.784  -8.189  0.00  0.00     0.033 H 
BRANCH  32  35
ATOM     35  C   LIG d   1       4.679   1.018  -9.265  0.00  0.00     0.042 C 
ATOM     36  O   LIG d   1       4.728   1.413 -10.418  0.00  0.00    -0.550 OA
ATOM     37  O   LIG d   1       4.381   1.790  -8.370  0.00  0.00    -0.550 OA
ENDBRANCH  32  35
ENDBRANCH  29  32
ENDBRANCH  12  29
BRANCH  17  38
ATOM     38  C   LIG d   1      10.428   1.300  -6.801  0.00  0.00     0.044 A 
ATOM     39  C   LIG d   1      11.763   0.927  -6.720  0.00  0.00    -0.039 A 
ATOM     40  C   LIG d   1      12.750   1.798  -7.137  0.00  0.00    -0.046 A 
ATOM     41  H   LIG d   1      12.029  -0.047  -6.334  0.00  0.00     0.064 H 
ATOM     42  C   LIG d   1      12.410   3.047  -7.625  0.00  0.00     0.018 A 
ATOM     43  H   LIG d   1      13.787   1.506  -7.078  0.00  0.00     0.063 H 
ATOM     44  C   LIG d   1      11.081   3.424  -7.702  0.00  0.00    -0.046 A 
ATOM     45 BR   LIG d   1      13.763   4.240  -8.190  0.00  0.00    -0.050 Br
ATOM     46  C   LIG d   1      10.090   2.554  -7.291  0.00  0.00    -0.039 A 
ATOM     47  H   LIG d   1      10.817   4.399  -8.084  0.00  0.00     0.063 H 
ATOM     48  H   LIG d   1       9.053   2.848  -7.352  0.00  0.00     0.064 H 
ENDBRANCH  17  38
TORSDOF 4
ENDMDL
MODEL 8
REMARK VINA RESULT:      -6.3      9.890     11.876
REMARK  4 active torsions:
REMARK  status: ('A' for Active; 'I' for Inactive)
REMARK    1  A    between atoms: C_12  and  C_15 
REMARK    2  A    between atoms: C_15  and  C_16 
REMARK    3  A    between atoms: C_16  and  C_17 
REMARK    4  A    between atoms: N_22  and  C_25 
ROOT
ATOM      1  C   LIG d   1       8.622   1.828  -3.863  0.00  0.00    -0.061 A 
ATOM      2  C   LIG d   1       8.523   1.284  -5.131  0.00  0.00    -0.060 A 
ATOM      3  C   LIG d   1       8.924   2.010  -6.234  0.00  0.00    -0.040 A 
ATOM      4  C   LIG d   1       9.431   3.298  -6.079  0.00  0.00     0.039 A 
ATOM      5  C   LIG d   1       9.527   3.835  -4.798  0.00  0.00     0.003 A 
ATOM      6  C   LIG d   1       9.126   3.107  -3.701  0.00  0.00    -0.055 A 
ATOM      7  C   LIG d   1      10.102   5.211  -4.973  0.00  0.00     0.136 A 
ATOM      8  C   LIG d   1       9.162   6.288  -4.419  0.00  0.00     0.080 A 
ATOM      9  H   LIG d   1       8.122   5.964  -4.392  0.00  0.00     0.043 H 
ATOM     10  C   LIG d   1       9.727   6.613  -3.007  0.00  0.00     0.065 A 
ATOM     11  H   LIG d   1       8.988   6.486  -2.216  0.00  0.00     0.042 H 
ATOM     12  C   LIG d   1      10.942   5.674  -2.841  0.00  0.00     0.021 C 
ATOM     13  H   LIG d   1      10.650   4.768  -2.308  0.00  0.00     0.047 H 
ATOM     14  N   LIG d   1      11.371   5.365  -4.237  0.00  0.00    -0.295 N 
ATOM     15  C   LIG d   1      10.198   8.042  -3.141  0.00  0.00     0.232 A 
ATOM     16  O   LIG d   1      10.723   8.692  -2.261  0.00  0.00    -0.274 OA
ATOM     17  N   LIG d   1       9.946   8.481  -4.379  0.00  0.00    -0.210 N 
ATOM     18  C   LIG d   1       9.351   7.575  -5.190  0.00  0.00     0.233 A 
ATOM     19  O   LIG d   1       9.024   7.755  -6.343  0.00  0.00    -0.274 OA
ATOM     20  C   LIG d   1      10.304   5.366  -6.455  0.00  0.00     0.243 A 
ATOM     21  O   LIG d   1      10.751   6.339  -7.028  0.00  0.00    -0.273 OA
ATOM     22  N   LIG d   1       9.895   4.216  -7.024  0.00  0.00    -0.283 N 
ATOM     23  H   LIG d   1       8.303   1.259  -3.004  0.00  0.00     0.062 H 
ATOM     24  H   LIG d   1       8.130   0.287  -5.258  0.00  0.00     0.062 H 
ATOM     25  H   LIG d   1       8.843   1.578  -7.221  0.00  0.00     0.064 H 
ATOM     26  H   LIG d   1       9.206   3.534  -2.712  0.00  0.00     0.062 H 
ATOM     27  H   LIG d   1      11.910   4.512  -4.264  0.00  0.00     0.123 HD
ATOM     28  H   LIG d   1       9.919   4.046  -7.978  0.00  0.00     0.155 HD
ENDROOT
BRANCH  12  29
ATOM     29  C   LIG d   1      12.070   6.389  -2.096  0.00  0.00    -0.032 C 
ATOM     30  H   LIG d   1      12.977   6.364  -2.700  0.00  0.00     0.028 H 
ATOM     31  H   LIG d   1      11.783   7.425  -1.912  0.00  0.00     0.028 H 
BRANCH  29  32
ATOM     32  C   LIG d   1      12.326   5.687  -0.761  0.00  0.00    -0.012 C 
ATOM     33  H   LIG d   1      11.986   4.653  -0.824  0.00  0.00     0.033 H 
ATOM     34  H   LIG d   1      13.393   5.706  -0.539  0.00  0.00     0.033 H 
BRANCH  32  35
ATOM     35  C   LIG d   1      11.572   6.397   0.333  0.00  0.00     0.042 C 
ATOM     36  O   LIG d   1      12.127   7.254   0.999  0.00  0.00    -0.550 OA
ATOM     37  O   LIG d   1      10.406   6.116   0.552  0.00  0.00    -0.550 OA
ENDBRANCH  32  35
ENDBRANCH  29  32
ENDBRANCH  12  29
BRANCH  17  38
ATOM     38  C   LIG d   1      10.266   9.778  -4.805  0.00  0.00     0.044 A 
ATOM     39  C   LIG d   1      11.525  10.049  -5.323  0.00  0.00    -0.039 A 
ATOM     40  C   LIG d   1      11.835  11.326  -5.748  0.00  0.00    -0.046 A 
ATOM     41  H   LIG d   1      12.260   9.260  -5.398  0.00  0.00     0.064 H 
ATOM     42  C   LIG d   1      10.897  12.337  -5.647  0.00  0.00     0.018 A 
ATOM     43  H   LIG d   1      12.813  11.536  -6.155  0.00  0.00     0.063 H 
ATOM     44  C   LIG d   1       9.643  12.071  -5.126  0.00  0.00    -0.046 A 
ATOM     45 BR   LIG d   1      11.327  14.086  -6.223  0.00  0.00    -0.050 Br
ATOM     46  C   LIG d   1       9.326  10.794  -4.704  0.00  0.00    -0.039 A 
ATOM     47  H   LIG d   1       8.912  12.861  -5.048  0.00  0.00     0.063 H 
ATOM     48  H   LIG d   1       8.347  10.587  -4.298  0.00  0.00     0.064 H 
ENDBRANCH  17  38
TORSDOF 4
ENDMDL
MODEL 9
REMARK VINA RESULT:      -6.3     12.068     15.383
REMARK  4 active torsions:
REMARK  status: ('A' for Active; 'I' for Inactive)
REMARK    1  A    between atoms: C_12  and  C_15 
REMARK    2  A    between atoms: C_15  and  C_16 
REMARK    3  A    between atoms: C_16  and  C_17 
REMARK    4  A    between atoms: N_22  and  C_25 
ROOT
ATOM      1  C   LIG d   1       9.732   6.040  -5.585  0.00  0.00    -0.061 A 
ATOM      2  C   LIG d   1       9.536   4.709  -5.260  0.00  0.00    -0.060 A 
ATOM      3  C   LIG d   1       9.628   4.291  -3.949  0.00  0.00    -0.040 A 
ATOM      4  C   LIG d   1       9.919   5.206  -2.940  0.00  0.00     0.039 A 
ATOM      5  C   LIG d   1      10.114   6.542  -3.278  0.00  0.00     0.003 A 
ATOM      6  C   LIG d   1      10.021   6.955  -4.588  0.00  0.00    -0.055 A 
ATOM      7  C   LIG d   1      10.403   7.254  -1.988  0.00  0.00     0.136 A 
ATOM      8  C   LIG d   1      11.773   7.942  -2.021  0.00  0.00     0.080 A 
ATOM      9  H   LIG d   1      12.457   7.483  -2.734  0.00  0.00     0.043 H 
ATOM     10  C   LIG d   1      11.457   9.426  -2.360  0.00  0.00     0.065 A 
ATOM     11  H   LIG d   1      11.985   9.780  -3.245  0.00  0.00     0.042 H 
ATOM     12  C   LIG d   1       9.923   9.477  -2.526  0.00  0.00     0.021 C 
ATOM     13  H   LIG d   1       9.652   9.377  -3.577  0.00  0.00     0.047 H 
ATOM     14  N   LIG d   1       9.421   8.322  -1.725  0.00  0.00    -0.295 N 
ATOM     15  C   LIG d   1      11.863  10.165  -1.106  0.00  0.00     0.232 A 
ATOM     16  O   LIG d   1      11.770  11.363  -0.938  0.00  0.00    -0.274 OA
ATOM     17  N   LIG d   1      12.339   9.294  -0.210  0.00  0.00    -0.210 N 
ATOM     18  C   LIG d   1      12.346   8.005  -0.622  0.00  0.00     0.233 A 
ATOM     19  O   LIG d   1      12.740   7.053   0.016  0.00  0.00    -0.274 OA
ATOM     20  C   LIG d   1      10.350   6.185  -0.931  0.00  0.00     0.243 A 
ATOM     21  O   LIG d   1      10.530   6.335   0.260  0.00  0.00    -0.273 OA
ATOM     22  N   LIG d   1      10.061   5.031  -1.562  0.00  0.00    -0.283 N 
ATOM     23  H   LIG d   1       9.665   6.361  -6.613  0.00  0.00     0.062 H 
ATOM     24  H   LIG d   1       9.311   3.994  -6.038  0.00  0.00     0.062 H 
ATOM     25  H   LIG d   1       9.474   3.250  -3.704  0.00  0.00     0.064 H 
ATOM     26  H   LIG d   1      10.173   7.994  -4.838  0.00  0.00     0.062 H 
ATOM     27  H   LIG d   1       8.499   8.047  -2.032  0.00  0.00     0.123 HD
ATOM     28  H   LIG d   1       9.965   4.177  -1.111  0.00  0.00     0.155 HD
ENDROOT
BRANCH  12  29
ATOM     29  C   LIG d   1       9.369  10.784  -1.956  0.00  0.00    -0.032 C 
ATOM     30  H   LIG d   1       8.747  10.567  -1.088  0.00  0.00     0.028 H 
ATOM     31  H   LIG d   1      10.195  11.431  -1.661  0.00  0.00     0.028 H 
BRANCH  29  32
ATOM     32  C   LIG d   1       8.527  11.488  -3.022  0.00  0.00    -0.012 C 
ATOM     33  H   LIG d   1       7.787  10.792  -3.419  0.00  0.00     0.033 H 
ATOM     34  H   LIG d   1       8.018  12.344  -2.577  0.00  0.00     0.033 H 
BRANCH  32  35
ATOM     35  C   LIG d   1       9.421  11.961  -4.138  0.00  0.00     0.042 C 
ATOM     36  O   LIG d   1      10.381  12.671  -3.892  0.00  0.00    -0.550 OA
ATOM     37  O   LIG d   1       9.187  11.632  -5.289  0.00  0.00    -0.550 OA
ENDBRANCH  32  35
ENDBRANCH  29  32
ENDBRANCH  12  29
BRANCH  17  38
ATOM     38  C   LIG d   1      12.803   9.682   1.055  0.00  0.00     0.044 A 
ATOM     39  C   LIG d   1      11.942   9.673   2.144  0.00  0.00    -0.039 A 
ATOM     40  C   LIG d   1      12.402  10.050   3.390  0.00  0.00    -0.046 A 
ATOM     41  H   LIG d   1      10.913   9.367   2.017  0.00  0.00     0.064 H 
ATOM     42  C   LIG d   1      13.717  10.448   3.552  0.00  0.00     0.018 A 
ATOM     43  H   LIG d   1      11.734  10.039   4.238  0.00  0.00     0.063 H 
ATOM     44  C   LIG d   1      14.576  10.463   2.468  0.00  0.00    -0.046 A 
ATOM     45 BR   LIG d   1      14.342  10.970   5.258  0.00  0.00    -0.050 Br
ATOM     46  C   LIG d   1      14.122  10.082   1.220  0.00  0.00    -0.039 A 
ATOM     47  H   LIG d   1      15.602  10.774   2.596  0.00  0.00     0.063 H 
ATOM     48  H   LIG d   1      14.793  10.093   0.374  0.00  0.00     0.064 H 
ENDBRANCH  17  38
TORSDOF 4
ENDMDL
