MODEL 1
REMARK VINA RESULT:      -7.1      0.000      0.000
REMARK  3 active torsions:
REMARK  status: ('A' for Active; 'I' for Inactive)
REMARK    1  A    between atoms: C_4  and  C_7 
REMARK    2  A    between atoms: C_16  and  C_18 
REMARK    3  A    between atoms: C_21  and  O_24 
ROOT
ATOM      1  C   LIG d   1       5.966  -1.234  -5.415  0.00  0.00     0.151 C 
ATOM      2  H   LIG d   1       6.683  -0.441  -5.200  0.00  0.00     0.084 H 
ATOM      3  C   LIG d   1       6.640  -2.573  -5.263  0.00  0.00     0.004 A 
ATOM      4  C   LIG d   1       7.669  -2.758  -4.368  0.00  0.00    -0.054 A 
ATOM      5  C   LIG d   1       8.256  -4.006  -4.243  0.00  0.00    -0.061 A 
ATOM      6  C   LIG d   1       7.815  -5.071  -5.008  0.00  0.00    -0.061 A 
ATOM      7  C   LIG d   1       6.787  -4.898  -5.914  0.00  0.00    -0.054 A 
ATOM      8  C   LIG d   1       6.199  -3.643  -6.050  0.00  0.00    -0.015 A 
ATOM      9  C   LIG d   1       5.124  -3.395  -7.026  0.00  0.00    -0.012 C 
ATOM     10  C   LIG d   1       4.799  -2.114  -7.311  0.00  0.00     0.130 C 
ATOM     11  O   LIG d   1       5.485  -1.088  -6.752  0.00  0.00    -0.479 OA
ATOM     12  H   LIG d   1       8.018  -1.932  -3.767  0.00  0.00     0.062 H 
ATOM     13  H   LIG d   1       9.065  -4.149  -3.540  0.00  0.00     0.062 H 
ATOM     14  H   LIG d   1       8.277  -6.041  -4.896  0.00  0.00     0.062 H 
ATOM     15  H   LIG d   1       6.443  -5.730  -6.511  0.00  0.00     0.062 H 
ATOM     16  H   LIG d   1       4.610  -4.217  -7.503  0.00  0.00     0.066 H 
ENDROOT
BRANCH   1  17
ATOM     17  C   LIG d   1       4.811  -1.140  -4.453  0.00  0.00    -0.003 A 
ATOM     18  C   LIG d   1       4.733  -2.008  -3.379  0.00  0.00    -0.055 A 
ATOM     19  C   LIG d   1       3.672  -1.921  -2.497  0.00  0.00    -0.061 A 
ATOM     20  H   LIG d   1       5.500  -2.752  -3.231  0.00  0.00     0.062 H 
ATOM     21  C   LIG d   1       2.690  -0.968  -2.688  0.00  0.00    -0.062 A 
ATOM     22  H   LIG d   1       3.610  -2.599  -1.659  0.00  0.00     0.062 H 
ATOM     23  C   LIG d   1       2.768  -0.100  -3.761  0.00  0.00    -0.061 A 
ATOM     24  H   LIG d   1       1.861  -0.901  -1.999  0.00  0.00     0.062 H 
ATOM     25  C   LIG d   1       3.831  -0.183  -4.642  0.00  0.00    -0.055 A 
ATOM     26  H   LIG d   1       2.001   0.645  -3.910  0.00  0.00     0.062 H 
ATOM     27  H   LIG d   1       3.894   0.498  -5.477  0.00  0.00     0.062 H 
ENDBRANCH   1  17
BRANCH  10  28
ATOM     28  C   LIG d   1       3.684  -1.831  -8.237  0.00  0.00     0.017 A 
ATOM     29  C   LIG d   1       3.086  -0.568  -8.247  0.00  0.00    -0.048 A 
ATOM     30  C   LIG d   1       2.049  -0.306  -9.116  0.00  0.00    -0.019 A 
ATOM     31  H   LIG d   1       3.438   0.204  -7.579  0.00  0.00     0.063 H 
ATOM     32  C   LIG d   1       1.591  -1.299  -9.973  0.00  0.00     0.117 A 
ATOM     33  H   LIG d   1       1.589   0.671  -9.128  0.00  0.00     0.065 H 
ATOM     34  C   LIG d   1       2.182  -2.556  -9.966  0.00  0.00    -0.019 A 
ATOM     35  C   LIG d   1       3.224  -2.824  -9.104  0.00  0.00    -0.048 A 
ATOM     36  H   LIG d   1       1.826  -3.324 -10.636  0.00  0.00     0.065 H 
ATOM     37  H   LIG d   1       3.683  -3.802  -9.100  0.00  0.00     0.063 H 
BRANCH  32  38
ATOM     38  O   LIG d   1       0.565  -1.038 -10.824  0.00  0.00    -0.507 OA
ATOM     39  H   LIG d   1       0.756  -1.248 -11.749  0.00  0.00     0.292 HD
ENDBRANCH  32  38
ENDBRANCH  10  28
TORSDOF 3
ENDMDL
MODEL 2
REMARK VINA RESULT:      -7.1      2.373      6.027
REMARK  3 active torsions:
REMARK  status: ('A' for Active; 'I' for Inactive)
REMARK    1  A    between atoms: C_4  and  C_7 
REMARK    2  A    between atoms: C_16  and  C_18 
REMARK    3  A    between atoms: C_21  and  O_24 
ROOT
ATOM      1  C   LIG d   1       3.648  -1.421  -5.165  0.00  0.00     0.151 C 
ATOM      2  H   LIG d   1       2.622  -1.791  -5.150  0.00  0.00     0.084 H 
ATOM      3  C   LIG d   1       3.840  -0.529  -6.365  0.00  0.00     0.004 A 
ATOM      4  C   LIG d   1       2.801   0.211  -6.880  0.00  0.00    -0.054 A 
ATOM      5  C   LIG d   1       3.017   1.033  -7.974  0.00  0.00    -0.061 A 
ATOM      6  C   LIG d   1       4.270   1.117  -8.554  0.00  0.00    -0.061 A 
ATOM      7  C   LIG d   1       5.321   0.374  -8.052  0.00  0.00    -0.054 A 
ATOM      8  C   LIG d   1       5.107  -0.460  -6.956  0.00  0.00    -0.015 A 
ATOM      9  C   LIG d   1       6.183  -1.299  -6.402  0.00  0.00    -0.012 C 
ATOM     10  C   LIG d   1       5.848  -2.286  -5.540  0.00  0.00     0.130 C 
ATOM     11  O   LIG d   1       4.549  -2.525  -5.238  0.00  0.00    -0.479 OA
ATOM     12  H   LIG d   1       1.821   0.152  -6.432  0.00  0.00     0.062 H 
ATOM     13  H   LIG d   1       2.199   1.612  -8.377  0.00  0.00     0.062 H 
ATOM     14  H   LIG d   1       4.428   1.765  -9.403  0.00  0.00     0.062 H 
ATOM     15  H   LIG d   1       6.299   0.440  -8.504  0.00  0.00     0.062 H 
ATOM     16  H   LIG d   1       7.214  -1.132  -6.681  0.00  0.00     0.066 H 
ENDROOT
BRANCH   1  17
ATOM     17  C   LIG d   1       3.916  -0.636  -3.907  0.00  0.00    -0.003 A 
ATOM     18  C   LIG d   1       3.732   0.734  -3.894  0.00  0.00    -0.055 A 
ATOM     19  C   LIG d   1       3.980   1.454  -2.740  0.00  0.00    -0.061 A 
ATOM     20  H   LIG d   1       3.396   1.241  -4.786  0.00  0.00     0.062 H 
ATOM     21  C   LIG d   1       4.410   0.804  -1.599  0.00  0.00    -0.062 A 
ATOM     22  H   LIG d   1       3.837   2.524  -2.730  0.00  0.00     0.062 H 
ATOM     23  C   LIG d   1       4.593  -0.566  -1.612  0.00  0.00    -0.061 A 
ATOM     24  H   LIG d   1       4.604   1.365  -0.698  0.00  0.00     0.062 H 
ATOM     25  C   LIG d   1       4.342  -1.288  -2.765  0.00  0.00    -0.055 A 
ATOM     26  H   LIG d   1       4.930  -1.075  -0.720  0.00  0.00     0.062 H 
ATOM     27  H   LIG d   1       4.481  -2.358  -2.773  0.00  0.00     0.062 H 
ENDBRANCH   1  17
BRANCH  10  28
ATOM     28  C   LIG d   1       6.907  -3.105  -4.918  0.00  0.00     0.017 A 
ATOM     29  C   LIG d   1       7.144  -4.405  -5.371  0.00  0.00    -0.048 A 
ATOM     30  C   LIG d   1       8.138  -5.164  -4.791  0.00  0.00    -0.019 A 
ATOM     31  H   LIG d   1       6.553  -4.814  -6.177  0.00  0.00     0.063 H 
ATOM     32  C   LIG d   1       8.895  -4.642  -3.751  0.00  0.00     0.117 A 
ATOM     33  H   LIG d   1       8.325  -6.168  -5.144  0.00  0.00     0.065 H 
ATOM     34  C   LIG d   1       8.663  -3.350  -3.297  0.00  0.00    -0.019 A 
ATOM     35  C   LIG d   1       7.676  -2.582  -3.876  0.00  0.00    -0.048 A 
ATOM     36  H   LIG d   1       9.257  -2.946  -2.491  0.00  0.00     0.065 H 
ATOM     37  H   LIG d   1       7.497  -1.577  -3.522  0.00  0.00     0.063 H 
BRANCH  32  38
ATOM     38  O   LIG d   1       9.870  -5.396  -3.178  0.00  0.00    -0.507 OA
ATOM     39  H   LIG d   1      10.034  -6.236  -3.629  0.00  0.00     0.292 HD
ENDBRANCH  32  38
ENDBRANCH  10  28
TORSDOF 3
ENDMDL
MODEL 3
REMARK VINA RESULT:      -7.1      2.435      4.884
REMARK  3 active torsions:
REMARK  status: ('A' for Active; 'I' for Inactive)
REMARK    1  A    between atoms: C_4  and  C_7 
REMARK    2  A    between atoms: C_16  and  C_18 
REMARK    3  A    between atoms: C_21  and  O_24 
ROOT
ATOM      1  C   LIG d   1       5.811  -1.097  -5.555  0.00  0.00     0.151 C 
ATOM      2  H   LIG d   1       6.730  -0.550  -5.770  0.00  0.00     0.084 H 
ATOM      3  C   LIG d   1       5.354  -0.777  -4.155  0.00  0.00     0.004 A 
ATOM      4  C   LIG d   1       5.613   0.446  -3.580  0.00  0.00    -0.054 A 
ATOM      5  C   LIG d   1       5.164   0.712  -2.297  0.00  0.00    -0.061 A 
ATOM      6  C   LIG d   1       4.455  -0.241  -1.588  0.00  0.00    -0.061 A 
ATOM      7  C   LIG d   1       4.193  -1.475  -2.150  0.00  0.00    -0.054 A 
ATOM      8  C   LIG d   1       4.650  -1.751  -3.438  0.00  0.00    -0.015 A 
ATOM      9  C   LIG d   1       4.428  -3.062  -4.071  0.00  0.00    -0.012 C 
ATOM     10  C   LIG d   1       5.133  -3.363  -5.185  0.00  0.00     0.130 C 
ATOM     11  O   LIG d   1       6.057  -2.499  -5.671  0.00  0.00    -0.479 OA
ATOM     12  H   LIG d   1       6.165   1.195  -4.127  0.00  0.00     0.062 H 
ATOM     13  H   LIG d   1       5.370   1.673  -1.847  0.00  0.00     0.062 H 
ATOM     14  H   LIG d   1       4.105  -0.020  -0.590  0.00  0.00     0.062 H 
ATOM     15  H   LIG d   1       3.639  -2.219  -1.597  0.00  0.00     0.062 H 
ATOM     16  H   LIG d   1       3.723  -3.766  -3.654  0.00  0.00     0.066 H 
ENDROOT
BRANCH   1  17
ATOM     17  C   LIG d   1       4.744  -0.691  -6.538  0.00  0.00    -0.003 A 
ATOM     18  C   LIG d   1       3.582  -0.092  -6.089  0.00  0.00    -0.055 A 
ATOM     19  C   LIG d   1       2.603   0.279  -6.991  0.00  0.00    -0.061 A 
ATOM     20  H   LIG d   1       3.440   0.085  -5.033  0.00  0.00     0.062 H 
ATOM     21  C   LIG d   1       2.786   0.052  -8.342  0.00  0.00    -0.062 A 
ATOM     22  H   LIG d   1       1.694   0.746  -6.640  0.00  0.00     0.062 H 
ATOM     23  C   LIG d   1       3.948  -0.546  -8.791  0.00  0.00    -0.061 A 
ATOM     24  H   LIG d   1       2.021   0.342  -9.047  0.00  0.00     0.062 H 
ATOM     25  C   LIG d   1       4.930  -0.914  -7.890  0.00  0.00    -0.055 A 
ATOM     26  H   LIG d   1       4.092  -0.723  -9.847  0.00  0.00     0.062 H 
ATOM     27  H   LIG d   1       5.839  -1.377  -8.241  0.00  0.00     0.062 H 
ENDBRANCH   1  17
BRANCH  10  28
ATOM     28  C   LIG d   1       4.890  -4.642  -5.881  0.00  0.00     0.017 A 
ATOM     29  C   LIG d   1       4.194  -4.660  -7.092  0.00  0.00    -0.048 A 
ATOM     30  C   LIG d   1       3.974  -5.855  -7.741  0.00  0.00    -0.019 A 
ATOM     31  H   LIG d   1       3.832  -3.737  -7.522  0.00  0.00     0.063 H 
ATOM     32  C   LIG d   1       4.434  -7.043  -7.187  0.00  0.00     0.117 A 
ATOM     33  H   LIG d   1       3.440  -5.869  -8.680  0.00  0.00     0.065 H 
ATOM     34  C   LIG d   1       5.126  -7.030  -5.983  0.00  0.00    -0.019 A 
ATOM     35  C   LIG d   1       5.356  -5.838  -5.331  0.00  0.00    -0.048 A 
ATOM     36  H   LIG d   1       5.486  -7.956  -5.558  0.00  0.00     0.065 H 
ATOM     37  H   LIG d   1       5.895  -5.830  -4.395  0.00  0.00     0.063 H 
BRANCH  32  38
ATOM     38  O   LIG d   1       4.210  -8.220  -7.828  0.00  0.00    -0.507 OA
ATOM     39  H   LIG d   1       4.727  -8.961  -7.483  0.00  0.00     0.292 HD
ENDBRANCH  32  38
ENDBRANCH  10  28
TORSDOF 3
ENDMDL
MODEL 4
REMARK VINA RESULT:      -6.9      3.726      5.926
REMARK  3 active torsions:
REMARK  status: ('A' for Active; 'I' for Inactive)
REMARK    1  A    between atoms: C_4  and  C_7 
REMARK    2  A    between atoms: C_16  and  C_18 
REMARK    3  A    between atoms: C_21  and  O_24 
ROOT
ATOM      1  C   LIG d   1       7.752  -4.210  -5.692  0.00  0.00     0.151 C 
ATOM      2  H   LIG d   1       8.481  -4.053  -6.489  0.00  0.00     0.084 H 
ATOM      3  C   LIG d   1       6.784  -5.289  -6.103  0.00  0.00     0.004 A 
ATOM      4  C   LIG d   1       7.168  -6.314  -6.937  0.00  0.00    -0.054 A 
ATOM      5  C   LIG d   1       6.256  -7.298  -7.283  0.00  0.00    -0.061 A 
ATOM      6  C   LIG d   1       4.963  -7.262  -6.794  0.00  0.00    -0.061 A 
ATOM      7  C   LIG d   1       4.562  -6.236  -5.961  0.00  0.00    -0.054 A 
ATOM      8  C   LIG d   1       5.473  -5.238  -5.617  0.00  0.00    -0.015 A 
ATOM      9  C   LIG d   1       5.089  -4.103  -4.761  0.00  0.00    -0.012 C 
ATOM     10  C   LIG d   1       5.917  -3.036  -4.701  0.00  0.00     0.130 C 
ATOM     11  O   LIG d   1       7.043  -2.994  -5.453  0.00  0.00    -0.479 OA
ATOM     12  H   LIG d   1       8.176  -6.350  -7.322  0.00  0.00     0.062 H 
ATOM     13  H   LIG d   1       6.560  -8.102  -7.939  0.00  0.00     0.062 H 
ATOM     14  H   LIG d   1       4.263  -8.038  -7.066  0.00  0.00     0.062 H 
ATOM     15  H   LIG d   1       3.553  -6.207  -5.579  0.00  0.00     0.062 H 
ATOM     16  H   LIG d   1       4.167  -4.123  -4.197  0.00  0.00     0.066 H 
ENDROOT
BRANCH   1  17
ATOM     17  C   LIG d   1       8.468  -4.629  -4.435  0.00  0.00    -0.003 A 
ATOM     18  C   LIG d   1       8.718  -5.967  -4.194  0.00  0.00    -0.055 A 
ATOM     19  C   LIG d   1       9.374  -6.351  -3.039  0.00  0.00    -0.061 A 
ATOM     20  H   LIG d   1       8.400  -6.712  -4.908  0.00  0.00     0.062 H 
ATOM     21  C   LIG d   1       9.781  -5.397  -2.126  0.00  0.00    -0.062 A 
ATOM     22  H   LIG d   1       9.569  -7.396  -2.851  0.00  0.00     0.062 H 
ATOM     23  C   LIG d   1       9.532  -4.059  -2.367  0.00  0.00    -0.061 A 
ATOM     24  H   LIG d   1      10.293  -5.696  -1.224  0.00  0.00     0.062 H 
ATOM     25  C   LIG d   1       8.880  -3.674  -3.523  0.00  0.00    -0.055 A 
ATOM     26  H   LIG d   1       9.850  -3.313  -1.653  0.00  0.00     0.062 H 
ATOM     27  H   LIG d   1       8.689  -2.629  -3.713  0.00  0.00     0.062 H 
ENDBRANCH   1  17
BRANCH  10  28
ATOM     28  C   LIG d   1       5.593  -1.909  -3.804  0.00  0.00     0.017 A 
ATOM     29  C   LIG d   1       4.583  -2.041  -2.849  0.00  0.00    -0.048 A 
ATOM     30  C   LIG d   1       4.288  -0.988  -2.010  0.00  0.00    -0.019 A 
ATOM     31  H   LIG d   1       4.036  -2.969  -2.763  0.00  0.00     0.063 H 
ATOM     32  C   LIG d   1       4.986   0.208  -2.122  0.00  0.00     0.117 A 
ATOM     33  H   LIG d   1       3.510  -1.091  -1.268  0.00  0.00     0.065 H 
ATOM     34  C   LIG d   1       5.991   0.344  -3.070  0.00  0.00    -0.019 A 
ATOM     35  C   LIG d   1       6.296  -0.706  -3.909  0.00  0.00    -0.048 A 
ATOM     36  H   LIG d   1       6.534   1.274  -3.151  0.00  0.00     0.065 H 
ATOM     37  H   LIG d   1       7.078  -0.599  -4.646  0.00  0.00     0.063 H 
BRANCH  32  38
ATOM     38  O   LIG d   1       4.688   1.245  -1.297  0.00  0.00    -0.507 OA
ATOM     39  H   LIG d   1       5.443   1.812  -1.088  0.00  0.00     0.292 HD
ENDBRANCH  32  38
ENDBRANCH  10  28
TORSDOF 3
ENDMDL
MODEL 5
REMARK VINA RESULT:      -6.8      2.328      4.078
REMARK  3 active torsions:
REMARK  status: ('A' for Active; 'I' for Inactive)
REMARK    1  A    between atoms: C_4  and  C_7 
REMARK    2  A    between atoms: C_16  and  C_18 
REMARK    3  A    between atoms: C_21  and  O_24 
ROOT
ATOM      1  C   LIG d   1       6.288  -1.313  -5.143  0.00  0.00     0.151 C 
ATOM      2  H   LIG d   1       6.965  -2.124  -4.872  0.00  0.00     0.084 H 
ATOM      3  C   LIG d   1       5.162  -1.246  -4.144  0.00  0.00     0.004 A 
ATOM      4  C   LIG d   1       5.346  -1.621  -2.833  0.00  0.00    -0.054 A 
ATOM      5  C   LIG d   1       4.293  -1.533  -1.937  0.00  0.00    -0.061 A 
ATOM      6  C   LIG d   1       3.057  -1.068  -2.349  0.00  0.00    -0.061 A 
ATOM      7  C   LIG d   1       2.856  -0.694  -3.663  0.00  0.00    -0.054 A 
ATOM      8  C   LIG d   1       3.910  -0.789  -4.570  0.00  0.00    -0.015 A 
ATOM      9  C   LIG d   1       3.740  -0.437  -5.990  0.00  0.00    -0.012 C 
ATOM     10  C   LIG d   1       4.699  -0.819  -6.864  0.00  0.00     0.130 C 
ATOM     11  O   LIG d   1       5.759  -1.553  -6.447  0.00  0.00    -0.479 OA
ATOM     12  H   LIG d   1       6.308  -1.983  -2.504  0.00  0.00     0.062 H 
ATOM     13  H   LIG d   1       4.440  -1.829  -0.908  0.00  0.00     0.062 H 
ATOM     14  H   LIG d   1       2.245  -0.998  -1.640  0.00  0.00     0.062 H 
ATOM     15  H   LIG d   1       1.891  -0.331  -3.984  0.00  0.00     0.062 H 
ATOM     16  H   LIG d   1       2.871   0.110  -6.325  0.00  0.00     0.066 H 
ENDROOT
BRANCH   1  17
ATOM     17  C   LIG d   1       7.042  -0.008  -5.139  0.00  0.00    -0.003 A 
ATOM     18  C   LIG d   1       7.120   0.742  -3.980  0.00  0.00    -0.055 A 
ATOM     19  C   LIG d   1       7.811   1.939  -3.977  0.00  0.00    -0.061 A 
ATOM     20  H   LIG d   1       6.642   0.392  -3.078  0.00  0.00     0.062 H 
ATOM     21  C   LIG d   1       8.423   2.387  -5.133  0.00  0.00    -0.062 A 
ATOM     22  H   LIG d   1       7.872   2.525  -3.073  0.00  0.00     0.062 H 
ATOM     23  C   LIG d   1       8.345   1.637  -6.291  0.00  0.00    -0.061 A 
ATOM     24  H   LIG d   1       8.962   3.322  -5.131  0.00  0.00     0.062 H 
ATOM     25  C   LIG d   1       7.658   0.437  -6.294  0.00  0.00    -0.055 A 
ATOM     26  H   LIG d   1       8.824   1.985  -7.194  0.00  0.00     0.062 H 
ATOM     27  H   LIG d   1       7.601  -0.151  -7.197  0.00  0.00     0.062 H 
ENDBRANCH   1  17
BRANCH  10  28
ATOM     28  C   LIG d   1       4.592  -0.428  -8.284  0.00  0.00     0.017 A 
ATOM     29  C   LIG d   1       3.432   0.193  -8.754  0.00  0.00    -0.048 A 
ATOM     30  C   LIG d   1       3.339   0.561 -10.079  0.00  0.00    -0.019 A 
ATOM     31  H   LIG d   1       2.611   0.389  -8.080  0.00  0.00     0.063 H 
ATOM     32  C   LIG d   1       4.392   0.305 -10.949  0.00  0.00     0.117 A 
ATOM     33  H   LIG d   1       2.444   1.045 -10.442  0.00  0.00     0.065 H 
ATOM     34  C   LIG d   1       5.546  -0.312 -10.485  0.00  0.00    -0.019 A 
ATOM     35  C   LIG d   1       5.650  -0.678  -9.160  0.00  0.00    -0.048 A 
ATOM     36  H   LIG d   1       6.364  -0.505 -11.163  0.00  0.00     0.065 H 
ATOM     37  H   LIG d   1       6.549  -1.157  -8.801  0.00  0.00     0.063 H 
BRANCH  32  38
ATOM     38  O   LIG d   1       4.293   0.665 -12.255  0.00  0.00    -0.507 OA
ATOM     39  H   LIG d   1       4.816   0.116 -12.855  0.00  0.00     0.292 HD
ENDBRANCH  32  38
ENDBRANCH  10  28
TORSDOF 3
ENDMDL
MODEL 6
REMARK VINA RESULT:      -6.7      2.442      6.080
REMARK  3 active torsions:
REMARK  status: ('A' for Active; 'I' for Inactive)
REMARK    1  A    between atoms: C_4  and  C_7 
REMARK    2  A    between atoms: C_16  and  C_18 
REMARK    3  A    between atoms: C_21  and  O_24 
ROOT
ATOM      1  C   LIG d   1       4.109  -1.487  -5.378  0.00  0.00     0.151 C 
ATOM      2  H   LIG d   1       3.206  -2.100  -5.389  0.00  0.00     0.084 H 
ATOM      3  C   LIG d   1       4.078  -0.531  -6.542  0.00  0.00     0.004 A 
ATOM      4  C   LIG d   1       2.890  -0.052  -7.044  0.00  0.00    -0.054 A 
ATOM      5  C   LIG d   1       2.899   0.838  -8.105  0.00  0.00    -0.061 A 
ATOM      6  C   LIG d   1       4.094   1.251  -8.666  0.00  0.00    -0.061 A 
ATOM      7  C   LIG d   1       5.294   0.774  -8.177  0.00  0.00    -0.054 A 
ATOM      8  C   LIG d   1       5.290  -0.128  -7.114  0.00  0.00    -0.015 A 
ATOM      9  C   LIG d   1       6.539  -0.695  -6.577  0.00  0.00    -0.012 C 
ATOM     10  C   LIG d   1       6.456  -1.765  -5.755  0.00  0.00     0.130 C 
ATOM     11  O   LIG d   1       5.256  -2.330  -5.479  0.00  0.00    -0.479 OA
ATOM     12  H   LIG d   1       1.953  -0.369  -6.611  0.00  0.00     0.062 H 
ATOM     13  H   LIG d   1       1.964   1.212  -8.498  0.00  0.00     0.062 H 
ATOM     14  H   LIG d   1       4.089   1.950  -9.489  0.00  0.00     0.062 H 
ATOM     15  H   LIG d   1       6.227   1.097  -8.614  0.00  0.00     0.062 H 
ATOM     16  H   LIG d   1       7.497  -0.267  -6.836  0.00  0.00     0.066 H 
ENDROOT
BRANCH   1  17
ATOM     17  C   LIG d   1       4.170  -0.708  -4.089  0.00  0.00    -0.003 A 
ATOM     18  C   LIG d   1       4.540  -1.340  -2.917  0.00  0.00    -0.055 A 
ATOM     19  C   LIG d   1       4.595  -0.625  -1.734  0.00  0.00    -0.061 A 
ATOM     20  H   LIG d   1       4.786  -2.391  -2.925  0.00  0.00     0.062 H 
ATOM     21  C   LIG d   1       4.280   0.720  -1.725  0.00  0.00    -0.062 A 
ATOM     22  H   LIG d   1       4.883  -1.119  -0.818  0.00  0.00     0.062 H 
ATOM     23  C   LIG d   1       3.910   1.352  -2.897  0.00  0.00    -0.061 A 
ATOM     24  H   LIG d   1       4.322   1.278  -0.802  0.00  0.00     0.062 H 
ATOM     25  C   LIG d   1       3.859   0.639  -4.081  0.00  0.00    -0.055 A 
ATOM     26  H   LIG d   1       3.664   2.403  -2.891  0.00  0.00     0.062 H 
ATOM     27  H   LIG d   1       3.574   1.133  -4.997  0.00  0.00     0.062 H 
ENDBRANCH   1  17
BRANCH  10  28
ATOM     28  C   LIG d   1       7.683  -2.319  -5.150  0.00  0.00     0.017 A 
ATOM     29  C   LIG d   1       7.594  -3.295  -4.153  0.00  0.00    -0.048 A 
ATOM     30  C   LIG d   1       8.742  -3.813  -3.594  0.00  0.00    -0.019 A 
ATOM     31  H   LIG d   1       6.627  -3.646  -3.825  0.00  0.00     0.063 H 
ATOM     32  C   LIG d   1       9.987  -3.358  -4.012  0.00  0.00     0.117 A 
ATOM     33  H   LIG d   1       8.674  -4.571  -2.828  0.00  0.00     0.065 H 
ATOM     34  C   LIG d   1      10.080  -2.388  -5.002  0.00  0.00    -0.019 A 
ATOM     35  C   LIG d   1       8.937  -1.869  -5.570  0.00  0.00    -0.048 A 
ATOM     36  H   LIG d   1      11.049  -2.041  -5.326  0.00  0.00     0.065 H 
ATOM     37  H   LIG d   1       9.011  -1.115  -6.340  0.00  0.00     0.063 H 
BRANCH  32  38
ATOM     38  O   LIG d   1      11.115  -3.868  -3.454  0.00  0.00    -0.507 OA
ATOM     39  H   LIG d   1      11.353  -3.465  -2.608  0.00  0.00     0.292 HD
ENDBRANCH  32  38
ENDBRANCH  10  28
TORSDOF 3
ENDMDL
MODEL 7
REMARK VINA RESULT:      -6.6      3.213      5.485
REMARK  3 active torsions:
REMARK  status: ('A' for Active; 'I' for Inactive)
REMARK    1  A    between atoms: C_4  and  C_7 
REMARK    2  A    between atoms: C_16  and  C_18 
REMARK    3  A    between atoms: C_21  and  O_24 
ROOT
ATOM      1  C   LIG d   1       6.256  -1.926  -3.628  0.00  0.00     0.151 C 
ATOM      2  H   LIG d   1       6.500  -2.629  -2.830  0.00  0.00     0.084 H 
ATOM      3  C   LIG d   1       5.817  -2.689  -4.851  0.00  0.00     0.004 A 
ATOM      4  C   LIG d   1       5.183  -3.906  -4.746  0.00  0.00    -0.054 A 
ATOM      5  C   LIG d   1       4.779  -4.573  -5.891  0.00  0.00    -0.061 A 
ATOM      6  C   LIG d   1       5.008  -4.027  -7.141  0.00  0.00    -0.061 A 
ATOM      7  C   LIG d   1       5.649  -2.810  -7.262  0.00  0.00    -0.054 A 
ATOM      8  C   LIG d   1       6.064  -2.138  -6.114  0.00  0.00    -0.015 A 
ATOM      9  C   LIG d   1       6.784  -0.855  -6.187  0.00  0.00    -0.012 C 
ATOM     10  C   LIG d   1       7.405  -0.403  -5.074  0.00  0.00     0.130 C 
ATOM     11  O   LIG d   1       7.408  -1.142  -3.939  0.00  0.00    -0.479 OA
ATOM     12  H   LIG d   1       5.000  -4.338  -3.774  0.00  0.00     0.062 H 
ATOM     13  H   LIG d   1       4.282  -5.529  -5.805  0.00  0.00     0.062 H 
ATOM     14  H   LIG d   1       4.683  -4.554  -8.026  0.00  0.00     0.062 H 
ATOM     15  H   LIG d   1       5.827  -2.383  -8.237  0.00  0.00     0.062 H 
ATOM     16  H   LIG d   1       6.816  -0.290  -7.108  0.00  0.00     0.066 H 
ENDROOT
BRANCH   1  17
ATOM     17  C   LIG d   1       5.140  -1.020  -3.174  0.00  0.00    -0.003 A 
ATOM     18  C   LIG d   1       3.831  -1.319  -3.502  0.00  0.00    -0.055 A 
ATOM     19  C   LIG d   1       2.808  -0.487  -3.086  0.00  0.00    -0.061 A 
ATOM     20  H   LIG d   1       3.608  -2.201  -4.083  0.00  0.00     0.062 H 
ATOM     21  C   LIG d   1       3.094   0.642  -2.342  0.00  0.00    -0.062 A 
ATOM     22  H   LIG d   1       1.785  -0.719  -3.343  0.00  0.00     0.062 H 
ATOM     23  C   LIG d   1       4.403   0.940  -2.014  0.00  0.00    -0.061 A 
ATOM     24  H   LIG d   1       2.296   1.293  -2.018  0.00  0.00     0.062 H 
ATOM     25  C   LIG d   1       5.427   0.107  -2.426  0.00  0.00    -0.055 A 
ATOM     26  H   LIG d   1       4.628   1.822  -1.433  0.00  0.00     0.062 H 
ATOM     27  H   LIG d   1       6.449   0.337  -2.166  0.00  0.00     0.062 H 
ENDBRANCH   1  17
BRANCH  10  28
ATOM     28  C   LIG d   1       8.082   0.909  -5.095  0.00  0.00     0.017 A 
ATOM     29  C   LIG d   1       8.436   1.495  -6.313  0.00  0.00    -0.048 A 
ATOM     30  C   LIG d   1       9.062   2.722  -6.329  0.00  0.00    -0.019 A 
ATOM     31  H   LIG d   1       8.215   0.989  -7.242  0.00  0.00     0.063 H 
ATOM     32  C   LIG d   1       9.352   3.371  -5.135  0.00  0.00     0.117 A 
ATOM     33  H   LIG d   1       9.332   3.178  -7.270  0.00  0.00     0.065 H 
ATOM     34  C   LIG d   1       9.002   2.792  -3.922  0.00  0.00    -0.019 A 
ATOM     35  C   LIG d   1       8.369   1.568  -3.898  0.00  0.00    -0.048 A 
ATOM     36  H   LIG d   1       9.225   3.302  -2.997  0.00  0.00     0.065 H 
ATOM     37  H   LIG d   1       8.098   1.119  -2.954  0.00  0.00     0.063 H 
BRANCH  32  38
ATOM     38  O   LIG d   1       9.975   4.578  -5.155  0.00  0.00    -0.507 OA
ATOM     39  H   LIG d   1      10.476   4.750  -5.964  0.00  0.00     0.292 HD
ENDBRANCH  32  38
ENDBRANCH  10  28
TORSDOF 3
ENDMDL
MODEL 8
REMARK VINA RESULT:      -6.1      3.418      6.284
REMARK  3 active torsions:
REMARK  status: ('A' for Active; 'I' for Inactive)
REMARK    1  A    between atoms: C_4  and  C_7 
REMARK    2  A    between atoms: C_16  and  C_18 
REMARK    3  A    between atoms: C_21  and  O_24 
ROOT
ATOM      1  C   LIG d   1       6.612   0.144  -8.505  0.00  0.00     0.151 C 
ATOM      2  H   LIG d   1       6.801  -0.453  -9.398  0.00  0.00     0.084 H 
ATOM      3  C   LIG d   1       7.709   1.165  -8.342  0.00  0.00     0.004 A 
ATOM      4  C   LIG d   1       8.364   1.690  -9.432  0.00  0.00    -0.054 A 
ATOM      5  C   LIG d   1       9.357   2.638  -9.248  0.00  0.00    -0.061 A 
ATOM      6  C   LIG d   1       9.696   3.063  -7.975  0.00  0.00    -0.061 A 
ATOM      7  C   LIG d   1       9.052   2.539  -6.872  0.00  0.00    -0.054 A 
ATOM      8  C   LIG d   1       8.058   1.579  -7.052  0.00  0.00    -0.015 A 
ATOM      9  C   LIG d   1       7.364   0.963  -5.908  0.00  0.00    -0.012 C 
ATOM     10  C   LIG d   1       6.628  -0.151  -6.129  0.00  0.00     0.130 C 
ATOM     11  O   LIG d   1       6.579  -0.711  -7.362  0.00  0.00    -0.479 OA
ATOM     12  H   LIG d   1       8.104   1.365 -10.428  0.00  0.00     0.062 H 
ATOM     13  H   LIG d   1       9.871   3.049 -10.105  0.00  0.00     0.062 H 
ATOM     14  H   LIG d   1      10.468   3.806  -7.845  0.00  0.00     0.062 H 
ATOM     15  H   LIG d   1       9.316   2.871  -5.879  0.00  0.00     0.062 H 
ATOM     16  H   LIG d   1       7.442   1.388  -4.919  0.00  0.00     0.066 H 
ENDROOT
BRANCH   1  17
ATOM     17  C   LIG d   1       5.287   0.848  -8.644  0.00  0.00    -0.003 A 
ATOM     18  C   LIG d   1       5.237   2.132  -9.154  0.00  0.00    -0.055 A 
ATOM     19  C   LIG d   1       4.021   2.778  -9.280  0.00  0.00    -0.061 A 
ATOM     20  H   LIG d   1       6.147   2.630  -9.453  0.00  0.00     0.062 H 
ATOM     21  C   LIG d   1       2.856   2.140  -8.897  0.00  0.00    -0.062 A 
ATOM     22  H   LIG d   1       3.981   3.781  -9.678  0.00  0.00     0.062 H 
ATOM     23  C   LIG d   1       2.907   0.856  -8.388  0.00  0.00    -0.061 A 
ATOM     24  H   LIG d   1       1.907   2.644  -8.995  0.00  0.00     0.062 H 
ATOM     25  C   LIG d   1       4.122   0.208  -8.265  0.00  0.00    -0.055 A 
ATOM     26  H   LIG d   1       1.997   0.357  -8.088  0.00  0.00     0.062 H 
ATOM     27  H   LIG d   1       4.161  -0.796  -7.871  0.00  0.00     0.062 H 
ENDBRANCH   1  17
BRANCH  10  28
ATOM     28  C   LIG d   1       5.869  -0.758  -5.018  0.00  0.00     0.017 A 
ATOM     29  C   LIG d   1       5.197  -1.968  -5.208  0.00  0.00    -0.048 A 
ATOM     30  C   LIG d   1       4.494  -2.535  -4.166  0.00  0.00    -0.019 A 
ATOM     31  H   LIG d   1       5.233  -2.463  -6.167  0.00  0.00     0.063 H 
ATOM     32  C   LIG d   1       4.443  -1.898  -2.933  0.00  0.00     0.117 A 
ATOM     33  H   LIG d   1       3.979  -3.473  -4.311  0.00  0.00     0.065 H 
ATOM     34  C   LIG d   1       5.110  -0.694  -2.740  0.00  0.00    -0.019 A 
ATOM     35  C   LIG d   1       5.820  -0.124  -3.774  0.00  0.00    -0.048 A 
ATOM     36  H   LIG d   1       5.071  -0.204  -1.778  0.00  0.00     0.065 H 
ATOM     37  H   LIG d   1       6.338   0.811  -3.623  0.00  0.00     0.063 H 
BRANCH  32  38
ATOM     38  O   LIG d   1       3.744  -2.456  -1.911  0.00  0.00    -0.507 OA
ATOM     39  H   LIG d   1       4.185  -3.212  -1.498  0.00  0.00     0.292 HD
ENDBRANCH  32  38
ENDBRANCH  10  28
TORSDOF 3
ENDMDL
MODEL 9
REMARK VINA RESULT:      -5.9      9.682     12.329
REMARK  3 active torsions:
REMARK  status: ('A' for Active; 'I' for Inactive)
REMARK    1  A    between atoms: C_4  and  C_7 
REMARK    2  A    between atoms: C_16  and  C_18 
REMARK    3  A    between atoms: C_21  and  O_24 
ROOT
ATOM      1  C   LIG d   1      11.529   5.650  -4.758  0.00  0.00     0.151 C 
ATOM      2  H   LIG d   1      12.406   5.318  -5.315  0.00  0.00     0.084 H 
ATOM      3  C   LIG d   1      10.716   6.585  -5.616  0.00  0.00     0.004 A 
ATOM      4  C   LIG d   1      10.693   6.460  -6.987  0.00  0.00    -0.054 A 
ATOM      5  C   LIG d   1       9.922   7.327  -7.744  0.00  0.00    -0.061 A 
ATOM      6  C   LIG d   1       9.173   8.317  -7.135  0.00  0.00    -0.061 A 
ATOM      7  C   LIG d   1       9.192   8.459  -5.761  0.00  0.00    -0.054 A 
ATOM      8  C   LIG d   1       9.972   7.594  -4.995  0.00  0.00    -0.015 A 
ATOM      9  C   LIG d   1      10.055   7.723  -3.530  0.00  0.00    -0.012 C 
ATOM     10  C   LIG d   1      11.036   7.054  -2.882  0.00  0.00     0.130 C 
ATOM     11  O   LIG d   1      11.948   6.329  -3.574  0.00  0.00    -0.479 OA
ATOM     12  H   LIG d   1      11.273   5.688  -7.469  0.00  0.00     0.062 H 
ATOM     13  H   LIG d   1       9.907   7.227  -8.820  0.00  0.00     0.062 H 
ATOM     14  H   LIG d   1       8.572   8.983  -7.736  0.00  0.00     0.062 H 
ATOM     15  H   LIG d   1       8.607   9.231  -5.286  0.00  0.00     0.062 H 
ATOM     16  H   LIG d   1       9.352   8.339  -2.988  0.00  0.00     0.066 H 
ENDROOT
BRANCH   1  17
ATOM     17  C   LIG d   1      10.691   4.456  -4.382  0.00  0.00    -0.003 A 
ATOM     18  C   LIG d   1       9.458   4.261  -4.978  0.00  0.00    -0.055 A 
ATOM     19  C   LIG d   1       8.690   3.165  -4.632  0.00  0.00    -0.061 A 
ATOM     20  H   LIG d   1       9.097   4.965  -5.712  0.00  0.00     0.062 H 
ATOM     21  C   LIG d   1       9.153   2.264  -3.692  0.00  0.00    -0.062 A 
ATOM     22  H   LIG d   1       7.726   3.013  -5.096  0.00  0.00     0.062 H 
ATOM     23  C   LIG d   1      10.386   2.459  -3.097  0.00  0.00    -0.061 A 
ATOM     24  H   LIG d   1       8.553   1.409  -3.421  0.00  0.00     0.062 H 
ATOM     25  C   LIG d   1      11.157   3.552  -3.445  0.00  0.00    -0.055 A 
ATOM     26  H   LIG d   1      10.749   1.755  -2.363  0.00  0.00     0.062 H 
ATOM     27  H   LIG d   1      12.121   3.702  -2.984  0.00  0.00     0.062 H 
ENDBRANCH   1  17
BRANCH  10  28
ATOM     28  C   LIG d   1      11.110   7.111  -1.409  0.00  0.00     0.017 A 
ATOM     29  C   LIG d   1      11.339   8.329  -0.765  0.00  0.00    -0.048 A 
ATOM     30  C   LIG d   1      11.402   8.378   0.611  0.00  0.00    -0.019 A 
ATOM     31  H   LIG d   1      11.462   9.233  -1.344  0.00  0.00     0.063 H 
ATOM     32  C   LIG d   1      11.249   7.216   1.357  0.00  0.00     0.117 A 
ATOM     33  H   LIG d   1      11.574   9.321   1.109  0.00  0.00     0.065 H 
ATOM     34  C   LIG d   1      11.021   6.003   0.720  0.00  0.00    -0.019 A 
ATOM     35  C   LIG d   1      10.951   5.946  -0.655  0.00  0.00    -0.048 A 
ATOM     36  H   LIG d   1      10.899   5.102   1.304  0.00  0.00     0.065 H 
ATOM     37  H   LIG d   1      10.773   5.002  -1.148  0.00  0.00     0.063 H 
BRANCH  32  38
ATOM     38  O   LIG d   1      11.318   7.268   2.712  0.00  0.00    -0.507 OA
ATOM     39  H   LIG d   1      10.757   7.949   3.109  0.00  0.00     0.292 HD
ENDBRANCH  32  38
ENDBRANCH  10  28
TORSDOF 3
ENDMDL
MODEL 10
REMARK VINA RESULT:      -5.9      2.662      6.519
REMARK  3 active torsions:
REMARK  status: ('A' for Active; 'I' for Inactive)
REMARK    1  A    between atoms: C_4  and  C_7 
REMARK    2  A    between atoms: C_16  and  C_18 
REMARK    3  A    between atoms: C_21  and  O_24 
ROOT
ATOM      1  C   LIG d   1       4.721   1.183  -8.903  0.00  0.00     0.151 C 
ATOM      2  H   LIG d   1       4.717   2.206  -9.280  0.00  0.00     0.084 H 
ATOM      3  C   LIG d   1       3.938   0.301  -9.841  0.00  0.00     0.004 A 
ATOM      4  C   LIG d   1       3.872   0.570 -11.188  0.00  0.00    -0.054 A 
ATOM      5  C   LIG d   1       3.156  -0.271 -12.024  0.00  0.00    -0.061 A 
ATOM      6  C   LIG d   1       2.506  -1.381 -11.516  0.00  0.00    -0.061 A 
ATOM      7  C   LIG d   1       2.557  -1.660 -10.164  0.00  0.00    -0.054 A 
ATOM      8  C   LIG d   1       3.270  -0.813  -9.318  0.00  0.00    -0.015 A 
ATOM      9  C   LIG d   1       3.329  -1.044  -7.865  0.00  0.00    -0.012 C 
ATOM     10  C   LIG d   1       3.784  -0.046  -7.074  0.00  0.00     0.130 C 
ATOM     11  O   LIG d   1       4.125   1.153  -7.606  0.00  0.00    -0.479 OA
ATOM     12  H   LIG d   1       4.378   1.433 -11.593  0.00  0.00     0.062 H 
ATOM     13  H   LIG d   1       3.105  -0.057 -13.083  0.00  0.00     0.062 H 
ATOM     14  H   LIG d   1       1.955  -2.032 -12.179  0.00  0.00     0.062 H 
ATOM     15  H   LIG d   1       2.050  -2.526  -9.768  0.00  0.00     0.062 H 
ATOM     16  H   LIG d   1       3.013  -1.986  -7.441  0.00  0.00     0.066 H 
ENDROOT
BRANCH   1  17
ATOM     17  C   LIG d   1       6.141   0.686  -8.814  0.00  0.00    -0.003 A 
ATOM     18  C   LIG d   1       7.004   1.224  -7.877  0.00  0.00    -0.055 A 
ATOM     19  C   LIG d   1       8.307   0.769  -7.797  0.00  0.00    -0.061 A 
ATOM     20  H   LIG d   1       6.660   1.998  -7.209  0.00  0.00     0.062 H 
ATOM     21  C   LIG d   1       8.747  -0.223  -8.653  0.00  0.00    -0.062 A 
ATOM     22  H   LIG d   1       8.981   1.189  -7.065  0.00  0.00     0.062 H 
ATOM     23  C   LIG d   1       7.884  -0.760  -9.589  0.00  0.00    -0.061 A 
ATOM     24  H   LIG d   1       9.765  -0.578  -8.591  0.00  0.00     0.062 H 
ATOM     25  C   LIG d   1       6.579  -0.309  -9.668  0.00  0.00    -0.055 A 
ATOM     26  H   LIG d   1       8.227  -1.536 -10.258  0.00  0.00     0.062 H 
ATOM     27  H   LIG d   1       5.904  -0.732 -10.396  0.00  0.00     0.062 H 
ENDBRANCH   1  17
BRANCH  10  28
ATOM     28  C   LIG d   1       3.915  -0.265  -5.620  0.00  0.00     0.017 A 
ATOM     29  C   LIG d   1       2.893   0.136  -4.756  0.00  0.00    -0.048 A 
ATOM     30  C   LIG d   1       3.017  -0.076  -3.400  0.00  0.00    -0.019 A 
ATOM     31  H   LIG d   1       2.004   0.607  -5.150  0.00  0.00     0.063 H 
ATOM     32  C   LIG d   1       4.161  -0.678  -2.891  0.00  0.00     0.117 A 
ATOM     33  H   LIG d   1       2.225   0.229  -2.732  0.00  0.00     0.065 H 
ATOM     34  C   LIG d   1       5.179  -1.078  -3.747  0.00  0.00    -0.019 A 
ATOM     35  C   LIG d   1       5.061  -0.875  -5.105  0.00  0.00    -0.048 A 
ATOM     36  H   LIG d   1       6.066  -1.549  -3.347  0.00  0.00     0.065 H 
ATOM     37  H   LIG d   1       5.853  -1.187  -5.769  0.00  0.00     0.063 H 
BRANCH  32  38
ATOM     38  O   LIG d   1       4.282  -0.880  -1.553  0.00  0.00    -0.507 OA
ATOM     39  H   LIG d   1       4.841  -0.230  -1.105  0.00  0.00     0.292 HD
ENDBRANCH  32  38
ENDBRANCH  10  28
TORSDOF 3
ENDMDL
