MODEL 1
REMARK VINA RESULT:      -5.2      0.000      0.000
REMARK  15 active torsions:
REMARK  status: ('A' for Active; 'I' for Inactive)
REMARK    1  A    between atoms: C_1  and  C_2 
REMARK    2  A    between atoms: C_3  and  O_14 
REMARK    3  A    between atoms: C_5  and  C_12 
REMARK    4  A    between atoms: C_6  and  C_10 
REMARK    5  A    between atoms: C_7  and  O_8 
REMARK    6  A    between atoms: O_8  and  C_9 
REMARK    7  A    between atoms: C_10  and  O_11 
REMARK    8  A    between atoms: C_12  and  O_13 
REMARK    9  A    between atoms: O_14  and  C_15 
REMARK   10  A    between atoms: C_15  and  C_16 
REMARK   11  A    between atoms: C_16  and  C_18 
REMARK   12  A    between atoms: C_16  and  C_19 
REMARK   13  A    between atoms: C_19  and  C_21 
REMARK   14  A    between atoms: C_19  and  C_22 
REMARK   15  A    between atoms: C_22  and  O_23 
ROOT
ATOM      1  C   LIG d   1       3.529  -0.381  -7.776  0.00  0.00     0.033 A 
ATOM      2  C   LIG d   1       4.020  -0.774  -6.539  0.00  0.00     0.127 A 
ATOM      3  C   LIG d   1       4.294  -2.113  -6.297  0.00  0.00    -0.014 A 
ATOM      4  C   LIG d   1       4.068  -3.055  -7.282  0.00  0.00    -0.010 A 
ATOM      5  C   LIG d   1       3.580  -2.666  -8.514  0.00  0.00     0.025 A 
ATOM      6  C   LIG d   1       3.309  -1.328  -8.764  0.00  0.00     0.132 A 
ATOM      7  H   LIG d   1       4.680  -2.418  -5.336  0.00  0.00     0.066 H 
ENDROOT
BRANCH   2   8
ATOM      8  O   LIG d   1       4.236   0.151  -5.569  0.00  0.00    -0.491 OA
BRANCH   8   9
ATOM      9  C   LIG d   1       3.589  -0.062  -4.313  0.00  0.00     0.092 C 
ATOM     10  H   LIG d   1       2.711   0.595  -4.237  0.00  0.00     0.070 H 
ATOM     11  H   LIG d   1       3.268  -1.112  -4.239  0.00  0.00     0.070 H 
BRANCH   9  12
ATOM     12  C   LIG d   1       4.563   0.255  -3.177  0.00  0.00    -0.005 C 
ATOM     13  H   LIG d   1       5.460   0.742  -3.588  0.00  0.00     0.033 H 
BRANCH  12  14
ATOM     14  C   LIG d   1       3.889   1.191  -2.173  0.00  0.00    -0.059 C 
ATOM     15  H   LIG d   1       3.583   2.117  -2.682  0.00  0.00     0.023 H 
ATOM     16  H   LIG d   1       4.596   1.434  -1.365  0.00  0.00     0.023 H 
ATOM     17  H   LIG d   1       3.002   0.697  -1.747  0.00  0.00     0.023 H 
ENDBRANCH  12  14
BRANCH  12  18
ATOM     18  C   LIG d   1       4.965  -1.043  -2.473  0.00  0.00    -0.015 C 
ATOM     19  H   LIG d   1       5.199  -0.831  -1.419  0.00  0.00     0.032 H 
BRANCH  18  20
ATOM     20  C   LIG d   1       3.810  -2.043  -2.547  0.00  0.00    -0.060 C 
ATOM     21  H   LIG d   1       3.300  -1.944  -3.516  0.00  0.00     0.023 H 
ATOM     22  H   LIG d   1       3.096  -1.840  -1.734  0.00  0.00     0.023 H 
ATOM     23  H   LIG d   1       4.202  -3.065  -2.443  0.00  0.00     0.023 H 
ENDBRANCH  18  20
BRANCH  18  24
ATOM     24  C   LIG d   1       6.197  -1.636  -3.159  0.00  0.00     0.047 C 
ATOM     25  H   LIG d   1       6.896  -2.011  -2.397  0.00  0.00     0.056 H 
ATOM     26  H   LIG d   1       5.889  -2.465  -3.814  0.00  0.00     0.056 H 
BRANCH  24  27
ATOM     27  O   LIG d   1       6.841  -0.626  -3.940  0.00  0.00    -0.395 OA
ATOM     28  H   LIG d   1       6.266   0.238  -4.304  0.00  0.00     0.209 HD
ENDBRANCH  24  27
ENDBRANCH  18  24
ENDBRANCH  12  18
ENDBRANCH   9  12
ENDBRANCH   8   9
ENDBRANCH   2   8
BRANCH   1  29
ATOM     29  C   LIG d   1       3.236   1.072  -8.044  0.00  0.00    -0.033 C 
ATOM     30  H   LIG d   1       3.183   1.241  -9.130  0.00  0.00     0.028 H 
ATOM     31  H   LIG d   1       4.037   1.693  -7.616  0.00  0.00     0.028 H 
ATOM     32  H   LIG d   1       2.274   1.344  -7.584  0.00  0.00     0.028 H 
ENDBRANCH   1  29
BRANCH   6  33
ATOM     33  O   LIG d   1       2.828  -0.946  -9.977  0.00  0.00    -0.494 OA
BRANCH  33  34
ATOM     34  C   LIG d   1       1.415  -0.761 -10.085  0.00  0.00     0.079 C 
ATOM     35  H   LIG d   1       0.920  -1.201  -9.207  0.00  0.00     0.066 H 
ATOM     36  H   LIG d   1       1.050  -1.252 -10.998  0.00  0.00     0.066 H 
ATOM     37  H   LIG d   1       1.190   0.314 -10.131  0.00  0.00     0.066 H 
ENDBRANCH  33  34
ENDBRANCH   6  33
BRANCH   4  38
ATOM     38  C   LIG d   1       4.362  -4.509  -7.014  0.00  0.00     0.070 C 
ATOM     39  H   LIG d   1       4.583  -5.019  -7.963  0.00  0.00     0.061 H 
ATOM     40  H   LIG d   1       5.231  -4.589  -6.344  0.00  0.00     0.061 H 
BRANCH  38  41
ATOM     41  O   LIG d   1       3.226  -5.119  -6.398  0.00  0.00    -0.390 OA
ATOM     42  H   LIG d   1       2.219  -4.718  -6.586  0.00  0.00     0.210 HD
ENDBRANCH  38  41
ENDBRANCH   4  38
BRANCH   5  43
ATOM     43  C   LIG d   1       3.341  -3.696  -9.589  0.00  0.00     0.073 C 
ATOM     44  H   LIG d   1       3.628  -3.279 -10.566  0.00  0.00     0.061 H 
ATOM     45  H   LIG d   1       3.946  -4.591  -9.381  0.00  0.00     0.061 H 
BRANCH  43  46
ATOM     46  O   LIG d   1       1.957  -4.050  -9.611  0.00  0.00    -0.390 OA
ATOM     47  H   LIG d   1       1.498  -4.418 -10.540  0.00  0.00     0.210 HD
ENDBRANCH  43  46
ENDBRANCH   5  43
TORSDOF 15
ENDMDL
MODEL 2
REMARK VINA RESULT:      -4.9      3.014      5.191
REMARK  15 active torsions:
REMARK  status: ('A' for Active; 'I' for Inactive)
REMARK    1  A    between atoms: C_1  and  C_2 
REMARK    2  A    between atoms: C_3  and  O_14 
REMARK    3  A    between atoms: C_5  and  C_12 
REMARK    4  A    between atoms: C_6  and  C_10 
REMARK    5  A    between atoms: C_7  and  O_8 
REMARK    6  A    between atoms: O_8  and  C_9 
REMARK    7  A    between atoms: C_10  and  O_11 
REMARK    8  A    between atoms: C_12  and  O_13 
REMARK    9  A    between atoms: O_14  and  C_15 
REMARK   10  A    between atoms: C_15  and  C_16 
REMARK   11  A    between atoms: C_16  and  C_18 
REMARK   12  A    between atoms: C_16  and  C_19 
REMARK   13  A    between atoms: C_19  and  C_21 
REMARK   14  A    between atoms: C_19  and  C_22 
REMARK   15  A    between atoms: C_22  and  O_23 
ROOT
ATOM      1  C   LIG d   1       7.279  -3.730  -4.541  0.00  0.00     0.033 A 
ATOM      2  C   LIG d   1       5.970  -3.274  -4.585  0.00  0.00     0.127 A 
ATOM      3  C   LIG d   1       4.998  -4.021  -5.234  0.00  0.00    -0.014 A 
ATOM      4  C   LIG d   1       5.335  -5.213  -5.846  0.00  0.00    -0.010 A 
ATOM      5  C   LIG d   1       6.637  -5.670  -5.804  0.00  0.00     0.025 A 
ATOM      6  C   LIG d   1       7.613  -4.929  -5.151  0.00  0.00     0.132 A 
ATOM      7  H   LIG d   1       3.977  -3.668  -5.264  0.00  0.00     0.066 H 
ENDROOT
BRANCH   2   8
ATOM      8  O   LIG d   1       5.640  -2.099  -3.988  0.00  0.00    -0.491 OA
BRANCH   8   9
ATOM      9  C   LIG d   1       4.353  -1.556  -4.291  0.00  0.00     0.092 C 
ATOM     10  H   LIG d   1       4.473  -0.577  -4.778  0.00  0.00     0.070 H 
ATOM     11  H   LIG d   1       3.817  -2.239  -4.968  0.00  0.00     0.070 H 
BRANCH   9  12
ATOM     12  C   LIG d   1       3.553  -1.388  -2.998  0.00  0.00    -0.005 C 
ATOM     13  H   LIG d   1       2.830  -2.212  -2.905  0.00  0.00     0.033 H 
BRANCH  12  14
ATOM     14  C   LIG d   1       4.507  -1.409  -1.802  0.00  0.00    -0.059 C 
ATOM     15  H   LIG d   1       4.186  -2.184  -1.091  0.00  0.00     0.023 H 
ATOM     16  H   LIG d   1       4.493  -0.427  -1.305  0.00  0.00     0.023 H 
ATOM     17  H   LIG d   1       5.527  -1.629  -2.150  0.00  0.00     0.023 H 
ENDBRANCH  12  14
BRANCH  12  18
ATOM     18  C   LIG d   1       2.806  -0.054  -3.031  0.00  0.00    -0.015 C 
ATOM     19  H   LIG d   1       1.856  -0.152  -2.484  0.00  0.00     0.032 H 
BRANCH  18  20
ATOM     20  C   LIG d   1       3.664   1.028  -2.371  0.00  0.00    -0.060 C 
ATOM     21  H   LIG d   1       3.795   1.868  -3.068  0.00  0.00     0.023 H 
ATOM     22  H   LIG d   1       4.647   0.608  -2.111  0.00  0.00     0.023 H 
ATOM     23  H   LIG d   1       3.165   1.385  -1.457  0.00  0.00     0.023 H 
ENDBRANCH  18  20
BRANCH  18  24
ATOM     24  C   LIG d   1       2.520   0.337  -4.482  0.00  0.00     0.047 C 
ATOM     25  H   LIG d   1       3.171  -0.244  -5.152  0.00  0.00     0.056 H 
ATOM     26  H   LIG d   1       1.467   0.125  -4.718  0.00  0.00     0.056 H 
BRANCH  24  27
ATOM     27  O   LIG d   1       2.777   1.732  -4.660  0.00  0.00    -0.395 OA
ATOM     28  H   LIG d   1       2.384   2.255  -5.544  0.00  0.00     0.209 HD
ENDBRANCH  24  27
ENDBRANCH  18  24
ENDBRANCH  12  18
ENDBRANCH   9  12
ENDBRANCH   8   9
ENDBRANCH   2   8
BRANCH   1  29
ATOM     29  C   LIG d   1       8.336  -2.924  -3.832  0.00  0.00    -0.033 C 
ATOM     30  H   LIG d   1       9.281  -2.985  -4.391  0.00  0.00     0.028 H 
ATOM     31  H   LIG d   1       8.485  -3.325  -2.818  0.00  0.00     0.028 H 
ATOM     32  H   LIG d   1       8.015  -1.874  -3.767  0.00  0.00     0.028 H 
ENDBRANCH   1  29
BRANCH   6  33
ATOM     33  O   LIG d   1       8.895  -5.379  -5.110  0.00  0.00    -0.494 OA
BRANCH  33  34
ATOM     34  C   LIG d   1       9.253  -6.217  -4.009  0.00  0.00     0.079 C 
ATOM     35  H   LIG d   1       8.922  -7.247  -4.210  0.00  0.00     0.066 H 
ATOM     36  H   LIG d   1       8.769  -5.848  -3.094  0.00  0.00     0.066 H 
ATOM     37  H   LIG d   1      10.345  -6.203  -3.878  0.00  0.00     0.066 H 
ENDBRANCH  33  34
ENDBRANCH   6  33
BRANCH   4  38
ATOM     38  C   LIG d   1       4.277  -6.020  -6.555  0.00  0.00     0.070 C 
ATOM     39  H   LIG d   1       4.607  -6.234  -7.582  0.00  0.00     0.061 H 
ATOM     40  H   LIG d   1       4.115  -6.965  -6.017  0.00  0.00     0.061 H 
BRANCH  38  41
ATOM     41  O   LIG d   1       3.057  -5.277  -6.592  0.00  0.00    -0.390 OA
ATOM     42  H   LIG d   1       2.118  -5.776  -6.875  0.00  0.00     0.210 HD
ENDBRANCH  38  41
ENDBRANCH   4  38
BRANCH   5  43
ATOM     43  C   LIG d   1       7.000  -6.974  -6.466  0.00  0.00     0.073 C 
ATOM     44  H   LIG d   1       7.447  -7.651  -5.723  0.00  0.00     0.061 H 
ATOM     45  H   LIG d   1       6.095  -7.437  -6.887  0.00  0.00     0.061 H 
BRANCH  43  46
ATOM     46  O   LIG d   1       7.942  -6.731  -7.514  0.00  0.00    -0.390 OA
ATOM     47  H   LIG d   1       8.143  -7.509  -8.265  0.00  0.00     0.210 HD
ENDBRANCH  43  46
ENDBRANCH   5  43
TORSDOF 15
ENDMDL
MODEL 3
REMARK VINA RESULT:      -4.8     10.765     13.160
REMARK  15 active torsions:
REMARK  status: ('A' for Active; 'I' for Inactive)
REMARK    1  A    between atoms: C_1  and  C_2 
REMARK    2  A    between atoms: C_3  and  O_14 
REMARK    3  A    between atoms: C_5  and  C_12 
REMARK    4  A    between atoms: C_6  and  C_10 
REMARK    5  A    between atoms: C_7  and  O_8 
REMARK    6  A    between atoms: O_8  and  C_9 
REMARK    7  A    between atoms: C_10  and  O_11 
REMARK    8  A    between atoms: C_12  and  O_13 
REMARK    9  A    between atoms: O_14  and  C_15 
REMARK   10  A    between atoms: C_15  and  C_16 
REMARK   11  A    between atoms: C_16  and  C_18 
REMARK   12  A    between atoms: C_16  and  C_19 
REMARK   13  A    between atoms: C_19  and  C_21 
REMARK   14  A    between atoms: C_19  and  C_22 
REMARK   15  A    between atoms: C_22  and  O_23 
ROOT
ATOM      1  C   LIG d   1      10.177   9.032  -6.582  0.00  0.00     0.033 A 
ATOM      2  C   LIG d   1       9.826   8.715  -5.277  0.00  0.00     0.127 A 
ATOM      3  C   LIG d   1       9.396   9.713  -4.414  0.00  0.00    -0.014 A 
ATOM      4  C   LIG d   1       9.328  11.023  -4.850  0.00  0.00    -0.010 A 
ATOM      5  C   LIG d   1       9.677  11.341  -6.148  0.00  0.00     0.025 A 
ATOM      6  C   LIG d   1      10.102  10.345  -7.017  0.00  0.00     0.132 A 
ATOM      7  H   LIG d   1       9.119   9.466  -3.400  0.00  0.00     0.066 H 
ENDROOT
BRANCH   2   8
ATOM      8  O   LIG d   1       9.899   7.429  -4.847  0.00  0.00    -0.491 OA
BRANCH   8   9
ATOM      9  C   LIG d   1      10.578   7.195  -3.612  0.00  0.00     0.092 C 
ATOM     10  H   LIG d   1      11.487   6.605  -3.800  0.00  0.00     0.070 H 
ATOM     11  H   LIG d   1      10.853   8.157  -3.156  0.00  0.00     0.070 H 
BRANCH   9  12
ATOM     12  C   LIG d   1       9.658   6.425  -2.662  0.00  0.00    -0.005 C 
ATOM     13  H   LIG d   1       8.610   6.595  -2.949  0.00  0.00     0.033 H 
BRANCH  12  14
ATOM     14  C   LIG d   1       9.974   4.931  -2.745  0.00  0.00    -0.059 C 
ATOM     15  H   LIG d   1      11.060   4.780  -2.660  0.00  0.00     0.023 H 
ATOM     16  H   LIG d   1       9.623   4.535  -3.710  0.00  0.00     0.023 H 
ATOM     17  H   LIG d   1       9.465   4.402  -1.925  0.00  0.00     0.023 H 
ENDBRANCH  12  14
BRANCH  12  18
ATOM     18  C   LIG d   1       9.880   6.914  -1.230  0.00  0.00    -0.015 C 
ATOM     19  H   LIG d   1       9.435   6.197  -0.524  0.00  0.00     0.032 H 
BRANCH  18  20
ATOM     20  C   LIG d   1      11.381   7.032  -0.958  0.00  0.00    -0.060 C 
ATOM     21  H   LIG d   1      11.633   6.474  -0.044  0.00  0.00     0.023 H 
ATOM     22  H   LIG d   1      11.648   8.091  -0.827  0.00  0.00     0.023 H 
ATOM     23  H   LIG d   1      11.942   6.616  -1.808  0.00  0.00     0.023 H 
ENDBRANCH  18  20
BRANCH  18  24
ATOM     24  C   LIG d   1       9.220   8.282  -1.048  0.00  0.00     0.047 C 
ATOM     25  H   LIG d   1       9.605   8.756  -0.133  0.00  0.00     0.056 H 
ATOM     26  H   LIG d   1       9.452   8.919  -1.915  0.00  0.00     0.056 H 
BRANCH  24  27
ATOM     27  O   LIG d   1       7.805   8.119  -0.942  0.00  0.00    -0.395 OA
ATOM     28  H   LIG d   1       7.141   8.568  -1.695  0.00  0.00     0.209 HD
ENDBRANCH  24  27
ENDBRANCH  18  24
ENDBRANCH  12  18
ENDBRANCH   9  12
ENDBRANCH   8   9
ENDBRANCH   2   8
BRANCH   1  29
ATOM     29  C   LIG d   1      10.638   7.950  -7.523  0.00  0.00    -0.033 C 
ATOM     30  H   LIG d   1       9.986   7.931  -8.408  0.00  0.00     0.028 H 
ATOM     31  H   LIG d   1      10.591   6.975  -7.014  0.00  0.00     0.028 H 
ATOM     32  H   LIG d   1      11.674   8.151  -7.835  0.00  0.00     0.028 H 
ENDBRANCH   1  29
BRANCH   6  33
ATOM     33  O   LIG d   1      10.445  10.659  -8.295  0.00  0.00    -0.494 OA
BRANCH  33  34
ATOM     34  C   LIG d   1      11.816  10.984  -8.537  0.00  0.00     0.079 C 
ATOM     35  H   LIG d   1      12.442  10.541  -7.748  0.00  0.00     0.066 H 
ATOM     36  H   LIG d   1      11.940  12.076  -8.535  0.00  0.00     0.066 H 
ATOM     37  H   LIG d   1      12.120  10.581  -9.513  0.00  0.00     0.066 H 
ENDBRANCH  33  34
ENDBRANCH   6  33
BRANCH   4  38
ATOM     38  C   LIG d   1       8.866  12.105  -3.908  0.00  0.00     0.070 C 
ATOM     39  H   LIG d   1       9.674  12.344  -3.201  0.00  0.00     0.061 H 
ATOM     40  H   LIG d   1       8.605  13.005  -4.484  0.00  0.00     0.061 H 
BRANCH  38  41
ATOM     41  O   LIG d   1       7.720  11.651  -3.186  0.00  0.00    -0.390 OA
ATOM     42  H   LIG d   1       7.673  10.612  -2.826  0.00  0.00     0.210 HD
ENDBRANCH  38  41
ENDBRANCH   4  38
BRANCH   5  43
ATOM     43  C   LIG d   1       9.595  12.769  -6.622  0.00  0.00     0.073 C 
ATOM     44  H   LIG d   1       9.085  13.378  -5.861  0.00  0.00     0.061 H 
ATOM     45  H   LIG d   1      10.611  13.161  -6.784  0.00  0.00     0.061 H 
BRANCH  43  46
ATOM     46  O   LIG d   1       8.862  12.824  -7.847  0.00  0.00    -0.390 OA
ATOM     47  H   LIG d   1       7.763  12.872  -7.828  0.00  0.00     0.210 HD
ENDBRANCH  43  46
ENDBRANCH   5  43
TORSDOF 15
ENDMDL
MODEL 4
REMARK VINA RESULT:      -4.7      9.559     11.771
REMARK  15 active torsions:
REMARK  status: ('A' for Active; 'I' for Inactive)
REMARK    1  A    between atoms: C_1  and  C_2 
REMARK    2  A    between atoms: C_3  and  O_14 
REMARK    3  A    between atoms: C_5  and  C_12 
REMARK    4  A    between atoms: C_6  and  C_10 
REMARK    5  A    between atoms: C_7  and  O_8 
REMARK    6  A    between atoms: O_8  and  C_9 
REMARK    7  A    between atoms: C_10  and  O_11 
REMARK    8  A    between atoms: C_12  and  O_13 
REMARK    9  A    between atoms: O_14  and  C_15 
REMARK   10  A    between atoms: C_15  and  C_16 
REMARK   11  A    between atoms: C_16  and  C_18 
REMARK   12  A    between atoms: C_16  and  C_19 
REMARK   13  A    between atoms: C_19  and  C_21 
REMARK   14  A    between atoms: C_19  and  C_22 
REMARK   15  A    between atoms: C_22  and  O_23 
ROOT
ATOM      1  C   LIG d   1       9.709   6.322  -5.484  0.00  0.00     0.033 A 
ATOM      2  C   LIG d   1       9.698   6.986  -4.266  0.00  0.00     0.127 A 
ATOM      3  C   LIG d   1       9.630   8.371  -4.233  0.00  0.00    -0.014 A 
ATOM      4  C   LIG d   1       9.585   9.091  -5.412  0.00  0.00    -0.010 A 
ATOM      5  C   LIG d   1       9.596   8.433  -6.626  0.00  0.00     0.025 A 
ATOM      6  C   LIG d   1       9.658   7.046  -6.665  0.00  0.00     0.132 A 
ATOM      7  H   LIG d   1       9.617   8.888  -3.284  0.00  0.00     0.066 H 
ENDROOT
BRANCH   2   8
ATOM      8  O   LIG d   1       9.748   6.279  -3.107  0.00  0.00    -0.491 OA
BRANCH   8   9
ATOM      9  C   LIG d   1      10.787   6.616  -2.186  0.00  0.00     0.092 C 
ATOM     10  H   LIG d   1      11.532   5.807  -2.161  0.00  0.00     0.070 H 
ATOM     11  H   LIG d   1      11.272   7.551  -2.505  0.00  0.00     0.070 H 
BRANCH   9  12
ATOM     12  C   LIG d   1      10.190   6.803  -0.790  0.00  0.00    -0.005 C 
ATOM     13  H   LIG d   1       9.141   6.471  -0.792  0.00  0.00     0.033 H 
BRANCH  12  14
ATOM     14  C   LIG d   1      10.985   5.973   0.220  0.00  0.00    -0.059 C 
ATOM     15  H   LIG d   1      10.500   6.032   1.206  0.00  0.00     0.023 H 
ATOM     16  H   LIG d   1      12.010   6.366   0.292  0.00  0.00     0.023 H 
ATOM     17  H   LIG d   1      11.017   4.924  -0.110  0.00  0.00     0.023 H 
ENDBRANCH  12  14
BRANCH  12  18
ATOM     18  C   LIG d   1      10.257   8.281  -0.400  0.00  0.00    -0.015 C 
ATOM     19  H   LIG d   1      10.418   8.367   0.685  0.00  0.00     0.032 H 
BRANCH  18  20
ATOM     20  C   LIG d   1      11.414   8.953  -1.142  0.00  0.00    -0.060 C 
ATOM     21  H   LIG d   1      11.241  10.037  -1.185  0.00  0.00     0.023 H 
ATOM     22  H   LIG d   1      11.478   8.550  -2.163  0.00  0.00     0.023 H 
ATOM     23  H   LIG d   1      12.356   8.753  -0.610  0.00  0.00     0.023 H 
ENDBRANCH  18  20
BRANCH  18  24
ATOM     24  C   LIG d   1       8.943   8.968  -0.776  0.00  0.00     0.047 C 
ATOM     25  H   LIG d   1       8.626   9.627   0.046  0.00  0.00     0.056 H 
ATOM     26  H   LIG d   1       9.090   9.566  -1.688  0.00  0.00     0.056 H 
BRANCH  24  27
ATOM     27  O   LIG d   1       7.937   7.980  -1.010  0.00  0.00    -0.395 OA
ATOM     28  H   LIG d   1       6.884   8.280  -1.111  0.00  0.00     0.209 HD
ENDBRANCH  24  27
ENDBRANCH  18  24
ENDBRANCH  12  18
ENDBRANCH   9  12
ENDBRANCH   8   9
ENDBRANCH   2   8
BRANCH   1  29
ATOM     29  C   LIG d   1       9.776   4.818  -5.524  0.00  0.00    -0.033 C 
ATOM     30  H   LIG d   1       9.791   4.479  -6.569  0.00  0.00     0.028 H 
ATOM     31  H   LIG d   1       8.895   4.398  -5.015  0.00  0.00     0.028 H 
ATOM     32  H   LIG d   1      10.690   4.477  -5.015  0.00  0.00     0.028 H 
ENDBRANCH   1  29
BRANCH   6  33
ATOM     33  O   LIG d   1       9.669   6.399  -7.861  0.00  0.00    -0.494 OA
BRANCH  33  34
ATOM     34  C   LIG d   1      10.945   6.163  -8.458  0.00  0.00     0.079 C 
ATOM     35  H   LIG d   1      11.004   5.116  -8.794  0.00  0.00     0.066 H 
ATOM     36  H   LIG d   1      11.737   6.357  -7.721  0.00  0.00     0.066 H 
ATOM     37  H   LIG d   1      11.075   6.831  -9.322  0.00  0.00     0.066 H 
ENDBRANCH  33  34
ENDBRANCH   6  33
BRANCH   4  38
ATOM     38  C   LIG d   1       9.518  10.596  -5.372  0.00  0.00     0.070 C 
ATOM     39  H   LIG d   1      10.509  11.000  -5.119  0.00  0.00     0.061 H 
ATOM     40  H   LIG d   1       9.208  10.975  -6.357  0.00  0.00     0.061 H 
BRANCH  38  41
ATOM     41  O   LIG d   1       8.570  11.004  -4.384  0.00  0.00    -0.390 OA
ATOM     42  H   LIG d   1       7.623  10.456  -4.271  0.00  0.00     0.210 HD
ENDBRANCH  38  41
ENDBRANCH   4  38
BRANCH   5  43
ATOM     43  C   LIG d   1       9.541   9.220  -7.910  0.00  0.00     0.073 C 
ATOM     44  H   LIG d   1       9.598  10.294  -7.684  0.00  0.00     0.061 H 
ATOM     45  H   LIG d   1      10.387   8.935  -8.553  0.00  0.00     0.061 H 
BRANCH  43  46
ATOM     46  O   LIG d   1       8.313   8.941  -8.588  0.00  0.00    -0.390 OA
ATOM     47  H   LIG d   1       8.269   8.137  -9.336  0.00  0.00     0.210 HD
ENDBRANCH  43  46
ENDBRANCH   5  43
TORSDOF 15
ENDMDL
MODEL 5
REMARK VINA RESULT:      -4.6      4.992      7.555
REMARK  15 active torsions:
REMARK  status: ('A' for Active; 'I' for Inactive)
REMARK    1  A    between atoms: C_1  and  C_2 
REMARK    2  A    between atoms: C_3  and  O_14 
REMARK    3  A    between atoms: C_5  and  C_12 
REMARK    4  A    between atoms: C_6  and  C_10 
REMARK    5  A    between atoms: C_7  and  O_8 
REMARK    6  A    between atoms: O_8  and  C_9 
REMARK    7  A    between atoms: C_10  and  O_11 
REMARK    8  A    between atoms: C_12  and  O_13 
REMARK    9  A    between atoms: O_14  and  C_15 
REMARK   10  A    between atoms: C_15  and  C_16 
REMARK   11  A    between atoms: C_16  and  C_18 
REMARK   12  A    between atoms: C_16  and  C_19 
REMARK   13  A    between atoms: C_19  and  C_21 
REMARK   14  A    between atoms: C_19  and  C_22 
REMARK   15  A    between atoms: C_22  and  O_23 
ROOT
ATOM      1  C   LIG d   1       8.379   2.114  -6.186  0.00  0.00     0.033 A 
ATOM      2  C   LIG d   1       7.944   1.732  -4.926  0.00  0.00     0.127 A 
ATOM      3  C   LIG d   1       8.522   2.290  -3.795  0.00  0.00    -0.014 A 
ATOM      4  C   LIG d   1       9.539   3.217  -3.923  0.00  0.00    -0.010 A 
ATOM      5  C   LIG d   1       9.974   3.600  -5.177  0.00  0.00     0.025 A 
ATOM      6  C   LIG d   1       9.395   3.049  -6.312  0.00  0.00     0.132 A 
ATOM      7  H   LIG d   1       8.180   1.995  -2.814  0.00  0.00     0.066 H 
ENDROOT
BRANCH   2   8
ATOM      8  O   LIG d   1       6.949   0.815  -4.800  0.00  0.00    -0.491 OA
BRANCH   8   9
ATOM      9  C   LIG d   1       6.321   0.712  -3.520  0.00  0.00     0.092 C 
ATOM     10  H   LIG d   1       7.084   0.774  -2.731  0.00  0.00     0.070 H 
ATOM     11  H   LIG d   1       5.600   1.534  -3.398  0.00  0.00     0.070 H 
BRANCH   9  12
ATOM     12  C   LIG d   1       5.590  -0.628  -3.419  0.00  0.00    -0.005 C 
ATOM     13  H   LIG d   1       5.078  -0.839  -4.369  0.00  0.00     0.033 H 
BRANCH  12  14
ATOM     14  C   LIG d   1       6.599  -1.739  -3.125  0.00  0.00    -0.059 C 
ATOM     15  H   LIG d   1       7.095  -2.041  -4.059  0.00  0.00     0.023 H 
ATOM     16  H   LIG d   1       6.076  -2.605  -2.692  0.00  0.00     0.023 H 
ATOM     17  H   LIG d   1       7.352  -1.372  -2.412  0.00  0.00     0.023 H 
ENDBRANCH  12  14
BRANCH  12  18
ATOM     18  C   LIG d   1       4.560  -0.563  -2.288  0.00  0.00    -0.015 C 
ATOM     19  H   LIG d   1       4.818  -1.301  -1.515  0.00  0.00     0.032 H 
BRANCH  18  20
ATOM     20  C   LIG d   1       4.564   0.839  -1.675  0.00  0.00    -0.060 C 
ATOM     21  H   LIG d   1       4.820   0.773  -0.609  0.00  0.00     0.023 H 
ATOM     22  H   LIG d   1       3.566   1.290  -1.786  0.00  0.00     0.023 H 
ATOM     23  H   LIG d   1       5.307   1.464  -2.193  0.00  0.00     0.023 H 
ENDBRANCH  18  20
BRANCH  18  24
ATOM     24  C   LIG d   1       3.170  -0.872  -2.845  0.00  0.00     0.047 C 
ATOM     25  H   LIG d   1       2.533  -1.270  -2.041  0.00  0.00     0.056 H 
ATOM     26  H   LIG d   1       2.721   0.050  -3.245  0.00  0.00     0.056 H 
BRANCH  24  27
ATOM     27  O   LIG d   1       3.279  -1.840  -3.891  0.00  0.00    -0.395 OA
ATOM     28  H   LIG d   1       3.074  -2.901  -3.682  0.00  0.00     0.209 HD
ENDBRANCH  24  27
ENDBRANCH  18  24
ENDBRANCH  12  18
ENDBRANCH   9  12
ENDBRANCH   8   9
ENDBRANCH   2   8
BRANCH   1  29
ATOM     29  C   LIG d   1       7.749   1.515  -7.416  0.00  0.00    -0.033 C 
ATOM     30  H   LIG d   1       7.158   2.283  -7.937  0.00  0.00     0.028 H 
ATOM     31  H   LIG d   1       7.091   0.683  -7.124  0.00  0.00     0.028 H 
ATOM     32  H   LIG d   1       8.537   1.142  -8.088  0.00  0.00     0.028 H 
ENDBRANCH   1  29
BRANCH   6  33
ATOM     33  O   LIG d   1       9.824   3.426  -7.545  0.00  0.00    -0.494 OA
BRANCH  33  34
ATOM     34  C   LIG d   1      10.899   2.677  -8.115  0.00  0.00     0.079 C 
ATOM     35  H   LIG d   1      11.858   3.102  -7.782  0.00  0.00     0.066 H 
ATOM     36  H   LIG d   1      10.839   2.724  -9.211  0.00  0.00     0.066 H 
ATOM     37  H   LIG d   1      10.830   1.630  -7.787  0.00  0.00     0.066 H 
ENDBRANCH  33  34
ENDBRANCH   6  33
BRANCH   4  38
ATOM     38  C   LIG d   1      10.168   3.817  -2.692  0.00  0.00     0.070 C 
ATOM     39  H   LIG d   1      10.857   4.622  -2.989  0.00  0.00     0.061 H 
ATOM     40  H   LIG d   1       9.382   4.229  -2.042  0.00  0.00     0.061 H 
BRANCH  38  41
ATOM     41  O   LIG d   1      10.892   2.807  -1.986  0.00  0.00    -0.390 OA
ATOM     42  H   LIG d   1      11.952   2.626  -2.218  0.00  0.00     0.210 HD
ENDBRANCH  38  41
ENDBRANCH   4  38
BRANCH   5  43
ATOM     43  C   LIG d   1      11.078   4.617  -5.313  0.00  0.00     0.073 C 
ATOM     44  H   LIG d   1      11.446   4.894  -4.314  0.00  0.00     0.061 H 
ATOM     45  H   LIG d   1      11.902   4.187  -5.901  0.00  0.00     0.061 H 
BRANCH  43  46
ATOM     46  O   LIG d   1      10.576   5.780  -5.975  0.00  0.00    -0.390 OA
ATOM     47  H   LIG d   1      10.783   6.779  -5.564  0.00  0.00     0.210 HD
ENDBRANCH  43  46
ENDBRANCH   5  43
TORSDOF 15
ENDMDL
MODEL 6
REMARK VINA RESULT:      -4.6      1.432      3.406
REMARK  15 active torsions:
REMARK  status: ('A' for Active; 'I' for Inactive)
REMARK    1  A    between atoms: C_1  and  C_2 
REMARK    2  A    between atoms: C_3  and  O_14 
REMARK    3  A    between atoms: C_5  and  C_12 
REMARK    4  A    between atoms: C_6  and  C_10 
REMARK    5  A    between atoms: C_7  and  O_8 
REMARK    6  A    between atoms: O_8  and  C_9 
REMARK    7  A    between atoms: C_10  and  O_11 
REMARK    8  A    between atoms: C_12  and  O_13 
REMARK    9  A    between atoms: O_14  and  C_15 
REMARK   10  A    between atoms: C_15  and  C_16 
REMARK   11  A    between atoms: C_16  and  C_18 
REMARK   12  A    between atoms: C_16  and  C_19 
REMARK   13  A    between atoms: C_19  and  C_21 
REMARK   14  A    between atoms: C_19  and  C_22 
REMARK   15  A    between atoms: C_22  and  O_23 
ROOT
ATOM      1  C   LIG d   1       4.715  -3.219  -6.991  0.00  0.00     0.033 A 
ATOM      2  C   LIG d   1       4.732  -2.161  -6.094  0.00  0.00     0.127 A 
ATOM      3  C   LIG d   1       4.161  -0.946  -6.446  0.00  0.00    -0.014 A 
ATOM      4  C   LIG d   1       3.586  -0.787  -7.693  0.00  0.00    -0.010 A 
ATOM      5  C   LIG d   1       3.568  -1.839  -8.587  0.00  0.00     0.025 A 
ATOM      6  C   LIG d   1       4.133  -3.058  -8.238  0.00  0.00     0.132 A 
ATOM      7  H   LIG d   1       4.169  -0.123  -5.747  0.00  0.00     0.066 H 
ENDROOT
BRANCH   2   8
ATOM      8  O   LIG d   1       5.302  -2.315  -4.871  0.00  0.00    -0.491 OA
BRANCH   8   9
ATOM      9  C   LIG d   1       4.427  -2.307  -3.741  0.00  0.00     0.092 C 
ATOM     10  H   LIG d   1       3.449  -1.904  -4.039  0.00  0.00     0.070 H 
ATOM     11  H   LIG d   1       4.302  -3.334  -3.367  0.00  0.00     0.070 H 
BRANCH   9  12
ATOM     12  C   LIG d   1       5.026  -1.432  -2.639  0.00  0.00    -0.005 C 
ATOM     13  H   LIG d   1       5.351  -2.068  -1.802  0.00  0.00     0.033 H 
BRANCH  12  14
ATOM     14  C   LIG d   1       6.228  -0.664  -3.193  0.00  0.00    -0.059 C 
ATOM     15  H   LIG d   1       6.307   0.309  -2.686  0.00  0.00     0.023 H 
ATOM     16  H   LIG d   1       6.095  -0.505  -4.273  0.00  0.00     0.023 H 
ATOM     17  H   LIG d   1       7.146  -1.244  -3.018  0.00  0.00     0.023 H 
ENDBRANCH  12  14
BRANCH  12  18
ATOM     18  C   LIG d   1       3.971  -0.440  -2.146  0.00  0.00    -0.015 C 
ATOM     19  H   LIG d   1       3.442  -0.866  -1.280  0.00  0.00     0.032 H 
BRANCH  18  20
ATOM     20  C   LIG d   1       4.652   0.867  -1.734  0.00  0.00    -0.060 C 
ATOM     21  H   LIG d   1       5.691   0.868  -2.094  0.00  0.00     0.023 H 
ATOM     22  H   LIG d   1       4.643   0.955  -0.637  0.00  0.00     0.023 H 
ATOM     23  H   LIG d   1       4.111   1.717  -2.174  0.00  0.00     0.023 H 
ENDBRANCH  18  20
BRANCH  18  24
ATOM     24  C   LIG d   1       2.969  -0.160  -3.268  0.00  0.00     0.047 C 
ATOM     25  H   LIG d   1       3.055  -0.940  -4.038  0.00  0.00     0.056 H 
ATOM     26  H   LIG d   1       1.948  -0.162  -2.857  0.00  0.00     0.056 H 
BRANCH  24  27
ATOM     27  O   LIG d   1       3.246   1.116  -3.848  0.00  0.00    -0.395 OA
ATOM     28  H   LIG d   1       3.724   1.902  -3.246  0.00  0.00     0.209 HD
ENDBRANCH  24  27
ENDBRANCH  18  24
ENDBRANCH  12  18
ENDBRANCH   9  12
ENDBRANCH   8   9
ENDBRANCH   2   8
BRANCH   1  29
ATOM     29  C   LIG d   1       5.329  -4.541  -6.609  0.00  0.00    -0.033 C 
ATOM     30  H   LIG d   1       4.564  -5.329  -6.659  0.00  0.00     0.028 H 
ATOM     31  H   LIG d   1       5.726  -4.480  -5.584  0.00  0.00     0.028 H 
ATOM     32  H   LIG d   1       6.147  -4.781  -7.305  0.00  0.00     0.028 H 
ENDBRANCH   1  29
BRANCH   6  33
ATOM     33  O   LIG d   1       4.115  -4.093  -9.119  0.00  0.00    -0.494 OA
BRANCH  33  34
ATOM     34  C   LIG d   1       3.121  -5.100  -8.917  0.00  0.00     0.079 C 
ATOM     35  H   LIG d   1       3.597  -6.010  -8.522  0.00  0.00     0.066 H 
ATOM     36  H   LIG d   1       2.630  -5.328  -9.873  0.00  0.00     0.066 H 
ATOM     37  H   LIG d   1       2.373  -4.737  -8.197  0.00  0.00     0.066 H 
ENDBRANCH  33  34
ENDBRANCH   6  33
BRANCH   4  38
ATOM     38  C   LIG d   1       2.971   0.536  -8.074  0.00  0.00     0.070 C 
ATOM     39  H   LIG d   1       3.583   1.012  -8.853  0.00  0.00     0.061 H 
ATOM     40  H   LIG d   1       1.953   0.369  -8.457  0.00  0.00     0.061 H 
BRANCH  38  41
ATOM     41  O   LIG d   1       2.916   1.384  -6.925  0.00  0.00    -0.390 OA
ATOM     42  H   LIG d   1       2.040   2.029  -6.760  0.00  0.00     0.210 HD
ENDBRANCH  38  41
ENDBRANCH   4  38
BRANCH   5  43
ATOM     43  C   LIG d   1       2.934  -1.665  -9.943  0.00  0.00     0.073 C 
ATOM     44  H   LIG d   1       2.865  -0.592 -10.180  0.00  0.00     0.061 H 
ATOM     45  H   LIG d   1       3.548  -2.169 -10.704  0.00  0.00     0.061 H 
BRANCH  43  46
ATOM     46  O   LIG d   1       1.623  -2.234  -9.934  0.00  0.00    -0.390 OA
ATOM     47  H   LIG d   1       1.310  -2.907 -10.747  0.00  0.00     0.210 HD
ENDBRANCH  43  46
ENDBRANCH   5  43
TORSDOF 15
ENDMDL
MODEL 7
REMARK VINA RESULT:      -4.5      9.990     12.938
REMARK  15 active torsions:
REMARK  status: ('A' for Active; 'I' for Inactive)
REMARK    1  A    between atoms: C_1  and  C_2 
REMARK    2  A    between atoms: C_3  and  O_14 
REMARK    3  A    between atoms: C_5  and  C_12 
REMARK    4  A    between atoms: C_6  and  C_10 
REMARK    5  A    between atoms: C_7  and  O_8 
REMARK    6  A    between atoms: O_8  and  C_9 
REMARK    7  A    between atoms: C_10  and  O_11 
REMARK    8  A    between atoms: C_12  and  O_13 
REMARK    9  A    between atoms: O_14  and  C_15 
REMARK   10  A    between atoms: C_15  and  C_16 
REMARK   11  A    between atoms: C_16  and  C_18 
REMARK   12  A    between atoms: C_16  and  C_19 
REMARK   13  A    between atoms: C_19  and  C_21 
REMARK   14  A    between atoms: C_19  and  C_22 
REMARK   15  A    between atoms: C_22  and  O_23 
ROOT
ATOM      1  C   LIG d   1      11.601   5.418  -2.391  0.00  0.00     0.033 A 
ATOM      2  C   LIG d   1      10.532   5.897  -3.135  0.00  0.00     0.127 A 
ATOM      3  C   LIG d   1       9.736   6.913  -2.629  0.00  0.00    -0.014 A 
ATOM      4  C   LIG d   1       9.999   7.441  -1.378  0.00  0.00    -0.010 A 
ATOM      5  C   LIG d   1      11.062   6.966  -0.635  0.00  0.00     0.025 A 
ATOM      6  C   LIG d   1      11.866   5.953  -1.140  0.00  0.00     0.132 A 
ATOM      7  H   LIG d   1       8.907   7.289  -3.210  0.00  0.00     0.066 H 
ENDROOT
BRANCH   2   8
ATOM      8  O   LIG d   1      10.270   5.374  -4.361  0.00  0.00    -0.491 OA
BRANCH   8   9
ATOM      9  C   LIG d   1       9.294   6.048  -5.159  0.00  0.00     0.092 C 
ATOM     10  H   LIG d   1       8.610   5.309  -5.601  0.00  0.00     0.070 H 
ATOM     11  H   LIG d   1       8.723   6.745  -4.528  0.00  0.00     0.070 H 
BRANCH   9  12
ATOM     12  C   LIG d   1       9.994   6.826  -6.273  0.00  0.00    -0.005 C 
ATOM     13  H   LIG d   1      10.998   7.126  -5.936  0.00  0.00     0.033 H 
BRANCH  12  14
ATOM     14  C   LIG d   1      10.117   5.940  -7.515  0.00  0.00    -0.059 C 
ATOM     15  H   LIG d   1       9.114   5.718  -7.908  0.00  0.00     0.023 H 
ATOM     16  H   LIG d   1      10.621   5.000  -7.246  0.00  0.00     0.023 H 
ATOM     17  H   LIG d   1      10.704   6.464  -8.283  0.00  0.00     0.023 H 
ENDBRANCH  12  14
BRANCH  12  18
ATOM     18  C   LIG d   1       9.177   8.073  -6.616  0.00  0.00    -0.015 C 
ATOM     19  H   LIG d   1       8.105   7.851  -6.505  0.00  0.00     0.032 H 
BRANCH  18  20
ATOM     20  C   LIG d   1       9.563   9.212  -5.670  0.00  0.00    -0.060 C 
ATOM     21  H   LIG d   1       9.886   8.794  -4.706  0.00  0.00     0.023 H 
ATOM     22  H   LIG d   1       8.693   9.867  -5.512  0.00  0.00     0.023 H 
ATOM     23  H   LIG d   1      10.385   9.793  -6.112  0.00  0.00     0.023 H 
ENDBRANCH  18  20
BRANCH  18  24
ATOM     24  C   LIG d   1       9.464   8.491  -8.060  0.00  0.00     0.047 C 
ATOM     25  H   LIG d   1      10.300   9.206  -8.075  0.00  0.00     0.056 H 
ATOM     26  H   LIG d   1       9.732   7.603  -8.652  0.00  0.00     0.056 H 
BRANCH  24  27
ATOM     27  O   LIG d   1       8.301   9.104  -8.619  0.00  0.00    -0.395 OA
ATOM     28  H   LIG d   1       8.049  10.144  -8.361  0.00  0.00     0.209 HD
ENDBRANCH  24  27
ENDBRANCH  18  24
ENDBRANCH  12  18
ENDBRANCH   9  12
ENDBRANCH   8   9
ENDBRANCH   2   8
BRANCH   1  29
ATOM     29  C   LIG d   1      12.472   4.319  -2.941  0.00  0.00    -0.033 C 
ATOM     30  H   LIG d   1      12.868   4.621  -3.921  0.00  0.00     0.028 H 
ATOM     31  H   LIG d   1      11.876   3.401  -3.055  0.00  0.00     0.028 H 
ATOM     32  H   LIG d   1      13.307   4.132  -2.250  0.00  0.00     0.028 H 
ENDBRANCH   1  29
BRANCH   6  33
ATOM     33  O   LIG d   1      12.911   5.487  -0.408  0.00  0.00    -0.494 OA
BRANCH  33  34
ATOM     34  C   LIG d   1      14.184   6.098  -0.632  0.00  0.00     0.079 C 
ATOM     35  H   LIG d   1      14.042   7.068  -1.131  0.00  0.00     0.066 H 
ATOM     36  H   LIG d   1      14.797   5.444  -1.269  0.00  0.00     0.066 H 
ATOM     37  H   LIG d   1      14.691   6.253   0.331  0.00  0.00     0.066 H 
ENDBRANCH  33  34
ENDBRANCH   6  33
BRANCH   4  38
ATOM     38  C   LIG d   1       9.127   8.542  -0.828  0.00  0.00     0.070 C 
ATOM     39  H   LIG d   1       9.395   8.729   0.222  0.00  0.00     0.061 H 
ATOM     40  H   LIG d   1       9.282   9.459  -1.415  0.00  0.00     0.061 H 
BRANCH  38  41
ATOM     41  O   LIG d   1       7.756   8.148  -0.908  0.00  0.00    -0.390 OA
ATOM     42  H   LIG d   1       7.087   8.310  -0.050  0.00  0.00     0.210 HD
ENDBRANCH  38  41
ENDBRANCH   4  38
BRANCH   5  43
ATOM     43  C   LIG d   1      11.350   7.548   0.725  0.00  0.00     0.073 C 
ATOM     44  H   LIG d   1      12.349   8.008   0.722  0.00  0.00     0.061 H 
ATOM     45  H   LIG d   1      10.595   8.312   0.965  0.00  0.00     0.061 H 
BRANCH  43  46
ATOM     46  O   LIG d   1      11.307   6.511   1.707  0.00  0.00    -0.390 OA
ATOM     47  H   LIG d   1      12.085   6.454   2.482  0.00  0.00     0.210 HD
ENDBRANCH  43  46
ENDBRANCH   5  43
TORSDOF 15
ENDMDL
MODEL 8
REMARK VINA RESULT:      -4.4      2.389      6.377
REMARK  15 active torsions:
REMARK  status: ('A' for Active; 'I' for Inactive)
REMARK    1  A    between atoms: C_1  and  C_2 
REMARK    2  A    between atoms: C_3  and  O_14 
REMARK    3  A    between atoms: C_5  and  C_12 
REMARK    4  A    between atoms: C_6  and  C_10 
REMARK    5  A    between atoms: C_7  and  O_8 
REMARK    6  A    between atoms: O_8  and  C_9 
REMARK    7  A    between atoms: C_10  and  O_11 
REMARK    8  A    between atoms: C_12  and  O_13 
REMARK    9  A    between atoms: O_14  and  C_15 
REMARK   10  A    between atoms: C_15  and  C_16 
REMARK   11  A    between atoms: C_16  and  C_18 
REMARK   12  A    between atoms: C_16  and  C_19 
REMARK   13  A    between atoms: C_19  and  C_21 
REMARK   14  A    between atoms: C_19  and  C_22 
REMARK   15  A    between atoms: C_22  and  O_23 
ROOT
ATOM      1  C   LIG d   1       5.611  -0.560  -6.773  0.00  0.00     0.033 A 
ATOM      2  C   LIG d   1       4.227  -0.649  -6.792  0.00  0.00     0.127 A 
ATOM      3  C   LIG d   1       3.504  -0.449  -5.625  0.00  0.00    -0.014 A 
ATOM      4  C   LIG d   1       4.163  -0.173  -4.442  0.00  0.00    -0.010 A 
ATOM      5  C   LIG d   1       5.541  -0.083  -4.420  0.00  0.00     0.025 A 
ATOM      6  C   LIG d   1       6.269  -0.277  -5.587  0.00  0.00     0.132 A 
ATOM      7  H   LIG d   1       2.426  -0.514  -5.640  0.00  0.00     0.066 H 
ENDROOT
BRANCH   2   8
ATOM      8  O   LIG d   1       3.580  -0.927  -7.954  0.00  0.00    -0.491 OA
BRANCH   8   9
ATOM      9  C   LIG d   1       2.334  -0.263  -8.177  0.00  0.00     0.092 C 
ATOM     10  H   LIG d   1       1.532  -1.009  -8.267  0.00  0.00     0.070 H 
ATOM     11  H   LIG d   1       2.118   0.407  -7.331  0.00  0.00     0.070 H 
BRANCH   9  12
ATOM     12  C   LIG d   1       2.417   0.555  -9.467  0.00  0.00    -0.005 C 
ATOM     13  H   LIG d   1       1.402   0.747  -9.846  0.00  0.00     0.033 H 
BRANCH  12  14
ATOM     14  C   LIG d   1       3.115   1.887  -9.183  0.00  0.00    -0.059 C 
ATOM     15  H   LIG d   1       3.203   2.461 -10.117  0.00  0.00     0.023 H 
ATOM     16  H   LIG d   1       4.118   1.695  -8.774  0.00  0.00     0.023 H 
ATOM     17  H   LIG d   1       2.525   2.462  -8.453  0.00  0.00     0.023 H 
ENDBRANCH  12  14
BRANCH  12  18
ATOM     18  C   LIG d   1       3.214  -0.224 -10.515  0.00  0.00    -0.015 C 
ATOM     19  H   LIG d   1       3.751  -1.050 -10.027  0.00  0.00     0.032 H 
BRANCH  18  20
ATOM     20  C   LIG d   1       2.257  -0.789 -11.567  0.00  0.00    -0.060 C 
ATOM     21  H   LIG d   1       2.046  -0.018 -12.323  0.00  0.00     0.023 H 
ATOM     22  H   LIG d   1       1.318  -1.094 -11.082  0.00  0.00     0.023 H 
ATOM     23  H   LIG d   1       2.719  -1.661 -12.052  0.00  0.00     0.023 H 
ENDBRANCH  18  20
BRANCH  18  24
ATOM     24  C   LIG d   1       4.220   0.710 -11.190  0.00  0.00     0.047 C 
ATOM     25  H   LIG d   1       3.818   1.734 -11.202  0.00  0.00     0.056 H 
ATOM     26  H   LIG d   1       5.167   0.695 -10.631  0.00  0.00     0.056 H 
BRANCH  24  27
ATOM     27  O   LIG d   1       4.452   0.273 -12.531  0.00  0.00    -0.395 OA
ATOM     28  H   LIG d   1       4.605  -0.796 -12.742  0.00  0.00     0.209 HD
ENDBRANCH  24  27
ENDBRANCH  18  24
ENDBRANCH  12  18
ENDBRANCH   9  12
ENDBRANCH   8   9
ENDBRANCH   2   8
BRANCH   1  29
ATOM     29  C   LIG d   1       6.398  -0.771  -8.040  0.00  0.00    -0.033 C 
ATOM     30  H   LIG d   1       7.378  -1.206  -7.796  0.00  0.00     0.028 H 
ATOM     31  H   LIG d   1       6.543   0.195  -8.548  0.00  0.00     0.028 H 
ATOM     32  H   LIG d   1       5.849  -1.455  -8.705  0.00  0.00     0.028 H 
ENDBRANCH   1  29
BRANCH   6  33
ATOM     33  O   LIG d   1       7.625  -0.189  -5.564  0.00  0.00    -0.494 OA
BRANCH  33  34
ATOM     34  C   LIG d   1       8.348  -1.386  -5.270  0.00  0.00     0.079 C 
ATOM     35  H   LIG d   1       9.072  -1.189  -4.466  0.00  0.00     0.066 H 
ATOM     36  H   LIG d   1       8.882  -1.723  -6.170  0.00  0.00     0.066 H 
ATOM     37  H   LIG d   1       7.646  -2.168  -4.946  0.00  0.00     0.066 H 
ENDBRANCH  33  34
ENDBRANCH   6  33
BRANCH   4  38
ATOM     38  C   LIG d   1       3.375   0.039  -3.174  0.00  0.00     0.070 C 
ATOM     39  H   LIG d   1       4.045   0.410  -2.385  0.00  0.00     0.061 H 
ATOM     40  H   LIG d   1       2.580   0.776  -3.356  0.00  0.00     0.061 H 
BRANCH  38  41
ATOM     41  O   LIG d   1       2.794  -1.200  -2.763  0.00  0.00    -0.390 OA
ATOM     42  H   LIG d   1       2.930  -2.102  -3.378  0.00  0.00     0.210 HD
ENDBRANCH  38  41
ENDBRANCH   4  38
BRANCH   5  43
ATOM     43  C   LIG d   1       6.256   0.225  -3.130  0.00  0.00     0.073 C 
ATOM     44  H   LIG d   1       5.532   0.229  -2.302  0.00  0.00     0.061 H 
ATOM     45  H   LIG d   1       7.023  -0.542  -2.942  0.00  0.00     0.061 H 
BRANCH  43  46
ATOM     46  O   LIG d   1       6.878   1.508  -3.224  0.00  0.00    -0.390 OA
ATOM     47  H   LIG d   1       7.568   1.844  -2.436  0.00  0.00     0.210 HD
ENDBRANCH  43  46
ENDBRANCH   5  43
TORSDOF 15
ENDMDL
MODEL 9
REMARK VINA RESULT:      -4.3      1.842      3.049
REMARK  15 active torsions:
REMARK  status: ('A' for Active; 'I' for Inactive)
REMARK    1  A    between atoms: C_1  and  C_2 
REMARK    2  A    between atoms: C_3  and  O_14 
REMARK    3  A    between atoms: C_5  and  C_12 
REMARK    4  A    between atoms: C_6  and  C_10 
REMARK    5  A    between atoms: C_7  and  O_8 
REMARK    6  A    between atoms: O_8  and  C_9 
REMARK    7  A    between atoms: C_10  and  O_11 
REMARK    8  A    between atoms: C_12  and  O_13 
REMARK    9  A    between atoms: O_14  and  C_15 
REMARK   10  A    between atoms: C_15  and  C_16 
REMARK   11  A    between atoms: C_16  and  C_18 
REMARK   12  A    between atoms: C_16  and  C_19 
REMARK   13  A    between atoms: C_19  and  C_21 
REMARK   14  A    between atoms: C_19  and  C_22 
REMARK   15  A    between atoms: C_22  and  O_23 
ROOT
ATOM      1  C   LIG d   1       5.263  -2.187  -6.482  0.00  0.00     0.033 A 
ATOM      2  C   LIG d   1       6.009  -2.594  -5.385  0.00  0.00     0.127 A 
ATOM      3  C   LIG d   1       6.169  -3.947  -5.119  0.00  0.00    -0.014 A 
ATOM      4  C   LIG d   1       5.576  -4.888  -5.940  0.00  0.00    -0.010 A 
ATOM      5  C   LIG d   1       4.833  -4.485  -7.032  0.00  0.00     0.025 A 
ATOM      6  C   LIG d   1       4.675  -3.134  -7.306  0.00  0.00     0.132 A 
ATOM      7  H   LIG d   1       6.753  -4.264  -4.268  0.00  0.00     0.066 H 
ENDROOT
BRANCH   2   8
ATOM      8  O   LIG d   1       6.587  -1.669  -4.575  0.00  0.00    -0.491 OA
BRANCH   8   9
ATOM      9  C   LIG d   1       6.189  -1.669  -3.203  0.00  0.00     0.092 C 
ATOM     10  H   LIG d   1       6.157  -2.704  -2.831  0.00  0.00     0.070 H 
ATOM     11  H   LIG d   1       6.914  -1.090  -2.611  0.00  0.00     0.070 H 
BRANCH   9  12
ATOM     12  C   LIG d   1       4.803  -1.037  -3.073  0.00  0.00    -0.005 C 
ATOM     13  H   LIG d   1       4.382  -0.868  -4.076  0.00  0.00     0.033 H 
BRANCH  12  14
ATOM     14  C   LIG d   1       3.886  -1.974  -2.286  0.00  0.00    -0.059 C 
ATOM     15  H   LIG d   1       4.491  -2.604  -1.617  0.00  0.00     0.023 H 
ATOM     16  H   LIG d   1       3.327  -2.614  -2.985  0.00  0.00     0.023 H 
ATOM     17  H   LIG d   1       3.178  -1.379  -1.688  0.00  0.00     0.023 H 
ENDBRANCH  12  14
BRANCH  12  18
ATOM     18  C   LIG d   1       4.919   0.300  -2.337  0.00  0.00    -0.015 C 
ATOM     19  H   LIG d   1       5.213   0.119  -1.293  0.00  0.00     0.032 H 
BRANCH  18  20
ATOM     20  C   LIG d   1       5.975   1.170  -3.022  0.00  0.00    -0.060 C 
ATOM     21  H   LIG d   1       6.692   1.534  -2.272  0.00  0.00     0.023 H 
ATOM     22  H   LIG d   1       5.486   2.026  -3.509  0.00  0.00     0.023 H 
ATOM     23  H   LIG d   1       6.507   0.573  -3.778  0.00  0.00     0.023 H 
ENDBRANCH  18  20
BRANCH  18  24
ATOM     24  C   LIG d   1       3.569   1.019  -2.368  0.00  0.00     0.047 C 
ATOM     25  H   LIG d   1       2.783   0.310  -2.669  0.00  0.00     0.056 H 
ATOM     26  H   LIG d   1       3.341   1.414  -1.367  0.00  0.00     0.056 H 
BRANCH  24  27
ATOM     27  O   LIG d   1       3.623   2.096  -3.306  0.00  0.00    -0.395 OA
ATOM     28  H   LIG d   1       2.729   2.709  -3.492  0.00  0.00     0.209 HD
ENDBRANCH  24  27
ENDBRANCH  18  24
ENDBRANCH  12  18
ENDBRANCH   9  12
ENDBRANCH   8   9
ENDBRANCH   2   8
BRANCH   1  29
ATOM     29  C   LIG d   1       5.093  -0.720  -6.776  0.00  0.00    -0.033 C 
ATOM     30  H   LIG d   1       4.367  -0.591  -7.592  0.00  0.00     0.028 H 
ATOM     31  H   LIG d   1       6.061  -0.291  -7.078  0.00  0.00     0.028 H 
ATOM     32  H   LIG d   1       4.728  -0.204  -5.876  0.00  0.00     0.028 H 
ENDBRANCH   1  29
BRANCH   6  33
ATOM     33  O   LIG d   1       3.943  -2.739  -8.381  0.00  0.00    -0.494 OA
BRANCH  33  34
ATOM     34  C   LIG d   1       4.641  -2.583  -9.618  0.00  0.00     0.079 C 
ATOM     35  H   LIG d   1       4.297  -1.666 -10.120  0.00  0.00     0.066 H 
ATOM     36  H   LIG d   1       4.442  -3.451 -10.263  0.00  0.00     0.066 H 
ATOM     37  H   LIG d   1       5.720  -2.510  -9.424  0.00  0.00     0.066 H 
ENDBRANCH  33  34
ENDBRANCH   6  33
BRANCH   4  38
ATOM     38  C   LIG d   1       5.747  -6.356  -5.645  0.00  0.00     0.070 C 
ATOM     39  H   LIG d   1       5.296  -6.588  -4.669  0.00  0.00     0.061 H 
ATOM     40  H   LIG d   1       5.250  -6.947  -6.428  0.00  0.00     0.061 H 
BRANCH  38  41
ATOM     41  O   LIG d   1       7.139  -6.677  -5.615  0.00  0.00    -0.390 OA
ATOM     42  H   LIG d   1       7.549  -7.411  -6.325  0.00  0.00     0.210 HD
ENDBRANCH  38  41
ENDBRANCH   4  38
BRANCH   5  43
ATOM     43  C   LIG d   1       4.193  -5.514  -7.928  0.00  0.00     0.073 C 
ATOM     44  H   LIG d   1       4.580  -5.400  -8.952  0.00  0.00     0.061 H 
ATOM     45  H   LIG d   1       4.429  -6.523  -7.557  0.00  0.00     0.061 H 
BRANCH  43  46
ATOM     46  O   LIG d   1       2.776  -5.328  -7.933  0.00  0.00    -0.390 OA
ATOM     47  H   LIG d   1       2.238  -5.177  -6.985  0.00  0.00     0.210 HD
ENDBRANCH  43  46
ENDBRANCH   5  43
TORSDOF 15
ENDMDL
