MODEL 1
REMARK VINA RESULT:      -6.3      0.000      0.000
REMARK  6 active torsions:
REMARK  status: ('A' for Active; 'I' for Inactive)
REMARK    1  A    between atoms: C_1  and  N_54 
REMARK    2  A    between atoms: C_2  and  N_54 
REMARK    3  A    between atoms: C_3  and  C_4 
REMARK    4  A    between atoms: C_3  and  N_54 
REMARK       I    between atoms: C_4  and  N_6 
REMARK    5  A    between atoms: N_6  and  C_7 
REMARK       I    between atoms: N_21  and  C_23 
REMARK    6  A    between atoms: C_23  and  C_25 
ROOT
ATOM      1  C   LIG d   1       7.664   1.670  -4.397  0.00  0.00     0.099 C 
ATOM      2  C   LIG d   1       7.083   1.361  -3.197  0.00  0.00    -0.034 C 
ATOM      3  C   LIG d   1       6.403   0.144  -3.068  0.00  0.00    -0.040 C 
ATOM      4  C   LIG d   1       6.343  -0.729  -4.107  0.00  0.00     0.027 C 
ATOM      5  N   LIG d   1       6.993  -0.464  -5.267  0.00  0.00    -0.310 N 
ATOM      6  C   LIG d   1       7.579   0.743  -5.454  0.00  0.00     0.273 C 
ATOM      7  O   LIG d   1       8.036   1.031  -6.549  0.00  0.00    -0.266 OA
ATOM      8  C   LIG d   1       7.157  -1.452  -6.334  0.00  0.00     0.031 C 
ATOM      9  C   LIG d   1       6.145  -2.579  -6.242  0.00  0.00    -0.006 C 
ATOM     10  H   LIG d   1       6.493  -3.398  -6.871  0.00  0.00     0.033 H 
ATOM     11  C   LIG d   1       6.078  -3.101  -4.806  0.00  0.00    -0.037 C 
ATOM     12  C   LIG d   1       5.528  -1.986  -3.912  0.00  0.00     0.016 C 
ATOM     13  H   LIG d   1       5.547  -2.286  -2.864  0.00  0.00     0.038 H 
ATOM     14  C   LIG d   1       4.085  -1.683  -4.349  0.00  0.00     0.023 C 
ATOM     15  N   LIG d   1       4.133  -1.263  -5.758  0.00  0.00    -0.295 N 
ATOM     16  C   LIG d   1       4.765  -2.157  -6.736  0.00  0.00     0.019 C 
ATOM     17  C   LIG d   1       3.603  -0.085  -6.145  0.00  0.00     0.265 C 
ATOM     18  O   LIG d   1       3.242   0.721  -5.311  0.00  0.00    -0.268 OA
ATOM     19  H   LIG d   1       7.147   2.045  -2.363  0.00  0.00     0.064 H 
ATOM     20  H   LIG d   1       5.922  -0.102  -2.133  0.00  0.00     0.064 H 
ATOM     21  H   LIG d   1       7.042  -0.953  -7.297  0.00  0.00     0.050 H 
ATOM     22  H   LIG d   1       8.161  -1.873  -6.274  0.00  0.00     0.050 H 
ATOM     23  H   LIG d   1       7.076  -3.383  -4.471  0.00  0.00     0.028 H 
ATOM     24  H   LIG d   1       5.417  -3.967  -4.761  0.00  0.00     0.028 H 
ATOM     25  H   LIG d   1       3.674  -0.880  -3.737  0.00  0.00     0.047 H 
ATOM     26  H   LIG d   1       3.471  -2.577  -4.250  0.00  0.00     0.047 H 
ATOM     27  H   LIG d   1       4.141  -3.041  -6.873  0.00  0.00     0.047 H 
ATOM     28  H   LIG d   1       4.864  -1.638  -7.689  0.00  0.00     0.047 H 
ENDROOT
BRANCH   1  29
ATOM     29  N   LIG d   1       8.333   2.889  -4.571  0.00  0.00    -0.277 N 
ATOM     30  C   LIG d   1       9.584   3.044  -4.096  0.00  0.00     0.263 C 
ATOM     31  O   LIG d   1      10.097   2.165  -3.437  0.00  0.00    -0.270 OA
ATOM     32  H   LIG d   1       7.895   3.620  -5.032  0.00  0.00     0.155 HD
BRANCH  30  33
ATOM     33  C   LIG d   1      10.348   4.311  -4.384  0.00  0.00     0.046 C 
ATOM     34  H   LIG d   1      11.277   4.313  -3.814  0.00  0.00     0.091 H 
ATOM     35  H   LIG d   1      10.576   4.364  -5.449  0.00  0.00     0.091 H 
BRANCH  33  36
ATOM     36  N   LIG d   1       9.508   5.470  -4.013  0.00  0.00     0.237 N 
ATOM     37  H   LIG d   1       8.529   5.167  -3.952  0.00  0.00     0.203 HD
BRANCH  36  38
ATOM     38  C   LIG d   1       9.929   5.997  -2.697  0.00  0.00    -0.043 C 
ATOM     39  H   LIG d   1      11.000   5.851  -2.551  0.00  0.00     0.078 H 
ATOM     40  H   LIG d   1       9.697   7.061  -2.650  0.00  0.00     0.078 H 
ATOM     41  H   LIG d   1       9.382   5.470  -1.914  0.00  0.00     0.078 H 
ENDBRANCH  36  38
BRANCH  36  42
ATOM     42  C   LIG d   1       9.622   6.527  -5.039  0.00  0.00    -0.043 C 
ATOM     43  H   LIG d   1       8.861   6.361  -5.803  0.00  0.00     0.078 H 
ATOM     44  H   LIG d   1       9.459   7.496  -4.569  0.00  0.00     0.078 H 
ATOM     45  H   LIG d   1      10.610   6.508  -5.500  0.00  0.00     0.078 H 
ENDBRANCH  36  42
ENDBRANCH  33  36
ENDBRANCH  30  33
ENDBRANCH   1  29
BRANCH  17  46
ATOM     46  C   LIG d   1       3.461   0.227  -7.587  0.00  0.00     0.126 A 
ATOM     47  N   LIG d   1       4.330   1.040  -8.173  0.00  0.00    -0.250 NA
ATOM     48  C   LIG d   1       4.242   1.339  -9.450  0.00  0.00     0.028 A 
ATOM     49  C   LIG d   1       3.231   0.810 -10.236  0.00  0.00    -0.044 A 
ATOM     50  H   LIG d   1       4.969   2.005  -9.893  0.00  0.00     0.083 H 
ATOM     51  C   LIG d   1       2.301  -0.043  -9.664  0.00  0.00    -0.058 A 
ATOM     52  H   LIG d   1       3.168   1.062 -11.285  0.00  0.00     0.063 H 
ATOM     53  C   LIG d   1       2.418  -0.340  -8.316  0.00  0.00    -0.031 A 
ATOM     54  H   LIG d   1       1.503  -0.468 -10.256  0.00  0.00     0.062 H 
ATOM     55  H   LIG d   1       1.712  -1.002  -7.838  0.00  0.00     0.064 H 
ENDBRANCH  17  46
TORSDOF 6
ENDMDL
MODEL 2
REMARK VINA RESULT:      -6.0      4.011      9.288
REMARK  6 active torsions:
REMARK  status: ('A' for Active; 'I' for Inactive)
REMARK    1  A    between atoms: C_1  and  N_54 
REMARK    2  A    between atoms: C_2  and  N_54 
REMARK    3  A    between atoms: C_3  and  C_4 
REMARK    4  A    between atoms: C_3  and  N_54 
REMARK       I    between atoms: C_4  and  N_6 
REMARK    5  A    between atoms: N_6  and  C_7 
REMARK       I    between atoms: N_21  and  C_23 
REMARK    6  A    between atoms: C_23  and  C_25 
ROOT
ATOM      1  C   LIG d   1       1.640  -2.327 -10.270  0.00  0.00     0.099 C 
ATOM      2  C   LIG d   1       1.455  -1.098 -10.841  0.00  0.00    -0.034 C 
ATOM      3  C   LIG d   1       2.548  -0.231 -10.949  0.00  0.00    -0.040 C 
ATOM      4  C   LIG d   1       3.779  -0.612 -10.518  0.00  0.00     0.027 C 
ATOM      5  N   LIG d   1       3.983  -1.862 -10.035  0.00  0.00    -0.310 N 
ATOM      6  C   LIG d   1       2.928  -2.688  -9.831  0.00  0.00     0.273 C 
ATOM      7  O   LIG d   1       3.097  -3.755  -9.262  0.00  0.00    -0.266 OA
ATOM      8  C   LIG d   1       5.314  -2.409  -9.768  0.00  0.00     0.031 C 
ATOM      9  C   LIG d   1       6.365  -1.326  -9.609  0.00  0.00    -0.006 C 
ATOM     10  H   LIG d   1       7.346  -1.791  -9.697  0.00  0.00     0.033 H 
ATOM     11  C   LIG d   1       6.238  -0.308 -10.743  0.00  0.00    -0.037 C 
ATOM     12  C   LIG d   1       4.891   0.407 -10.602  0.00  0.00     0.016 C 
ATOM     13  H   LIG d   1       4.721   1.080 -11.443  0.00  0.00     0.038 H 
ATOM     14  C   LIG d   1       4.901   1.201  -9.285  0.00  0.00     0.023 C 
ATOM     15  N   LIG d   1       5.110   0.235  -8.193  0.00  0.00    -0.295 N 
ATOM     16  C   LIG d   1       6.286  -0.641  -8.248  0.00  0.00     0.019 C 
ATOM     17  C   LIG d   1       4.244   0.161  -7.163  0.00  0.00     0.265 C 
ATOM     18  O   LIG d   1       3.189   0.761  -7.213  0.00  0.00    -0.268 OA
ATOM     19  H   LIG d   1       0.481  -0.801 -11.202  0.00  0.00     0.064 H 
ATOM     20  H   LIG d   1       2.411   0.750 -11.378  0.00  0.00     0.064 H 
ATOM     21  H   LIG d   1       5.276  -3.000  -8.853  0.00  0.00     0.050 H 
ATOM     22  H   LIG d   1       5.600  -3.060 -10.595  0.00  0.00     0.050 H 
ATOM     23  H   LIG d   1       6.282  -0.821 -11.704  0.00  0.00     0.028 H 
ATOM     24  H   LIG d   1       7.048   0.419 -10.676  0.00  0.00     0.028 H 
ATOM     25  H   LIG d   1       3.946   1.709  -9.151  0.00  0.00     0.047 H 
ATOM     26  H   LIG d   1       5.710   1.929  -9.294  0.00  0.00     0.047 H 
ATOM     27  H   LIG d   1       7.187  -0.047  -8.086  0.00  0.00     0.047 H 
ATOM     28  H   LIG d   1       6.210  -1.397  -7.466  0.00  0.00     0.047 H 
ENDROOT
BRANCH   1  29
ATOM     29  N   LIG d   1       0.564  -3.214 -10.124  0.00  0.00    -0.277 N 
ATOM     30  C   LIG d   1       0.291  -4.108 -11.093  0.00  0.00     0.263 C 
ATOM     31  O   LIG d   1       0.916  -4.086 -12.133  0.00  0.00    -0.270 OA
ATOM     32  H   LIG d   1       0.015  -3.182  -9.325  0.00  0.00     0.155 HD
BRANCH  30  33
ATOM     33  C   LIG d   1      -0.790  -5.137 -10.887  0.00  0.00     0.046 C 
ATOM     34  H   LIG d   1      -0.834  -5.797 -11.754  0.00  0.00     0.091 H 
ATOM     35  H   LIG d   1      -0.567  -5.724  -9.996  0.00  0.00     0.091 H 
BRANCH  33  36
ATOM     36  N   LIG d   1      -2.081  -4.443 -10.697  0.00  0.00     0.237 N 
ATOM     37  H   LIG d   1      -1.904  -3.512 -10.300  0.00  0.00     0.203 HD
BRANCH  36  38
ATOM     38  C   LIG d   1      -2.766  -4.286 -11.998  0.00  0.00    -0.043 C 
ATOM     39  H   LIG d   1      -2.366  -4.990 -12.729  0.00  0.00     0.078 H 
ATOM     40  H   LIG d   1      -3.832  -4.469 -11.862  0.00  0.00     0.078 H 
ATOM     41  H   LIG d   1      -2.614  -3.268 -12.357  0.00  0.00     0.078 H 
ENDBRANCH  36  38
BRANCH  36  42
ATOM     42  C   LIG d   1      -2.936  -5.209  -9.766  0.00  0.00    -0.043 C 
ATOM     43  H   LIG d   1      -2.534  -5.111  -8.757  0.00  0.00     0.078 H 
ATOM     44  H   LIG d   1      -3.946  -4.803  -9.796  0.00  0.00     0.078 H 
ATOM     45  H   LIG d   1      -2.959  -6.262 -10.047  0.00  0.00     0.078 H 
ENDBRANCH  36  42
ENDBRANCH  33  36
ENDBRANCH  30  33
ENDBRANCH   1  29
BRANCH  17  46
ATOM     46  C   LIG d   1       4.578  -0.652  -5.970  0.00  0.00     0.126 A 
ATOM     47  N   LIG d   1       5.007  -0.054  -4.866  0.00  0.00    -0.250 NA
ATOM     48  C   LIG d   1       5.310  -0.738  -3.784  0.00  0.00     0.028 A 
ATOM     49  C   LIG d   1       5.190  -2.118  -3.759  0.00  0.00    -0.044 A 
ATOM     50  H   LIG d   1       5.657  -0.217  -2.904  0.00  0.00     0.083 H 
ATOM     51  C   LIG d   1       4.746  -2.783  -4.891  0.00  0.00    -0.058 A 
ATOM     52  H   LIG d   1       5.441  -2.671  -2.866  0.00  0.00     0.063 H 
ATOM     53  C   LIG d   1       4.434  -2.037  -6.016  0.00  0.00    -0.031 A 
ATOM     54  H   LIG d   1       4.643  -3.858  -4.896  0.00  0.00     0.062 H 
ATOM     55  H   LIG d   1       4.084  -2.522  -6.915  0.00  0.00     0.064 H 
ENDBRANCH  17  46
TORSDOF 6
ENDMDL
MODEL 3
REMARK VINA RESULT:      -6.0      3.226      6.750
REMARK  6 active torsions:
REMARK  status: ('A' for Active; 'I' for Inactive)
REMARK    1  A    between atoms: C_1  and  N_54 
REMARK    2  A    between atoms: C_2  and  N_54 
REMARK    3  A    between atoms: C_3  and  C_4 
REMARK    4  A    between atoms: C_3  and  N_54 
REMARK       I    between atoms: C_4  and  N_6 
REMARK    5  A    between atoms: N_6  and  C_7 
REMARK       I    between atoms: N_21  and  C_23 
REMARK    6  A    between atoms: C_23  and  C_25 
ROOT
ATOM      1  C   LIG d   1       6.048  -1.614  -9.004  0.00  0.00     0.099 C 
ATOM      2  C   LIG d   1       7.366  -1.298  -9.190  0.00  0.00    -0.034 C 
ATOM      3  C   LIG d   1       8.281  -1.589  -8.171  0.00  0.00    -0.040 C 
ATOM      4  C   LIG d   1       7.874  -2.200  -7.028  0.00  0.00     0.027 C 
ATOM      5  N   LIG d   1       6.586  -2.594  -6.880  0.00  0.00    -0.310 N 
ATOM      6  C   LIG d   1       5.660  -2.244  -7.805  0.00  0.00     0.273 C 
ATOM      7  O   LIG d   1       4.479  -2.474  -7.597  0.00  0.00    -0.266 OA
ATOM      8  C   LIG d   1       6.133  -3.450  -5.782  0.00  0.00     0.031 C 
ATOM      9  C   LIG d   1       7.091  -3.437  -4.604  0.00  0.00    -0.006 C 
ATOM     10  H   LIG d   1       6.850  -4.286  -3.964  0.00  0.00     0.033 H 
ATOM     11  C   LIG d   1       8.525  -3.627  -5.098  0.00  0.00    -0.037 C 
ATOM     12  C   LIG d   1       8.908  -2.413  -5.948  0.00  0.00     0.016 C 
ATOM     13  H   LIG d   1       9.894  -2.548  -6.394  0.00  0.00     0.038 H 
ATOM     14  C   LIG d   1       8.905  -1.169  -5.043  0.00  0.00     0.023 C 
ATOM     15  N   LIG d   1       7.547  -1.030  -4.494  0.00  0.00    -0.295 N 
ATOM     16  C   LIG d   1       6.962  -2.166  -3.771  0.00  0.00     0.019 C 
ATOM     17  C   LIG d   1       6.855   0.117  -4.648  0.00  0.00     0.265 C 
ATOM     18  O   LIG d   1       7.272   0.982  -5.392  0.00  0.00    -0.268 OA
ATOM     19  H   LIG d   1       7.694  -0.830 -10.106  0.00  0.00     0.064 H 
ATOM     20  H   LIG d   1       9.320  -1.325  -8.296  0.00  0.00     0.064 H 
ATOM     21  H   LIG d   1       5.155  -3.105  -5.446  0.00  0.00     0.050 H 
ATOM     22  H   LIG d   1       6.039  -4.473  -6.148  0.00  0.00     0.050 H 
ATOM     23  H   LIG d   1       8.589  -4.533  -5.702  0.00  0.00     0.028 H 
ATOM     24  H   LIG d   1       9.199  -3.706  -4.245  0.00  0.00     0.028 H 
ATOM     25  H   LIG d   1       9.161  -0.285  -5.628  0.00  0.00     0.047 H 
ATOM     26  H   LIG d   1       9.620  -1.297  -4.232  0.00  0.00     0.047 H 
ATOM     27  H   LIG d   1       7.485  -2.297  -2.823  0.00  0.00     0.047 H 
ATOM     28  H   LIG d   1       5.909  -1.966  -3.575  0.00  0.00     0.047 H 
ENDROOT
BRANCH   1  29
ATOM     29  N   LIG d   1       5.098  -1.317  -9.991  0.00  0.00    -0.277 N 
ATOM     30  C   LIG d   1       4.644  -0.057 -10.131  0.00  0.00     0.263 C 
ATOM     31  O   LIG d   1       4.983   0.802  -9.345  0.00  0.00    -0.270 OA
ATOM     32  H   LIG d   1       4.768  -2.020 -10.573  0.00  0.00     0.155 HD
BRANCH  30  33
ATOM     33  C   LIG d   1       3.712   0.287 -11.265  0.00  0.00     0.046 C 
ATOM     34  H   LIG d   1       2.810   0.751 -10.866  0.00  0.00     0.091 H 
ATOM     35  H   LIG d   1       4.208   0.981 -11.944  0.00  0.00     0.091 H 
BRANCH  33  36
ATOM     36  N   LIG d   1       3.378  -0.950 -12.001  0.00  0.00     0.237 N 
ATOM     37  H   LIG d   1       3.838  -1.746 -11.543  0.00  0.00     0.203 HD
BRANCH  36  38
ATOM     38  C   LIG d   1       1.915  -1.168 -11.984  0.00  0.00    -0.043 C 
ATOM     39  H   LIG d   1       1.495  -0.872 -11.022  0.00  0.00     0.078 H 
ATOM     40  H   LIG d   1       1.459  -0.575 -12.776  0.00  0.00     0.078 H 
ATOM     41  H   LIG d   1       1.713  -2.225 -12.157  0.00  0.00     0.078 H 
ENDBRANCH  36  38
BRANCH  36  42
ATOM     42  C   LIG d   1       3.857  -0.856 -13.396  0.00  0.00    -0.043 C 
ATOM     43  H   LIG d   1       3.302  -0.067 -13.906  0.00  0.00     0.078 H 
ATOM     44  H   LIG d   1       4.917  -0.608 -13.390  0.00  0.00     0.078 H 
ATOM     45  H   LIG d   1       3.706  -1.801 -13.917  0.00  0.00     0.078 H 
ENDBRANCH  36  42
ENDBRANCH  33  36
ENDBRANCH  30  33
ENDBRANCH   1  29
BRANCH  17  46
ATOM     46  C   LIG d   1       5.587   0.323  -3.909  0.00  0.00     0.126 A 
ATOM     47  N   LIG d   1       4.429   0.092  -4.513  0.00  0.00    -0.250 NA
ATOM     48  C   LIG d   1       3.281   0.258  -3.893  0.00  0.00     0.028 A 
ATOM     49  C   LIG d   1       3.241   0.684  -2.575  0.00  0.00    -0.044 A 
ATOM     50  H   LIG d   1       2.357   0.059  -4.417  0.00  0.00     0.083 H 
ATOM     51  C   LIG d   1       4.428   0.938  -1.906  0.00  0.00    -0.058 A 
ATOM     52  H   LIG d   1       2.294   0.817  -2.074  0.00  0.00     0.063 H 
ATOM     53  C   LIG d   1       5.622   0.754  -2.585  0.00  0.00    -0.031 A 
ATOM     54  H   LIG d   1       4.423   1.271  -0.878  0.00  0.00     0.062 H 
ATOM     55  H   LIG d   1       6.565   0.942  -2.095  0.00  0.00     0.064 H 
ENDBRANCH  17  46
TORSDOF 6
ENDMDL
MODEL 4
REMARK VINA RESULT:      -5.8      3.749      7.351
REMARK  6 active torsions:
REMARK  status: ('A' for Active; 'I' for Inactive)
REMARK    1  A    between atoms: C_1  and  N_54 
REMARK    2  A    between atoms: C_2  and  N_54 
REMARK    3  A    between atoms: C_3  and  C_4 
REMARK    4  A    between atoms: C_3  and  N_54 
REMARK       I    between atoms: C_4  and  N_6 
REMARK    5  A    between atoms: N_6  and  C_7 
REMARK       I    between atoms: N_21  and  C_23 
REMARK    6  A    between atoms: C_23  and  C_25 
ROOT
ATOM      1  C   LIG d   1       6.873  -4.850  -5.589  0.00  0.00     0.099 C 
ATOM      2  C   LIG d   1       8.008  -4.276  -5.085  0.00  0.00    -0.034 C 
ATOM      3  C   LIG d   1       7.893  -3.122  -4.301  0.00  0.00    -0.040 C 
ATOM      4  C   LIG d   1       6.672  -2.594  -4.022  0.00  0.00     0.027 C 
ATOM      5  N   LIG d   1       5.542  -3.211  -4.445  0.00  0.00    -0.310 N 
ATOM      6  C   LIG d   1       5.624  -4.273  -5.282  0.00  0.00     0.273 C 
ATOM      7  O   LIG d   1       4.608  -4.735  -5.776  0.00  0.00    -0.266 OA
ATOM      8  C   LIG d   1       4.204  -2.826  -3.994  0.00  0.00     0.031 C 
ATOM      9  C   LIG d   1       4.165  -1.417  -3.431  0.00  0.00    -0.006 C 
ATOM     10  H   LIG d   1       3.238  -1.303  -2.869  0.00  0.00     0.033 H 
ATOM     11  C   LIG d   1       5.322  -1.216  -2.451  0.00  0.00    -0.037 C 
ATOM     12  C   LIG d   1       6.637  -1.307  -3.232  0.00  0.00     0.016 C 
ATOM     13  H   LIG d   1       7.491  -1.258  -2.557  0.00  0.00     0.038 H 
ATOM     14  C   LIG d   1       6.686  -0.140  -4.233  0.00  0.00     0.023 C 
ATOM     15  N   LIG d   1       5.524  -0.279  -5.125  0.00  0.00    -0.295 N 
ATOM     16  C   LIG d   1       4.186  -0.357  -4.528  0.00  0.00     0.019 C 
ATOM     17  C   LIG d   1       5.685  -0.328  -6.463  0.00  0.00     0.265 C 
ATOM     18  O   LIG d   1       6.798  -0.438  -6.937  0.00  0.00    -0.268 OA
ATOM     19  H   LIG d   1       8.978  -4.707  -5.289  0.00  0.00     0.064 H 
ATOM     20  H   LIG d   1       8.782  -2.648  -3.915  0.00  0.00     0.064 H 
ATOM     21  H   LIG d   1       3.516  -2.888  -4.837  0.00  0.00     0.050 H 
ATOM     22  H   LIG d   1       3.878  -3.524  -3.221  0.00  0.00     0.050 H 
ATOM     23  H   LIG d   1       5.295  -1.992  -1.686  0.00  0.00     0.028 H 
ATOM     24  H   LIG d   1       5.240  -0.235  -1.983  0.00  0.00     0.028 H 
ATOM     25  H   LIG d   1       7.608  -0.189  -4.813  0.00  0.00     0.047 H 
ATOM     26  H   LIG d   1       6.633   0.809  -3.701  0.00  0.00     0.047 H 
ATOM     27  H   LIG d   1       3.923   0.612  -4.103  0.00  0.00     0.047 H 
ATOM     28  H   LIG d   1       3.461  -0.619  -5.299  0.00  0.00     0.047 H 
ENDROOT
BRANCH   1  29
ATOM     29  N   LIG d   1       6.950  -5.992  -6.397  0.00  0.00    -0.277 N 
ATOM     30  C   LIG d   1       7.174  -7.198  -5.839  0.00  0.00     0.263 C 
ATOM     31  O   LIG d   1       7.403  -7.284  -4.651  0.00  0.00    -0.270 OA
ATOM     32  H   LIG d   1       6.843  -5.914  -7.357  0.00  0.00     0.155 HD
BRANCH  30  33
ATOM     33  C   LIG d   1       7.142  -8.440  -6.691  0.00  0.00     0.046 C 
ATOM     34  H   LIG d   1       6.918  -8.168  -7.722  0.00  0.00     0.091 H 
ATOM     35  H   LIG d   1       8.113  -8.934  -6.649  0.00  0.00     0.091 H 
BRANCH  33  36
ATOM     36  N   LIG d   1       6.111  -9.357  -6.160  0.00  0.00     0.237 N 
ATOM     37  H   LIG d   1       6.131  -9.322  -5.133  0.00  0.00     0.203 HD
BRANCH  36  38
ATOM     38  C   LIG d   1       4.773  -8.938  -6.629  0.00  0.00    -0.043 C 
ATOM     39  H   LIG d   1       4.354  -8.181  -5.965  0.00  0.00     0.078 H 
ATOM     40  H   LIG d   1       4.861  -8.530  -7.635  0.00  0.00     0.078 H 
ATOM     41  H   LIG d   1       4.117  -9.808  -6.645  0.00  0.00     0.078 H 
ENDBRANCH  36  38
BRANCH  36  42
ATOM     42  C   LIG d   1       6.389 -10.741  -6.599  0.00  0.00    -0.043 C 
ATOM     43  H   LIG d   1       6.250 -11.414  -5.753  0.00  0.00     0.078 H 
ATOM     44  H   LIG d   1       5.693 -11.007  -7.393  0.00  0.00     0.078 H 
ATOM     45  H   LIG d   1       7.412 -10.827  -6.968  0.00  0.00     0.078 H 
ENDBRANCH  36  42
ENDBRANCH  33  36
ENDBRANCH  30  33
ENDBRANCH   1  29
BRANCH  17  46
ATOM     46  C   LIG d   1       4.504  -0.246  -7.355  0.00  0.00     0.126 A 
ATOM     47  N   LIG d   1       4.000   0.941  -7.671  0.00  0.00    -0.250 NA
ATOM     48  C   LIG d   1       2.957   1.058  -8.463  0.00  0.00     0.028 A 
ATOM     49  C   LIG d   1       2.342  -0.062  -9.000  0.00  0.00    -0.044 A 
ATOM     50  H   LIG d   1       2.574   2.041  -8.698  0.00  0.00     0.083 H 
ATOM     51  C   LIG d   1       2.837  -1.320  -8.695  0.00  0.00    -0.058 A 
ATOM     52  H   LIG d   1       1.486   0.045  -9.649  0.00  0.00     0.063 H 
ATOM     53  C   LIG d   1       3.937  -1.414  -7.859  0.00  0.00    -0.031 A 
ATOM     54  H   LIG d   1       2.375  -2.208  -9.102  0.00  0.00     0.062 H 
ATOM     55  H   LIG d   1       4.349  -2.378  -7.601  0.00  0.00     0.064 H 
ENDBRANCH  17  46
TORSDOF 6
ENDMDL
MODEL 5
REMARK VINA RESULT:      -5.8      2.373      3.011
REMARK  6 active torsions:
REMARK  status: ('A' for Active; 'I' for Inactive)
REMARK    1  A    between atoms: C_1  and  N_54 
REMARK    2  A    between atoms: C_2  and  N_54 
REMARK    3  A    between atoms: C_3  and  C_4 
REMARK    4  A    between atoms: C_3  and  N_54 
REMARK       I    between atoms: C_4  and  N_6 
REMARK    5  A    between atoms: N_6  and  C_7 
REMARK       I    between atoms: N_21  and  C_23 
REMARK    6  A    between atoms: C_23  and  C_25 
ROOT
ATOM      1  C   LIG d   1       8.365   0.895  -4.352  0.00  0.00     0.099 C 
ATOM      2  C   LIG d   1       7.529   1.830  -3.806  0.00  0.00    -0.034 C 
ATOM      3  C   LIG d   1       6.284   1.419  -3.314  0.00  0.00    -0.040 C 
ATOM      4  C   LIG d   1       5.923   0.110  -3.353  0.00  0.00     0.027 C 
ATOM      5  N   LIG d   1       6.786  -0.829  -3.812  0.00  0.00    -0.310 N 
ATOM      6  C   LIG d   1       7.957  -0.452  -4.379  0.00  0.00     0.273 C 
ATOM      7  O   LIG d   1       8.663  -1.288  -4.921  0.00  0.00    -0.266 OA
ATOM      8  C   LIG d   1       6.549  -2.267  -3.673  0.00  0.00     0.031 C 
ATOM      9  C   LIG d   1       5.087  -2.595  -3.435  0.00  0.00    -0.006 C 
ATOM     10  H   LIG d   1       5.025  -3.618  -3.067  0.00  0.00     0.033 H 
ATOM     11  C   LIG d   1       4.519  -1.681  -2.348  0.00  0.00    -0.037 C 
ATOM     12  C   LIG d   1       4.535  -0.242  -2.871  0.00  0.00     0.016 C 
ATOM     13  H   LIG d   1       4.220   0.455  -2.093  0.00  0.00     0.038 H 
ATOM     14  C   LIG d   1       3.583  -0.154  -4.075  0.00  0.00     0.023 C 
ATOM     15  N   LIG d   1       4.075  -1.097  -5.092  0.00  0.00    -0.295 N 
ATOM     16  C   LIG d   1       4.261  -2.502  -4.715  0.00  0.00     0.019 C 
ATOM     17  C   LIG d   1       4.344  -0.679  -6.346  0.00  0.00     0.265 C 
ATOM     18  O   LIG d   1       4.356   0.509  -6.601  0.00  0.00    -0.268 OA
ATOM     19  H   LIG d   1       7.823   2.868  -3.756  0.00  0.00     0.064 H 
ATOM     20  H   LIG d   1       5.606   2.150  -2.901  0.00  0.00     0.064 H 
ATOM     21  H   LIG d   1       6.880  -2.769  -4.582  0.00  0.00     0.050 H 
ATOM     22  H   LIG d   1       7.136  -2.641  -2.832  0.00  0.00     0.050 H 
ATOM     23  H   LIG d   1       5.133  -1.753  -1.451  0.00  0.00     0.028 H 
ATOM     24  H   LIG d   1       3.495  -1.977  -2.119  0.00  0.00     0.028 H 
ATOM     25  H   LIG d   1       3.586   0.860  -4.477  0.00  0.00     0.047 H 
ATOM     26  H   LIG d   1       2.573  -0.429  -3.773  0.00  0.00     0.047 H 
ATOM     27  H   LIG d   1       3.286  -2.965  -4.553  0.00  0.00     0.047 H 
ATOM     28  H   LIG d   1       4.777  -3.027  -5.519  0.00  0.00     0.047 H 
ENDROOT
BRANCH   1  29
ATOM     29  N   LIG d   1       9.610   1.272  -4.876  0.00  0.00    -0.277 N 
ATOM     30  C   LIG d   1      10.488   1.946  -4.108  0.00  0.00     0.263 C 
ATOM     31  O   LIG d   1      10.168   2.309  -2.995  0.00  0.00    -0.270 OA
ATOM     32  H   LIG d   1       9.837   1.049  -5.792  0.00  0.00     0.155 HD
BRANCH  30  33
ATOM     33  C   LIG d   1      11.868   2.249  -4.630  0.00  0.00     0.046 C 
ATOM     34  H   LIG d   1      12.146   1.506  -5.377  0.00  0.00     0.091 H 
ATOM     35  H   LIG d   1      11.874   3.240  -5.085  0.00  0.00     0.091 H 
BRANCH  33  36
ATOM     36  N   LIG d   1      12.821   2.231  -3.500  0.00  0.00     0.237 N 
ATOM     37  H   LIG d   1      12.295   2.169  -2.621  0.00  0.00     0.203 HD
BRANCH  36  38
ATOM     38  C   LIG d   1      13.711   1.055  -3.610  0.00  0.00    -0.043 C 
ATOM     39  H   LIG d   1      13.168   0.200  -4.015  0.00  0.00     0.078 H 
ATOM     40  H   LIG d   1      14.545   1.301  -4.267  0.00  0.00     0.078 H 
ATOM     41  H   LIG d   1      14.090   0.806  -2.619  0.00  0.00     0.078 H 
ENDBRANCH  36  38
BRANCH  36  42
ATOM     42  C   LIG d   1      13.624   3.472  -3.495  0.00  0.00    -0.043 C 
ATOM     43  H   LIG d   1      13.645   3.873  -2.481  0.00  0.00     0.078 H 
ATOM     44  H   LIG d   1      14.638   3.239  -3.814  0.00  0.00     0.078 H 
ATOM     45  H   LIG d   1      13.190   4.211  -4.169  0.00  0.00     0.078 H 
ENDBRANCH  36  42
ENDBRANCH  33  36
ENDBRANCH  30  33
ENDBRANCH   1  29
BRANCH  17  46
ATOM     46  C   LIG d   1       4.626  -1.669  -7.413  0.00  0.00     0.126 A 
ATOM     47  N   LIG d   1       3.638  -2.098  -8.188  0.00  0.00    -0.250 NA
ATOM     48  C   LIG d   1       3.846  -2.972  -9.149  0.00  0.00     0.028 A 
ATOM     49  C   LIG d   1       5.113  -3.479  -9.388  0.00  0.00    -0.044 A 
ATOM     50  H   LIG d   1       3.017  -3.299  -9.761  0.00  0.00     0.083 H 
ATOM     51  C   LIG d   1       6.173  -3.058  -8.600  0.00  0.00    -0.058 A 
ATOM     52  H   LIG d   1       5.273  -4.196 -10.179  0.00  0.00     0.063 H 
ATOM     53  C   LIG d   1       5.925  -2.136  -7.596  0.00  0.00    -0.031 A 
ATOM     54  H   LIG d   1       7.170  -3.438  -8.767  0.00  0.00     0.062 H 
ATOM     55  H   LIG d   1       6.727  -1.785  -6.964  0.00  0.00     0.064 H 
ENDBRANCH  17  46
TORSDOF 6
ENDMDL
MODEL 6
REMARK VINA RESULT:      -5.8      2.079      7.136
REMARK  6 active torsions:
REMARK  status: ('A' for Active; 'I' for Inactive)
REMARK    1  A    between atoms: C_1  and  N_54 
REMARK    2  A    between atoms: C_2  and  N_54 
REMARK    3  A    between atoms: C_3  and  C_4 
REMARK    4  A    between atoms: C_3  and  N_54 
REMARK       I    between atoms: C_4  and  N_6 
REMARK    5  A    between atoms: N_6  and  C_7 
REMARK       I    between atoms: N_21  and  C_23 
REMARK    6  A    between atoms: C_23  and  C_25 
ROOT
ATOM      1  C   LIG d   1       4.334  -1.473  -7.843  0.00  0.00     0.099 C 
ATOM      2  C   LIG d   1       4.543  -2.769  -7.456  0.00  0.00    -0.034 C 
ATOM      3  C   LIG d   1       4.674  -3.055  -6.092  0.00  0.00    -0.040 C 
ATOM      4  C   LIG d   1       4.569  -2.067  -5.165  0.00  0.00     0.027 C 
ATOM      5  N   LIG d   1       4.273  -0.799  -5.540  0.00  0.00    -0.310 N 
ATOM      6  C   LIG d   1       4.233  -0.474  -6.855  0.00  0.00     0.273 C 
ATOM      7  O   LIG d   1       4.111   0.694  -7.187  0.00  0.00    -0.266 OA
ATOM      8  C   LIG d   1       3.925   0.256  -4.587  0.00  0.00     0.031 C 
ATOM      9  C   LIG d   1       4.398  -0.055  -3.179  0.00  0.00    -0.006 C 
ATOM     10  H   LIG d   1       3.874   0.610  -2.492  0.00  0.00     0.033 H 
ATOM     11  C   LIG d   1       4.019  -1.489  -2.808  0.00  0.00    -0.037 C 
ATOM     12  C   LIG d   1       4.795  -2.444  -3.719  0.00  0.00     0.016 C 
ATOM     13  H   LIG d   1       4.488  -3.476  -3.549  0.00  0.00     0.038 H 
ATOM     14  C   LIG d   1       6.296  -2.284  -3.422  0.00  0.00     0.023 C 
ATOM     15  N   LIG d   1       6.649  -0.881  -3.694  0.00  0.00    -0.295 N 
ATOM     16  C   LIG d   1       5.897   0.177  -3.010  0.00  0.00     0.019 C 
ATOM     17  C   LIG d   1       7.645  -0.575  -4.549  0.00  0.00     0.265 C 
ATOM     18  O   LIG d   1       8.142  -1.443  -5.239  0.00  0.00    -0.268 OA
ATOM     19  H   LIG d   1       4.606  -3.558  -8.191  0.00  0.00     0.064 H 
ATOM     20  H   LIG d   1       4.861  -4.069  -5.774  0.00  0.00     0.064 H 
ATOM     21  H   LIG d   1       4.381   1.191  -4.914  0.00  0.00     0.050 H 
ATOM     22  H   LIG d   1       2.841   0.379  -4.576  0.00  0.00     0.050 H 
ATOM     23  H   LIG d   1       2.948  -1.634  -2.951  0.00  0.00     0.028 H 
ATOM     24  H   LIG d   1       4.282  -1.680  -1.768  0.00  0.00     0.028 H 
ATOM     25  H   LIG d   1       6.874  -2.944  -4.069  0.00  0.00     0.047 H 
ATOM     26  H   LIG d   1       6.496  -2.520  -2.378  0.00  0.00     0.047 H 
ATOM     27  H   LIG d   1       6.148   0.171  -1.949  0.00  0.00     0.047 H 
ATOM     28  H   LIG d   1       6.164   1.144  -3.437  0.00  0.00     0.047 H 
ENDROOT
BRANCH   1  29
ATOM     29  N   LIG d   1       4.220  -1.145  -9.201  0.00  0.00    -0.277 N 
ATOM     30  C   LIG d   1       3.004  -1.039  -9.769  0.00  0.00     0.263 C 
ATOM     31  O   LIG d   1       2.010  -1.318  -9.132  0.00  0.00    -0.270 OA
ATOM     32  H   LIG d   1       5.019  -0.996  -9.731  0.00  0.00     0.155 HD
BRANCH  30  33
ATOM     33  C   LIG d   1       2.877  -0.573 -11.197  0.00  0.00     0.046 C 
ATOM     34  H   LIG d   1       1.826  -0.571 -11.486  0.00  0.00     0.091 H 
ATOM     35  H   LIG d   1       3.279   0.436 -11.286  0.00  0.00     0.091 H 
BRANCH  33  36
ATOM     36  N   LIG d   1       3.653  -1.481 -12.067  0.00  0.00     0.237 N 
ATOM     37  H   LIG d   1       4.448  -1.854 -11.534  0.00  0.00     0.203 HD
BRANCH  36  38
ATOM     38  C   LIG d   1       2.802  -2.606 -12.510  0.00  0.00    -0.043 C 
ATOM     39  H   LIG d   1       2.878  -2.741 -13.589  0.00  0.00     0.078 H 
ATOM     40  H   LIG d   1       3.125  -3.516 -12.006  0.00  0.00     0.078 H 
ATOM     41  H   LIG d   1       1.766  -2.391 -12.245  0.00  0.00     0.078 H 
ENDBRANCH  36  38
BRANCH  36  42
ATOM     42  C   LIG d   1       4.165  -0.743 -13.241  0.00  0.00    -0.043 C 
ATOM     43  H   LIG d   1       4.354  -1.452 -14.047  0.00  0.00     0.078 H 
ATOM     44  H   LIG d   1       3.414  -0.021 -13.560  0.00  0.00     0.078 H 
ATOM     45  H   LIG d   1       5.089  -0.220 -12.991  0.00  0.00     0.078 H 
ENDBRANCH  36  42
ENDBRANCH  33  36
ENDBRANCH  30  33
ENDBRANCH   1  29
BRANCH  17  46
ATOM     46  C   LIG d   1       8.135   0.820  -4.647  0.00  0.00     0.126 A 
ATOM     47  N   LIG d   1       8.615   1.426  -3.569  0.00  0.00    -0.250 NA
ATOM     48  C   LIG d   1       9.064   2.662  -3.613  0.00  0.00     0.028 A 
ATOM     49  C   LIG d   1       9.053   3.380  -4.798  0.00  0.00    -0.044 A 
ATOM     50  H   LIG d   1       9.447   3.123  -2.714  0.00  0.00     0.083 H 
ATOM     51  C   LIG d   1       8.560   2.785  -5.949  0.00  0.00    -0.058 A 
ATOM     52  H   LIG d   1       9.424   4.393  -4.825  0.00  0.00     0.063 H 
ATOM     53  C   LIG d   1       8.093   1.482  -5.872  0.00  0.00    -0.031 A 
ATOM     54  H   LIG d   1       8.541   3.324  -6.885  0.00  0.00     0.062 H 
ATOM     55  H   LIG d   1       7.703   0.988  -6.749  0.00  0.00     0.064 H 
ENDBRANCH  17  46
TORSDOF 6
ENDMDL
MODEL 7
REMARK VINA RESULT:      -5.7      2.755      6.667
REMARK  6 active torsions:
REMARK  status: ('A' for Active; 'I' for Inactive)
REMARK    1  A    between atoms: C_1  and  N_54 
REMARK    2  A    between atoms: C_2  and  N_54 
REMARK    3  A    between atoms: C_3  and  C_4 
REMARK    4  A    between atoms: C_3  and  N_54 
REMARK       I    between atoms: C_4  and  N_6 
REMARK    5  A    between atoms: N_6  and  C_7 
REMARK       I    between atoms: N_21  and  C_23 
REMARK    6  A    between atoms: C_23  and  C_25 
ROOT
ATOM      1  C   LIG d   1       5.032  -3.350  -6.721  0.00  0.00     0.099 C 
ATOM      2  C   LIG d   1       4.946  -4.201  -5.653  0.00  0.00    -0.034 C 
ATOM      3  C   LIG d   1       4.536  -3.692  -4.415  0.00  0.00    -0.040 C 
ATOM      4  C   LIG d   1       4.205  -2.381  -4.280  0.00  0.00     0.027 C 
ATOM      5  N   LIG d   1       4.203  -1.557  -5.356  0.00  0.00    -0.310 N 
ATOM      6  C   LIG d   1       4.683  -1.996  -6.545  0.00  0.00     0.273 C 
ATOM      7  O   LIG d   1       4.816  -1.212  -7.471  0.00  0.00    -0.266 OA
ATOM      8  C   LIG d   1       3.645  -0.205  -5.326  0.00  0.00     0.031 C 
ATOM      9  C   LIG d   1       3.533   0.346  -3.916  0.00  0.00    -0.006 C 
ATOM     10  H   LIG d   1       2.868   1.208  -3.942  0.00  0.00     0.033 H 
ATOM     11  C   LIG d   1       2.895  -0.698  -2.999  0.00  0.00    -0.037 C 
ATOM     12  C   LIG d   1       3.844  -1.895  -2.895  0.00  0.00     0.016 C 
ATOM     13  H   LIG d   1       3.388  -2.702  -2.322  0.00  0.00     0.038 H 
ATOM     14  C   LIG d   1       5.139  -1.426  -2.211  0.00  0.00     0.023 C 
ATOM     15  N   LIG d   1       5.715  -0.359  -3.045  0.00  0.00    -0.295 N 
ATOM     16  C   LIG d   1       4.881   0.805  -3.368  0.00  0.00     0.019 C 
ATOM     17  C   LIG d   1       6.982  -0.445  -3.498  0.00  0.00     0.265 C 
ATOM     18  O   LIG d   1       7.601  -1.483  -3.375  0.00  0.00    -0.268 OA
ATOM     19  H   LIG d   1       5.190  -5.247  -5.764  0.00  0.00     0.064 H 
ATOM     20  H   LIG d   1       4.485  -4.348  -3.559  0.00  0.00     0.064 H 
ATOM     21  H   LIG d   1       4.285   0.454  -5.913  0.00  0.00     0.050 H 
ATOM     22  H   LIG d   1       2.652  -0.223  -5.777  0.00  0.00     0.050 H 
ATOM     23  H   LIG d   1       1.941  -1.021  -3.418  0.00  0.00     0.028 H 
ATOM     24  H   LIG d   1       2.736  -0.269  -2.010  0.00  0.00     0.028 H 
ATOM     25  H   LIG d   1       5.841  -2.258  -2.137  0.00  0.00     0.047 H 
ATOM     26  H   LIG d   1       4.917  -1.040  -1.217  0.00  0.00     0.047 H 
ATOM     27  H   LIG d   1       4.724   1.398  -2.467  0.00  0.00     0.047 H 
ATOM     28  H   LIG d   1       5.388   1.415  -4.116  0.00  0.00     0.047 H 
ENDROOT
BRANCH   1  29
ATOM     29  N   LIG d   1       5.459  -3.817  -7.971  0.00  0.00    -0.277 N 
ATOM     30  C   LIG d   1       6.776  -3.924  -8.236  0.00  0.00     0.263 C 
ATOM     31  O   LIG d   1       7.591  -3.529  -7.430  0.00  0.00    -0.270 OA
ATOM     32  H   LIG d   1       4.807  -4.063  -8.645  0.00  0.00     0.155 HD
BRANCH  30  33
ATOM     33  C   LIG d   1       7.237  -4.535  -9.534  0.00  0.00     0.046 C 
ATOM     34  H   LIG d   1       7.733  -5.485  -9.333  0.00  0.00     0.091 H 
ATOM     35  H   LIG d   1       6.375  -4.707 -10.180  0.00  0.00     0.091 H 
BRANCH  33  36
ATOM     36  N   LIG d   1       8.162  -3.597 -10.202  0.00  0.00     0.237 N 
ATOM     37  H   LIG d   1       8.748  -3.143  -9.491  0.00  0.00     0.203 HD
BRANCH  36  38
ATOM     38  C   LIG d   1       9.033  -4.331 -11.145  0.00  0.00    -0.043 C 
ATOM     39  H   LIG d   1      10.056  -3.956 -11.093  0.00  0.00     0.078 H 
ATOM     40  H   LIG d   1       9.020  -5.390 -10.888  0.00  0.00     0.078 H 
ATOM     41  H   LIG d   1       8.649  -4.198 -12.157  0.00  0.00     0.078 H 
ENDBRANCH  36  38
BRANCH  36  42
ATOM     42  C   LIG d   1       7.396  -2.561 -10.927  0.00  0.00    -0.043 C 
ATOM     43  H   LIG d   1       8.051  -2.086 -11.659  0.00  0.00     0.078 H 
ATOM     44  H   LIG d   1       6.560  -3.032 -11.440  0.00  0.00     0.078 H 
ATOM     45  H   LIG d   1       7.020  -1.808 -10.233  0.00  0.00     0.078 H 
ENDBRANCH  36  42
ENDBRANCH  33  36
ENDBRANCH  30  33
ENDBRANCH   1  29
BRANCH  17  46
ATOM     46  C   LIG d   1       7.619   0.725  -4.146  0.00  0.00     0.126 A 
ATOM     47  N   LIG d   1       8.136   1.691  -3.397  0.00  0.00    -0.250 NA
ATOM     48  C   LIG d   1       8.714   2.744  -3.932  0.00  0.00     0.028 A 
ATOM     49  C   LIG d   1       8.805   2.884  -5.308  0.00  0.00    -0.044 A 
ATOM     50  H   LIG d   1       9.124   3.511  -3.290  0.00  0.00     0.083 H 
ATOM     51  C   LIG d   1       8.278   1.898  -6.127  0.00  0.00    -0.058 A 
ATOM     52  H   LIG d   1       9.282   3.752  -5.737  0.00  0.00     0.063 H 
ATOM     53  C   LIG d   1       7.674   0.800  -5.536  0.00  0.00    -0.031 A 
ATOM     54  H   LIG d   1       8.337   1.984  -7.202  0.00  0.00     0.062 H 
ATOM     55  H   LIG d   1       7.253   0.013  -6.144  0.00  0.00     0.064 H 
ENDBRANCH  17  46
TORSDOF 6
ENDMDL
MODEL 8
REMARK VINA RESULT:      -5.7      2.951      8.607
REMARK  6 active torsions:
REMARK  status: ('A' for Active; 'I' for Inactive)
REMARK    1  A    between atoms: C_1  and  N_54 
REMARK    2  A    between atoms: C_2  and  N_54 
REMARK    3  A    between atoms: C_3  and  C_4 
REMARK    4  A    between atoms: C_3  and  N_54 
REMARK       I    between atoms: C_4  and  N_6 
REMARK    5  A    between atoms: N_6  and  C_7 
REMARK       I    between atoms: N_21  and  C_23 
REMARK    6  A    between atoms: C_23  and  C_25 
ROOT
ATOM      1  C   LIG d   1       8.478   2.428  -4.845  0.00  0.00     0.099 C 
ATOM      2  C   LIG d   1       8.611   2.513  -6.204  0.00  0.00    -0.034 C 
ATOM      3  C   LIG d   1       9.772   3.088  -6.736  0.00  0.00    -0.040 C 
ATOM      4  C   LIG d   1      10.762   3.530  -5.918  0.00  0.00     0.027 C 
ATOM      5  N   LIG d   1      10.672   3.364  -4.575  0.00  0.00    -0.310 N 
ATOM      6  C   LIG d   1       9.524   2.899  -4.027  0.00  0.00     0.273 C 
ATOM      7  O   LIG d   1       9.393   2.888  -2.813  0.00  0.00    -0.266 OA
ATOM      8  C   LIG d   1      11.790   3.609  -3.663  0.00  0.00     0.031 C 
ATOM      9  C   LIG d   1      12.851   4.505  -4.273  0.00  0.00    -0.006 C 
ATOM     10  H   LIG d   1      13.756   4.415  -3.672  0.00  0.00     0.033 H 
ATOM     11  C   LIG d   1      13.189   4.025  -5.685  0.00  0.00    -0.037 C 
ATOM     12  C   LIG d   1      11.949   4.204  -6.565  0.00  0.00     0.016 C 
ATOM     13  H   LIG d   1      12.118   3.791  -7.560  0.00  0.00     0.038 H 
ATOM     14  C   LIG d   1      11.639   5.707  -6.664  0.00  0.00     0.023 C 
ATOM     15  N   LIG d   1      11.398   6.195  -5.296  0.00  0.00    -0.295 N 
ATOM     16  C   LIG d   1      12.432   5.972  -4.280  0.00  0.00     0.019 C 
ATOM     17  C   LIG d   1      10.254   6.838  -4.985  0.00  0.00     0.265 C 
ATOM     18  O   LIG d   1       9.336   6.863  -5.781  0.00  0.00    -0.268 OA
ATOM     19  H   LIG d   1       7.833   2.144  -6.856  0.00  0.00     0.064 H 
ATOM     20  H   LIG d   1       9.879   3.181  -7.806  0.00  0.00     0.064 H 
ATOM     21  H   LIG d   1      11.409   4.079  -2.756  0.00  0.00     0.050 H 
ATOM     22  H   LIG d   1      12.244   2.653  -3.398  0.00  0.00     0.050 H 
ATOM     23  H   LIG d   1      13.471   2.972  -5.657  0.00  0.00     0.028 H 
ATOM     24  H   LIG d   1      14.013   4.616  -6.086  0.00  0.00     0.028 H 
ATOM     25  H   LIG d   1      10.749   5.863  -7.274  0.00  0.00     0.047 H 
ATOM     26  H   LIG d   1      12.486   6.234  -7.101  0.00  0.00     0.047 H 
ATOM     27  H   LIG d   1      13.299   6.597  -4.502  0.00  0.00     0.047 H 
ATOM     28  H   LIG d   1      12.039   6.241  -3.299  0.00  0.00     0.047 H 
ENDROOT
BRANCH   1  29
ATOM     29  N   LIG d   1       7.321   1.879  -4.276  0.00  0.00    -0.277 N 
ATOM     30  C   LIG d   1       7.239   0.552  -4.061  0.00  0.00     0.263 C 
ATOM     31  O   LIG d   1       8.127  -0.181  -4.444  0.00  0.00    -0.270 OA
ATOM     32  H   LIG d   1       6.579   2.456  -4.038  0.00  0.00     0.155 HD
BRANCH  30  33
ATOM     33  C   LIG d   1       6.046  -0.023  -3.343  0.00  0.00     0.046 C 
ATOM     34  H   LIG d   1       5.960  -1.085  -3.575  0.00  0.00     0.091 H 
ATOM     35  H   LIG d   1       6.173   0.104  -2.268  0.00  0.00     0.091 H 
BRANCH  33  36
ATOM     36  N   LIG d   1       4.833   0.702  -3.775  0.00  0.00     0.237 N 
ATOM     37  H   LIG d   1       5.112   1.504  -4.353  0.00  0.00     0.203 HD
BRANCH  36  38
ATOM     38  C   LIG d   1       3.969  -0.190  -4.578  0.00  0.00    -0.043 C 
ATOM     39  H   LIG d   1       3.483   0.366  -5.380  0.00  0.00     0.078 H 
ATOM     40  H   LIG d   1       4.580  -0.985  -5.005  0.00  0.00     0.078 H 
ATOM     41  H   LIG d   1       3.210  -0.625  -3.927  0.00  0.00     0.078 H 
ENDBRANCH  36  38
BRANCH  36  42
ATOM     42  C   LIG d   1       4.091   1.195  -2.596  0.00  0.00    -0.043 C 
ATOM     43  H   LIG d   1       4.729   1.107  -1.716  0.00  0.00     0.078 H 
ATOM     44  H   LIG d   1       3.830   2.241  -2.752  0.00  0.00     0.078 H 
ATOM     45  H   LIG d   1       3.182   0.612  -2.445  0.00  0.00     0.078 H 
ENDBRANCH  36  42
ENDBRANCH  33  36
ENDBRANCH  30  33
ENDBRANCH   1  29
BRANCH  17  46
ATOM     46  C   LIG d   1      10.117   7.514  -3.673  0.00  0.00     0.126 A 
ATOM     47  N   LIG d   1      10.500   8.777  -3.541  0.00  0.00    -0.250 NA
ATOM     48  C   LIG d   1      10.391   9.415  -2.396  0.00  0.00     0.028 A 
ATOM     49  C   LIG d   1       9.867   8.786  -1.279  0.00  0.00    -0.044 A 
ATOM     50  H   LIG d   1      10.714  10.444  -2.327  0.00  0.00     0.083 H 
ATOM     51  C   LIG d   1       9.454   7.466  -1.373  0.00  0.00    -0.058 A 
ATOM     52  H   LIG d   1       9.781   9.319  -0.344  0.00  0.00     0.063 H 
ATOM     53  C   LIG d   1       9.581   6.819  -2.591  0.00  0.00    -0.031 A 
ATOM     54  H   LIG d   1       9.042   6.954  -0.516  0.00  0.00     0.062 H 
ATOM     55  H   LIG d   1       9.269   5.791  -2.701  0.00  0.00     0.064 H 
ENDBRANCH  17  46
TORSDOF 6
ENDMDL
MODEL 9
REMARK VINA RESULT:      -5.6      4.096      6.523
REMARK  6 active torsions:
REMARK  status: ('A' for Active; 'I' for Inactive)
REMARK    1  A    between atoms: C_1  and  N_54 
REMARK    2  A    between atoms: C_2  and  N_54 
REMARK    3  A    between atoms: C_3  and  C_4 
REMARK    4  A    between atoms: C_3  and  N_54 
REMARK       I    between atoms: C_4  and  N_6 
REMARK    5  A    between atoms: N_6  and  C_7 
REMARK       I    between atoms: N_21  and  C_23 
REMARK    6  A    between atoms: C_23  and  C_25 
ROOT
ATOM      1  C   LIG d   1       3.451   0.113  -6.699  0.00  0.00     0.099 C 
ATOM      2  C   LIG d   1       2.935   1.192  -7.365  0.00  0.00    -0.034 C 
ATOM      3  C   LIG d   1       2.752   1.107  -8.750  0.00  0.00    -0.040 C 
ATOM      4  C   LIG d   1       3.057  -0.035  -9.420  0.00  0.00     0.027 C 
ATOM      5  N   LIG d   1       3.483  -1.133  -8.750  0.00  0.00    -0.310 N 
ATOM      6  C   LIG d   1       3.758  -1.053  -7.425  0.00  0.00     0.273 C 
ATOM      7  O   LIG d   1       4.279  -2.000  -6.857  0.00  0.00    -0.266 OA
ATOM      8  C   LIG d   1       3.611  -2.451  -9.374  0.00  0.00     0.031 C 
ATOM      9  C   LIG d   1       3.704  -2.370 -10.887  0.00  0.00    -0.006 C 
ATOM     10  H   LIG d   1       3.514  -3.364 -11.291  0.00  0.00     0.033 H 
ATOM     11  C   LIG d   1       2.617  -1.440 -11.426  0.00  0.00    -0.037 C 
ATOM     12  C   LIG d   1       2.902  -0.022 -10.923  0.00  0.00     0.016 C 
ATOM     13  H   LIG d   1       2.100   0.659 -11.211  0.00  0.00     0.038 H 
ATOM     14  C   LIG d   1       4.235   0.447 -11.529  0.00  0.00     0.023 C 
ATOM     15  N   LIG d   1       5.274  -0.496 -11.084  0.00  0.00    -0.295 N 
ATOM     16  C   LIG d   1       5.086  -1.925 -11.356  0.00  0.00     0.019 C 
ATOM     17  C   LIG d   1       6.377  -0.056 -10.445  0.00  0.00     0.265 C 
ATOM     18  O   LIG d   1       6.442   1.099 -10.071  0.00  0.00    -0.268 OA
ATOM     19  H   LIG d   1       2.673   2.093  -6.831  0.00  0.00     0.064 H 
ATOM     20  H   LIG d   1       2.367   1.958  -9.291  0.00  0.00     0.064 H 
ATOM     21  H   LIG d   1       4.509  -2.938  -8.991  0.00  0.00     0.050 H 
ATOM     22  H   LIG d   1       2.743  -3.054  -9.106  0.00  0.00     0.050 H 
ATOM     23  H   LIG d   1       1.641  -1.768 -11.066  0.00  0.00     0.028 H 
ATOM     24  H   LIG d   1       2.630  -1.453 -12.515  0.00  0.00     0.028 H 
ATOM     25  H   LIG d   1       4.470   1.451 -11.174  0.00  0.00     0.047 H 
ATOM     26  H   LIG d   1       4.172   0.443 -12.616  0.00  0.00     0.047 H 
ATOM     27  H   LIG d   1       5.182  -2.105 -12.428  0.00  0.00     0.047 H 
ATOM     28  H   LIG d   1       5.850  -2.497 -10.828  0.00  0.00     0.047 H 
ENDROOT
BRANCH   1  29
ATOM     29  N   LIG d   1       3.669   0.169  -5.315  0.00  0.00    -0.277 N 
ATOM     30  C   LIG d   1       2.631   0.052  -4.465  0.00  0.00     0.263 C 
ATOM     31  O   LIG d   1       1.498  -0.006  -4.893  0.00  0.00    -0.270 OA
ATOM     32  H   LIG d   1       4.567   0.292  -4.972  0.00  0.00     0.155 HD
BRANCH  30  33
ATOM     33  C   LIG d   1       2.877  -0.005  -2.979  0.00  0.00     0.046 C 
ATOM     34  H   LIG d   1       2.540   0.923  -2.518  0.00  0.00     0.091 H 
ATOM     35  H   LIG d   1       2.325  -0.843  -2.552  0.00  0.00     0.091 H 
BRANCH  33  36
ATOM     36  N   LIG d   1       4.322  -0.209  -2.741  0.00  0.00     0.237 N 
ATOM     37  H   LIG d   1       4.816  -0.175  -3.641  0.00  0.00     0.203 HD
BRANCH  36  38
ATOM     38  C   LIG d   1       4.845   0.862  -1.866  0.00  0.00    -0.043 C 
ATOM     39  H   LIG d   1       4.837   0.543  -0.824  0.00  0.00     0.078 H 
ATOM     40  H   LIG d   1       5.865   1.099  -2.166  0.00  0.00     0.078 H 
ATOM     41  H   LIG d   1       4.218   1.747  -1.978  0.00  0.00     0.078 H 
ENDBRANCH  36  38
BRANCH  36  42
ATOM     42  C   LIG d   1       4.551  -1.528  -2.116  0.00  0.00    -0.043 C 
ATOM     43  H   LIG d   1       3.632  -1.849  -1.624  0.00  0.00     0.078 H 
ATOM     44  H   LIG d   1       4.819  -2.246  -2.890  0.00  0.00     0.078 H 
ATOM     45  H   LIG d   1       5.355  -1.468  -1.381  0.00  0.00     0.078 H 
ENDBRANCH  36  42
ENDBRANCH  33  36
ENDBRANCH  30  33
ENDBRANCH   1  29
BRANCH  17  46
ATOM     46  C   LIG d   1       7.510  -0.979 -10.200  0.00  0.00     0.126 A 
ATOM     47  N   LIG d   1       8.445  -1.134 -11.129  0.00  0.00    -0.250 NA
ATOM     48  C   LIG d   1       9.469  -1.939 -10.950  0.00  0.00     0.028 A 
ATOM     49  C   LIG d   1       9.609  -2.660  -9.775  0.00  0.00    -0.044 A 
ATOM     50  H   LIG d   1      10.211  -2.040 -11.729  0.00  0.00     0.083 H 
ATOM     51  C   LIG d   1       8.655  -2.528  -8.778  0.00  0.00    -0.058 A 
ATOM     52  H   LIG d   1      10.454  -3.318  -9.637  0.00  0.00     0.063 H 
ATOM     53  C   LIG d   1       7.587  -1.672  -8.994  0.00  0.00    -0.031 A 
ATOM     54  H   LIG d   1       8.743  -3.079  -7.853  0.00  0.00     0.062 H 
ATOM     55  H   LIG d   1       6.826  -1.545  -8.239  0.00  0.00     0.064 H 
ENDBRANCH  17  46
TORSDOF 6
ENDMDL
