MODEL 1
REMARK VINA RESULT:      -6.9      0.000      0.000
REMARK  11 active torsions:
REMARK  status: ('A' for Active; 'I' for Inactive)
REMARK    1  A    between atoms: C_1  and  C_2 
REMARK    2  A    between atoms: C_7  and  C_8 
REMARK    3  A    between atoms: C_8  and  O_9 
REMARK    4  A    between atoms: O_9  and  C_10 
REMARK    5  A    between atoms: C_13  and  C_17 
REMARK    6  A    between atoms: C_14  and  O_16 
REMARK    7  A    between atoms: C_18  and  C_28 
REMARK    8  A    between atoms: C_19  and  C_24 
REMARK    9  A    between atoms: C_21  and  N_23 
REMARK   10  A    between atoms: C_31  and  O_34 
REMARK   11  A    between atoms: O_34  and  C_35 
ROOT
ATOM      1  C   LIG d   1       6.167  -3.501  -5.202  0.00  0.00     0.124 A 
ATOM      2  C   LIG d   1       6.853  -3.249  -6.385  0.00  0.00    -0.019 A 
ATOM      3  C   LIG d   1       6.300  -3.601  -7.596  0.00  0.00    -0.046 A 
ATOM      4  C   LIG d   1       5.046  -4.213  -7.638  0.00  0.00     0.043 A 
ATOM      5  C   LIG d   1       4.354  -4.462  -6.447  0.00  0.00     0.130 A 
ATOM      6  C   LIG d   1       4.921  -4.109  -5.234  0.00  0.00     0.022 A 
ATOM      7  H   LIG d   1       7.823  -2.776  -6.353  0.00  0.00     0.065 H 
ATOM      8  H   LIG d   1       6.836  -3.404  -8.512  0.00  0.00     0.063 H 
ATOM      9  H   LIG d   1       4.391  -4.304  -4.313  0.00  0.00     0.069 H 
ENDROOT
BRANCH   4  10
ATOM     10  C   LIG d   1       4.449  -4.592  -8.938  0.00  0.00     0.088 A 
ATOM     11  N   LIG d   1       4.432  -5.864  -9.330  0.00  0.00    -0.214 NA
ATOM     12  C   LIG d   1       3.897  -6.206 -10.491  0.00  0.00     0.214 A 
ATOM     13  N   LIG d   1       3.361  -5.311 -11.309  0.00  0.00    -0.210 NA
ATOM     14  C   LIG d   1       3.338  -4.025 -10.995  0.00  0.00     0.157 A 
ATOM     15  C   LIG d   1       3.888  -3.612  -9.782  0.00  0.00     0.038 A 
BRANCH  12  16
ATOM     16  N   LIG d   1       3.904  -7.538 -10.866  0.00  0.00    -0.328 N 
ATOM     17  H   LIG d   1       4.720  -7.946 -11.195  0.00  0.00     0.145 HD
ATOM     18  H   LIG d   1       3.091  -8.064 -10.799  0.00  0.00     0.145 HD
ENDBRANCH  12  16
BRANCH  14  19
ATOM     19  C   LIG d   1       2.724  -3.021 -11.936  0.00  0.00     0.435 C 
ATOM     20  F   LIG d   1       1.700  -2.331 -11.277  0.00  0.00    -0.164 F 
ATOM     21  F   LIG d   1       3.703  -2.115 -12.355  0.00  0.00    -0.164 F 
ATOM     22  F   LIG d   1       2.197  -3.686 -13.048  0.00  0.00    -0.164 F 
ENDBRANCH  14  19
BRANCH  15  23
ATOM     23  C   LIG d   1       3.882  -2.183  -9.391  0.00  0.00    -0.014 A 
ATOM     24  C   LIG d   1       2.837  -1.673  -8.622  0.00  0.00    -0.051 A 
ATOM     25  C   LIG d   1       2.835  -0.343  -8.260  0.00  0.00    -0.019 A 
ATOM     26  H   LIG d   1       2.030  -2.320  -8.310  0.00  0.00     0.062 H 
ATOM     27  C   LIG d   1       3.872   0.489  -8.660  0.00  0.00     0.120 A 
ATOM     28  H   LIG d   1       2.025   0.053  -7.664  0.00  0.00     0.065 H 
ATOM     29  C   LIG d   1       4.914  -0.016  -9.425  0.00  0.00    -0.019 A 
ATOM     30  C   LIG d   1       4.925  -1.346  -9.786  0.00  0.00    -0.051 A 
ATOM     31  H   LIG d   1       5.720   0.634  -9.734  0.00  0.00     0.065 H 
ATOM     32  H   LIG d   1       5.739  -1.739 -10.378  0.00  0.00     0.062 H 
BRANCH  27  33
ATOM     33  O   LIG d   1       3.866   1.799  -8.300  0.00  0.00    -0.495 OA
BRANCH  33  34
ATOM     34  C   LIG d   1       4.042   2.758  -9.345  0.00  0.00     0.079 C 
ATOM     35  H   LIG d   1       4.886   2.465  -9.969  0.00  0.00     0.066 H 
ATOM     36  H   LIG d   1       3.139   2.804  -9.952  0.00  0.00     0.066 H 
ATOM     37  H   LIG d   1       4.237   3.739  -8.909  0.00  0.00     0.066 H 
ENDBRANCH  33  34
ENDBRANCH  27  33
ENDBRANCH  15  23
ENDBRANCH   4  10
BRANCH   5  38
ATOM     38  O   LIG d   1       3.131  -5.051  -6.481  0.00  0.00    -0.506 OA
ATOM     39  H   LIG d   1       2.695  -5.104  -5.619  0.00  0.00     0.292 HD
ENDBRANCH   5  38
BRANCH   1  40
ATOM     40  O   LIG d   1       6.718  -3.152  -4.011  0.00  0.00    -0.487 OA
BRANCH  40  41
ATOM     41  C   LIG d   1       7.217  -1.817  -3.895  0.00  0.00     0.115 C 
ATOM     42  H   LIG d   1       8.142  -1.824  -3.317  0.00  0.00     0.075 H 
ATOM     43  H   LIG d   1       7.412  -1.414  -4.888  0.00  0.00     0.075 H 
BRANCH  41  44
ATOM     44  C   LIG d   1       6.194  -0.959  -3.196  0.00  0.00    -0.007 A 
ATOM     45  C   LIG d   1       6.308   0.418  -3.232  0.00  0.00    -0.044 A 
ATOM     46  C   LIG d   1       5.369   1.206  -2.591  0.00  0.00    -0.059 A 
ATOM     47  C   LIG d   1       4.318   0.617  -1.916  0.00  0.00    -0.061 A 
ATOM     48  H   LIG d   1       5.458   2.282  -2.620  0.00  0.00     0.062 H 
ATOM     49  C   LIG d   1       4.204  -0.760  -1.880  0.00  0.00    -0.061 A 
ATOM     50  H   LIG d   1       3.584   1.233  -1.416  0.00  0.00     0.062 H 
ATOM     51  C   LIG d   1       5.139  -1.548  -2.525  0.00  0.00    -0.055 A 
ATOM     52  H   LIG d   1       3.381  -1.221  -1.353  0.00  0.00     0.062 H 
ATOM     53  H   LIG d   1       5.048  -2.624  -2.501  0.00  0.00     0.062 H 
BRANCH  45  54
ATOM     54  C   LIG d   1       7.455   1.061  -3.968  0.00  0.00    -0.039 C 
ATOM     55  H   LIG d   1       7.085   1.518  -4.886  0.00  0.00     0.028 H 
ATOM     56  H   LIG d   1       7.908   1.826  -3.338  0.00  0.00     0.028 H 
ATOM     57  H   LIG d   1       8.199   0.304  -4.214  0.00  0.00     0.028 H 
ENDBRANCH  45  54
ENDBRANCH  41  44
ENDBRANCH  40  41
ENDBRANCH   1  40
TORSDOF 11
ENDMDL
MODEL 2
REMARK VINA RESULT:      -6.7      8.477     11.761
REMARK  11 active torsions:
REMARK  status: ('A' for Active; 'I' for Inactive)
REMARK    1  A    between atoms: C_1  and  C_2 
REMARK    2  A    between atoms: C_7  and  C_8 
REMARK    3  A    between atoms: C_8  and  O_9 
REMARK    4  A    between atoms: O_9  and  C_10 
REMARK    5  A    between atoms: C_13  and  C_17 
REMARK    6  A    between atoms: C_14  and  O_16 
REMARK    7  A    between atoms: C_18  and  C_28 
REMARK    8  A    between atoms: C_19  and  C_24 
REMARK    9  A    between atoms: C_21  and  N_23 
REMARK   10  A    between atoms: C_31  and  O_34 
REMARK   11  A    between atoms: O_34  and  C_35 
ROOT
ATOM      1  C   LIG d   1       8.639   2.405  -4.596  0.00  0.00     0.124 A 
ATOM      2  C   LIG d   1       9.355   2.150  -3.432  0.00  0.00    -0.019 A 
ATOM      3  C   LIG d   1      10.634   2.641  -3.282  0.00  0.00    -0.046 A 
ATOM      4  C   LIG d   1      11.213   3.397  -4.302  0.00  0.00     0.043 A 
ATOM      5  C   LIG d   1      10.490   3.658  -5.472  0.00  0.00     0.130 A 
ATOM      6  C   LIG d   1       9.208   3.155  -5.615  0.00  0.00     0.022 A 
ATOM      7  H   LIG d   1       8.908   1.565  -2.643  0.00  0.00     0.065 H 
ATOM      8  H   LIG d   1      11.186   2.441  -2.377  0.00  0.00     0.063 H 
ATOM      9  H   LIG d   1       8.649   3.351  -6.518  0.00  0.00     0.069 H 
ENDROOT
BRANCH   4  10
ATOM     10  C   LIG d   1      12.586   3.926  -4.144  0.00  0.00     0.088 A 
ATOM     11  N   LIG d   1      13.618   3.314  -4.721  0.00  0.00    -0.214 NA
ATOM     12  C   LIG d   1      14.847   3.785  -4.582  0.00  0.00     0.214 A 
ATOM     13  N   LIG d   1      15.106   4.874  -3.872  0.00  0.00    -0.210 NA
ATOM     14  C   LIG d   1      14.137   5.542  -3.266  0.00  0.00     0.157 A 
ATOM     15  C   LIG d   1      12.824   5.087  -3.381  0.00  0.00     0.038 A 
BRANCH  12  16
ATOM     16  N   LIG d   1      15.895   3.118  -5.192  0.00  0.00    -0.328 N 
ATOM     17  H   LIG d   1      16.461   2.525  -4.673  0.00  0.00     0.145 HD
ATOM     18  H   LIG d   1      16.062   3.241  -6.140  0.00  0.00     0.145 HD
ENDBRANCH  12  16
BRANCH  14  19
ATOM     19  C   LIG d   1      14.450   6.779  -2.464  0.00  0.00     0.435 C 
ATOM     20  F   LIG d   1      15.810   7.084  -2.589  0.00  0.00    -0.164 F 
ATOM     21  F   LIG d   1      13.686   7.849  -2.941  0.00  0.00    -0.164 F 
ATOM     22  F   LIG d   1      14.144   6.550  -1.118  0.00  0.00    -0.164 F 
ENDBRANCH  14  19
BRANCH  15  23
ATOM     23  C   LIG d   1      11.710   5.805  -2.720  0.00  0.00    -0.014 A 
ATOM     24  C   LIG d   1      10.960   6.740  -3.433  0.00  0.00    -0.051 A 
ATOM     25  C   LIG d   1       9.923   7.406  -2.814  0.00  0.00    -0.019 A 
ATOM     26  H   LIG d   1      11.190   6.941  -4.469  0.00  0.00     0.062 H 
ATOM     27  C   LIG d   1       9.625   7.147  -1.483  0.00  0.00     0.120 A 
ATOM     28  H   LIG d   1       9.341   8.130  -3.366  0.00  0.00     0.065 H 
ATOM     29  C   LIG d   1      10.370   6.217  -0.771  0.00  0.00    -0.019 A 
ATOM     30  C   LIG d   1      11.405   5.544  -1.384  0.00  0.00    -0.051 A 
ATOM     31  H   LIG d   1      10.135   6.018   0.264  0.00  0.00     0.065 H 
ATOM     32  H   LIG d   1      11.981   4.818  -0.830  0.00  0.00     0.062 H 
BRANCH  27  33
ATOM     33  O   LIG d   1       8.602   7.805  -0.878  0.00  0.00    -0.495 OA
BRANCH  33  34
ATOM     34  C   LIG d   1       8.711   9.227  -0.787  0.00  0.00     0.079 C 
ATOM     35  H   LIG d   1       7.725   9.676  -0.907  0.00  0.00     0.066 H 
ATOM     36  H   LIG d   1       9.119   9.500   0.186  0.00  0.00     0.066 H 
ATOM     37  H   LIG d   1       9.374   9.592  -1.573  0.00  0.00     0.066 H 
ENDBRANCH  33  34
ENDBRANCH  27  33
ENDBRANCH  15  23
ENDBRANCH   4  10
BRANCH   5  38
ATOM     38  O   LIG d   1      11.046   4.398  -6.465  0.00  0.00    -0.506 OA
ATOM     39  H   LIG d   1      10.688   5.294  -6.537  0.00  0.00     0.292 HD
ENDBRANCH   5  38
BRANCH   1  40
ATOM     40  O   LIG d   1       7.380   1.918  -4.737  0.00  0.00    -0.487 OA
BRANCH  40  41
ATOM     41  C   LIG d   1       7.221   0.500  -4.658  0.00  0.00     0.115 C 
ATOM     42  H   LIG d   1       6.895   0.116  -5.625  0.00  0.00     0.075 H 
ATOM     43  H   LIG d   1       8.172   0.042  -4.387  0.00  0.00     0.075 H 
BRANCH  41  44
ATOM     44  C   LIG d   1       6.188   0.168  -3.611  0.00  0.00    -0.007 A 
ATOM     45  C   LIG d   1       5.873  -1.151  -3.346  0.00  0.00    -0.044 A 
ATOM     46  C   LIG d   1       4.926  -1.456  -2.386  0.00  0.00    -0.059 A 
ATOM     47  C   LIG d   1       4.294  -0.441  -1.692  0.00  0.00    -0.061 A 
ATOM     48  H   LIG d   1       4.680  -2.486  -2.178  0.00  0.00     0.062 H 
ATOM     49  C   LIG d   1       4.609   0.879  -1.958  0.00  0.00    -0.061 A 
ATOM     50  H   LIG d   1       3.555  -0.679  -0.942  0.00  0.00     0.062 H 
ATOM     51  C   LIG d   1       5.561   1.183  -2.913  0.00  0.00    -0.055 A 
ATOM     52  H   LIG d   1       4.116   1.672  -1.414  0.00  0.00     0.062 H 
ATOM     53  H   LIG d   1       5.810   2.214  -3.118  0.00  0.00     0.062 H 
BRANCH  45  54
ATOM     54  C   LIG d   1       6.561  -2.258  -4.102  0.00  0.00    -0.039 C 
ATOM     55  H   LIG d   1       6.544  -2.033  -5.169  0.00  0.00     0.028 H 
ATOM     56  H   LIG d   1       7.594  -2.341  -3.765  0.00  0.00     0.028 H 
ATOM     57  H   LIG d   1       6.042  -3.199  -3.922  0.00  0.00     0.028 H 
ENDBRANCH  45  54
ENDBRANCH  41  44
ENDBRANCH  40  41
ENDBRANCH   1  40
TORSDOF 11
ENDMDL
MODEL 3
REMARK VINA RESULT:      -6.5      4.152      7.112
REMARK  11 active torsions:
REMARK  status: ('A' for Active; 'I' for Inactive)
REMARK    1  A    between atoms: C_1  and  C_2 
REMARK    2  A    between atoms: C_7  and  C_8 
REMARK    3  A    between atoms: C_8  and  O_9 
REMARK    4  A    between atoms: O_9  and  C_10 
REMARK    5  A    between atoms: C_13  and  C_17 
REMARK    6  A    between atoms: C_14  and  O_16 
REMARK    7  A    between atoms: C_18  and  C_28 
REMARK    8  A    between atoms: C_19  and  C_24 
REMARK    9  A    between atoms: C_21  and  N_23 
REMARK   10  A    between atoms: C_31  and  O_34 
REMARK   11  A    between atoms: O_34  and  C_35 
ROOT
ATOM      1  C   LIG d   1       4.564  -0.385  -5.527  0.00  0.00     0.124 A 
ATOM      2  C   LIG d   1       4.276  -1.320  -4.540  0.00  0.00    -0.019 A 
ATOM      3  C   LIG d   1       5.189  -2.304  -4.230  0.00  0.00    -0.046 A 
ATOM      4  C   LIG d   1       6.407  -2.363  -4.908  0.00  0.00     0.043 A 
ATOM      5  C   LIG d   1       6.699  -1.418  -5.899  0.00  0.00     0.130 A 
ATOM      6  C   LIG d   1       5.772  -0.436  -6.207  0.00  0.00     0.022 A 
ATOM      7  H   LIG d   1       3.334  -1.276  -4.016  0.00  0.00     0.065 H 
ATOM      8  H   LIG d   1       4.962  -3.029  -3.463  0.00  0.00     0.063 H 
ATOM      9  H   LIG d   1       5.993   0.292  -6.974  0.00  0.00     0.069 H 
ENDROOT
BRANCH   4  10
ATOM     10  C   LIG d   1       7.390  -3.419  -4.577  0.00  0.00     0.088 A 
ATOM     11  N   LIG d   1       8.394  -3.170  -3.740  0.00  0.00    -0.214 NA
ATOM     12  C   LIG d   1       9.274  -4.113  -3.441  0.00  0.00     0.214 A 
ATOM     13  N   LIG d   1       9.198  -5.332  -3.953  0.00  0.00    -0.210 NA
ATOM     14  C   LIG d   1       8.231  -5.662  -4.793  0.00  0.00     0.157 A 
ATOM     15  C   LIG d   1       7.278  -4.706  -5.141  0.00  0.00     0.038 A 
BRANCH  12  16
ATOM     16  N   LIG d   1      10.308  -3.813  -2.570  0.00  0.00    -0.328 N 
ATOM     17  H   LIG d   1      10.144  -3.779  -1.615  0.00  0.00     0.145 HD
ATOM     18  H   LIG d   1      11.198  -3.639  -2.916  0.00  0.00     0.145 HD
ENDBRANCH  12  16
BRANCH  14  19
ATOM     19  C   LIG d   1       8.160  -7.055  -5.365  0.00  0.00     0.435 C 
ATOM     20  F   LIG d   1       9.219  -7.819  -4.864  0.00  0.00    -0.164 F 
ATOM     21  F   LIG d   1       6.945  -7.646  -5.003  0.00  0.00    -0.164 F 
ATOM     22  F   LIG d   1       8.250  -6.990  -6.760  0.00  0.00    -0.164 F 
ENDBRANCH  14  19
BRANCH  15  23
ATOM     23  C   LIG d   1       6.178  -5.033  -6.078  0.00  0.00    -0.014 A 
ATOM     24  C   LIG d   1       6.348  -4.843  -7.449  0.00  0.00    -0.051 A 
ATOM     25  C   LIG d   1       5.321  -5.149  -8.318  0.00  0.00    -0.019 A 
ATOM     26  H   LIG d   1       7.282  -4.457  -7.829  0.00  0.00     0.062 H 
ATOM     27  C   LIG d   1       4.121  -5.646  -7.829  0.00  0.00     0.120 A 
ATOM     28  H   LIG d   1       5.453  -5.002  -9.380  0.00  0.00     0.065 H 
ATOM     29  C   LIG d   1       3.949  -5.836  -6.466  0.00  0.00    -0.019 A 
ATOM     30  C   LIG d   1       4.972  -5.537  -5.591  0.00  0.00    -0.051 A 
ATOM     31  H   LIG d   1       3.014  -6.223  -6.089  0.00  0.00     0.065 H 
ATOM     32  H   LIG d   1       4.839  -5.690  -4.530  0.00  0.00     0.062 H 
BRANCH  27  33
ATOM     33  O   LIG d   1       3.113  -5.946  -8.690  0.00  0.00    -0.495 OA
BRANCH  33  34
ATOM     34  C   LIG d   1       3.090  -5.241  -9.932  0.00  0.00     0.079 C 
ATOM     35  H   LIG d   1       4.022  -4.690 -10.056  0.00  0.00     0.066 H 
ATOM     36  H   LIG d   1       2.975  -5.950 -10.751  0.00  0.00     0.066 H 
ATOM     37  H   LIG d   1       2.252  -4.542  -9.938  0.00  0.00     0.066 H 
ENDBRANCH  33  34
ENDBRANCH  27  33
ENDBRANCH  15  23
ENDBRANCH   4  10
BRANCH   5  38
ATOM     38  O   LIG d   1       7.885  -1.466  -6.558  0.00  0.00    -0.506 OA
ATOM     39  H   LIG d   1       7.800  -1.475  -7.522  0.00  0.00     0.292 HD
ENDBRANCH   5  38
BRANCH   1  40
ATOM     40  O   LIG d   1       3.660   0.583  -5.829  0.00  0.00    -0.487 OA
BRANCH  40  41
ATOM     41  C   LIG d   1       2.632   0.241  -6.761  0.00  0.00     0.115 C 
ATOM     42  H   LIG d   1       2.459  -0.835  -6.734  0.00  0.00     0.075 H 
ATOM     43  H   LIG d   1       1.713   0.763  -6.498  0.00  0.00     0.075 H 
BRANCH  41  44
ATOM     44  C   LIG d   1       3.059   0.646  -8.149  0.00  0.00    -0.007 A 
ATOM     45  C   LIG d   1       3.377  -0.321  -9.084  0.00  0.00    -0.044 A 
ATOM     46  C   LIG d   1       3.769   0.051 -10.357  0.00  0.00    -0.059 A 
ATOM     47  C   LIG d   1       3.843   1.389 -10.694  0.00  0.00    -0.061 A 
ATOM     48  H   LIG d   1       4.017  -0.705 -11.087  0.00  0.00     0.062 H 
ATOM     49  C   LIG d   1       3.525   2.356  -9.758  0.00  0.00    -0.061 A 
ATOM     50  H   LIG d   1       4.148   1.679 -11.689  0.00  0.00     0.062 H 
ATOM     51  C   LIG d   1       3.127   1.985  -8.488  0.00  0.00    -0.055 A 
ATOM     52  H   LIG d   1       3.581   3.402 -10.023  0.00  0.00     0.062 H 
ATOM     53  H   LIG d   1       2.875   2.740  -7.758  0.00  0.00     0.062 H 
BRANCH  45  54
ATOM     54  C   LIG d   1       3.298  -1.780  -8.716  0.00  0.00    -0.039 C 
ATOM     55  H   LIG d   1       4.217  -2.281  -9.020  0.00  0.00     0.028 H 
ATOM     56  H   LIG d   1       3.169  -1.877  -7.639  0.00  0.00     0.028 H 
ATOM     57  H   LIG d   1       2.450  -2.238  -9.227  0.00  0.00     0.028 H 
ENDBRANCH  45  54
ENDBRANCH  41  44
ENDBRANCH  40  41
ENDBRANCH   1  40
TORSDOF 11
ENDMDL
MODEL 4
REMARK VINA RESULT:      -6.5      3.712      5.011
REMARK  11 active torsions:
REMARK  status: ('A' for Active; 'I' for Inactive)
REMARK    1  A    between atoms: C_1  and  C_2 
REMARK    2  A    between atoms: C_7  and  C_8 
REMARK    3  A    between atoms: C_8  and  O_9 
REMARK    4  A    between atoms: O_9  and  C_10 
REMARK    5  A    between atoms: C_13  and  C_17 
REMARK    6  A    between atoms: C_14  and  O_16 
REMARK    7  A    between atoms: C_18  and  C_28 
REMARK    8  A    between atoms: C_19  and  C_24 
REMARK    9  A    between atoms: C_21  and  N_23 
REMARK   10  A    between atoms: C_31  and  O_34 
REMARK   11  A    between atoms: O_34  and  C_35 
ROOT
ATOM      1  C   LIG d   1       6.273  -3.309  -5.470  0.00  0.00     0.124 A 
ATOM      2  C   LIG d   1       7.217  -4.328  -5.416  0.00  0.00    -0.019 A 
ATOM      3  C   LIG d   1       6.830  -5.641  -5.573  0.00  0.00    -0.046 A 
ATOM      4  C   LIG d   1       5.486  -5.950  -5.789  0.00  0.00     0.043 A 
ATOM      5  C   LIG d   1       4.537  -4.922  -5.848  0.00  0.00     0.130 A 
ATOM      6  C   LIG d   1       4.935  -3.607  -5.683  0.00  0.00     0.022 A 
ATOM      7  H   LIG d   1       8.257  -4.090  -5.248  0.00  0.00     0.065 H 
ATOM      8  H   LIG d   1       7.566  -6.429  -5.531  0.00  0.00     0.063 H 
ATOM      9  H   LIG d   1       4.205  -2.813  -5.724  0.00  0.00     0.069 H 
ENDROOT
BRANCH   4  10
ATOM     10  C   LIG d   1       5.068  -7.359  -5.959  0.00  0.00     0.088 A 
ATOM     11  N   LIG d   1       4.763  -8.107  -4.901  0.00  0.00    -0.214 NA
ATOM     12  C   LIG d   1       4.387  -9.367  -5.050  0.00  0.00     0.214 A 
ATOM     13  N   LIG d   1       4.298  -9.937  -6.244  0.00  0.00    -0.210 NA
ATOM     14  C   LIG d   1       4.584  -9.264  -7.346  0.00  0.00     0.157 A 
ATOM     15  C   LIG d   1       4.984  -7.932  -7.244  0.00  0.00     0.038 A 
BRANCH  12  16
ATOM     16  N   LIG d   1       4.083 -10.115  -3.926  0.00  0.00    -0.328 N 
ATOM     17  H   LIG d   1       4.575  -9.973  -3.102  0.00  0.00     0.145 HD
ATOM     18  H   LIG d   1       3.378 -10.780  -3.961  0.00  0.00     0.145 HD
ENDBRANCH  12  16
BRANCH  14  19
ATOM     19  C   LIG d   1       4.476  -9.927  -8.695  0.00  0.00     0.435 C 
ATOM     20  F   LIG d   1       3.525  -9.254  -9.471  0.00  0.00    -0.164 F 
ATOM     21  F   LIG d   1       5.718  -9.883  -9.337  0.00  0.00    -0.164 F 
ATOM     22  F   LIG d   1       4.083 -11.259  -8.529  0.00  0.00    -0.164 F 
ENDBRANCH  14  19
BRANCH  15  23
ATOM     23  C   LIG d   1       5.313  -7.141  -8.453  0.00  0.00    -0.014 A 
ATOM     24  C   LIG d   1       4.309  -6.447  -9.128  0.00  0.00    -0.051 A 
ATOM     25  C   LIG d   1       4.619  -5.711 -10.253  0.00  0.00    -0.019 A 
ATOM     26  H   LIG d   1       3.291  -6.484  -8.769  0.00  0.00     0.062 H 
ATOM     27  C   LIG d   1       5.927  -5.662 -10.713  0.00  0.00     0.120 A 
ATOM     28  H   LIG d   1       3.842  -5.173 -10.776  0.00  0.00     0.065 H 
ATOM     29  C   LIG d   1       6.928  -6.352 -10.044  0.00  0.00    -0.019 A 
ATOM     30  C   LIG d   1       6.627  -7.085  -8.916  0.00  0.00    -0.051 A 
ATOM     31  H   LIG d   1       7.945  -6.311 -10.405  0.00  0.00     0.065 H 
ATOM     32  H   LIG d   1       7.407  -7.618  -8.393  0.00  0.00     0.062 H 
BRANCH  27  33
ATOM     33  O   LIG d   1       6.228  -4.935 -11.822  0.00  0.00    -0.495 OA
BRANCH  33  34
ATOM     34  C   LIG d   1       5.311  -3.902 -12.187  0.00  0.00     0.079 C 
ATOM     35  H   LIG d   1       4.293  -4.289 -12.153  0.00  0.00     0.066 H 
ATOM     36  H   LIG d   1       5.406  -3.069 -11.490  0.00  0.00     0.066 H 
ATOM     37  H   LIG d   1       5.535  -3.557 -13.197  0.00  0.00     0.066 H 
ENDBRANCH  33  34
ENDBRANCH  27  33
ENDBRANCH  15  23
ENDBRANCH   4  10
BRANCH   5  38
ATOM     38  O   LIG d   1       3.229  -5.216  -6.063  0.00  0.00    -0.506 OA
ATOM     39  H   LIG d   1       2.748  -5.479  -5.266  0.00  0.00     0.292 HD
ENDBRANCH   5  38
BRANCH   1  40
ATOM     40  O   LIG d   1       6.662  -2.017  -5.313  0.00  0.00    -0.487 OA
BRANCH  40  41
ATOM     41  C   LIG d   1       7.201  -1.653  -4.041  0.00  0.00     0.115 C 
ATOM     42  H   LIG d   1       7.458  -2.553  -3.483  0.00  0.00     0.075 H 
ATOM     43  H   LIG d   1       8.096  -1.047  -4.185  0.00  0.00     0.075 H 
BRANCH  41  44
ATOM     44  C   LIG d   1       6.178  -0.859  -3.271  0.00  0.00    -0.007 A 
ATOM     45  C   LIG d   1       6.261   0.520  -3.229  0.00  0.00    -0.044 A 
ATOM     46  C   LIG d   1       5.322   1.249  -2.523  0.00  0.00    -0.059 A 
ATOM     47  C   LIG d   1       4.300   0.598  -1.859  0.00  0.00    -0.061 A 
ATOM     48  H   LIG d   1       5.388   2.326  -2.490  0.00  0.00     0.062 H 
ATOM     49  C   LIG d   1       4.216  -0.781  -1.900  0.00  0.00    -0.061 A 
ATOM     50  H   LIG d   1       3.566   1.168  -1.307  0.00  0.00     0.062 H 
ATOM     51  C   LIG d   1       5.152  -1.510  -2.611  0.00  0.00    -0.055 A 
ATOM     52  H   LIG d   1       3.416  -1.290  -1.382  0.00  0.00     0.062 H 
ATOM     53  H   LIG d   1       5.084  -2.587  -2.648  0.00  0.00     0.062 H 
BRANCH  45  54
ATOM     54  C   LIG d   1       7.377   1.230  -3.953  0.00  0.00    -0.039 C 
ATOM     55  H   LIG d   1       8.219   0.549  -4.076  0.00  0.00     0.028 H 
ATOM     56  H   LIG d   1       7.025   1.556  -4.932  0.00  0.00     0.028 H 
ATOM     57  H   LIG d   1       7.693   2.097  -3.372  0.00  0.00     0.028 H 
ENDBRANCH  45  54
ENDBRANCH  41  44
ENDBRANCH  40  41
ENDBRANCH   1  40
TORSDOF 11
ENDMDL
MODEL 5
REMARK VINA RESULT:      -6.5      3.665      5.742
REMARK  11 active torsions:
REMARK  status: ('A' for Active; 'I' for Inactive)
REMARK    1  A    between atoms: C_1  and  C_2 
REMARK    2  A    between atoms: C_7  and  C_8 
REMARK    3  A    between atoms: C_8  and  O_9 
REMARK    4  A    between atoms: O_9  and  C_10 
REMARK    5  A    between atoms: C_13  and  C_17 
REMARK    6  A    between atoms: C_14  and  O_16 
REMARK    7  A    between atoms: C_18  and  C_28 
REMARK    8  A    between atoms: C_19  and  C_24 
REMARK    9  A    between atoms: C_21  and  N_23 
REMARK   10  A    between atoms: C_31  and  O_34 
REMARK   11  A    between atoms: O_34  and  C_35 
ROOT
ATOM      1  C   LIG d   1       6.584  -5.855  -5.836  0.00  0.00     0.124 A 
ATOM      2  C   LIG d   1       7.142  -4.924  -6.704  0.00  0.00    -0.019 A 
ATOM      3  C   LIG d   1       6.332  -4.063  -7.412  0.00  0.00    -0.046 A 
ATOM      4  C   LIG d   1       4.946  -4.125  -7.258  0.00  0.00     0.043 A 
ATOM      5  C   LIG d   1       4.385  -5.060  -6.380  0.00  0.00     0.130 A 
ATOM      6  C   LIG d   1       5.207  -5.925  -5.678  0.00  0.00     0.022 A 
ATOM      7  H   LIG d   1       8.214  -4.876  -6.825  0.00  0.00     0.065 H 
ATOM      8  H   LIG d   1       6.770  -3.342  -8.085  0.00  0.00     0.063 H 
ATOM      9  H   LIG d   1       4.777  -6.650  -5.003  0.00  0.00     0.069 H 
ENDROOT
BRANCH   4  10
ATOM     10  C   LIG d   1       4.074  -3.201  -8.017  0.00  0.00     0.088 A 
ATOM     11  N   LIG d   1       3.320  -3.651  -9.017  0.00  0.00    -0.214 NA
ATOM     12  C   LIG d   1       2.538  -2.827  -9.697  0.00  0.00     0.214 A 
ATOM     13  N   LIG d   1       2.470  -1.533  -9.418  0.00  0.00    -0.210 NA
ATOM     14  C   LIG d   1       3.187  -1.005  -8.440  0.00  0.00     0.157 A 
ATOM     15  C   LIG d   1       4.027  -1.830  -7.692  0.00  0.00     0.038 A 
BRANCH  12  16
ATOM     16  N   LIG d   1       1.773  -3.331 -10.734  0.00  0.00    -0.328 N 
ATOM     17  H   LIG d   1       1.728  -2.856 -11.579  0.00  0.00     0.145 HD
ATOM     18  H   LIG d   1       1.282  -4.160 -10.617  0.00  0.00     0.145 HD
ENDBRANCH  12  16
BRANCH  14  19
ATOM     19  C   LIG d   1       3.096   0.468  -8.136  0.00  0.00     0.435 C 
ATOM     20  F   LIG d   1       2.147   1.059  -8.977  0.00  0.00    -0.164 F 
ATOM     21  F   LIG d   1       2.713   0.646  -6.802  0.00  0.00    -0.164 F 
ATOM     22  F   LIG d   1       4.343   1.065  -8.347  0.00  0.00    -0.164 F 
ENDBRANCH  14  19
BRANCH  15  23
ATOM     23  C   LIG d   1       4.847  -1.281  -6.587  0.00  0.00    -0.014 A 
ATOM     24  C   LIG d   1       4.406  -1.390  -5.269  0.00  0.00    -0.051 A 
ATOM     25  C   LIG d   1       5.172  -0.878  -4.243  0.00  0.00    -0.019 A 
ATOM     26  H   LIG d   1       3.466  -1.876  -5.052  0.00  0.00     0.062 H 
ATOM     27  C   LIG d   1       6.381  -0.255  -4.521  0.00  0.00     0.120 A 
ATOM     28  H   LIG d   1       4.831  -0.962  -3.221  0.00  0.00     0.065 H 
ATOM     29  C   LIG d   1       6.823  -0.145  -5.832  0.00  0.00    -0.019 A 
ATOM     30  C   LIG d   1       6.065  -0.659  -6.863  0.00  0.00    -0.051 A 
ATOM     31  H   LIG d   1       7.764   0.340  -6.045  0.00  0.00     0.065 H 
ATOM     32  H   LIG d   1       6.411  -0.577  -7.882  0.00  0.00     0.062 H 
BRANCH  27  33
ATOM     33  O   LIG d   1       7.133   0.248  -3.507  0.00  0.00    -0.495 OA
BRANCH  33  34
ATOM     34  C   LIG d   1       7.867   1.443  -3.777  0.00  0.00     0.079 C 
ATOM     35  H   LIG d   1       7.614   2.201  -3.036  0.00  0.00     0.066 H 
ATOM     36  H   LIG d   1       8.936   1.232  -3.730  0.00  0.00     0.066 H 
ATOM     37  H   LIG d   1       7.613   1.810  -4.772  0.00  0.00     0.066 H 
ENDBRANCH  33  34
ENDBRANCH  27  33
ENDBRANCH  15  23
ENDBRANCH   4  10
BRANCH   5  38
ATOM     38  O   LIG d   1       3.038  -5.121  -6.221  0.00  0.00    -0.506 OA
ATOM     39  H   LIG d   1       2.648  -5.966  -6.486  0.00  0.00     0.292 HD
ENDBRANCH   5  38
BRANCH   1  40
ATOM     40  O   LIG d   1       7.388  -6.702  -5.142  0.00  0.00    -0.487 OA
BRANCH  40  41
ATOM     41  C   LIG d   1       7.257  -8.097  -5.423  0.00  0.00     0.115 C 
ATOM     42  H   LIG d   1       6.452  -8.249  -6.143  0.00  0.00     0.075 H 
ATOM     43  H   LIG d   1       8.191  -8.474  -5.838  0.00  0.00     0.075 H 
BRANCH  41  44
ATOM     44  C   LIG d   1       6.938  -8.837  -4.150  0.00  0.00    -0.007 A 
ATOM     45  C   LIG d   1       5.756  -9.546  -4.041  0.00  0.00    -0.044 A 
ATOM     46  C   LIG d   1       5.463 -10.226  -2.873  0.00  0.00    -0.059 A 
ATOM     47  C   LIG d   1       6.352 -10.196  -1.815  0.00  0.00    -0.061 A 
ATOM     48  H   LIG d   1       4.541 -10.780  -2.788  0.00  0.00     0.062 H 
ATOM     49  C   LIG d   1       7.533  -9.486  -1.924  0.00  0.00    -0.061 A 
ATOM     50  H   LIG d   1       6.123 -10.727  -0.902  0.00  0.00     0.062 H 
ATOM     51  C   LIG d   1       7.829  -8.812  -3.094  0.00  0.00    -0.055 A 
ATOM     52  H   LIG d   1       8.228  -9.464  -1.097  0.00  0.00     0.062 H 
ATOM     53  H   LIG d   1       8.754  -8.261  -3.181  0.00  0.00     0.062 H 
BRANCH  45  54
ATOM     54  C   LIG d   1       4.787  -9.579  -5.194  0.00  0.00    -0.039 C 
ATOM     55  H   LIG d   1       5.313  -9.331  -6.116  0.00  0.00     0.028 H 
ATOM     56  H   LIG d   1       4.355 -10.576  -5.279  0.00  0.00     0.028 H 
ATOM     57  H   LIG d   1       3.993  -8.852  -5.023  0.00  0.00     0.028 H 
ENDBRANCH  45  54
ENDBRANCH  41  44
ENDBRANCH  40  41
ENDBRANCH   1  40
TORSDOF 11
ENDMDL
MODEL 6
REMARK VINA RESULT:      -6.2      4.344      7.013
REMARK  11 active torsions:
REMARK  status: ('A' for Active; 'I' for Inactive)
REMARK    1  A    between atoms: C_1  and  C_2 
REMARK    2  A    between atoms: C_7  and  C_8 
REMARK    3  A    between atoms: C_8  and  O_9 
REMARK    4  A    between atoms: O_9  and  C_10 
REMARK    5  A    between atoms: C_13  and  C_17 
REMARK    6  A    between atoms: C_14  and  O_16 
REMARK    7  A    between atoms: C_18  and  C_28 
REMARK    8  A    between atoms: C_19  and  C_24 
REMARK    9  A    between atoms: C_21  and  N_23 
REMARK   10  A    between atoms: C_31  and  O_34 
REMARK   11  A    between atoms: O_34  and  C_35 
ROOT
ATOM      1  C   LIG d   1       4.318  -3.328  -8.075  0.00  0.00     0.124 A 
ATOM      2  C   LIG d   1       5.665  -3.260  -8.411  0.00  0.00    -0.019 A 
ATOM      3  C   LIG d   1       6.613  -3.836  -7.594  0.00  0.00    -0.046 A 
ATOM      4  C   LIG d   1       6.221  -4.491  -6.426  0.00  0.00     0.043 A 
ATOM      5  C   LIG d   1       4.863  -4.564  -6.092  0.00  0.00     0.130 A 
ATOM      6  C   LIG d   1       3.919  -3.976  -6.916  0.00  0.00     0.022 A 
ATOM      7  H   LIG d   1       5.969  -2.752  -9.314  0.00  0.00     0.065 H 
ATOM      8  H   LIG d   1       7.658  -3.781  -7.859  0.00  0.00     0.063 H 
ATOM      9  H   LIG d   1       2.871  -4.027  -6.658  0.00  0.00     0.069 H 
ENDROOT
BRANCH   4  10
ATOM     10  C   LIG d   1       7.237  -5.111  -5.547  0.00  0.00     0.088 A 
ATOM     11  N   LIG d   1       7.482  -6.418  -5.613  0.00  0.00    -0.214 NA
ATOM     12  C   LIG d   1       8.391  -6.975  -4.829  0.00  0.00     0.214 A 
ATOM     13  N   LIG d   1       9.092  -6.270  -3.953  0.00  0.00    -0.210 NA
ATOM     14  C   LIG d   1       8.909  -4.965  -3.824  0.00  0.00     0.157 A 
ATOM     15  C   LIG d   1       7.963  -4.329  -4.627  0.00  0.00     0.038 A 
BRANCH  12  16
ATOM     16  N   LIG d   1       8.614  -8.338  -4.924  0.00  0.00    -0.328 N 
ATOM     17  H   LIG d   1       7.888  -8.961  -4.760  0.00  0.00     0.145 HD
ATOM     18  H   LIG d   1       9.495  -8.671  -5.154  0.00  0.00     0.145 HD
ENDBRANCH  12  16
BRANCH  14  19
ATOM     19  C   LIG d   1       9.715  -4.178  -2.823  0.00  0.00     0.435 C 
ATOM     20  F   LIG d   1       8.849  -3.468  -1.983  0.00  0.00    -0.164 F 
ATOM     21  F   LIG d   1      10.493  -5.053  -2.058  0.00  0.00    -0.164 F 
ATOM     22  F   LIG d   1      10.549  -3.281  -3.498  0.00  0.00    -0.164 F 
ENDBRANCH  14  19
BRANCH  15  23
ATOM     23  C   LIG d   1       7.728  -2.870  -4.515  0.00  0.00    -0.014 A 
ATOM     24  C   LIG d   1       6.715  -2.387  -3.687  0.00  0.00    -0.051 A 
ATOM     25  C   LIG d   1       6.498  -1.029  -3.586  0.00  0.00    -0.019 A 
ATOM     26  H   LIG d   1       6.101  -3.076  -3.126  0.00  0.00     0.062 H 
ATOM     27  C   LIG d   1       7.288  -0.143  -4.306  0.00  0.00     0.120 A 
ATOM     28  H   LIG d   1       5.714  -0.654  -2.944  0.00  0.00     0.065 H 
ATOM     29  C   LIG d   1       8.297  -0.621  -5.130  0.00  0.00    -0.019 A 
ATOM     30  C   LIG d   1       8.522  -1.977  -5.233  0.00  0.00    -0.051 A 
ATOM     31  H   LIG d   1       8.909   0.071  -5.689  0.00  0.00     0.065 H 
ATOM     32  H   LIG d   1       9.310  -2.348  -5.872  0.00  0.00     0.062 H 
BRANCH  27  33
ATOM     33  O   LIG d   1       7.071   1.194  -4.203  0.00  0.00    -0.495 OA
BRANCH  33  34
ATOM     34  C   LIG d   1       8.193   2.006  -3.851  0.00  0.00     0.079 C 
ATOM     35  H   LIG d   1       7.859   2.845  -3.241  0.00  0.00     0.066 H 
ATOM     36  H   LIG d   1       8.911   1.410  -3.288  0.00  0.00     0.066 H 
ATOM     37  H   LIG d   1       8.667   2.384  -4.758  0.00  0.00     0.066 H 
ENDBRANCH  33  34
ENDBRANCH  27  33
ENDBRANCH  15  23
ENDBRANCH   4  10
BRANCH   5  38
ATOM     38  O   LIG d   1       4.475  -5.205  -4.959  0.00  0.00    -0.506 OA
ATOM     39  H   LIG d   1       4.522  -4.659  -4.162  0.00  0.00     0.292 HD
ENDBRANCH   5  38
BRANCH   1  40
ATOM     40  O   LIG d   1       3.388  -2.757  -8.885  0.00  0.00    -0.487 OA
BRANCH  40  41
ATOM     41  C   LIG d   1       3.867  -1.860  -9.889  0.00  0.00     0.115 C 
ATOM     42  H   LIG d   1       4.942  -1.992 -10.013  0.00  0.00     0.075 H 
ATOM     43  H   LIG d   1       3.364  -2.069 -10.833  0.00  0.00     0.075 H 
BRANCH  41  44
ATOM     44  C   LIG d   1       3.580  -0.441  -9.471  0.00  0.00    -0.007 A 
ATOM     45  C   LIG d   1       3.774   0.595 -10.366  0.00  0.00    -0.044 A 
ATOM     46  C   LIG d   1       3.511   1.898  -9.983  0.00  0.00    -0.059 A 
ATOM     47  C   LIG d   1       3.053   2.163  -8.706  0.00  0.00    -0.061 A 
ATOM     48  H   LIG d   1       3.662   2.706 -10.682  0.00  0.00     0.062 H 
ATOM     49  C   LIG d   1       2.859   1.127  -7.812  0.00  0.00    -0.061 A 
ATOM     50  H   LIG d   1       2.847   3.181  -8.408  0.00  0.00     0.062 H 
ATOM     51  C   LIG d   1       3.116  -0.176  -8.196  0.00  0.00    -0.055 A 
ATOM     52  H   LIG d   1       2.500   1.335  -6.814  0.00  0.00     0.062 H 
ATOM     53  H   LIG d   1       2.960  -0.985  -7.499  0.00  0.00     0.062 H 
BRANCH  45  54
ATOM     54  C   LIG d   1       4.274   0.306 -11.758  0.00  0.00    -0.039 C 
ATOM     55  H   LIG d   1       3.538   0.649 -12.485  0.00  0.00     0.028 H 
ATOM     56  H   LIG d   1       5.217   0.826 -11.921  0.00  0.00     0.028 H 
ATOM     57  H   LIG d   1       4.424  -0.768 -11.874  0.00  0.00     0.028 H 
ENDBRANCH  45  54
ENDBRANCH  41  44
ENDBRANCH  40  41
ENDBRANCH   1  40
TORSDOF 11
ENDMDL
MODEL 7
REMARK VINA RESULT:      -6.2      4.354      6.505
REMARK  11 active torsions:
REMARK  status: ('A' for Active; 'I' for Inactive)
REMARK    1  A    between atoms: C_1  and  C_2 
REMARK    2  A    between atoms: C_7  and  C_8 
REMARK    3  A    between atoms: C_8  and  O_9 
REMARK    4  A    between atoms: O_9  and  C_10 
REMARK    5  A    between atoms: C_13  and  C_17 
REMARK    6  A    between atoms: C_14  and  O_16 
REMARK    7  A    between atoms: C_18  and  C_28 
REMARK    8  A    between atoms: C_19  and  C_24 
REMARK    9  A    between atoms: C_21  and  N_23 
REMARK   10  A    between atoms: C_31  and  O_34 
REMARK   11  A    between atoms: O_34  and  C_35 
ROOT
ATOM      1  C   LIG d   1       6.517  -6.341  -5.693  0.00  0.00     0.124 A 
ATOM      2  C   LIG d   1       7.229  -5.209  -5.312  0.00  0.00    -0.019 A 
ATOM      3  C   LIG d   1       6.588  -3.997  -5.185  0.00  0.00    -0.046 A 
ATOM      4  C   LIG d   1       5.218  -3.903  -5.439  0.00  0.00     0.043 A 
ATOM      5  C   LIG d   1       4.501  -5.044  -5.817  0.00  0.00     0.130 A 
ATOM      6  C   LIG d   1       5.156  -6.257  -5.948  0.00  0.00     0.022 A 
ATOM      7  H   LIG d   1       8.288  -5.281  -5.116  0.00  0.00     0.065 H 
ATOM      8  H   LIG d   1       7.144  -3.121  -4.889  0.00  0.00     0.063 H 
ATOM      9  H   LIG d   1       4.606  -7.138  -6.244  0.00  0.00     0.069 H 
ENDROOT
BRANCH   4  10
ATOM     10  C   LIG d   1       4.527  -2.602  -5.302  0.00  0.00     0.088 A 
ATOM     11  N   LIG d   1       4.105  -2.181  -4.112  0.00  0.00    -0.214 NA
ATOM     12  C   LIG d   1       3.487  -1.017  -3.987  0.00  0.00     0.214 A 
ATOM     13  N   LIG d   1       3.262  -0.226  -5.026  0.00  0.00    -0.210 NA
ATOM     14  C   LIG d   1       3.648  -0.570  -6.244  0.00  0.00     0.157 A 
ATOM     15  C   LIG d   1       4.304  -1.786  -6.430  0.00  0.00     0.038 A 
BRANCH  12  16
ATOM     16  N   LIG d   1       3.058  -0.617  -2.733  0.00  0.00    -0.328 N 
ATOM     17  H   LIG d   1       2.591  -1.242  -2.158  0.00  0.00     0.145 HD
ATOM     18  H   LIG d   1       3.226   0.290  -2.430  0.00  0.00     0.145 HD
ENDBRANCH  12  16
BRANCH  14  19
ATOM     19  C   LIG d   1       3.385   0.342  -7.414  0.00  0.00     0.435 C 
ATOM     20  F   LIG d   1       4.594   0.642  -8.053  0.00  0.00    -0.164 F 
ATOM     21  F   LIG d   1       2.526  -0.293  -8.316  0.00  0.00    -0.164 F 
ATOM     22  F   LIG d   1       2.793   1.525  -6.959  0.00  0.00    -0.164 F 
ENDBRANCH  14  19
BRANCH  15  23
ATOM     23  C   LIG d   1       4.755  -2.210  -7.777  0.00  0.00    -0.014 A 
ATOM     24  C   LIG d   1       6.066  -1.965  -8.184  0.00  0.00    -0.051 A 
ATOM     25  C   LIG d   1       6.482  -2.361  -9.438  0.00  0.00    -0.019 A 
ATOM     26  H   LIG d   1       6.755  -1.467  -7.517  0.00  0.00     0.062 H 
ATOM     27  C   LIG d   1       5.597  -3.002 -10.294  0.00  0.00     0.120 A 
ATOM     28  H   LIG d   1       7.498  -2.172  -9.753  0.00  0.00     0.065 H 
ATOM     29  C   LIG d   1       4.292  -3.247  -9.892  0.00  0.00    -0.019 A 
ATOM     30  C   LIG d   1       3.870  -2.858  -8.638  0.00  0.00    -0.051 A 
ATOM     31  H   LIG d   1       3.606  -3.746 -10.561  0.00  0.00     0.065 H 
ATOM     32  H   LIG d   1       2.855  -3.053  -8.324  0.00  0.00     0.062 H 
BRANCH  27  33
ATOM     33  O   LIG d   1       6.012  -3.390 -11.529  0.00  0.00    -0.495 OA
BRANCH  33  34
ATOM     34  C   LIG d   1       5.064  -4.088 -12.340  0.00  0.00     0.079 C 
ATOM     35  H   LIG d   1       5.500  -5.026 -12.683  0.00  0.00     0.066 H 
ATOM     36  H   LIG d   1       4.168  -4.295 -11.755  0.00  0.00     0.066 H 
ATOM     37  H   LIG d   1       4.801  -3.473 -13.201  0.00  0.00     0.066 H 
ENDBRANCH  33  34
ENDBRANCH  27  33
ENDBRANCH  15  23
ENDBRANCH   4  10
BRANCH   5  38
ATOM     38  O   LIG d   1       3.168  -4.960  -6.060  0.00  0.00    -0.506 OA
ATOM     39  H   LIG d   1       2.668  -4.516  -5.361  0.00  0.00     0.292 HD
ENDBRANCH   5  38
BRANCH   1  40
ATOM     40  O   LIG d   1       7.155  -7.533  -5.817  0.00  0.00    -0.487 OA
BRANCH  40  41
ATOM     41  C   LIG d   1       6.384  -8.710  -5.566  0.00  0.00     0.115 C 
ATOM     42  H   LIG d   1       5.328  -8.494  -5.725  0.00  0.00     0.075 H 
ATOM     43  H   LIG d   1       6.699  -9.503  -6.244  0.00  0.00     0.075 H 
BRANCH  41  44
ATOM     44  C   LIG d   1       6.597  -9.155  -4.141  0.00  0.00    -0.007 A 
ATOM     45  C   LIG d   1       5.597  -9.835  -3.473  0.00  0.00    -0.044 A 
ATOM     46  C   LIG d   1       5.791 -10.243  -2.166  0.00  0.00    -0.059 A 
ATOM     47  C   LIG d   1       6.986  -9.970  -1.529  0.00  0.00    -0.061 A 
ATOM     48  H   LIG d   1       5.010 -10.775  -1.645  0.00  0.00     0.062 H 
ATOM     49  C   LIG d   1       7.987  -9.289  -2.197  0.00  0.00    -0.061 A 
ATOM     50  H   LIG d   1       7.139 -10.290  -0.508  0.00  0.00     0.062 H 
ATOM     51  C   LIG d   1       7.795  -8.887  -3.505  0.00  0.00    -0.055 A 
ATOM     52  H   LIG d   1       8.922  -9.077  -1.698  0.00  0.00     0.062 H 
ATOM     53  H   LIG d   1       8.578  -8.359  -4.028  0.00  0.00     0.062 H 
BRANCH  45  54
ATOM     54  C   LIG d   1       4.293 -10.133  -4.169  0.00  0.00    -0.039 C 
ATOM     55  H   LIG d   1       3.541  -9.410  -3.852  0.00  0.00     0.028 H 
ATOM     56  H   LIG d   1       4.432 -10.064  -5.247  0.00  0.00     0.028 H 
ATOM     57  H   LIG d   1       3.963 -11.138  -3.907  0.00  0.00     0.028 H 
ENDBRANCH  45  54
ENDBRANCH  41  44
ENDBRANCH  40  41
ENDBRANCH   1  40
TORSDOF 11
ENDMDL
MODEL 8
REMARK VINA RESULT:      -6.2      8.156     11.133
REMARK  11 active torsions:
REMARK  status: ('A' for Active; 'I' for Inactive)
REMARK    1  A    between atoms: C_1  and  C_2 
REMARK    2  A    between atoms: C_7  and  C_8 
REMARK    3  A    between atoms: C_8  and  O_9 
REMARK    4  A    between atoms: O_9  and  C_10 
REMARK    5  A    between atoms: C_13  and  C_17 
REMARK    6  A    between atoms: C_14  and  O_16 
REMARK    7  A    between atoms: C_18  and  C_28 
REMARK    8  A    between atoms: C_19  and  C_24 
REMARK    9  A    between atoms: C_21  and  N_23 
REMARK   10  A    between atoms: C_31  and  O_34 
REMARK   11  A    between atoms: O_34  and  C_35 
ROOT
ATOM      1  C   LIG d   1       8.598   2.005  -4.753  0.00  0.00     0.124 A 
ATOM      2  C   LIG d   1       9.452   2.152  -5.840  0.00  0.00    -0.019 A 
ATOM      3  C   LIG d   1      10.755   2.556  -5.648  0.00  0.00    -0.046 A 
ATOM      4  C   LIG d   1      11.220   2.819  -4.358  0.00  0.00     0.043 A 
ATOM      5  C   LIG d   1      10.360   2.666  -3.264  0.00  0.00     0.130 A 
ATOM      6  C   LIG d   1       9.051   2.265  -3.468  0.00  0.00     0.022 A 
ATOM      7  H   LIG d   1       9.092   1.950  -6.837  0.00  0.00     0.065 H 
ATOM      8  H   LIG d   1      11.415   2.669  -6.494  0.00  0.00     0.063 H 
ATOM      9  H   LIG d   1       8.384   2.150  -2.626  0.00  0.00     0.069 H 
ENDROOT
BRANCH   4  10
ATOM     10  C   LIG d   1      12.619   3.252  -4.149  0.00  0.00     0.088 A 
ATOM     11  N   LIG d   1      13.559   2.370  -3.819  0.00  0.00    -0.214 NA
ATOM     12  C   LIG d   1      14.812   2.754  -3.633  0.00  0.00     0.214 A 
ATOM     13  N   LIG d   1      15.185   4.019  -3.763  0.00  0.00    -0.210 NA
ATOM     14  C   LIG d   1      14.313   4.959  -4.089  0.00  0.00     0.157 A 
ATOM     15  C   LIG d   1      12.980   4.607  -4.297  0.00  0.00     0.038 A 
BRANCH  12  16
ATOM     16  N   LIG d   1      15.760   1.807  -3.285  0.00  0.00    -0.328 N 
ATOM     17  H   LIG d   1      16.656   1.860  -3.652  0.00  0.00     0.145 HD
ATOM     18  H   LIG d   1      15.528   1.091  -2.673  0.00  0.00     0.145 HD
ENDBRANCH  12  16
BRANCH  14  19
ATOM     19  C   LIG d   1      14.755   6.393  -4.234  0.00  0.00     0.435 C 
ATOM     20  F   LIG d   1      16.117   6.493  -3.927  0.00  0.00    -0.164 F 
ATOM     21  F   LIG d   1      14.542   6.816  -5.550  0.00  0.00    -0.164 F 
ATOM     22  F   LIG d   1      14.020   7.198  -3.359  0.00  0.00    -0.164 F 
ENDBRANCH  14  19
BRANCH  15  23
ATOM     23  C   LIG d   1      11.971   5.628  -4.663  0.00  0.00    -0.014 A 
ATOM     24  C   LIG d   1      11.767   5.960  -6.002  0.00  0.00    -0.051 A 
ATOM     25  C   LIG d   1      10.827   6.911  -6.339  0.00  0.00    -0.019 A 
ATOM     26  H   LIG d   1      12.345   5.473  -6.774  0.00  0.00     0.062 H 
ATOM     27  C   LIG d   1      10.084   7.537  -5.348  0.00  0.00     0.120 A 
ATOM     28  H   LIG d   1      10.669   7.168  -7.377  0.00  0.00     0.065 H 
ATOM     29  C   LIG d   1      10.284   7.208  -4.015  0.00  0.00    -0.019 A 
ATOM     30  C   LIG d   1      11.219   6.255  -3.670  0.00  0.00    -0.051 A 
ATOM     31  H   LIG d   1       9.704   7.697  -3.246  0.00  0.00     0.065 H 
ATOM     32  H   LIG d   1      11.371   5.997  -2.633  0.00  0.00     0.062 H 
BRANCH  27  33
ATOM     33  O   LIG d   1       9.158   8.473  -5.685  0.00  0.00    -0.495 OA
BRANCH  33  34
ATOM     34  C   LIG d   1       9.473   9.833  -5.382  0.00  0.00     0.079 C 
ATOM     35  H   LIG d   1      10.510  10.035  -5.648  0.00  0.00     0.066 H 
ATOM     36  H   LIG d   1       8.817  10.494  -5.950  0.00  0.00     0.066 H 
ATOM     37  H   LIG d   1       9.331  10.010  -4.316  0.00  0.00     0.066 H 
ENDBRANCH  33  34
ENDBRANCH  27  33
ENDBRANCH  15  23
ENDBRANCH   4  10
BRANCH   5  38
ATOM     38  O   LIG d   1      10.808   2.914  -2.007  0.00  0.00    -0.506 OA
ATOM     39  H   LIG d   1      11.093   3.828  -1.863  0.00  0.00     0.292 HD
ENDBRANCH   5  38
BRANCH   1  40
ATOM     40  O   LIG d   1       7.314   1.607  -4.949  0.00  0.00    -0.487 OA
BRANCH  40  41
ATOM     41  C   LIG d   1       7.047   0.207  -4.846  0.00  0.00     0.115 C 
ATOM     42  H   LIG d   1       6.617  -0.152  -5.781  0.00  0.00     0.075 H 
ATOM     43  H   LIG d   1       7.975  -0.327  -4.644  0.00  0.00     0.075 H 
BRANCH  41  44
ATOM     44  C   LIG d   1       6.074  -0.036  -3.720  0.00  0.00    -0.007 A 
ATOM     45  C   LIG d   1       5.684  -1.325  -3.411  0.00  0.00    -0.044 A 
ATOM     46  C   LIG d   1       4.791  -1.549  -2.379  0.00  0.00    -0.059 A 
ATOM     47  C   LIG d   1       4.290  -0.483  -1.657  0.00  0.00    -0.061 A 
ATOM     48  H   LIG d   1       4.487  -2.556  -2.137  0.00  0.00     0.062 H 
ATOM     49  C   LIG d   1       4.680   0.807  -1.966  0.00  0.00    -0.061 A 
ATOM     50  H   LIG d   1       3.593  -0.657  -0.850  0.00  0.00     0.062 H 
ATOM     51  C   LIG d   1       5.577   1.030  -2.994  0.00  0.00    -0.055 A 
ATOM     52  H   LIG d   1       4.289   1.640  -1.400  0.00  0.00     0.062 H 
ATOM     53  H   LIG d   1       5.885   2.037  -3.233  0.00  0.00     0.062 H 
BRANCH  45  54
ATOM     54  C   LIG d   1       6.230  -2.488  -4.199  0.00  0.00    -0.039 C 
ATOM     55  H   LIG d   1       6.233  -2.237  -5.260  0.00  0.00     0.028 H 
ATOM     56  H   LIG d   1       7.248  -2.702  -3.873  0.00  0.00     0.028 H 
ATOM     57  H   LIG d   1       5.603  -3.365  -4.035  0.00  0.00     0.028 H 
ENDBRANCH  45  54
ENDBRANCH  41  44
ENDBRANCH  40  41
ENDBRANCH   1  40
TORSDOF 11
ENDMDL
MODEL 9
REMARK VINA RESULT:      -6.1      4.346      8.161
REMARK  11 active torsions:
REMARK  status: ('A' for Active; 'I' for Inactive)
REMARK    1  A    between atoms: C_1  and  C_2 
REMARK    2  A    between atoms: C_7  and  C_8 
REMARK    3  A    between atoms: C_8  and  O_9 
REMARK    4  A    between atoms: O_9  and  C_10 
REMARK    5  A    between atoms: C_13  and  C_17 
REMARK    6  A    between atoms: C_14  and  O_16 
REMARK    7  A    between atoms: C_18  and  C_28 
REMARK    8  A    between atoms: C_19  and  C_24 
REMARK    9  A    between atoms: C_21  and  N_23 
REMARK   10  A    between atoms: C_31  and  O_34 
REMARK   11  A    between atoms: O_34  and  C_35 
ROOT
ATOM      1  C   LIG d   1       5.441  -1.900  -9.907  0.00  0.00     0.124 A 
ATOM      2  C   LIG d   1       4.431  -2.582  -9.236  0.00  0.00    -0.019 A 
ATOM      3  C   LIG d   1       4.029  -2.169  -7.985  0.00  0.00    -0.046 A 
ATOM      4  C   LIG d   1       4.635  -1.063  -7.387  0.00  0.00     0.043 A 
ATOM      5  C   LIG d   1       5.648  -0.374  -8.065  0.00  0.00     0.130 A 
ATOM      6  C   LIG d   1       6.050  -0.800  -9.320  0.00  0.00     0.022 A 
ATOM      7  H   LIG d   1       3.963  -3.438  -9.698  0.00  0.00     0.065 H 
ATOM      8  H   LIG d   1       3.245  -2.701  -7.468  0.00  0.00     0.063 H 
ATOM      9  H   LIG d   1       6.834  -0.273  -9.843  0.00  0.00     0.069 H 
ENDROOT
BRANCH   4  10
ATOM     10  C   LIG d   1       4.204  -0.618  -6.044  0.00  0.00     0.088 A 
ATOM     11  N   LIG d   1       3.453   0.472  -5.900  0.00  0.00    -0.214 NA
ATOM     12  C   LIG d   1       3.065   0.872  -4.700  0.00  0.00     0.214 A 
ATOM     13  N   LIG d   1       3.401   0.217  -3.599  0.00  0.00    -0.210 NA
ATOM     14  C   LIG d   1       4.145  -0.876  -3.653  0.00  0.00     0.157 A 
ATOM     15  C   LIG d   1       4.580  -1.340  -4.893  0.00  0.00     0.038 A 
BRANCH  12  16
ATOM     16  N   LIG d   1       2.290   2.014  -4.592  0.00  0.00    -0.328 N 
ATOM     17  H   LIG d   1       1.332   1.965  -4.735  0.00  0.00     0.145 HD
ATOM     18  H   LIG d   1       2.705   2.863  -4.372  0.00  0.00     0.145 HD
ENDBRANCH  12  16
BRANCH  14  19
ATOM     19  C   LIG d   1       4.517  -1.609  -2.390  0.00  0.00     0.435 C 
ATOM     20  F   LIG d   1       4.298  -0.777  -1.286  0.00  0.00    -0.164 F 
ATOM     21  F   LIG d   1       3.729  -2.759  -2.270  0.00  0.00    -0.164 F 
ATOM     22  F   LIG d   1       5.867  -1.971  -2.441  0.00  0.00    -0.164 F 
ENDBRANCH  14  19
BRANCH  15  23
ATOM     23  C   LIG d   1       5.415  -2.560  -5.000  0.00  0.00    -0.014 A 
ATOM     24  C   LIG d   1       6.805  -2.455  -5.036  0.00  0.00    -0.051 A 
ATOM     25  C   LIG d   1       7.578  -3.592  -5.135  0.00  0.00    -0.019 A 
ATOM     26  H   LIG d   1       7.275  -1.483  -4.986  0.00  0.00     0.062 H 
ATOM     27  C   LIG d   1       6.975  -4.840  -5.198  0.00  0.00     0.120 A 
ATOM     28  H   LIG d   1       8.655  -3.511  -5.162  0.00  0.00     0.065 H 
ATOM     29  C   LIG d   1       5.592  -4.948  -5.162  0.00  0.00    -0.019 A 
ATOM     30  C   LIG d   1       4.812  -3.816  -5.059  0.00  0.00    -0.051 A 
ATOM     31  H   LIG d   1       5.126  -5.922  -5.212  0.00  0.00     0.065 H 
ATOM     32  H   LIG d   1       3.736  -3.902  -5.027  0.00  0.00     0.062 H 
BRANCH  27  33
ATOM     33  O   LIG d   1       7.741  -5.959  -5.295  0.00  0.00    -0.495 OA
BRANCH  33  34
ATOM     34  C   LIG d   1       9.124  -5.826  -4.962  0.00  0.00     0.079 C 
ATOM     35  H   LIG d   1       9.540  -4.956  -5.470  0.00  0.00     0.066 H 
ATOM     36  H   LIG d   1       9.229  -5.703  -3.884  0.00  0.00     0.066 H 
ATOM     37  H   LIG d   1       9.662  -6.722  -5.278  0.00  0.00     0.066 H 
ENDBRANCH  33  34
ENDBRANCH  27  33
ENDBRANCH  15  23
ENDBRANCH   4  10
BRANCH   5  38
ATOM     38  O   LIG d   1       6.238   0.706  -7.492  0.00  0.00    -0.506 OA
ATOM     39  H   LIG d   1       6.840   0.487  -6.767  0.00  0.00     0.292 HD
ENDBRANCH   5  38
BRANCH   1  40
ATOM     40  O   LIG d   1       5.834  -2.312 -11.140  0.00  0.00    -0.487 OA
BRANCH  40  41
ATOM     41  C   LIG d   1       5.275  -1.624 -12.261  0.00  0.00     0.115 C 
ATOM     42  H   LIG d   1       5.491  -0.559 -12.178  0.00  0.00     0.075 H 
ATOM     43  H   LIG d   1       5.713  -2.012 -13.181  0.00  0.00     0.075 H 
BRANCH  41  44
ATOM     44  C   LIG d   1       3.783  -1.835 -12.287  0.00  0.00    -0.007 A 
ATOM     45  C   LIG d   1       2.935  -0.816 -11.894  0.00  0.00    -0.044 A 
ATOM     46  C   LIG d   1       1.566  -1.009 -11.918  0.00  0.00    -0.059 A 
ATOM     47  C   LIG d   1       1.046  -2.220 -12.334  0.00  0.00    -0.061 A 
ATOM     48  H   LIG d   1       0.904  -0.214 -11.611  0.00  0.00     0.062 H 
ATOM     49  C   LIG d   1       1.895  -3.239 -12.726  0.00  0.00    -0.061 A 
ATOM     50  H   LIG d   1      -0.023  -2.370 -12.353  0.00  0.00     0.062 H 
ATOM     51  C   LIG d   1       3.263  -3.044 -12.709  0.00  0.00    -0.055 A 
ATOM     52  H   LIG d   1       1.487  -4.185 -13.053  0.00  0.00     0.062 H 
ATOM     53  H   LIG d   1       3.926  -3.838 -13.020  0.00  0.00     0.062 H 
BRANCH  45  54
ATOM     54  C   LIG d   1       3.502   0.504 -11.440  0.00  0.00    -0.039 C 
ATOM     55  H   LIG d   1       3.518   1.199 -12.279  0.00  0.00     0.028 H 
ATOM     56  H   LIG d   1       2.881   0.911 -10.642  0.00  0.00     0.028 H 
ATOM     57  H   LIG d   1       4.517   0.356 -11.072  0.00  0.00     0.028 H 
ENDBRANCH  45  54
ENDBRANCH  41  44
ENDBRANCH  40  41
ENDBRANCH   1  40
TORSDOF 11
ENDMDL
