MODEL 1
REMARK VINA RESULT:      -6.3      0.000      0.000
REMARK  9 active torsions:
REMARK  status: ('A' for Active; 'I' for Inactive)
REMARK    1  A    between atoms: C_1  and  C_2 
REMARK    2  A    between atoms: C_6  and  O_31 
REMARK    3  A    between atoms: C_12  and  C_13 
REMARK    4  A    between atoms: C_13  and  C_14 
REMARK       I    between atoms: C_14  and  N_16 
REMARK    5  A    between atoms: N_16  and  C_17 
REMARK    6  A    between atoms: C_17  and  C_18 
REMARK    7  A    between atoms: C_18  and  C_19 
REMARK    8  A    between atoms: C_27  and  O_29 
REMARK    9  A    between atoms: O_29  and  C_30 
ROOT
ATOM      1  C   LIG d   1       6.405  -4.420  -7.104  0.00  0.00     0.218 C 
ATOM      2  O   LIG d   1       6.949  -3.720  -7.931  0.00  0.00    -0.276 OA
ATOM      3  N   LIG d   1       5.390  -5.229  -7.469  0.00  0.00    -0.315 N 
ATOM      4  H   LIG d   1       4.955  -5.789  -6.807  0.00  0.00     0.149 HD
ENDROOT
BRANCH   3   5
ATOM      5  C   LIG d   1       4.944  -5.261  -8.863  0.00  0.00     0.016 C 
ATOM      6  H   LIG d   1       5.156  -6.242  -9.290  0.00  0.00     0.046 H 
ATOM      7  H   LIG d   1       5.471  -4.496  -9.432  0.00  0.00     0.046 H 
BRANCH   5   8
ATOM      8  C   LIG d   1       3.438  -4.995  -8.923  0.00  0.00    -0.010 C 
ATOM      9  H   LIG d   1       3.028  -4.999  -7.913  0.00  0.00     0.033 H 
ATOM     10  H   LIG d   1       2.955  -5.773  -9.514  0.00  0.00     0.033 H 
BRANCH   8  11
ATOM     11  C   LIG d   1       3.190  -3.653  -9.561  0.00  0.00    -0.021 A 
ATOM     12  C   LIG d   1       3.419  -2.341  -8.950  0.00  0.00     0.003 A 
ATOM     13  C   LIG d   1       3.046  -1.390  -9.918  0.00  0.00     0.050 A 
ATOM     14  C   LIG d   1       3.895  -1.921  -7.707  0.00  0.00    -0.049 A 
ATOM     15  N   LIG d   1       2.622  -2.086 -11.029  0.00  0.00    -0.360 N 
ATOM     16  C   LIG d   1       3.150  -0.036  -9.620  0.00  0.00     0.004 A 
ATOM     17  C   LIG d   1       2.715  -3.432 -10.798  0.00  0.00     0.006 A 
ATOM     18  H   LIG d   1       2.305  -1.682 -11.851  0.00  0.00     0.165 HD
ATOM     19  H   LIG d   1       2.446  -4.203 -11.505  0.00  0.00     0.081 H 
ATOM     20  C   LIG d   1       3.629   0.359  -8.385  0.00  0.00     0.122 A 
ATOM     21  H   LIG d   1       2.862   0.704 -10.352  0.00  0.00     0.068 H 
ATOM     22  C   LIG d   1       3.997  -0.588  -7.433  0.00  0.00    -0.019 A 
ATOM     23  H   LIG d   1       4.366  -0.264  -6.470  0.00  0.00     0.065 H 
ATOM     24  H   LIG d   1       4.182  -2.650  -6.963  0.00  0.00     0.062 H 
BRANCH  20  25
ATOM     25  O   LIG d   1       3.736   1.683  -8.097  0.00  0.00    -0.495 OA
BRANCH  25  26
ATOM     26  C   LIG d   1       4.059   2.558  -9.179  0.00  0.00     0.079 C 
ATOM     27  H   LIG d   1       5.035   2.290  -9.585  0.00  0.00     0.066 H 
ATOM     28  H   LIG d   1       4.087   3.587  -8.819  0.00  0.00     0.066 H 
ATOM     29  H   LIG d   1       3.303   2.467  -9.959  0.00  0.00     0.066 H 
ENDBRANCH  25  26
ENDBRANCH  20  25
ENDBRANCH   8  11
ENDBRANCH   5   8
ENDBRANCH   3   5
BRANCH   1  30
ATOM     30  C   LIG d   1       6.863  -4.387  -5.669  0.00  0.00     0.056 C 
ATOM     31  H   LIG d   1       6.717  -5.367  -5.217  0.00  0.00     0.041 H 
ATOM     32  H   LIG d   1       7.919  -4.122  -5.631  0.00  0.00     0.041 H 
BRANCH  30  33
ATOM     33  C   LIG d   1       6.061  -3.359  -4.910  0.00  0.00     0.049 A 
ATOM     34  C   LIG d   1       6.614  -2.159  -4.601  0.00  0.00    -0.029 A 
ATOM     35  C   LIG d   1       5.797  -1.191  -3.863  0.00  0.00     0.021 A 
ATOM     36  C   LIG d   1       4.482  -1.542  -3.506  0.00  0.00     0.143 A 
ATOM     37  C   LIG d   1       6.307   0.065  -3.514  0.00  0.00    -0.047 A 
ATOM     38  C   LIG d   1       3.701  -0.632  -2.807  0.00  0.00     0.023 A 
ATOM     39  O   LIG d   1       3.993  -2.753  -3.845  0.00  0.00    -0.422 OA
ATOM     40  C   LIG d   1       4.222   0.606  -2.470  0.00  0.00     0.120 A 
ATOM     41  H   LIG d   1       2.690  -0.889  -2.528  0.00  0.00     0.069 H 
ATOM     42  C   LIG d   1       5.526   0.947  -2.827  0.00  0.00    -0.019 A 
ATOM     43  H   LIG d   1       5.920   1.916  -2.557  0.00  0.00     0.065 H 
ATOM     44  C   LIG d   1       4.734  -3.642  -4.526  0.00  0.00     0.341 A 
ATOM     45  O   LIG d   1       4.250  -4.721  -4.814  0.00  0.00    -0.245 OA
ATOM     46  H   LIG d   1       7.317   0.335  -3.788  0.00  0.00     0.063 H 
BRANCH  34  47
ATOM     47  C   LIG d   1       8.027  -1.828  -5.005  0.00  0.00    -0.038 C 
ATOM     48  H   LIG d   1       8.098  -1.804  -6.092  0.00  0.00     0.028 H 
ATOM     49  H   LIG d   1       8.302  -0.854  -4.601  0.00  0.00     0.028 H 
ATOM     50  H   LIG d   1       8.704  -2.588  -4.614  0.00  0.00     0.028 H 
ENDBRANCH  34  47
BRANCH  40  51
ATOM     51  O   LIG d   1       3.457   1.495  -1.787  0.00  0.00    -0.507 OA
ATOM     52  H   LIG d   1       3.567   1.452  -0.826  0.00  0.00     0.292 HD
ENDBRANCH  40  51
ENDBRANCH  30  33
ENDBRANCH   1  30
TORSDOF 9
ENDMDL
MODEL 2
REMARK VINA RESULT:      -6.2      8.816     11.270
REMARK  9 active torsions:
REMARK  status: ('A' for Active; 'I' for Inactive)
REMARK    1  A    between atoms: C_1  and  C_2 
REMARK    2  A    between atoms: C_6  and  O_31 
REMARK    3  A    between atoms: C_12  and  C_13 
REMARK    4  A    between atoms: C_13  and  C_14 
REMARK       I    between atoms: C_14  and  N_16 
REMARK    5  A    between atoms: N_16  and  C_17 
REMARK    6  A    between atoms: C_17  and  C_18 
REMARK    7  A    between atoms: C_18  and  C_19 
REMARK    8  A    between atoms: C_27  and  O_29 
REMARK    9  A    between atoms: O_29  and  C_30 
ROOT
ATOM      1  C   LIG d   1      12.130   4.728  -2.170  0.00  0.00     0.218 C 
ATOM      2  O   LIG d   1      12.740   4.530  -3.199  0.00  0.00    -0.276 OA
ATOM      3  N   LIG d   1      11.087   3.940  -1.843  0.00  0.00    -0.315 N 
ATOM      4  H   LIG d   1      10.599   4.098  -1.019  0.00  0.00     0.149 HD
ENDROOT
BRANCH   3   5
ATOM      5  C   LIG d   1      10.688   2.847  -2.732  0.00  0.00     0.016 C 
ATOM      6  H   LIG d   1      10.555   1.934  -2.150  0.00  0.00     0.046 H 
ATOM      7  H   LIG d   1      11.461   2.689  -3.484  0.00  0.00     0.046 H 
BRANCH   5   8
ATOM      8  C   LIG d   1       9.370   3.205  -3.422  0.00  0.00    -0.010 C 
ATOM      9  H   LIG d   1       8.836   3.944  -2.824  0.00  0.00     0.033 H 
ATOM     10  H   LIG d   1       8.758   2.309  -3.526  0.00  0.00     0.033 H 
BRANCH   8  11
ATOM     11  C   LIG d   1       9.657   3.777  -4.787  0.00  0.00    -0.021 A 
ATOM     12  C   LIG d   1       9.548   5.184  -5.184  0.00  0.00     0.003 A 
ATOM     13  C   LIG d   1       9.914   5.234  -6.542  0.00  0.00     0.050 A 
ATOM     14  C   LIG d   1       9.186   6.353  -4.515  0.00  0.00    -0.049 A 
ATOM     15  N   LIG d   1      10.218   3.948  -6.929  0.00  0.00    -0.360 N 
ATOM     16  C   LIG d   1       9.903   6.455  -7.207  0.00  0.00     0.004 A 
ATOM     17  C   LIG d   1      10.059   3.094  -5.870  0.00  0.00     0.006 A 
ATOM     18  H   LIG d   1      10.501   3.686  -7.819  0.00  0.00     0.165 HD
ATOM     19  H   LIG d   1      10.231   2.028  -5.902  0.00  0.00     0.081 H 
ATOM     20  C   LIG d   1       9.546   7.604  -6.525  0.00  0.00     0.122 A 
ATOM     21  H   LIG d   1      10.176   6.507  -8.250  0.00  0.00     0.068 H 
ATOM     22  C   LIG d   1       9.186   7.546  -5.181  0.00  0.00    -0.019 A 
ATOM     23  H   LIG d   1       8.905   8.451  -4.662  0.00  0.00     0.065 H 
ATOM     24  H   LIG d   1       8.905   6.316  -3.472  0.00  0.00     0.062 H 
BRANCH  20  25
ATOM     25  O   LIG d   1       9.540   8.798  -7.174  0.00  0.00    -0.495 OA
BRANCH  25  26
ATOM     26  C   LIG d   1      10.762   9.539  -7.178  0.00  0.00     0.079 C 
ATOM     27  H   LIG d   1      11.437   9.122  -7.925  0.00  0.00     0.066 H 
ATOM     28  H   LIG d   1      11.228   9.478  -6.194  0.00  0.00     0.066 H 
ATOM     29  H   LIG d   1      10.554  10.581  -7.418  0.00  0.00     0.066 H 
ENDBRANCH  25  26
ENDBRANCH  20  25
ENDBRANCH   8  11
ENDBRANCH   5   8
ENDBRANCH   3   5
BRANCH   1  30
ATOM     30  C   LIG d   1      12.540   5.854  -1.255  0.00  0.00     0.056 C 
ATOM     31  H   LIG d   1      12.540   5.502  -0.224  0.00  0.00     0.041 H 
ATOM     32  H   LIG d   1      13.539   6.195  -1.524  0.00  0.00     0.041 H 
BRANCH  30  33
ATOM     33  C   LIG d   1      11.565   6.995  -1.397  0.00  0.00     0.049 A 
ATOM     34  C   LIG d   1      11.786   7.968  -2.318  0.00  0.00    -0.029 A 
ATOM     35  C   LIG d   1      10.812   9.057  -2.421  0.00  0.00     0.021 A 
ATOM     36  C   LIG d   1       9.693   9.053  -1.568  0.00  0.00     0.143 A 
ATOM     37  C   LIG d   1      10.982  10.090  -3.350  0.00  0.00    -0.047 A 
ATOM     38  C   LIG d   1       8.765  10.081  -1.658  0.00  0.00     0.023 A 
ATOM     39  O   LIG d   1       9.532   8.055  -0.674  0.00  0.00    -0.422 OA
ATOM     40  C   LIG d   1       8.949  11.095  -2.583  0.00  0.00     0.120 A 
ATOM     41  H   LIG d   1       7.902  10.089  -1.009  0.00  0.00     0.069 H 
ATOM     42  C   LIG d   1      10.060  11.093  -3.425  0.00  0.00    -0.019 A 
ATOM     43  H   LIG d   1      10.191  11.891  -4.141  0.00  0.00     0.065 H 
ATOM     44  C   LIG d   1      10.418   7.051  -0.578  0.00  0.00     0.341 A 
ATOM     45  O   LIG d   1      10.230   6.169   0.240  0.00  0.00    -0.245 OA
ATOM     46  H   LIG d   1      11.841  10.094  -4.006  0.00  0.00     0.063 H 
BRANCH  34  47
ATOM     47  C   LIG d   1      13.000   7.928  -3.211  0.00  0.00    -0.038 C 
ATOM     48  H   LIG d   1      13.615   8.808  -3.026  0.00  0.00     0.028 H 
ATOM     49  H   LIG d   1      13.578   7.029  -2.998  0.00  0.00     0.028 H 
ATOM     50  H   LIG d   1      12.683   7.918  -4.254  0.00  0.00     0.028 H 
ENDBRANCH  34  47
BRANCH  40  51
ATOM     51  O   LIG d   1       8.040  12.100  -2.670  0.00  0.00    -0.507 OA
ATOM     52  H   LIG d   1       8.034  12.551  -3.526  0.00  0.00     0.292 HD
ENDBRANCH  40  51
ENDBRANCH  30  33
ENDBRANCH   1  30
TORSDOF 9
ENDMDL
MODEL 3
REMARK VINA RESULT:      -6.0     10.719     14.055
REMARK  9 active torsions:
REMARK  status: ('A' for Active; 'I' for Inactive)
REMARK    1  A    between atoms: C_1  and  C_2 
REMARK    2  A    between atoms: C_6  and  O_31 
REMARK    3  A    between atoms: C_12  and  C_13 
REMARK    4  A    between atoms: C_13  and  C_14 
REMARK       I    between atoms: C_14  and  N_16 
REMARK    5  A    between atoms: N_16  and  C_17 
REMARK    6  A    between atoms: C_17  and  C_18 
REMARK    7  A    between atoms: C_18  and  C_19 
REMARK    8  A    between atoms: C_27  and  O_29 
REMARK    9  A    between atoms: O_29  and  C_30 
ROOT
ATOM      1  C   LIG d   1      10.495  12.016  -0.677  0.00  0.00     0.218 C 
ATOM      2  O   LIG d   1      11.551  12.612  -0.689  0.00  0.00    -0.276 OA
ATOM      3  N   LIG d   1       9.617  12.181  -1.686  0.00  0.00    -0.315 N 
ATOM      4  H   LIG d   1       8.772  11.704  -1.676  0.00  0.00     0.149 HD
ENDROOT
BRANCH   3   5
ATOM      5  C   LIG d   1       9.937  13.082  -2.796  0.00  0.00     0.016 C 
ATOM      6  H   LIG d   1      10.335  14.017  -2.402  0.00  0.00     0.046 H 
ATOM      7  H   LIG d   1       9.034  13.285  -3.371  0.00  0.00     0.046 H 
BRANCH   5   8
ATOM      8  C   LIG d   1      10.982  12.426  -3.700  0.00  0.00    -0.010 C 
ATOM      9  H   LIG d   1      11.919  12.316  -3.154  0.00  0.00     0.033 H 
ATOM     10  H   LIG d   1      11.145  13.050  -4.579  0.00  0.00     0.033 H 
BRANCH   8  11
ATOM     11  C   LIG d   1      10.492  11.068  -4.133  0.00  0.00    -0.021 A 
ATOM     12  C   LIG d   1      11.230   9.805  -4.045  0.00  0.00     0.003 A 
ATOM     13  C   LIG d   1      10.373   8.817  -4.564  0.00  0.00     0.050 A 
ATOM     14  C   LIG d   1      12.499   9.455  -3.581  0.00  0.00    -0.049 A 
ATOM     15  N   LIG d   1       9.206   9.446  -4.938  0.00  0.00    -0.360 N 
ATOM     16  C   LIG d   1      10.807   7.497  -4.616  0.00  0.00     0.004 A 
ATOM     17  C   LIG d   1       9.295  10.786  -4.673  0.00  0.00     0.006 A 
ATOM     18  H   LIG d   1       8.437   9.005  -5.330  0.00  0.00     0.165 HD
ATOM     19  H   LIG d   1       8.518  11.511  -4.871  0.00  0.00     0.081 H 
ATOM     20  C   LIG d   1      12.066   7.169  -4.146  0.00  0.00     0.122 A 
ATOM     21  H   LIG d   1      10.162   6.729  -5.017  0.00  0.00     0.068 H 
ATOM     22  C   LIG d   1      12.907   8.153  -3.633  0.00  0.00    -0.019 A 
ATOM     23  H   LIG d   1      13.889   7.883  -3.274  0.00  0.00     0.065 H 
ATOM     24  H   LIG d   1      13.157  10.213  -3.181  0.00  0.00     0.062 H 
BRANCH  20  25
ATOM     25  O   LIG d   1      12.487   5.878  -4.192  0.00  0.00    -0.495 OA
BRANCH  25  26
ATOM     26  C   LIG d   1      11.732   4.979  -5.008  0.00  0.00     0.079 C 
ATOM     27  H   LIG d   1      11.559   5.432  -5.985  0.00  0.00     0.066 H 
ATOM     28  H   LIG d   1      10.774   4.771  -4.530  0.00  0.00     0.066 H 
ATOM     29  H   LIG d   1      12.286   4.049  -5.132  0.00  0.00     0.066 H 
ENDBRANCH  25  26
ENDBRANCH  20  25
ENDBRANCH   8  11
ENDBRANCH   5   8
ENDBRANCH   3   5
BRANCH   1  30
ATOM     30  C   LIG d   1      10.165  11.090   0.465  0.00  0.00     0.056 C 
ATOM     31  H   LIG d   1      10.896  11.219   1.262  0.00  0.00     0.041 H 
ATOM     32  H   LIG d   1       9.169  11.320   0.843  0.00  0.00     0.041 H 
BRANCH  30  33
ATOM     33  C   LIG d   1      10.198   9.662  -0.021  0.00  0.00     0.049 A 
ATOM     34  C   LIG d   1      11.316   8.912   0.151  0.00  0.00    -0.029 A 
ATOM     35  C   LIG d   1      11.303   7.530  -0.336  0.00  0.00     0.021 A 
ATOM     36  C   LIG d   1      10.141   7.039  -0.960  0.00  0.00     0.143 A 
ATOM     37  C   LIG d   1      12.423   6.703  -0.189  0.00  0.00    -0.047 A 
ATOM     38  C   LIG d   1      10.119   5.732  -1.424  0.00  0.00     0.023 A 
ATOM     39  O   LIG d   1       9.063   7.838  -1.099  0.00  0.00    -0.422 OA
ATOM     40  C   LIG d   1      11.236   4.928  -1.270  0.00  0.00     0.120 A 
ATOM     41  H   LIG d   1       9.234   5.342  -1.904  0.00  0.00     0.069 H 
ATOM     42  C   LIG d   1      12.384   5.421  -0.652  0.00  0.00    -0.019 A 
ATOM     43  H   LIG d   1      13.249   4.783  -0.539  0.00  0.00     0.065 H 
ATOM     44  C   LIG d   1       9.066   9.103  -0.649  0.00  0.00     0.341 A 
ATOM     45  O   LIG d   1       8.069   9.787  -0.793  0.00  0.00    -0.245 OA
ATOM     46  H   LIG d   1      13.315   7.079   0.290  0.00  0.00     0.063 H 
BRANCH  34  47
ATOM     47  C   LIG d   1      12.537   9.482   0.826  0.00  0.00    -0.038 C 
ATOM     48  H   LIG d   1      13.282   8.698   0.952  0.00  0.00     0.028 H 
ATOM     49  H   LIG d   1      12.950  10.282   0.212  0.00  0.00     0.028 H 
ATOM     50  H   LIG d   1      12.259   9.880   1.802  0.00  0.00     0.028 H 
ENDBRANCH  34  47
BRANCH  40  51
ATOM     51  O   LIG d   1      11.214   3.649  -1.726  0.00  0.00    -0.507 OA
ATOM     52  H   LIG d   1      10.860   3.011  -1.090  0.00  0.00     0.292 HD
ENDBRANCH  40  51
ENDBRANCH  30  33
ENDBRANCH   1  30
TORSDOF 9
ENDMDL
MODEL 4
REMARK VINA RESULT:      -6.0      2.472      4.631
REMARK  9 active torsions:
REMARK  status: ('A' for Active; 'I' for Inactive)
REMARK    1  A    between atoms: C_1  and  C_2 
REMARK    2  A    between atoms: C_6  and  O_31 
REMARK    3  A    between atoms: C_12  and  C_13 
REMARK    4  A    between atoms: C_13  and  C_14 
REMARK       I    between atoms: C_14  and  N_16 
REMARK    5  A    between atoms: N_16  and  C_17 
REMARK    6  A    between atoms: C_17  and  C_18 
REMARK    7  A    between atoms: C_18  and  C_19 
REMARK    8  A    between atoms: C_27  and  O_29 
REMARK    9  A    between atoms: O_29  and  C_30 
ROOT
ATOM      1  C   LIG d   1       7.006   1.719  -8.662  0.00  0.00     0.218 C 
ATOM      2  O   LIG d   1       7.539   2.570  -9.342  0.00  0.00    -0.276 OA
ATOM      3  N   LIG d   1       5.663   1.672  -8.573  0.00  0.00    -0.315 N 
ATOM      4  H   LIG d   1       5.236   0.991  -8.028  0.00  0.00     0.149 HD
ENDROOT
BRANCH   3   5
ATOM      5  C   LIG d   1       4.846   2.649  -9.295  0.00  0.00     0.016 C 
ATOM      6  H   LIG d   1       4.935   2.476 -10.368  0.00  0.00     0.046 H 
ATOM      7  H   LIG d   1       5.191   3.656  -9.061  0.00  0.00     0.046 H 
BRANCH   5   8
ATOM      8  C   LIG d   1       3.382   2.501  -8.876  0.00  0.00    -0.010 C 
ATOM      9  H   LIG d   1       2.737   2.882  -9.668  0.00  0.00     0.033 H 
ATOM     10  H   LIG d   1       3.207   3.066  -7.961  0.00  0.00     0.033 H 
BRANCH   8  11
ATOM     11  C   LIG d   1       3.073   1.045  -8.634  0.00  0.00    -0.021 A 
ATOM     12  C   LIG d   1       2.918   0.005  -9.654  0.00  0.00     0.003 A 
ATOM     13  C   LIG d   1       2.639  -1.185  -8.957  0.00  0.00     0.050 A 
ATOM     14  C   LIG d   1       2.995  -0.004 -11.047  0.00  0.00    -0.049 A 
ATOM     15  N   LIG d   1       2.626  -0.876  -7.614  0.00  0.00    -0.360 N 
ATOM     16  C   LIG d   1       2.434  -2.361  -9.668  0.00  0.00     0.004 A 
ATOM     17  C   LIG d   1       2.888   0.457  -7.441  0.00  0.00     0.006 A 
ATOM     18  H   LIG d   1       2.457  -1.508  -6.899  0.00  0.00     0.165 HD
ATOM     19  H   LIG d   1       2.936   0.961  -6.487  0.00  0.00     0.081 H 
ATOM     20  C   LIG d   1       2.520  -2.351 -11.049  0.00  0.00     0.122 A 
ATOM     21  H   LIG d   1       2.214  -3.280  -9.146  0.00  0.00     0.068 H 
ATOM     22  C   LIG d   1       2.797  -1.170 -11.731  0.00  0.00    -0.019 A 
ATOM     23  H   LIG d   1       2.857  -1.176 -12.810  0.00  0.00     0.065 H 
ATOM     24  H   LIG d   1       3.210   0.909 -11.584  0.00  0.00     0.062 H 
BRANCH  20  25
ATOM     25  O   LIG d   1       2.325  -3.502 -11.744  0.00  0.00    -0.495 OA
BRANCH  25  26
ATOM     26  C   LIG d   1       2.119  -4.693 -10.981  0.00  0.00     0.079 C 
ATOM     27  H   LIG d   1       2.315  -4.489  -9.928  0.00  0.00     0.066 H 
ATOM     28  H   LIG d   1       2.798  -5.471 -11.331  0.00  0.00     0.066 H 
ATOM     29  H   LIG d   1       1.089  -5.029 -11.101  0.00  0.00     0.066 H 
ENDBRANCH  25  26
ENDBRANCH  20  25
ENDBRANCH   8  11
ENDBRANCH   5   8
ENDBRANCH   3   5
BRANCH   1  30
ATOM     30  C   LIG d   1       7.847   0.713  -7.917  0.00  0.00     0.056 C 
ATOM     31  H   LIG d   1       8.311   0.029  -8.627  0.00  0.00     0.041 H 
ATOM     32  H   LIG d   1       8.620   1.233  -7.353  0.00  0.00     0.041 H 
BRANCH  30  33
ATOM     33  C   LIG d   1       6.972  -0.066  -6.968  0.00  0.00     0.049 A 
ATOM     34  C   LIG d   1       6.943   0.257  -5.649  0.00  0.00    -0.029 A 
ATOM     35  C   LIG d   1       6.078  -0.527  -4.764  0.00  0.00     0.021 A 
ATOM     36  C   LIG d   1       5.316  -1.577  -5.310  0.00  0.00     0.143 A 
ATOM     37  C   LIG d   1       6.003  -0.245  -3.395  0.00  0.00    -0.047 A 
ATOM     38  C   LIG d   1       4.495  -2.324  -4.480  0.00  0.00     0.023 A 
ATOM     39  O   LIG d   1       5.390  -1.845  -6.631  0.00  0.00    -0.422 OA
ATOM     40  C   LIG d   1       4.433  -2.032  -3.128  0.00  0.00     0.120 A 
ATOM     41  H   LIG d   1       3.904  -3.132  -4.887  0.00  0.00     0.069 H 
ATOM     42  C   LIG d   1       5.190  -0.991  -2.593  0.00  0.00    -0.019 A 
ATOM     43  H   LIG d   1       5.133  -0.774  -1.536  0.00  0.00     0.065 H 
ATOM     44  C   LIG d   1       6.177  -1.127  -7.449  0.00  0.00     0.341 A 
ATOM     45  O   LIG d   1       6.209  -1.402  -8.634  0.00  0.00    -0.245 OA
ATOM     46  H   LIG d   1       6.588   0.561  -2.975  0.00  0.00     0.063 H 
BRANCH  34  47
ATOM     47  C   LIG d   1       7.777   1.391  -5.111  0.00  0.00    -0.038 C 
ATOM     48  H   LIG d   1       8.555   0.992  -4.459  0.00  0.00     0.028 H 
ATOM     49  H   LIG d   1       8.237   1.928  -5.940  0.00  0.00     0.028 H 
ATOM     50  H   LIG d   1       7.142   2.071  -4.544  0.00  0.00     0.028 H 
ENDBRANCH  34  47
BRANCH  40  51
ATOM     51  O   LIG d   1       3.628  -2.764  -2.316  0.00  0.00    -0.507 OA
ATOM     52  H   LIG d   1       2.744  -2.923  -2.678  0.00  0.00     0.292 HD
ENDBRANCH  40  51
ENDBRANCH  30  33
ENDBRANCH   1  30
TORSDOF 9
ENDMDL
MODEL 5
REMARK VINA RESULT:      -5.8     11.075     14.062
REMARK  9 active torsions:
REMARK  status: ('A' for Active; 'I' for Inactive)
REMARK    1  A    between atoms: C_1  and  C_2 
REMARK    2  A    between atoms: C_6  and  O_31 
REMARK    3  A    between atoms: C_12  and  C_13 
REMARK    4  A    between atoms: C_13  and  C_14 
REMARK       I    between atoms: C_14  and  N_16 
REMARK    5  A    between atoms: N_16  and  C_17 
REMARK    6  A    between atoms: C_17  and  C_18 
REMARK    7  A    between atoms: C_18  and  C_19 
REMARK    8  A    between atoms: C_27  and  O_29 
REMARK    9  A    between atoms: O_29  and  C_30 
ROOT
ATOM      1  C   LIG d   1      11.406   7.121  -0.439  0.00  0.00     0.218 C 
ATOM      2  O   LIG d   1      10.458   6.645   0.149  0.00  0.00    -0.276 OA
ATOM      3  N   LIG d   1      11.953   8.276  -0.011  0.00  0.00    -0.315 N 
ATOM      4  H   LIG d   1      12.711   8.657  -0.482  0.00  0.00     0.149 HD
ENDROOT
BRANCH   3   5
ATOM      5  C   LIG d   1      11.402   8.957   1.162  0.00  0.00     0.016 C 
ATOM      6  H   LIG d   1      12.126   8.922   1.977  0.00  0.00     0.046 H 
ATOM      7  H   LIG d   1      10.482   8.461   1.473  0.00  0.00     0.046 H 
BRANCH   5   8
ATOM      8  C   LIG d   1      11.101  10.416   0.812  0.00  0.00    -0.010 C 
ATOM      9  H   LIG d   1      12.020  10.911   0.499  0.00  0.00     0.033 H 
ATOM     10  H   LIG d   1      10.694  10.923   1.686  0.00  0.00     0.033 H 
BRANCH   8  11
ATOM     11  C   LIG d   1      10.096  10.466  -0.311  0.00  0.00    -0.021 A 
ATOM     12  C   LIG d   1      10.243  11.183  -1.581  0.00  0.00     0.003 A 
ATOM     13  C   LIG d   1       9.060  10.939  -2.303  0.00  0.00     0.050 A 
ATOM     14  C   LIG d   1      11.248  11.977  -2.134  0.00  0.00    -0.049 A 
ATOM     15  N   LIG d   1       8.263  10.135  -1.519  0.00  0.00    -0.360 N 
ATOM     16  C   LIG d   1       8.903  11.502  -3.565  0.00  0.00     0.004 A 
ATOM     17  C   LIG d   1       8.897   9.863  -0.336  0.00  0.00     0.006 A 
ATOM     18  H   LIG d   1       7.384   9.810  -1.768  0.00  0.00     0.165 HD
ATOM     19  H   LIG d   1       8.492   9.255   0.459  0.00  0.00     0.081 H 
ATOM     20  C   LIG d   1       9.913  12.282  -4.098  0.00  0.00     0.122 A 
ATOM     21  H   LIG d   1       7.999  11.328  -4.128  0.00  0.00     0.068 H 
ATOM     22  C   LIG d   1      11.080  12.517  -3.377  0.00  0.00    -0.019 A 
ATOM     23  H   LIG d   1      11.859  13.132  -3.805  0.00  0.00     0.065 H 
ATOM     24  H   LIG d   1      12.156  12.164  -1.580  0.00  0.00     0.062 H 
BRANCH  20  25
ATOM     25  O   LIG d   1       9.761  12.827  -5.334  0.00  0.00    -0.495 OA
BRANCH  25  26
ATOM     26  C   LIG d   1       9.673  14.252  -5.407  0.00  0.00     0.079 C 
ATOM     27  H   LIG d   1       9.760  14.673  -4.406  0.00  0.00     0.066 H 
ATOM     28  H   LIG d   1       8.713  14.535  -5.838  0.00  0.00     0.066 H 
ATOM     29  H   LIG d   1      10.479  14.634  -6.033  0.00  0.00     0.066 H 
ENDBRANCH  25  26
ENDBRANCH  20  25
ENDBRANCH   8  11
ENDBRANCH   5   8
ENDBRANCH   3   5
BRANCH   1  30
ATOM     30  C   LIG d   1      11.973   6.421  -1.647  0.00  0.00     0.056 C 
ATOM     31  H   LIG d   1      13.036   6.643  -1.731  0.00  0.00     0.041 H 
ATOM     32  H   LIG d   1      11.832   5.345  -1.543  0.00  0.00     0.041 H 
BRANCH  30  33
ATOM     33  C   LIG d   1      11.260   6.902  -2.886  0.00  0.00     0.049 A 
ATOM     34  C   LIG d   1      11.763   7.943  -3.598  0.00  0.00    -0.029 A 
ATOM     35  C   LIG d   1      11.037   8.376  -4.795  0.00  0.00     0.021 A 
ATOM     36  C   LIG d   1       9.857   7.702  -5.157  0.00  0.00     0.143 A 
ATOM     37  C   LIG d   1      11.503   9.443  -5.573  0.00  0.00    -0.047 A 
ATOM     38  C   LIG d   1       9.163   8.105  -6.289  0.00  0.00     0.023 A 
ATOM     39  O   LIG d   1       9.412   6.673  -4.406  0.00  0.00    -0.422 OA
ATOM     40  C   LIG d   1       9.638   9.162  -7.047  0.00  0.00     0.120 A 
ATOM     41  H   LIG d   1       8.256   7.595  -6.578  0.00  0.00     0.069 H 
ATOM     42  C   LIG d   1      10.808   9.827  -6.682  0.00  0.00    -0.019 A 
ATOM     43  H   LIG d   1      11.167  10.650  -7.282  0.00  0.00     0.065 H 
ATOM     44  C   LIG d   1      10.075   6.268  -3.311  0.00  0.00     0.341 A 
ATOM     45  O   LIG d   1       9.638   5.332  -2.665  0.00  0.00    -0.245 OA
ATOM     46  H   LIG d   1      12.409   9.961  -5.295  0.00  0.00     0.063 H 
BRANCH  34  47
ATOM     47  C   LIG d   1      13.032   8.634  -3.170  0.00  0.00    -0.038 C 
ATOM     48  H   LIG d   1      13.025   9.663  -3.529  0.00  0.00     0.028 H 
ATOM     49  H   LIG d   1      13.099   8.628  -2.082  0.00  0.00     0.028 H 
ATOM     50  H   LIG d   1      13.890   8.109  -3.590  0.00  0.00     0.028 H 
ENDBRANCH  34  47
BRANCH  40  51
ATOM     51  O   LIG d   1       8.958   9.556  -8.154  0.00  0.00    -0.507 OA
ATOM     52  H   LIG d   1       8.432   8.854  -8.563  0.00  0.00     0.292 HD
ENDBRANCH  40  51
ENDBRANCH  30  33
ENDBRANCH   1  30
TORSDOF 9
ENDMDL
MODEL 6
REMARK VINA RESULT:      -5.8      2.402      3.324
REMARK  9 active torsions:
REMARK  status: ('A' for Active; 'I' for Inactive)
REMARK    1  A    between atoms: C_1  and  C_2 
REMARK    2  A    between atoms: C_6  and  O_31 
REMARK    3  A    between atoms: C_12  and  C_13 
REMARK    4  A    between atoms: C_13  and  C_14 
REMARK       I    between atoms: C_14  and  N_16 
REMARK    5  A    between atoms: N_16  and  C_17 
REMARK    6  A    between atoms: C_17  and  C_18 
REMARK    7  A    between atoms: C_18  and  C_19 
REMARK    8  A    between atoms: C_27  and  O_29 
REMARK    9  A    between atoms: O_29  and  C_30 
ROOT
ATOM      1  C   LIG d   1       7.171  -4.239  -6.797  0.00  0.00     0.218 C 
ATOM      2  O   LIG d   1       8.251  -4.316  -7.341  0.00  0.00    -0.276 OA
ATOM      3  N   LIG d   1       6.076  -3.914  -7.513  0.00  0.00    -0.315 N 
ATOM      4  H   LIG d   1       5.212  -3.852  -7.077  0.00  0.00     0.149 HD
ENDROOT
BRANCH   3   5
ATOM      5  C   LIG d   1       6.192  -3.652  -8.949  0.00  0.00     0.016 C 
ATOM      6  H   LIG d   1       5.813  -4.509  -9.507  0.00  0.00     0.046 H 
ATOM      7  H   LIG d   1       7.239  -3.486  -9.205  0.00  0.00     0.046 H 
BRANCH   5   8
ATOM      8  C   LIG d   1       5.376  -2.409  -9.309  0.00  0.00    -0.010 C 
ATOM      9  H   LIG d   1       4.315  -2.659  -9.308  0.00  0.00     0.033 H 
ATOM     10  H   LIG d   1       5.665  -2.059 -10.300  0.00  0.00     0.033 H 
BRANCH   8  11
ATOM     11  C   LIG d   1       5.638  -1.325  -8.296  0.00  0.00    -0.021 A 
ATOM     12  C   LIG d   1       6.932  -0.708  -7.993  0.00  0.00     0.003 A 
ATOM     13  C   LIG d   1       6.683   0.245  -6.989  0.00  0.00     0.050 A 
ATOM     14  C   LIG d   1       8.227  -0.886  -8.482  0.00  0.00    -0.049 A 
ATOM     15  N   LIG d   1       5.335   0.200  -6.711  0.00  0.00    -0.360 N 
ATOM     16  C   LIG d   1       7.738   0.999  -6.487  0.00  0.00     0.004 A 
ATOM     17  C   LIG d   1       4.728  -0.741  -7.499  0.00  0.00     0.006 A 
ATOM     18  H   LIG d   1       4.883   0.752  -6.053  0.00  0.00     0.165 HD
ATOM     19  H   LIG d   1       3.675  -0.979  -7.482  0.00  0.00     0.081 H 
ATOM     20  C   LIG d   1       9.014   0.812  -6.987  0.00  0.00     0.122 A 
ATOM     21  H   LIG d   1       7.562   1.730  -5.712  0.00  0.00     0.068 H 
ATOM     22  C   LIG d   1       9.251  -0.134  -7.982  0.00  0.00    -0.019 A 
ATOM     23  H   LIG d   1      10.254  -0.272  -8.360  0.00  0.00     0.065 H 
ATOM     24  H   LIG d   1       8.419  -1.617  -9.253  0.00  0.00     0.062 H 
BRANCH  20  25
ATOM     25  O   LIG d   1      10.044   1.552  -6.500  0.00  0.00    -0.495 OA
BRANCH  25  26
ATOM     26  C   LIG d   1       9.854   2.164  -5.222  0.00  0.00     0.079 C 
ATOM     27  H   LIG d   1       9.047   2.894  -5.285  0.00  0.00     0.066 H 
ATOM     28  H   LIG d   1      10.773   2.666  -4.919  0.00  0.00     0.066 H 
ATOM     29  H   LIG d   1       9.597   1.401  -4.488  0.00  0.00     0.066 H 
ENDBRANCH  25  26
ENDBRANCH  20  25
ENDBRANCH   8  11
ENDBRANCH   5   8
ENDBRANCH   3   5
BRANCH   1  30
ATOM     30  C   LIG d   1       7.051  -4.507  -5.318  0.00  0.00     0.056 C 
ATOM     31  H   LIG d   1       6.604  -5.489  -5.161  0.00  0.00     0.041 H 
ATOM     32  H   LIG d   1       8.040  -4.480  -4.863  0.00  0.00     0.041 H 
BRANCH  30  33
ATOM     33  C   LIG d   1       6.179  -3.452  -4.686  0.00  0.00     0.049 A 
ATOM     34  C   LIG d   1       6.725  -2.285  -4.258  0.00  0.00    -0.029 A 
ATOM     35  C   LIG d   1       5.840  -1.288  -3.651  0.00  0.00     0.021 A 
ATOM     36  C   LIG d   1       4.468  -1.577  -3.535  0.00  0.00     0.143 A 
ATOM     37  C   LIG d   1       6.341  -0.065  -3.190  0.00  0.00    -0.047 A 
ATOM     38  C   LIG d   1       3.621  -0.639  -2.961  0.00  0.00     0.023 A 
ATOM     39  O   LIG d   1       3.988  -2.756  -3.982  0.00  0.00    -0.422 OA
ATOM     40  C   LIG d   1       4.134   0.566  -2.510  0.00  0.00     0.120 A 
ATOM     41  H   LIG d   1       2.566  -0.848  -2.867  0.00  0.00     0.069 H 
ATOM     42  C   LIG d   1       5.494   0.846  -2.628  0.00  0.00    -0.019 A 
ATOM     43  H   LIG d   1       5.881   1.789  -2.272  0.00  0.00     0.065 H 
ATOM     44  C   LIG d   1       4.793  -3.672  -4.544  0.00  0.00     0.341 A 
ATOM     45  O   LIG d   1       4.316  -4.721  -4.937  0.00  0.00    -0.245 OA
ATOM     46  H   LIG d   1       7.394   0.158  -3.279  0.00  0.00     0.063 H 
BRANCH  34  47
ATOM     47  C   LIG d   1       8.202  -2.021  -4.405  0.00  0.00    -0.038 C 
ATOM     48  H   LIG d   1       8.688  -2.129  -3.436  0.00  0.00     0.028 H 
ATOM     49  H   LIG d   1       8.630  -2.735  -5.108  0.00  0.00     0.028 H 
ATOM     50  H   LIG d   1       8.354  -1.008  -4.778  0.00  0.00     0.028 H 
ENDBRANCH  34  47
BRANCH  40  51
ATOM     51  O   LIG d   1       3.304   1.483  -1.949  0.00  0.00    -0.507 OA
ATOM     52  H   LIG d   1       3.764   2.210  -1.507  0.00  0.00     0.292 HD
ENDBRANCH  40  51
ENDBRANCH  30  33
ENDBRANCH   1  30
TORSDOF 9
ENDMDL
MODEL 7
REMARK VINA RESULT:      -5.7      5.349      8.306
REMARK  9 active torsions:
REMARK  status: ('A' for Active; 'I' for Inactive)
REMARK    1  A    between atoms: C_1  and  C_2 
REMARK    2  A    between atoms: C_6  and  O_31 
REMARK    3  A    between atoms: C_12  and  C_13 
REMARK    4  A    between atoms: C_13  and  C_14 
REMARK       I    between atoms: C_14  and  N_16 
REMARK    5  A    between atoms: N_16  and  C_17 
REMARK    6  A    between atoms: C_17  and  C_18 
REMARK    7  A    between atoms: C_18  and  C_19 
REMARK    8  A    between atoms: C_27  and  O_29 
REMARK    9  A    between atoms: O_29  and  C_30 
ROOT
ATOM      1  C   LIG d   1       9.790   0.082  -5.926  0.00  0.00     0.218 C 
ATOM      2  O   LIG d   1      10.476  -0.147  -4.953  0.00  0.00    -0.276 OA
ATOM      3  N   LIG d   1       9.847   1.289  -6.522  0.00  0.00    -0.315 N 
ATOM      4  H   LIG d   1       9.297   1.472  -7.301  0.00  0.00     0.149 HD
ENDROOT
BRANCH   3   5
ATOM      5  C   LIG d   1      10.736   2.326  -5.993  0.00  0.00     0.016 C 
ATOM      6  H   LIG d   1      11.377   2.698  -6.792  0.00  0.00     0.046 H 
ATOM      7  H   LIG d   1      11.352   1.906  -5.199  0.00  0.00     0.046 H 
BRANCH   5   8
ATOM      8  C   LIG d   1       9.899   3.479  -5.434  0.00  0.00    -0.010 C 
ATOM      9  H   LIG d   1       8.841   3.224  -5.497  0.00  0.00     0.033 H 
ATOM     10  H   LIG d   1      10.090   4.381  -6.015  0.00  0.00     0.033 H 
BRANCH   8  11
ATOM     11  C   LIG d   1      10.274   3.720  -3.994  0.00  0.00    -0.021 A 
ATOM     12  C   LIG d   1      10.054   4.951  -3.230  0.00  0.00     0.003 A 
ATOM     13  C   LIG d   1      10.564   4.705  -1.942  0.00  0.00     0.050 A 
ATOM     14  C   LIG d   1       9.484   6.189  -3.531  0.00  0.00    -0.049 A 
ATOM     15  N   LIG d   1      11.056   3.419  -1.938  0.00  0.00    -0.360 N 
ATOM     16  C   LIG d   1      10.500   5.707  -0.980  0.00  0.00     0.004 A 
ATOM     17  C   LIG d   1      10.874   2.847  -3.169  0.00  0.00     0.006 A 
ATOM     18  H   LIG d   1      11.469   2.983  -1.177  0.00  0.00     0.165 HD
ATOM     19  H   LIG d   1      11.170   1.844  -3.437  0.00  0.00     0.081 H 
ATOM     20  C   LIG d   1       9.926   6.925  -1.296  0.00  0.00     0.122 A 
ATOM     21  H   LIG d   1      10.892   5.534   0.011  0.00  0.00     0.068 H 
ATOM     22  C   LIG d   1       9.423   7.160  -2.573  0.00  0.00    -0.019 A 
ATOM     23  H   LIG d   1       8.982   8.118  -2.807  0.00  0.00     0.065 H 
ATOM     24  H   LIG d   1       9.091   6.378  -4.520  0.00  0.00     0.062 H 
BRANCH  20  25
ATOM     25  O   LIG d   1       9.859   7.902  -0.354  0.00  0.00    -0.495 OA
BRANCH  25  26
ATOM     26  C   LIG d   1       9.197   9.114  -0.723  0.00  0.00     0.079 C 
ATOM     27  H   LIG d   1       9.666   9.527  -1.616  0.00  0.00     0.066 H 
ATOM     28  H   LIG d   1       9.274   9.833   0.093  0.00  0.00     0.066 H 
ATOM     29  H   LIG d   1       8.147   8.907  -0.927  0.00  0.00     0.066 H 
ENDBRANCH  25  26
ENDBRANCH  20  25
ENDBRANCH   8  11
ENDBRANCH   5   8
ENDBRANCH   3   5
BRANCH   1  30
ATOM     30  C   LIG d   1       8.874  -0.984  -6.471  0.00  0.00     0.056 C 
ATOM     31  H   LIG d   1       8.805  -0.887  -7.554  0.00  0.00     0.041 H 
ATOM     32  H   LIG d   1       9.270  -1.967  -6.218  0.00  0.00     0.041 H 
BRANCH  30  33
ATOM     33  C   LIG d   1       7.502  -0.825  -5.864  0.00  0.00     0.049 A 
ATOM     34  C   LIG d   1       7.127  -1.604  -4.818  0.00  0.00    -0.029 A 
ATOM     35  C   LIG d   1       5.786  -1.414  -4.260  0.00  0.00     0.021 A 
ATOM     36  C   LIG d   1       4.944  -0.439  -4.827  0.00  0.00     0.143 A 
ATOM     37  C   LIG d   1       5.339  -2.184  -3.180  0.00  0.00    -0.047 A 
ATOM     38  C   LIG d   1       3.672  -0.252  -4.306  0.00  0.00     0.023 A 
ATOM     39  O   LIG d   1       5.380   0.303  -5.867  0.00  0.00    -0.422 OA
ATOM     40  C   LIG d   1       3.246  -1.023  -3.237  0.00  0.00     0.120 A 
ATOM     41  H   LIG d   1       3.017   0.494  -4.731  0.00  0.00     0.069 H 
ATOM     42  C   LIG d   1       4.084  -1.987  -2.680  0.00  0.00    -0.019 A 
ATOM     43  H   LIG d   1       3.739  -2.582  -1.848  0.00  0.00     0.065 H 
ATOM     44  C   LIG d   1       6.610   0.138  -6.379  0.00  0.00     0.341 A 
ATOM     45  O   LIG d   1       6.961   0.832  -7.315  0.00  0.00    -0.245 OA
ATOM     46  H   LIG d   1       5.984  -2.933  -2.744  0.00  0.00     0.063 H 
BRANCH  34  47
ATOM     47  C   LIG d   1       8.065  -2.635  -4.244  0.00  0.00    -0.038 C 
ATOM     48  H   LIG d   1       8.851  -2.854  -4.966  0.00  0.00     0.028 H 
ATOM     49  H   LIG d   1       8.510  -2.250  -3.327  0.00  0.00     0.028 H 
ATOM     50  H   LIG d   1       7.510  -3.547  -4.023  0.00  0.00     0.028 H 
ENDBRANCH  34  47
BRANCH  40  51
ATOM     51  O   LIG d   1       2.001  -0.839  -2.728  0.00  0.00    -0.507 OA
ATOM     52  H   LIG d   1       1.312  -1.343  -3.183  0.00  0.00     0.292 HD
ENDBRANCH  40  51
ENDBRANCH  30  33
ENDBRANCH   1  30
TORSDOF 9
ENDMDL
MODEL 8
REMARK VINA RESULT:      -5.7     11.318     14.555
REMARK  9 active torsions:
REMARK  status: ('A' for Active; 'I' for Inactive)
REMARK    1  A    between atoms: C_1  and  C_2 
REMARK    2  A    between atoms: C_6  and  O_31 
REMARK    3  A    between atoms: C_12  and  C_13 
REMARK    4  A    between atoms: C_13  and  C_14 
REMARK       I    between atoms: C_14  and  N_16 
REMARK    5  A    between atoms: N_16  and  C_17 
REMARK    6  A    between atoms: C_17  and  C_18 
REMARK    7  A    between atoms: C_18  and  C_19 
REMARK    8  A    between atoms: C_27  and  O_29 
REMARK    9  A    between atoms: O_29  and  C_30 
ROOT
ATOM      1  C   LIG d   1      10.560  12.095  -0.524  0.00  0.00     0.218 C 
ATOM      2  O   LIG d   1      11.732  12.153  -0.829  0.00  0.00    -0.276 OA
ATOM      3  N   LIG d   1       9.662  12.886  -1.144  0.00  0.00    -0.315 N 
ATOM      4  H   LIG d   1       8.725  12.839  -0.900  0.00  0.00     0.149 HD
ENDROOT
BRANCH   3   5
ATOM      5  C   LIG d   1      10.103  13.816  -2.186  0.00  0.00     0.016 C 
ATOM      6  H   LIG d   1      10.931  13.375  -2.741  0.00  0.00     0.046 H 
ATOM      7  H   LIG d   1      10.430  14.749  -1.726  0.00  0.00     0.046 H 
BRANCH   5   8
ATOM      8  C   LIG d   1       8.942  14.098  -3.142  0.00  0.00    -0.010 C 
ATOM      9  H   LIG d   1       8.741  15.169  -3.163  0.00  0.00     0.033 H 
ATOM     10  H   LIG d   1       8.053  13.568  -2.801  0.00  0.00     0.033 H 
BRANCH   8  11
ATOM     11  C   LIG d   1       9.306  13.628  -4.527  0.00  0.00    -0.021 A 
ATOM     12  C   LIG d   1       9.415  12.237  -4.975  0.00  0.00     0.003 A 
ATOM     13  C   LIG d   1       9.776  12.294  -6.334  0.00  0.00     0.050 A 
ATOM     14  C   LIG d   1       9.239  11.002  -4.351  0.00  0.00    -0.049 A 
ATOM     15  N   LIG d   1       9.876  13.625  -6.673  0.00  0.00    -0.360 N 
ATOM     16  C   LIG d   1       9.960  11.111  -7.041  0.00  0.00     0.004 A 
ATOM     17  C   LIG d   1       9.592  14.405  -5.584  0.00  0.00     0.006 A 
ATOM     18  H   LIG d   1      10.113  13.959  -7.552  0.00  0.00     0.165 HD
ATOM     19  H   LIG d   1       9.599  15.485  -5.576  0.00  0.00     0.081 H 
ATOM     20  C   LIG d   1       9.776   9.896  -6.406  0.00  0.00     0.122 A 
ATOM     21  H   LIG d   1      10.242  11.140  -8.083  0.00  0.00     0.068 H 
ATOM     22  C   LIG d   1       9.419   9.849  -5.061  0.00  0.00    -0.019 A 
ATOM     23  H   LIG d   1       9.282   8.893  -4.576  0.00  0.00     0.065 H 
ATOM     24  H   LIG d   1       8.962  10.957  -3.307  0.00  0.00     0.062 H 
BRANCH  20  25
ATOM     25  O   LIG d   1       9.951   8.741  -7.098  0.00  0.00    -0.495 OA
BRANCH  25  26
ATOM     26  C   LIG d   1       9.112   8.534  -8.238  0.00  0.00     0.079 C 
ATOM     27  H   LIG d   1       8.289   9.249  -8.217  0.00  0.00     0.066 H 
ATOM     28  H   LIG d   1       8.713   7.520  -8.216  0.00  0.00     0.066 H 
ATOM     29  H   LIG d   1       9.695   8.676  -9.148  0.00  0.00     0.066 H 
ENDBRANCH  25  26
ENDBRANCH  20  25
ENDBRANCH   8  11
ENDBRANCH   5   8
ENDBRANCH   3   5
BRANCH   1  30
ATOM     30  C   LIG d   1      10.107  11.138   0.549  0.00  0.00     0.056 C 
ATOM     31  H   LIG d   1      10.772  11.213   1.409  0.00  0.00     0.041 H 
ATOM     32  H   LIG d   1       9.090  11.387   0.852  0.00  0.00     0.041 H 
BRANCH  30  33
ATOM     33  C   LIG d   1      10.139   9.730   0.011  0.00  0.00     0.049 A 
ATOM     34  C   LIG d   1      11.161   8.900   0.340  0.00  0.00    -0.029 A 
ATOM     35  C   LIG d   1      11.151   7.540  -0.205  0.00  0.00     0.021 A 
ATOM     36  C   LIG d   1      10.090   7.150  -1.043  0.00  0.00     0.143 A 
ATOM     37  C   LIG d   1      12.175   6.635   0.096  0.00  0.00    -0.047 A 
ATOM     38  C   LIG d   1      10.071   5.864  -1.564  0.00  0.00     0.023 A 
ATOM     39  O   LIG d   1       9.103   8.025  -1.330  0.00  0.00    -0.422 OA
ATOM     40  C   LIG d   1      11.093   4.982  -1.256  0.00  0.00     0.120 A 
ATOM     41  H   LIG d   1       9.262   5.553  -2.207  0.00  0.00     0.069 H 
ATOM     42  C   LIG d   1      12.142   5.374  -0.426  0.00  0.00    -0.019 A 
ATOM     43  H   LIG d   1      12.932   4.676  -0.194  0.00  0.00     0.065 H 
ATOM     44  C   LIG d   1       9.104   9.270  -0.829  0.00  0.00     0.341 A 
ATOM     45  O   LIG d   1       8.191  10.025  -1.112  0.00  0.00    -0.245 OA
ATOM     46  H   LIG d   1      12.991   6.933   0.739  0.00  0.00     0.063 H 
BRANCH  34  47
ATOM     47  C   LIG d   1      12.276   9.363   1.242  0.00  0.00    -0.038 C 
ATOM     48  H   LIG d   1      11.860   9.697   2.192  0.00  0.00     0.028 H 
ATOM     49  H   LIG d   1      12.967   8.538   1.418  0.00  0.00     0.028 H 
ATOM     50  H   LIG d   1      12.809  10.187   0.767  0.00  0.00     0.028 H 
ENDBRANCH  34  47
BRANCH  40  51
ATOM     51  O   LIG d   1      11.073   3.724  -1.767  0.00  0.00    -0.507 OA
ATOM     52  H   LIG d   1      10.950   3.691  -2.726  0.00  0.00     0.292 HD
ENDBRANCH  40  51
ENDBRANCH  30  33
ENDBRANCH   1  30
TORSDOF 9
ENDMDL
MODEL 9
REMARK VINA RESULT:      -5.6      9.200     12.837
REMARK  9 active torsions:
REMARK  status: ('A' for Active; 'I' for Inactive)
REMARK    1  A    between atoms: C_1  and  C_2 
REMARK    2  A    between atoms: C_6  and  O_31 
REMARK    3  A    between atoms: C_12  and  C_13 
REMARK    4  A    between atoms: C_13  and  C_14 
REMARK       I    between atoms: C_14  and  N_16 
REMARK    5  A    between atoms: N_16  and  C_17 
REMARK    6  A    between atoms: C_17  and  C_18 
REMARK    7  A    between atoms: C_18  and  C_19 
REMARK    8  A    between atoms: C_27  and  O_29 
REMARK    9  A    between atoms: O_29  and  C_30 
ROOT
ATOM      1  C   LIG d   1      11.812   9.424  -2.565  0.00  0.00     0.218 C 
ATOM      2  O   LIG d   1      12.605   8.628  -2.111  0.00  0.00    -0.276 OA
ATOM      3  N   LIG d   1      10.644   9.648  -1.930  0.00  0.00    -0.315 N 
ATOM      4  H   LIG d   1      10.009  10.285  -2.293  0.00  0.00     0.149 HD
ENDROOT
BRANCH   3   5
ATOM      5  C   LIG d   1      10.333   8.927  -0.694  0.00  0.00     0.016 C 
ATOM      6  H   LIG d   1       9.949   9.627   0.049  0.00  0.00     0.046 H 
ATOM      7  H   LIG d   1      11.237   8.451  -0.313  0.00  0.00     0.046 H 
BRANCH   5   8
ATOM      8  C   LIG d   1       9.276   7.858  -0.979  0.00  0.00    -0.010 C 
ATOM      9  H   LIG d   1       8.657   8.174  -1.819  0.00  0.00     0.033 H 
ATOM     10  H   LIG d   1       8.650   7.722  -0.097  0.00  0.00     0.033 H 
BRANCH   8  11
ATOM     11  C   LIG d   1       9.955   6.556  -1.318  0.00  0.00    -0.021 A 
ATOM     12  C   LIG d   1       9.966   5.892  -2.624  0.00  0.00     0.003 A 
ATOM     13  C   LIG d   1      10.720   4.716  -2.457  0.00  0.00     0.050 A 
ATOM     14  C   LIG d   1       9.416   6.197  -3.870  0.00  0.00    -0.049 A 
ATOM     15  N   LIG d   1      11.130   4.680  -1.142  0.00  0.00    -0.360 N 
ATOM     16  C   LIG d   1      10.904   3.864  -3.539  0.00  0.00     0.004 A 
ATOM     17  C   LIG d   1      10.665   5.784  -0.480  0.00  0.00     0.006 A 
ATOM     18  H   LIG d   1      11.667   3.977  -0.746  0.00  0.00     0.165 HD
ATOM     19  H   LIG d   1      10.842   6.002   0.564  0.00  0.00     0.081 H 
ATOM     20  C   LIG d   1      10.356   4.186  -4.768  0.00  0.00     0.122 A 
ATOM     21  H   LIG d   1      11.477   2.955  -3.423  0.00  0.00     0.068 H 
ATOM     22  C   LIG d   1       9.612   5.352  -4.925  0.00  0.00    -0.019 A 
ATOM     23  H   LIG d   1       9.186   5.589  -5.889  0.00  0.00     0.065 H 
ATOM     24  H   LIG d   1       8.837   7.100  -4.000  0.00  0.00     0.062 H 
BRANCH  20  25
ATOM     25  O   LIG d   1      10.541   3.355  -5.826  0.00  0.00    -0.495 OA
BRANCH  25  26
ATOM     26  C   LIG d   1       9.569   3.412  -6.873  0.00  0.00     0.079 C 
ATOM     27  H   LIG d   1       8.569   3.373  -6.442  0.00  0.00     0.066 H 
ATOM     28  H   LIG d   1       9.708   2.565  -7.545  0.00  0.00     0.066 H 
ATOM     29  H   LIG d   1       9.689   4.341  -7.430  0.00  0.00     0.066 H 
ENDBRANCH  25  26
ENDBRANCH  20  25
ENDBRANCH   8  11
ENDBRANCH   5   8
ENDBRANCH   3   5
BRANCH   1  30
ATOM     30  C   LIG d   1      12.131  10.166  -3.838  0.00  0.00     0.056 C 
ATOM     31  H   LIG d   1      11.913  11.225  -3.706  0.00  0.00     0.041 H 
ATOM     32  H   LIG d   1      13.186  10.038  -4.078  0.00  0.00     0.041 H 
BRANCH  30  33
ATOM     33  C   LIG d   1      11.291   9.616  -4.963  0.00  0.00     0.049 A 
ATOM     34  C   LIG d   1      11.760   8.596  -5.726  0.00  0.00    -0.029 A 
ATOM     35  C   LIG d   1      10.909   8.094  -6.807  0.00  0.00     0.021 A 
ATOM     36  C   LIG d   1       9.648   8.683  -7.012  0.00  0.00     0.143 A 
ATOM     37  C   LIG d   1      11.334   7.044  -7.630  0.00  0.00    -0.047 A 
ATOM     38  C   LIG d   1       8.835   8.214  -8.034  0.00  0.00     0.023 A 
ATOM     39  O   LIG d   1       9.241   9.694  -6.216  0.00  0.00    -0.422 OA
ATOM     40  C   LIG d   1       9.271   7.175  -8.838  0.00  0.00     0.120 A 
ATOM     41  H   LIG d   1       7.865   8.658  -8.200  0.00  0.00     0.069 H 
ATOM     42  C   LIG d   1      10.522   6.595  -8.631  0.00  0.00    -0.019 A 
ATOM     43  H   LIG d   1      10.850   5.785  -9.266  0.00  0.00     0.065 H 
ATOM     44  C   LIG d   1      10.014  10.156  -5.220  0.00  0.00     0.341 A 
ATOM     45  O   LIG d   1       9.604  11.067  -4.524  0.00  0.00    -0.245 OA
ATOM     46  H   LIG d   1      12.302   6.590  -7.474  0.00  0.00     0.063 H 
BRANCH  34  47
ATOM     47  C   LIG d   1      13.118   7.996  -5.468  0.00  0.00    -0.038 C 
ATOM     48  H   LIG d   1      13.317   7.216  -6.203  0.00  0.00     0.028 H 
ATOM     49  H   LIG d   1      13.879   8.772  -5.547  0.00  0.00     0.028 H 
ATOM     50  H   LIG d   1      13.141   7.566  -4.466  0.00  0.00     0.028 H 
ENDBRANCH  34  47
BRANCH  40  51
ATOM     51  O   LIG d   1       8.475   6.717  -9.838  0.00  0.00    -0.507 OA
ATOM     52  H   LIG d   1       8.001   5.902  -9.620  0.00  0.00     0.292 HD
ENDBRANCH  40  51
ENDBRANCH  30  33
ENDBRANCH   1  30
TORSDOF 9
ENDMDL
