MODEL 1
REMARK VINA RESULT:      -5.7      0.000      0.000
REMARK  10 active torsions:
REMARK  status: ('A' for Active; 'I' for Inactive)
REMARK    1  A    between atoms: C_1  and  O_2 
REMARK    2  A    between atoms: O_2  and  C_3 
REMARK    3  A    between atoms: C_6  and  C_9 
REMARK    4  A    between atoms: C_9  and  C_11 
REMARK    5  A    between atoms: C_9  and  C_15 
REMARK    6  A    between atoms: C_11  and  C_12 
REMARK    7  A    between atoms: C_12  and  C_13 
REMARK    8  A    between atoms: C_15  and  C_17 
REMARK    9  A    between atoms: C_20  and  O_23 
REMARK   10  A    between atoms: O_23  and  C_24 
ROOT
ATOM      1  C   LIG d   1       5.563  -1.578  -3.973  0.00  0.00     0.048 C 
ATOM      2  H   LIG d   1       6.292  -1.404  -3.312  0.00  0.00     0.043 H 
ENDROOT
BRANCH   1   3
ATOM      3  C   LIG d   1       5.735  -2.955  -4.561  0.00  0.00    -0.037 A 
ATOM      4  C   LIG d   1       4.636  -3.777  -4.728  0.00  0.00    -0.054 A 
ATOM      5  C   LIG d   1       4.791  -5.039  -5.267  0.00  0.00    -0.020 A 
ATOM      6  H   LIG d   1       3.655  -3.431  -4.435  0.00  0.00     0.062 H 
ATOM      7  C   LIG d   1       6.051  -5.482  -5.641  0.00  0.00     0.120 A 
ATOM      8  H   LIG d   1       3.932  -5.680  -5.396  0.00  0.00     0.065 H 
ATOM      9  C   LIG d   1       7.152  -4.656  -5.473  0.00  0.00    -0.020 A 
ATOM     10  C   LIG d   1       6.992  -3.392  -4.938  0.00  0.00    -0.054 A 
ATOM     11  H   LIG d   1       8.135  -4.998  -5.764  0.00  0.00     0.065 H 
ATOM     12  H   LIG d   1       7.848  -2.746  -4.812  0.00  0.00     0.062 H 
BRANCH   7  13
ATOM     13  O   LIG d   1       6.207  -6.723  -6.172  0.00  0.00    -0.495 OA
BRANCH  13  14
ATOM     14  C   LIG d   1       5.364  -7.758  -5.662  0.00  0.00     0.079 C 
ATOM     15  H   LIG d   1       4.320  -7.487  -5.820  0.00  0.00     0.066 H 
ATOM     16  H   LIG d   1       5.580  -8.692  -6.182  0.00  0.00     0.066 H 
ATOM     17  H   LIG d   1       5.549  -7.885  -4.596  0.00  0.00     0.066 H 
ENDBRANCH  13  14
ENDBRANCH   7  13
ENDBRANCH   1   3
BRANCH   1  18
ATOM     18  C   LIG d   1       4.207  -1.491  -3.269  0.00  0.00    -0.034 C 
ATOM     19  H   LIG d   1       3.526  -0.883  -3.866  0.00  0.00     0.028 H 
ATOM     20  H   LIG d   1       3.792  -2.493  -3.153  0.00  0.00     0.028 H 
BRANCH  18  21
ATOM     21  C   LIG d   1       4.387  -0.852  -1.891  0.00  0.00    -0.012 C 
ATOM     22  H   LIG d   1       3.596  -1.197  -1.225  0.00  0.00     0.033 H 
ATOM     23  H   LIG d   1       5.355  -1.136  -1.482  0.00  0.00     0.033 H 
BRANCH  21  24
ATOM     24  C   LIG d   1       4.316   0.648  -2.020  0.00  0.00     0.042 C 
ATOM     25  O   LIG d   1       3.242   1.200  -2.071  0.00  0.00    -0.550 OA
ATOM     26  O   LIG d   1       5.446   1.371  -2.077  0.00  0.00    -0.550 OA
ENDBRANCH  21  24
ENDBRANCH  18  21
ENDBRANCH   1  18
BRANCH   1  27
ATOM     27  C   LIG d   1       5.624  -0.550  -5.073  0.00  0.00     0.171 C 
ATOM     28  O   LIG d   1       6.484   0.305  -5.057  0.00  0.00    -0.291 OA
BRANCH  27  29
ATOM     29  C   LIG d   1       4.642  -0.584  -6.164  0.00  0.00     0.018 A 
ATOM     30  C   LIG d   1       3.430   0.107  -6.041  0.00  0.00    -0.048 A 
ATOM     31  C   LIG d   1       2.519   0.076  -7.066  0.00  0.00    -0.019 A 
ATOM     32  H   LIG d   1       3.216   0.666  -5.143  0.00  0.00     0.063 H 
ATOM     33  C   LIG d   1       2.793  -0.648  -8.221  0.00  0.00     0.120 A 
ATOM     34  H   LIG d   1       1.587   0.612  -6.974  0.00  0.00     0.065 H 
ATOM     35  C   LIG d   1       3.995  -1.336  -8.348  0.00  0.00    -0.019 A 
ATOM     36  C   LIG d   1       4.915  -1.308  -7.332  0.00  0.00    -0.048 A 
ATOM     37  H   LIG d   1       4.204  -1.894  -9.249  0.00  0.00     0.065 H 
ATOM     38  H   LIG d   1       5.848  -1.843  -7.432  0.00  0.00     0.063 H 
BRANCH  33  39
ATOM     39  O   LIG d   1       1.886  -0.680  -9.229  0.00  0.00    -0.495 OA
BRANCH  39  40
ATOM     40  C   LIG d   1       1.775  -1.902  -9.964  0.00  0.00     0.079 C 
ATOM     41  H   LIG d   1       2.698  -2.472  -9.862  0.00  0.00     0.066 H 
ATOM     42  H   LIG d   1       1.600  -1.679 -11.016  0.00  0.00     0.066 H 
ATOM     43  H   LIG d   1       0.942  -2.486  -9.573  0.00  0.00     0.066 H 
ENDBRANCH  39  40
ENDBRANCH  33  39
ENDBRANCH  27  29
ENDBRANCH   1  27
TORSDOF 10
ENDMDL
MODEL 2
REMARK VINA RESULT:      -5.5      2.334      3.174
REMARK  10 active torsions:
REMARK  status: ('A' for Active; 'I' for Inactive)
REMARK    1  A    between atoms: C_1  and  O_2 
REMARK    2  A    between atoms: O_2  and  C_3 
REMARK    3  A    between atoms: C_6  and  C_9 
REMARK    4  A    between atoms: C_9  and  C_11 
REMARK    5  A    between atoms: C_9  and  C_15 
REMARK    6  A    between atoms: C_11  and  C_12 
REMARK    7  A    between atoms: C_12  and  C_13 
REMARK    8  A    between atoms: C_15  and  C_17 
REMARK    9  A    between atoms: C_20  and  O_23 
REMARK   10  A    between atoms: O_23  and  C_24 
ROOT
ATOM      1  C   LIG d   1       5.545  -1.135  -4.120  0.00  0.00     0.048 C 
ATOM      2  H   LIG d   1       5.557  -0.153  -4.304  0.00  0.00     0.043 H 
ENDROOT
BRANCH   1   3
ATOM      3  C   LIG d   1       6.933  -1.695  -4.288  0.00  0.00    -0.037 A 
ATOM      4  C   LIG d   1       7.766  -1.193  -5.272  0.00  0.00    -0.054 A 
ATOM      5  C   LIG d   1       9.039  -1.704  -5.429  0.00  0.00    -0.020 A 
ATOM      6  H   LIG d   1       7.419  -0.400  -5.918  0.00  0.00     0.062 H 
ATOM      7  C   LIG d   1       9.483  -2.724  -4.599  0.00  0.00     0.120 A 
ATOM      8  H   LIG d   1       9.688  -1.312  -6.197  0.00  0.00     0.065 H 
ATOM      9  C   LIG d   1       8.646  -3.226  -3.614  0.00  0.00    -0.020 A 
ATOM     10  C   LIG d   1       7.375  -2.708  -3.457  0.00  0.00    -0.054 A 
ATOM     11  H   LIG d   1       8.990  -4.020  -2.966  0.00  0.00     0.065 H 
ATOM     12  H   LIG d   1       6.726  -3.095  -2.686  0.00  0.00     0.062 H 
BRANCH   7  13
ATOM     13  O   LIG d   1      10.736  -3.228  -4.751  0.00  0.00    -0.495 OA
BRANCH  13  14
ATOM     14  C   LIG d   1      11.282  -3.952  -3.647  0.00  0.00     0.079 C 
ATOM     15  H   LIG d   1      11.535  -3.257  -2.847  0.00  0.00     0.066 H 
ATOM     16  H   LIG d   1      10.547  -4.672  -3.285  0.00  0.00     0.066 H 
ATOM     17  H   LIG d   1      12.180  -4.480  -3.967  0.00  0.00     0.066 H 
ENDBRANCH  13  14
ENDBRANCH   7  13
ENDBRANCH   1   3
BRANCH   1  18
ATOM     18  C   LIG d   1       5.068  -1.379  -2.687  0.00  0.00    -0.034 C 
ATOM     19  H   LIG d   1       4.826  -2.434  -2.558  0.00  0.00     0.028 H 
ATOM     20  H   LIG d   1       5.858  -1.100  -1.988  0.00  0.00     0.028 H 
BRANCH  18  21
ATOM     21  C   LIG d   1       3.823  -0.534  -2.412  0.00  0.00    -0.012 C 
ATOM     22  H   LIG d   1       3.130  -0.626  -3.249  0.00  0.00     0.033 H 
ATOM     23  H   LIG d   1       3.340  -0.883  -1.501  0.00  0.00     0.033 H 
BRANCH  21  24
ATOM     24  C   LIG d   1       4.221   0.910  -2.248  0.00  0.00     0.042 C 
ATOM     25  O   LIG d   1       4.828   1.261  -1.264  0.00  0.00    -0.550 OA
ATOM     26  O   LIG d   1       3.902   1.806  -3.195  0.00  0.00    -0.550 OA
ENDBRANCH  21  24
ENDBRANCH  18  21
ENDBRANCH   1  18
BRANCH   1  27
ATOM     27  C   LIG d   1       4.607  -1.817  -5.083  0.00  0.00     0.171 C 
ATOM     28  O   LIG d   1       4.204  -2.936  -4.848  0.00  0.00    -0.291 OA
BRANCH  27  29
ATOM     29  C   LIG d   1       4.184  -1.126  -6.307  0.00  0.00     0.018 A 
ATOM     30  C   LIG d   1       4.646  -1.561  -7.556  0.00  0.00    -0.048 A 
ATOM     31  C   LIG d   1       4.242  -0.915  -8.697  0.00  0.00    -0.019 A 
ATOM     32  H   LIG d   1       5.315  -2.406  -7.621  0.00  0.00     0.063 H 
ATOM     33  C   LIG d   1       3.385   0.177  -8.614  0.00  0.00     0.120 A 
ATOM     34  H   LIG d   1       4.594  -1.252  -9.660  0.00  0.00     0.065 H 
ATOM     35  C   LIG d   1       2.924   0.613  -7.377  0.00  0.00    -0.019 A 
ATOM     36  C   LIG d   1       3.317  -0.029  -6.231  0.00  0.00    -0.048 A 
ATOM     37  H   LIG d   1       2.255   1.459  -7.319  0.00  0.00     0.065 H 
ATOM     38  H   LIG d   1       2.958   0.311  -5.270  0.00  0.00     0.063 H 
BRANCH  33  39
ATOM     39  O   LIG d   1       2.994   0.816  -9.745  0.00  0.00    -0.495 OA
BRANCH  39  40
ATOM     40  C   LIG d   1       4.026   1.338 -10.585  0.00  0.00     0.079 C 
ATOM     41  H   LIG d   1       4.776   1.838  -9.972  0.00  0.00     0.066 H 
ATOM     42  H   LIG d   1       3.596   2.052 -11.288  0.00  0.00     0.066 H 
ATOM     43  H   LIG d   1       4.493   0.522 -11.137  0.00  0.00     0.066 H 
ENDBRANCH  39  40
ENDBRANCH  33  39
ENDBRANCH  27  29
ENDBRANCH   1  27
TORSDOF 10
ENDMDL
MODEL 3
REMARK VINA RESULT:      -5.4      1.824      5.631
REMARK  10 active torsions:
REMARK  status: ('A' for Active; 'I' for Inactive)
REMARK    1  A    between atoms: C_1  and  O_2 
REMARK    2  A    between atoms: O_2  and  C_3 
REMARK    3  A    between atoms: C_6  and  C_9 
REMARK    4  A    between atoms: C_9  and  C_11 
REMARK    5  A    between atoms: C_9  and  C_15 
REMARK    6  A    between atoms: C_11  and  C_12 
REMARK    7  A    between atoms: C_12  and  C_13 
REMARK    8  A    between atoms: C_15  and  C_17 
REMARK    9  A    between atoms: C_20  and  O_23 
REMARK   10  A    between atoms: O_23  and  C_24 
ROOT
ATOM      1  C   LIG d   1       3.988  -0.795  -5.684  0.00  0.00     0.048 C 
ATOM      2  H   LIG d   1       3.754  -1.724  -5.399  0.00  0.00     0.043 H 
ENDROOT
BRANCH   1   3
ATOM      3  C   LIG d   1       3.599  -0.598  -7.126  0.00  0.00    -0.037 A 
ATOM      4  C   LIG d   1       3.836  -1.601  -8.048  0.00  0.00    -0.054 A 
ATOM      5  C   LIG d   1       3.481  -1.424  -9.371  0.00  0.00    -0.020 A 
ATOM      6  H   LIG d   1       4.300  -2.524  -7.733  0.00  0.00     0.062 H 
ATOM      7  C   LIG d   1       2.885  -0.237  -9.775  0.00  0.00     0.120 A 
ATOM      8  H   LIG d   1       3.666  -2.208 -10.090  0.00  0.00     0.065 H 
ATOM      9  C   LIG d   1       2.649   0.767  -8.848  0.00  0.00    -0.020 A 
ATOM     10  C   LIG d   1       3.001   0.583  -7.525  0.00  0.00    -0.054 A 
ATOM     11  H   LIG d   1       2.185   1.692  -9.161  0.00  0.00     0.065 H 
ATOM     12  H   LIG d   1       2.812   1.363  -6.803  0.00  0.00     0.062 H 
BRANCH   7  13
ATOM     13  O   LIG d   1       2.534  -0.060 -11.076  0.00  0.00    -0.495 OA
BRANCH  13  14
ATOM     14  C   LIG d   1       1.774  -1.103 -11.690  0.00  0.00     0.079 C 
ATOM     15  H   LIG d   1       2.026  -1.160 -12.749  0.00  0.00     0.066 H 
ATOM     16  H   LIG d   1       2.007  -2.054 -11.209  0.00  0.00     0.066 H 
ATOM     17  H   LIG d   1       0.711  -0.892 -11.581  0.00  0.00     0.066 H 
ENDBRANCH  13  14
ENDBRANCH   7  13
ENDBRANCH   1   3
BRANCH   1  18
ATOM     18  C   LIG d   1       3.234   0.210  -4.811  0.00  0.00    -0.034 C 
ATOM     19  H   LIG d   1       3.886   1.054  -4.583  0.00  0.00     0.028 H 
ATOM     20  H   LIG d   1       2.352   0.567  -5.345  0.00  0.00     0.028 H 
BRANCH  18  21
ATOM     21  C   LIG d   1       2.802  -0.466  -3.509  0.00  0.00    -0.012 C 
ATOM     22  H   LIG d   1       1.734  -0.309  -3.356  0.00  0.00     0.033 H 
ATOM     23  H   LIG d   1       3.007  -1.534  -3.569  0.00  0.00     0.033 H 
BRANCH  21  24
ATOM     24  C   LIG d   1       3.568   0.128  -2.356  0.00  0.00     0.042 C 
ATOM     25  O   LIG d   1       3.424   1.294  -2.072  0.00  0.00    -0.550 OA
ATOM     26  O   LIG d   1       4.410  -0.637  -1.643  0.00  0.00    -0.550 OA
ENDBRANCH  21  24
ENDBRANCH  18  21
ENDBRANCH   1  18
BRANCH   1  27
ATOM     27  C   LIG d   1       5.472  -0.580  -5.530  0.00  0.00     0.171 C 
ATOM     28  O   LIG d   1       5.953   0.510  -5.756  0.00  0.00    -0.291 OA
BRANCH  27  29
ATOM     29  C   LIG d   1       6.333  -1.691  -5.107  0.00  0.00     0.018 A 
ATOM     30  C   LIG d   1       6.913  -1.685  -3.832  0.00  0.00    -0.048 A 
ATOM     31  C   LIG d   1       7.712  -2.728  -3.440  0.00  0.00    -0.019 A 
ATOM     32  H   LIG d   1       6.727  -0.863  -3.157  0.00  0.00     0.063 H 
ATOM     33  C   LIG d   1       7.956  -3.785  -4.310  0.00  0.00     0.120 A 
ATOM     34  H   LIG d   1       8.156  -2.727  -2.456  0.00  0.00     0.065 H 
ATOM     35  C   LIG d   1       7.384  -3.796  -5.577  0.00  0.00    -0.019 A 
ATOM     36  C   LIG d   1       6.579  -2.760  -5.977  0.00  0.00    -0.048 A 
ATOM     37  H   LIG d   1       7.574  -4.621  -6.247  0.00  0.00     0.065 H 
ATOM     38  H   LIG d   1       6.135  -2.770  -6.962  0.00  0.00     0.063 H 
BRANCH  33  39
ATOM     39  O   LIG d   1       8.753  -4.812  -3.919  0.00  0.00    -0.495 OA
BRANCH  39  40
ATOM     40  C   LIG d   1       8.598  -6.052  -4.612  0.00  0.00     0.079 C 
ATOM     41  H   LIG d   1       7.687  -6.023  -5.211  0.00  0.00     0.066 H 
ATOM     42  H   LIG d   1       8.532  -6.867  -3.890  0.00  0.00     0.066 H 
ATOM     43  H   LIG d   1       9.456  -6.214  -5.264  0.00  0.00     0.066 H 
ENDBRANCH  39  40
ENDBRANCH  33  39
ENDBRANCH  27  29
ENDBRANCH   1  27
TORSDOF 10
ENDMDL
MODEL 4
REMARK VINA RESULT:      -5.3      2.826      4.776
REMARK  10 active torsions:
REMARK  status: ('A' for Active; 'I' for Inactive)
REMARK    1  A    between atoms: C_1  and  O_2 
REMARK    2  A    between atoms: O_2  and  C_3 
REMARK    3  A    between atoms: C_6  and  C_9 
REMARK    4  A    between atoms: C_9  and  C_11 
REMARK    5  A    between atoms: C_9  and  C_15 
REMARK    6  A    between atoms: C_11  and  C_12 
REMARK    7  A    between atoms: C_12  and  C_13 
REMARK    8  A    between atoms: C_15  and  C_17 
REMARK    9  A    between atoms: C_20  and  O_23 
REMARK   10  A    between atoms: O_23  and  C_24 
ROOT
ATOM      1  C   LIG d   1       6.155  -1.394  -3.538  0.00  0.00     0.048 C 
ATOM      2  H   LIG d   1       6.630  -1.142  -2.696  0.00  0.00     0.043 H 
ENDROOT
BRANCH   1   3
ATOM      3  C   LIG d   1       6.742  -2.672  -4.082  0.00  0.00    -0.037 A 
ATOM      4  C   LIG d   1       5.993  -3.470  -4.928  0.00  0.00    -0.054 A 
ATOM      5  C   LIG d   1       6.528  -4.641  -5.427  0.00  0.00    -0.020 A 
ATOM      6  H   LIG d   1       4.989  -3.176  -5.197  0.00  0.00     0.062 H 
ATOM      7  C   LIG d   1       7.818  -5.017  -5.080  0.00  0.00     0.120 A 
ATOM      8  H   LIG d   1       5.944  -5.264  -6.088  0.00  0.00     0.065 H 
ATOM      9  C   LIG d   1       8.566  -4.215  -4.231  0.00  0.00    -0.020 A 
ATOM     10  C   LIG d   1       8.029  -3.041  -3.738  0.00  0.00    -0.054 A 
ATOM     11  H   LIG d   1       9.571  -4.505  -3.959  0.00  0.00     0.065 H 
ATOM     12  H   LIG d   1       8.613  -2.414  -3.081  0.00  0.00     0.062 H 
BRANCH   7  13
ATOM     13  O   LIG d   1       8.347  -6.168  -5.571  0.00  0.00    -0.495 OA
BRANCH  13  14
ATOM     14  C   LIG d   1       7.437  -7.107  -6.146  0.00  0.00     0.079 C 
ATOM     15  H   LIG d   1       6.553  -7.190  -5.514  0.00  0.00     0.066 H 
ATOM     16  H   LIG d   1       7.143  -6.766  -7.139  0.00  0.00     0.066 H 
ATOM     17  H   LIG d   1       7.920  -8.081  -6.224  0.00  0.00     0.066 H 
ENDBRANCH  13  14
ENDBRANCH   7  13
ENDBRANCH   1   3
BRANCH   1  18
ATOM     18  C   LIG d   1       4.668  -1.602  -3.244  0.00  0.00    -0.034 C 
ATOM     19  H   LIG d   1       4.073  -1.091  -4.002  0.00  0.00     0.028 H 
ATOM     20  H   LIG d   1       4.440  -2.668  -3.260  0.00  0.00     0.028 H 
BRANCH  18  21
ATOM     21  C   LIG d   1       4.336  -1.030  -1.864  0.00  0.00    -0.012 C 
ATOM     22  H   LIG d   1       3.400  -1.462  -1.509  0.00  0.00     0.033 H 
ATOM     23  H   LIG d   1       5.137  -1.274  -1.168  0.00  0.00     0.033 H 
BRANCH  21  24
ATOM     24  C   LIG d   1       4.194   0.467  -1.962  0.00  0.00     0.042 C 
ATOM     25  O   LIG d   1       4.881   1.185  -1.275  0.00  0.00    -0.550 OA
ATOM     26  O   LIG d   1       3.304   1.003  -2.812  0.00  0.00    -0.550 OA
ENDBRANCH  21  24
ENDBRANCH  18  21
ENDBRANCH   1  18
BRANCH   1  27
ATOM     27  C   LIG d   1       6.317  -0.294  -4.556  0.00  0.00     0.171 C 
ATOM     28  O   LIG d   1       5.436  -0.078  -5.360  0.00  0.00    -0.291 OA
BRANCH  27  29
ATOM     29  C   LIG d   1       7.543   0.514  -4.573  0.00  0.00     0.018 A 
ATOM     30  C   LIG d   1       7.689   1.588  -3.686  0.00  0.00    -0.048 A 
ATOM     31  C   LIG d   1       8.838   2.336  -3.703  0.00  0.00    -0.019 A 
ATOM     32  H   LIG d   1       6.900   1.824  -2.988  0.00  0.00     0.063 H 
ATOM     33  C   LIG d   1       9.853   2.036  -4.605  0.00  0.00     0.120 A 
ATOM     34  H   LIG d   1       8.954   3.162  -3.017  0.00  0.00     0.065 H 
ATOM     35  C   LIG d   1       9.713   0.971  -5.488  0.00  0.00    -0.019 A 
ATOM     36  C   LIG d   1       8.570   0.214  -5.476  0.00  0.00    -0.048 A 
ATOM     37  H   LIG d   1      10.506   0.740  -6.184  0.00  0.00     0.065 H 
ATOM     38  H   LIG d   1       8.462  -0.614  -6.163  0.00  0.00     0.063 H 
BRANCH  33  39
ATOM     39  O   LIG d   1      10.986   2.783  -4.621  0.00  0.00    -0.495 OA
BRANCH  39  40
ATOM     40  C   LIG d   1      11.348   3.438  -3.404  0.00  0.00     0.079 C 
ATOM     41  H   LIG d   1      10.447   3.772  -2.888  0.00  0.00     0.066 H 
ATOM     42  H   LIG d   1      11.978   4.300  -3.628  0.00  0.00     0.066 H 
ATOM     43  H   LIG d   1      11.895   2.744  -2.766  0.00  0.00     0.066 H 
ENDBRANCH  39  40
ENDBRANCH  33  39
ENDBRANCH  27  29
ENDBRANCH   1  27
TORSDOF 10
ENDMDL
MODEL 5
REMARK VINA RESULT:      -5.2     10.661     13.822
REMARK  10 active torsions:
REMARK  status: ('A' for Active; 'I' for Inactive)
REMARK    1  A    between atoms: C_1  and  O_2 
REMARK    2  A    between atoms: O_2  and  C_3 
REMARK    3  A    between atoms: C_6  and  C_9 
REMARK    4  A    between atoms: C_9  and  C_11 
REMARK    5  A    between atoms: C_9  and  C_15 
REMARK    6  A    between atoms: C_11  and  C_12 
REMARK    7  A    between atoms: C_12  and  C_13 
REMARK    8  A    between atoms: C_15  and  C_17 
REMARK    9  A    between atoms: C_20  and  O_23 
REMARK   10  A    between atoms: O_23  and  C_24 
ROOT
ATOM      1  C   LIG d   1      10.449   7.397  -1.915  0.00  0.00     0.048 C 
ATOM      2  H   LIG d   1      11.418   7.572  -1.750  0.00  0.00     0.043 H 
ENDROOT
BRANCH   1   3
ATOM      3  C   LIG d   1      10.094   7.816  -3.318  0.00  0.00    -0.037 A 
ATOM      4  C   LIG d   1       9.620   6.880  -4.219  0.00  0.00    -0.054 A 
ATOM      5  C   LIG d   1       9.294   7.260  -5.506  0.00  0.00    -0.020 A 
ATOM      6  H   LIG d   1       9.504   5.850  -3.915  0.00  0.00     0.062 H 
ATOM      7  C   LIG d   1       9.444   8.584  -5.896  0.00  0.00     0.120 A 
ATOM      8  H   LIG d   1       8.924   6.529  -6.209  0.00  0.00     0.065 H 
ATOM      9  C   LIG d   1       9.920   9.521  -4.991  0.00  0.00    -0.020 A 
ATOM     10  C   LIG d   1      10.240   9.136  -3.703  0.00  0.00    -0.054 A 
ATOM     11  H   LIG d   1      10.037  10.551  -5.292  0.00  0.00     0.065 H 
ATOM     12  H   LIG d   1      10.605   9.866  -2.996  0.00  0.00     0.062 H 
BRANCH   7  13
ATOM     13  O   LIG d   1       9.124   8.961  -7.161  0.00  0.00    -0.495 OA
BRANCH  13  14
ATOM     14  C   LIG d   1       9.168   7.951  -8.170  0.00  0.00     0.079 C 
ATOM     15  H   LIG d   1       9.516   8.389  -9.106  0.00  0.00     0.066 H 
ATOM     16  H   LIG d   1       9.853   7.160  -7.863  0.00  0.00     0.066 H 
ATOM     17  H   LIG d   1       8.172   7.535  -8.312  0.00  0.00     0.066 H 
ENDBRANCH  13  14
ENDBRANCH   7  13
ENDBRANCH   1   3
BRANCH   1  18
ATOM     18  C   LIG d   1      10.164   5.904  -1.742  0.00  0.00    -0.034 C 
ATOM     19  H   LIG d   1       9.495   5.758  -0.893  0.00  0.00     0.028 H 
ATOM     20  H   LIG d   1       9.693   5.516  -2.646  0.00  0.00     0.028 H 
BRANCH  18  21
ATOM     21  C   LIG d   1      11.476   5.160  -1.490  0.00  0.00    -0.012 C 
ATOM     22  H   LIG d   1      11.294   4.085  -1.517  0.00  0.00     0.033 H 
ATOM     23  H   LIG d   1      12.198   5.425  -2.261  0.00  0.00     0.033 H 
BRANCH  21  24
ATOM     24  C   LIG d   1      12.020   5.543  -0.138  0.00  0.00     0.042 C 
ATOM     25  O   LIG d   1      11.350   5.375   0.853  0.00  0.00    -0.550 OA
ATOM     26  O   LIG d   1      13.250   6.071  -0.035  0.00  0.00    -0.550 OA
ENDBRANCH  21  24
ENDBRANCH  18  21
ENDBRANCH   1  18
BRANCH   1  27
ATOM     27  C   LIG d   1       9.620   8.184  -0.932  0.00  0.00     0.171 C 
ATOM     28  O   LIG d   1       8.434   7.957  -0.820  0.00  0.00    -0.291 OA
BRANCH  27  29
ATOM     29  C   LIG d   1      10.250   9.225  -0.110  0.00  0.00     0.018 A 
ATOM     30  C   LIG d   1       9.829  10.557  -0.218  0.00  0.00    -0.048 A 
ATOM     31  C   LIG d   1      10.417  11.524   0.556  0.00  0.00    -0.019 A 
ATOM     32  H   LIG d   1       9.041  10.820  -0.906  0.00  0.00     0.063 H 
ATOM     33  C   LIG d   1      11.437  11.186   1.440  0.00  0.00     0.120 A 
ATOM     34  H   LIG d   1      10.091  12.550   0.477  0.00  0.00     0.065 H 
ATOM     35  C   LIG d   1      11.858   9.865   1.551  0.00  0.00    -0.019 A 
ATOM     36  C   LIG d   1      11.274   8.890   0.785  0.00  0.00    -0.048 A 
ATOM     37  H   LIG d   1      12.648   9.608   2.241  0.00  0.00     0.065 H 
ATOM     38  H   LIG d   1      11.602   7.864   0.872  0.00  0.00     0.063 H 
BRANCH  33  39
ATOM     39  O   LIG d   1      12.019  12.147   2.199  0.00  0.00    -0.495 OA
BRANCH  39  40
ATOM     40  C   LIG d   1      13.097  11.741   3.045  0.00  0.00     0.079 C 
ATOM     41  H   LIG d   1      13.555  10.838   2.643  0.00  0.00     0.066 H 
ATOM     42  H   LIG d   1      12.717  11.540   4.047  0.00  0.00     0.066 H 
ATOM     43  H   LIG d   1      13.842  12.536   3.092  0.00  0.00     0.066 H 
ENDBRANCH  39  40
ENDBRANCH  33  39
ENDBRANCH  27  29
ENDBRANCH   1  27
TORSDOF 10
ENDMDL
MODEL 6
REMARK VINA RESULT:      -5.0      3.105      7.658
REMARK  10 active torsions:
REMARK  status: ('A' for Active; 'I' for Inactive)
REMARK    1  A    between atoms: C_1  and  O_2 
REMARK    2  A    between atoms: O_2  and  C_3 
REMARK    3  A    between atoms: C_6  and  C_9 
REMARK    4  A    between atoms: C_9  and  C_11 
REMARK    5  A    between atoms: C_9  and  C_15 
REMARK    6  A    between atoms: C_11  and  C_12 
REMARK    7  A    between atoms: C_12  and  C_13 
REMARK    8  A    between atoms: C_15  and  C_17 
REMARK    9  A    between atoms: C_20  and  O_23 
REMARK   10  A    between atoms: O_23  and  C_24 
ROOT
ATOM      1  C   LIG d   1       7.215  -3.219  -5.657  0.00  0.00     0.048 C 
ATOM      2  H   LIG d   1       7.062  -2.975  -6.614  0.00  0.00     0.043 H 
ENDROOT
BRANCH   1   3
ATOM      3  C   LIG d   1       6.807  -2.068  -4.774  0.00  0.00    -0.037 A 
ATOM      4  C   LIG d   1       7.346  -0.812  -4.984  0.00  0.00    -0.054 A 
ATOM      5  C   LIG d   1       6.975   0.245  -4.177  0.00  0.00    -0.020 A 
ATOM      6  H   LIG d   1       8.059  -0.658  -5.781  0.00  0.00     0.062 H 
ATOM      7  C   LIG d   1       6.059   0.046  -3.153  0.00  0.00     0.120 A 
ATOM      8  H   LIG d   1       7.396   1.225  -4.341  0.00  0.00     0.065 H 
ATOM      9  C   LIG d   1       5.520  -1.215  -2.944  0.00  0.00    -0.020 A 
ATOM     10  C   LIG d   1       5.891  -2.268  -3.758  0.00  0.00    -0.054 A 
ATOM     11  H   LIG d   1       4.807  -1.372  -2.148  0.00  0.00     0.065 H 
ATOM     12  H   LIG d   1       5.467  -3.248  -3.599  0.00  0.00     0.062 H 
BRANCH   7  13
ATOM     13  O   LIG d   1       5.691   1.084  -2.357  0.00  0.00    -0.495 OA
BRANCH  13  14
ATOM     14  C   LIG d   1       4.381   1.034  -1.790  0.00  0.00     0.079 C 
ATOM     15  H   LIG d   1       4.070   2.039  -1.504  0.00  0.00     0.066 H 
ATOM     16  H   LIG d   1       3.682   0.633  -2.524  0.00  0.00     0.066 H 
ATOM     17  H   LIG d   1       4.390   0.392  -0.909  0.00  0.00     0.066 H 
ENDBRANCH  13  14
ENDBRANCH   7  13
ENDBRANCH   1   3
BRANCH   1  18
ATOM     18  C   LIG d   1       6.379  -4.451  -5.306  0.00  0.00    -0.034 C 
ATOM     19  H   LIG d   1       7.041  -5.281  -5.058  0.00  0.00     0.028 H 
ATOM     20  H   LIG d   1       5.742  -4.227  -4.449  0.00  0.00     0.028 H 
BRANCH  18  21
ATOM     21  C   LIG d   1       5.507  -4.835  -6.503  0.00  0.00    -0.012 C 
ATOM     22  H   LIG d   1       5.078  -3.934  -6.942  0.00  0.00     0.033 H 
ATOM     23  H   LIG d   1       6.115  -5.347  -7.246  0.00  0.00     0.033 H 
BRANCH  21  24
ATOM     24  C   LIG d   1       4.398  -5.747  -6.045  0.00  0.00     0.042 C 
ATOM     25  O   LIG d   1       3.926  -5.616  -4.940  0.00  0.00    -0.550 OA
ATOM     26  O   LIG d   1       3.934  -6.703  -6.864  0.00  0.00    -0.550 OA
ENDBRANCH  21  24
ENDBRANCH  18  21
ENDBRANCH   1  18
BRANCH   1  27
ATOM     27  C   LIG d   1       8.675  -3.525  -5.441  0.00  0.00     0.171 C 
ATOM     28  O   LIG d   1       9.507  -3.075  -6.200  0.00  0.00    -0.291 OA
BRANCH  27  29
ATOM     29  C   LIG d   1       9.089  -4.367  -4.313  0.00  0.00     0.018 A 
ATOM     30  C   LIG d   1       9.285  -5.742  -4.495  0.00  0.00    -0.048 A 
ATOM     31  C   LIG d   1       9.677  -6.522  -3.439  0.00  0.00    -0.019 A 
ATOM     32  H   LIG d   1       9.131  -6.185  -5.468  0.00  0.00     0.063 H 
ATOM     33  C   LIG d   1       9.870  -5.953  -2.184  0.00  0.00     0.120 A 
ATOM     34  H   LIG d   1       9.833  -7.581  -3.579  0.00  0.00     0.065 H 
ATOM     35  C   LIG d   1       9.677  -4.589  -1.997  0.00  0.00    -0.019 A 
ATOM     36  C   LIG d   1       9.290  -3.798  -3.048  0.00  0.00    -0.048 A 
ATOM     37  H   LIG d   1       9.832  -4.152  -1.022  0.00  0.00     0.065 H 
ATOM     38  H   LIG d   1       9.140  -2.738  -2.902  0.00  0.00     0.063 H 
BRANCH  33  39
ATOM     39  O   LIG d   1      10.253  -6.731  -1.141  0.00  0.00    -0.495 OA
BRANCH  39  40
ATOM     40  C   LIG d   1      10.503  -8.111  -1.418  0.00  0.00     0.079 C 
ATOM     41  H   LIG d   1      10.781  -8.227  -2.466  0.00  0.00     0.066 H 
ATOM     42  H   LIG d   1       9.602  -8.692  -1.215  0.00  0.00     0.066 H 
ATOM     43  H   LIG d   1      11.315  -8.467  -0.785  0.00  0.00     0.066 H 
ENDBRANCH  39  40
ENDBRANCH  33  39
ENDBRANCH  27  29
ENDBRANCH   1  27
TORSDOF 10
ENDMDL
MODEL 7
REMARK VINA RESULT:      -4.9      2.844      6.572
REMARK  10 active torsions:
REMARK  status: ('A' for Active; 'I' for Inactive)
REMARK    1  A    between atoms: C_1  and  O_2 
REMARK    2  A    between atoms: O_2  and  C_3 
REMARK    3  A    between atoms: C_6  and  C_9 
REMARK    4  A    between atoms: C_9  and  C_11 
REMARK    5  A    between atoms: C_9  and  C_15 
REMARK    6  A    between atoms: C_11  and  C_12 
REMARK    7  A    between atoms: C_12  and  C_13 
REMARK    8  A    between atoms: C_15  and  C_17 
REMARK    9  A    between atoms: C_20  and  O_23 
REMARK   10  A    between atoms: O_23  and  C_24 
ROOT
ATOM      1  C   LIG d   1       5.654  -1.742  -5.194  0.00  0.00     0.048 C 
ATOM      2  H   LIG d   1       6.430  -2.157  -5.668  0.00  0.00     0.043 H 
ENDROOT
BRANCH   1   3
ATOM      3  C   LIG d   1       4.896  -0.857  -6.150  0.00  0.00    -0.037 A 
ATOM      4  C   LIG d   1       3.631  -0.406  -5.819  0.00  0.00    -0.054 A 
ATOM      5  C   LIG d   1       2.935   0.405  -6.693  0.00  0.00    -0.020 A 
ATOM      6  H   LIG d   1       3.189  -0.688  -4.875  0.00  0.00     0.062 H 
ATOM      7  C   LIG d   1       3.505   0.766  -7.906  0.00  0.00     0.120 A 
ATOM      8  H   LIG d   1       1.948   0.757  -6.434  0.00  0.00     0.065 H 
ATOM      9  C   LIG d   1       4.773   0.312  -8.236  0.00  0.00    -0.020 A 
ATOM     10  C   LIG d   1       5.468  -0.494  -7.356  0.00  0.00    -0.054 A 
ATOM     11  H   LIG d   1       5.218   0.593  -9.179  0.00  0.00     0.065 H 
ATOM     12  H   LIG d   1       6.458  -0.844  -7.610  0.00  0.00     0.062 H 
BRANCH   7  13
ATOM     13  O   LIG d   1       2.822   1.565  -8.768  0.00  0.00    -0.495 OA
BRANCH  13  14
ATOM     14  C   LIG d   1       3.593   2.308  -9.713  0.00  0.00     0.079 C 
ATOM     15  H   LIG d   1       4.613   1.926  -9.730  0.00  0.00     0.066 H 
ATOM     16  H   LIG d   1       3.149   2.207 -10.704  0.00  0.00     0.066 H 
ATOM     17  H   LIG d   1       3.604   3.360  -9.426  0.00  0.00     0.066 H 
ENDBRANCH  13  14
ENDBRANCH   7  13
ENDBRANCH   1   3
BRANCH   1  18
ATOM     18  C   LIG d   1       4.726  -2.841  -4.674  0.00  0.00    -0.034 C 
ATOM     19  H   LIG d   1       4.784  -2.881  -3.585  0.00  0.00     0.028 H 
ATOM     20  H   LIG d   1       3.701  -2.625  -4.975  0.00  0.00     0.028 H 
BRANCH  18  21
ATOM     21  C   LIG d   1       5.155  -4.189  -5.256  0.00  0.00    -0.012 C 
ATOM     22  H   LIG d   1       6.171  -4.109  -5.645  0.00  0.00     0.033 H 
ATOM     23  H   LIG d   1       5.125  -4.948  -4.476  0.00  0.00     0.033 H 
BRANCH  21  24
ATOM     24  C   LIG d   1       4.219  -4.576  -6.371  0.00  0.00     0.042 C 
ATOM     25  O   LIG d   1       3.345  -5.387  -6.172  0.00  0.00    -0.550 OA
ATOM     26  O   LIG d   1       4.355  -4.020  -7.585  0.00  0.00    -0.550 OA
ENDBRANCH  21  24
ENDBRANCH  18  21
ENDBRANCH   1  18
BRANCH   1  27
ATOM     27  C   LIG d   1       6.154  -0.917  -4.035  0.00  0.00     0.171 C 
ATOM     28  O   LIG d   1       5.624  -1.013  -2.949  0.00  0.00    -0.291 OA
BRANCH  27  29
ATOM     29  C   LIG d   1       7.282   0.003  -4.224  0.00  0.00     0.018 A 
ATOM     30  C   LIG d   1       8.409  -0.405  -4.949  0.00  0.00    -0.048 A 
ATOM     31  C   LIG d   1       9.457   0.461  -5.127  0.00  0.00    -0.019 A 
ATOM     32  H   LIG d   1       8.449  -1.397  -5.372  0.00  0.00     0.063 H 
ATOM     33  C   LIG d   1       9.409   1.738  -4.579  0.00  0.00     0.120 A 
ATOM     34  H   LIG d   1      10.324   0.149  -5.690  0.00  0.00     0.065 H 
ATOM     35  C   LIG d   1       8.293   2.148  -3.858  0.00  0.00    -0.019 A 
ATOM     36  C   LIG d   1       7.237   1.292  -3.678  0.00  0.00    -0.048 A 
ATOM     37  H   LIG d   1       8.259   3.142  -3.437  0.00  0.00     0.065 H 
ATOM     38  H   LIG d   1       6.370   1.612  -3.117  0.00  0.00     0.063 H 
BRANCH  33  39
ATOM     39  O   LIG d   1      10.451   2.588  -4.753  0.00  0.00    -0.495 OA
BRANCH  39  40
ATOM     40  C   LIG d   1      11.533   2.131  -5.568  0.00  0.00     0.079 C 
ATOM     41  H   LIG d   1      11.318   1.123  -5.924  0.00  0.00     0.066 H 
ATOM     42  H   LIG d   1      12.451   2.120  -4.981  0.00  0.00     0.066 H 
ATOM     43  H   LIG d   1      11.654   2.799  -6.420  0.00  0.00     0.066 H 
ENDBRANCH  39  40
ENDBRANCH  33  39
ENDBRANCH  27  29
ENDBRANCH   1  27
TORSDOF 10
ENDMDL
MODEL 8
REMARK VINA RESULT:      -4.9     10.299     13.653
REMARK  10 active torsions:
REMARK  status: ('A' for Active; 'I' for Inactive)
REMARK    1  A    between atoms: C_1  and  O_2 
REMARK    2  A    between atoms: O_2  and  C_3 
REMARK    3  A    between atoms: C_6  and  C_9 
REMARK    4  A    between atoms: C_9  and  C_11 
REMARK    5  A    between atoms: C_9  and  C_15 
REMARK    6  A    between atoms: C_11  and  C_12 
REMARK    7  A    between atoms: C_12  and  C_13 
REMARK    8  A    between atoms: C_15  and  C_17 
REMARK    9  A    between atoms: C_20  and  O_23 
REMARK   10  A    between atoms: O_23  and  C_24 
ROOT
ATOM      1  C   LIG d   1      10.538   9.053  -1.667  0.00  0.00     0.048 C 
ATOM      2  H   LIG d   1      11.327   8.743  -2.196  0.00  0.00     0.043 H 
ENDROOT
BRANCH   1   3
ATOM      3  C   LIG d   1      10.999   9.546  -0.319  0.00  0.00    -0.037 A 
ATOM      4  C   LIG d   1      11.564   8.663   0.583  0.00  0.00    -0.054 A 
ATOM      5  C   LIG d   1      11.987   9.111   1.818  0.00  0.00    -0.020 A 
ATOM      6  H   LIG d   1      11.672   7.621   0.320  0.00  0.00     0.062 H 
ATOM      7  C   LIG d   1      11.846  10.450   2.154  0.00  0.00     0.120 A 
ATOM      8  H   LIG d   1      12.428   8.421   2.522  0.00  0.00     0.065 H 
ATOM      9  C   LIG d   1      11.280  11.334   1.248  0.00  0.00    -0.020 A 
ATOM     10  C   LIG d   1      10.862  10.882   0.011  0.00  0.00    -0.054 A 
ATOM     11  H   LIG d   1      11.169  12.377   1.508  0.00  0.00     0.065 H 
ATOM     12  H   LIG d   1      10.426  11.571  -0.696  0.00  0.00     0.062 H 
BRANCH   7  13
ATOM     13  O   LIG d   1      12.263  10.894   3.369  0.00  0.00    -0.495 OA
BRANCH  13  14
ATOM     14  C   LIG d   1      12.631   9.904   4.331  0.00  0.00     0.079 C 
ATOM     15  H   LIG d   1      12.066  10.062   5.249  0.00  0.00     0.066 H 
ATOM     16  H   LIG d   1      12.411   8.913   3.934  0.00  0.00     0.066 H 
ATOM     17  H   LIG d   1      13.697   9.982   4.543  0.00  0.00     0.066 H 
ENDBRANCH  13  14
ENDBRANCH   7  13
ENDBRANCH   1   3
BRANCH   1  18
ATOM     18  C   LIG d   1       9.838  10.191  -2.413  0.00  0.00    -0.034 C 
ATOM     19  H   LIG d   1       8.760  10.105  -2.279  0.00  0.00     0.028 H 
ATOM     20  H   LIG d   1      10.178  11.149  -2.017  0.00  0.00     0.028 H 
BRANCH  18  21
ATOM     21  C   LIG d   1      10.175  10.108  -3.903  0.00  0.00    -0.012 C 
ATOM     22  H   LIG d   1      11.220  10.378  -4.054  0.00  0.00     0.033 H 
ATOM     23  H   LIG d   1      10.007   9.091  -4.257  0.00  0.00     0.033 H 
BRANCH  21  24
ATOM     24  C   LIG d   1       9.294  11.059  -4.671  0.00  0.00     0.042 C 
ATOM     25  O   LIG d   1       9.474  11.227  -5.854  0.00  0.00    -0.550 OA
ATOM     26  O   LIG d   1       8.309  11.719  -4.041  0.00  0.00    -0.550 OA
ENDBRANCH  21  24
ENDBRANCH  18  21
ENDBRANCH   1  18
BRANCH   1  27
ATOM     27  C   LIG d   1       9.575   7.909  -1.480  0.00  0.00     0.171 C 
ATOM     28  O   LIG d   1       8.603   8.044  -0.767  0.00  0.00    -0.291 OA
BRANCH  27  29
ATOM     29  C   LIG d   1       9.814   6.631  -2.161  0.00  0.00     0.018 A 
ATOM     30  C   LIG d   1       9.406   6.455  -3.490  0.00  0.00    -0.048 A 
ATOM     31  C   LIG d   1       9.638   5.260  -4.123  0.00  0.00    -0.019 A 
ATOM     32  H   LIG d   1       8.915   7.259  -4.015  0.00  0.00     0.063 H 
ATOM     33  C   LIG d   1      10.267   4.222  -3.445  0.00  0.00     0.120 A 
ATOM     34  H   LIG d   1       9.328   5.125  -5.148  0.00  0.00     0.065 H 
ATOM     35  C   LIG d   1      10.674   4.391  -2.126  0.00  0.00    -0.019 A 
ATOM     36  C   LIG d   1      10.452   5.583  -1.485  0.00  0.00    -0.048 A 
ATOM     37  H   LIG d   1      11.166   3.583  -1.606  0.00  0.00     0.065 H 
ATOM     38  H   LIG d   1      10.768   5.713  -0.461  0.00  0.00     0.063 H 
BRANCH  33  39
ATOM     39  O   LIG d   1      10.489   3.041  -4.074  0.00  0.00    -0.495 OA
BRANCH  39  40
ATOM     40  C   LIG d   1      11.439   2.156  -3.477  0.00  0.00     0.079 C 
ATOM     41  H   LIG d   1      12.056   2.709  -2.769  0.00  0.00     0.066 H 
ATOM     42  H   LIG d   1      12.074   1.726  -4.252  0.00  0.00     0.066 H 
ATOM     43  H   LIG d   1      10.913   1.357  -2.953  0.00  0.00     0.066 H 
ENDBRANCH  39  40
ENDBRANCH  33  39
ENDBRANCH  27  29
ENDBRANCH   1  27
TORSDOF 10
ENDMDL
MODEL 9
REMARK VINA RESULT:      -4.9      8.778     11.487
REMARK  10 active torsions:
REMARK  status: ('A' for Active; 'I' for Inactive)
REMARK    1  A    between atoms: C_1  and  O_2 
REMARK    2  A    between atoms: O_2  and  C_3 
REMARK    3  A    between atoms: C_6  and  C_9 
REMARK    4  A    between atoms: C_9  and  C_11 
REMARK    5  A    between atoms: C_9  and  C_15 
REMARK    6  A    between atoms: C_11  and  C_12 
REMARK    7  A    between atoms: C_12  and  C_13 
REMARK    8  A    between atoms: C_15  and  C_17 
REMARK    9  A    between atoms: C_20  and  O_23 
REMARK   10  A    between atoms: O_23  and  C_24 
ROOT
ATOM      1  C   LIG d   1       9.816   5.522  -3.490  0.00  0.00     0.048 C 
ATOM      2  H   LIG d   1       8.941   5.937  -3.734  0.00  0.00     0.043 H 
ENDROOT
BRANCH   1   3
ATOM      3  C   LIG d   1      10.231   5.993  -2.120  0.00  0.00    -0.037 A 
ATOM      4  C   LIG d   1       9.853   7.247  -1.677  0.00  0.00    -0.054 A 
ATOM      5  C   LIG d   1      10.232   7.682  -0.422  0.00  0.00    -0.020 A 
ATOM      6  H   LIG d   1       9.261   7.888  -2.315  0.00  0.00     0.062 H 
ATOM      7  C   LIG d   1      10.993   6.858   0.395  0.00  0.00     0.120 A 
ATOM      8  H   LIG d   1       9.936   8.661  -0.077  0.00  0.00     0.065 H 
ATOM      9  C   LIG d   1      11.371   5.600  -0.051  0.00  0.00    -0.020 A 
ATOM     10  C   LIG d   1      10.985   5.168  -1.305  0.00  0.00    -0.054 A 
ATOM     11  H   LIG d   1      11.963   4.958   0.584  0.00  0.00     0.065 H 
ATOM     12  H   LIG d   1      11.275   4.187  -1.651  0.00  0.00     0.062 H 
BRANCH   7  13
ATOM     13  O   LIG d   1      11.366   7.283   1.631  0.00  0.00    -0.495 OA
BRANCH  13  14
ATOM     14  C   LIG d   1      11.590   8.684   1.795  0.00  0.00     0.079 C 
ATOM     15  H   LIG d   1      12.621   8.920   1.532  0.00  0.00     0.066 H 
ATOM     16  H   LIG d   1      10.913   9.239   1.145  0.00  0.00     0.066 H 
ATOM     17  H   LIG d   1      11.408   8.962   2.833  0.00  0.00     0.066 H 
ENDBRANCH  13  14
ENDBRANCH   7  13
ENDBRANCH   1   3
BRANCH   1  18
ATOM     18  C   LIG d   1       9.675   3.998  -3.484  0.00  0.00    -0.034 C 
ATOM     19  H   LIG d   1      10.660   3.542  -3.378  0.00  0.00     0.028 H 
ATOM     20  H   LIG d   1       9.043   3.695  -2.649  0.00  0.00     0.028 H 
BRANCH  18  21
ATOM     21  C   LIG d   1       9.039   3.539  -4.797  0.00  0.00    -0.012 C 
ATOM     22  H   LIG d   1       8.443   4.351  -5.215  0.00  0.00     0.033 H 
ATOM     23  H   LIG d   1       9.821   3.263  -5.503  0.00  0.00     0.033 H 
BRANCH  21  24
ATOM     24  C   LIG d   1       8.153   2.348  -4.537  0.00  0.00     0.042 C 
ATOM     25  O   LIG d   1       7.968   1.968  -3.405  0.00  0.00    -0.550 OA
ATOM     26  O   LIG d   1       7.570   1.709  -5.564  0.00  0.00    -0.550 OA
ENDBRANCH  21  24
ENDBRANCH  18  21
ENDBRANCH   1  18
BRANCH   1  27
ATOM     27  C   LIG d   1      10.863   5.925  -4.498  0.00  0.00     0.171 C 
ATOM     28  O   LIG d   1      11.903   5.306  -4.572  0.00  0.00    -0.291 OA
BRANCH  27  29
ATOM     29  C   LIG d   1      10.621   7.067  -5.388  0.00  0.00     0.018 A 
ATOM     30  C   LIG d   1      11.684   7.645  -6.094  0.00  0.00    -0.048 A 
ATOM     31  C   LIG d   1      11.451   8.708  -6.929  0.00  0.00    -0.019 A 
ATOM     32  H   LIG d   1      12.683   7.251  -5.985  0.00  0.00     0.063 H 
ATOM     33  C   LIG d   1      10.165   9.219  -7.067  0.00  0.00     0.120 A 
ATOM     34  H   LIG d   1      12.268   9.151  -7.478  0.00  0.00     0.065 H 
ATOM     35  C   LIG d   1       9.107   8.649  -6.367  0.00  0.00    -0.019 A 
ATOM     36  C   LIG d   1       9.327   7.583  -5.534  0.00  0.00    -0.048 A 
ATOM     37  H   LIG d   1       8.109   9.047  -6.481  0.00  0.00     0.065 H 
ATOM     38  H   LIG d   1       8.504   7.141  -4.991  0.00  0.00     0.063 H 
BRANCH  33  39
ATOM     39  O   LIG d   1       9.941  10.274  -7.889  0.00  0.00    -0.495 OA
BRANCH  39  40
ATOM     40  C   LIG d   1      10.091  11.579  -7.325  0.00  0.00     0.079 C 
ATOM     41  H   LIG d   1       9.355  12.252  -7.767  0.00  0.00     0.066 H 
ATOM     42  H   LIG d   1      11.094  11.952  -7.532  0.00  0.00     0.066 H 
ATOM     43  H   LIG d   1       9.937  11.529  -6.247  0.00  0.00     0.066 H 
ENDBRANCH  39  40
ENDBRANCH  33  39
ENDBRANCH  27  29
ENDBRANCH   1  27
TORSDOF 10
ENDMDL
MODEL 10
REMARK VINA RESULT:      -4.8      1.978      2.528
REMARK  10 active torsions:
REMARK  status: ('A' for Active; 'I' for Inactive)
REMARK    1  A    between atoms: C_1  and  O_2 
REMARK    2  A    between atoms: O_2  and  C_3 
REMARK    3  A    between atoms: C_6  and  C_9 
REMARK    4  A    between atoms: C_9  and  C_11 
REMARK    5  A    between atoms: C_9  and  C_15 
REMARK    6  A    between atoms: C_11  and  C_12 
REMARK    7  A    between atoms: C_12  and  C_13 
REMARK    8  A    between atoms: C_15  and  C_17 
REMARK    9  A    between atoms: C_20  and  O_23 
REMARK   10  A    between atoms: O_23  and  C_24 
ROOT
ATOM      1  C   LIG d   1       6.454  -1.656  -4.505  0.00  0.00     0.048 C 
ATOM      2  H   LIG d   1       6.776  -1.085  -5.260  0.00  0.00     0.043 H 
ENDROOT
BRANCH   1   3
ATOM      3  C   LIG d   1       7.233  -2.946  -4.483  0.00  0.00    -0.037 A 
ATOM      4  C   LIG d   1       6.925  -3.954  -5.379  0.00  0.00    -0.054 A 
ATOM      5  C   LIG d   1       7.637  -5.137  -5.361  0.00  0.00    -0.020 A 
ATOM      6  H   LIG d   1       6.126  -3.815  -6.092  0.00  0.00     0.062 H 
ATOM      7  C   LIG d   1       8.663  -5.314  -4.443  0.00  0.00     0.120 A 
ATOM      8  H   LIG d   1       7.396  -5.923  -6.060  0.00  0.00     0.065 H 
ATOM      9  C   LIG d   1       8.970  -4.302  -3.546  0.00  0.00    -0.020 A 
ATOM     10  C   LIG d   1       8.258  -3.118  -3.571  0.00  0.00    -0.054 A 
ATOM     11  H   LIG d   1       9.768  -4.438  -2.831  0.00  0.00     0.065 H 
ATOM     12  H   LIG d   1       8.501  -2.328  -2.877  0.00  0.00     0.062 H 
BRANCH   7  13
ATOM     13  O   LIG d   1       9.366  -6.477  -4.424  0.00  0.00    -0.495 OA
BRANCH  13  14
ATOM     14  C   LIG d   1       8.695  -7.632  -3.918  0.00  0.00     0.079 C 
ATOM     15  H   LIG d   1       7.828  -7.851  -4.540  0.00  0.00     0.066 H 
ATOM     16  H   LIG d   1       9.377  -8.484  -3.932  0.00  0.00     0.066 H 
ATOM     17  H   LIG d   1       8.371  -7.445  -2.895  0.00  0.00     0.066 H 
ENDBRANCH  13  14
ENDBRANCH   7  13
ENDBRANCH   1   3
BRANCH   1  18
ATOM     18  C   LIG d   1       6.659  -0.915  -3.182  0.00  0.00    -0.034 C 
ATOM     19  H   LIG d   1       6.062  -1.391  -2.403  0.00  0.00     0.028 H 
ATOM     20  H   LIG d   1       7.713  -0.950  -2.905  0.00  0.00     0.028 H 
BRANCH  18  21
ATOM     21  C   LIG d   1       6.222   0.542  -3.341  0.00  0.00    -0.012 C 
ATOM     22  H   LIG d   1       5.314   0.585  -3.942  0.00  0.00     0.033 H 
ATOM     23  H   LIG d   1       6.028   0.972  -2.359  0.00  0.00     0.033 H 
BRANCH  21  24
ATOM     24  C   LIG d   1       7.314   1.323  -4.024  0.00  0.00     0.042 C 
ATOM     25  O   LIG d   1       8.204   1.816  -3.372  0.00  0.00    -0.550 OA
ATOM     26  O   LIG d   1       7.299   1.471  -5.359  0.00  0.00    -0.550 OA
ENDBRANCH  21  24
ENDBRANCH  18  21
ENDBRANCH   1  18
BRANCH   1  27
ATOM     27  C   LIG d   1       4.989  -1.957  -4.691  0.00  0.00     0.171 C 
ATOM     28  O   LIG d   1       4.407  -2.654  -3.887  0.00  0.00    -0.291 OA
BRANCH  27  29
ATOM     29  C   LIG d   1       4.268  -1.407  -5.845  0.00  0.00     0.018 A 
ATOM     30  C   LIG d   1       3.541  -0.217  -5.718  0.00  0.00    -0.048 A 
ATOM     31  C   LIG d   1       2.874   0.295  -6.801  0.00  0.00    -0.019 A 
ATOM     32  H   LIG d   1       3.510   0.299  -4.770  0.00  0.00     0.063 H 
ATOM     33  C   LIG d   1       2.910  -0.371  -8.022  0.00  0.00     0.120 A 
ATOM     34  H   LIG d   1       2.317   1.215  -6.706  0.00  0.00     0.065 H 
ATOM     35  C   LIG d   1       3.630  -1.553  -8.153  0.00  0.00    -0.019 A 
ATOM     36  C   LIG d   1       4.305  -2.071  -7.077  0.00  0.00    -0.048 A 
ATOM     37  H   LIG d   1       3.657  -2.065  -9.104  0.00  0.00     0.065 H 
ATOM     38  H   LIG d   1       4.863  -2.990  -7.181  0.00  0.00     0.063 H 
BRANCH  33  39
ATOM     39  O   LIG d   1       2.244   0.137  -9.089  0.00  0.00    -0.495 OA
BRANCH  39  40
ATOM     40  C   LIG d   1       1.517  -0.789  -9.900  0.00  0.00     0.079 C 
ATOM     41  H   LIG d   1       0.480  -0.827  -9.568  0.00  0.00     0.066 H 
ATOM     42  H   LIG d   1       1.964  -1.780  -9.811  0.00  0.00     0.066 H 
ATOM     43  H   LIG d   1       1.554  -0.467 -10.941  0.00  0.00     0.066 H 
ENDBRANCH  39  40
ENDBRANCH  33  39
ENDBRANCH  27  29
ENDBRANCH   1  27
TORSDOF 10
ENDMDL
