MODEL 1
REMARK VINA RESULT:      -5.2      0.000      0.000
REMARK  6 active torsions:
REMARK  status: ('A' for Active; 'I' for Inactive)
REMARK    1  A    between atoms: C_3  and  N_21 
REMARK    2  A    between atoms: N_7  and  C1*_8 
REMARK    3  A    between atoms: C2*_10  and  O2*_20 
REMARK    4  A    between atoms: C3*_12  and  O3*_19 
REMARK    5  A    between atoms: C4*_14  and  C5*_17 
REMARK    6  A    between atoms: C5*_17  and  O5*_18 
ROOT
ATOM      1  C   LIG d   1      10.088   7.961  -1.313  0.00  0.00     0.033 A 
ATOM      2  C   LIG d   1      10.384   6.611  -1.281  0.00  0.00     0.108 A 
ATOM      3  C   LIG d   1      11.093   6.088  -0.106  0.00  0.00     0.141 A 
ATOM      4  N   LIG d   1      11.409   6.928   0.870  0.00  0.00    -0.177 NA
ATOM      5  C   LIG d   1      11.095   8.219   0.790  0.00  0.00     0.352 A 
ATOM      6  O   LIG d   1      11.402   8.958   1.711  0.00  0.00    -0.244 OA
ATOM      7  N   LIG d   1      10.451   8.735  -0.268  0.00  0.00    -0.269 N 
ATOM      8  C   LIG d   1      10.015   5.747  -2.362  0.00  0.00     0.104 C 
ATOM      9  N   LIG d   1       9.721   5.063  -3.220  0.00  0.00    -0.191 NA
ATOM     10  H   LIG d   1       9.571   8.388  -2.160  0.00  0.00     0.083 H 
ENDROOT
BRANCH   3  11
ATOM     11  N   LIG d   1      11.420   4.758  -0.019  0.00  0.00    -0.342 NA
ATOM     12  H   LIG d   1      11.109   4.395   0.859  0.00  0.00     0.144 HD
ATOM     13  H   LIG d   1      12.348   4.483  -0.071  0.00  0.00     0.144 HD
ENDBRANCH   3  11
BRANCH   7  14
ATOM     14  C1* LIG d   1      10.137  10.166  -0.290  0.00  0.00     0.168 C 
ATOM     15  H1* LIG d   1       9.854  10.507   0.705  0.00  0.00     0.087 H 
ATOM     16  O4* LIG d   1       9.079  10.434  -1.236  0.00  0.00    -0.346 OA
ATOM     17  C4* LIG d   1       9.715  10.417  -2.533  0.00  0.00     0.113 C 
ATOM     18  C3* LIG d   1      11.062  11.143  -2.321  0.00  0.00     0.114 C 
ATOM     19  H4* LIG d   1       9.883   9.391  -2.860  0.00  0.00     0.065 H 
ATOM     20  C2* LIG d   1      11.347  10.973  -0.811  0.00  0.00     0.129 C 
ATOM     21  H3* LIG d   1      11.848  10.671  -2.913  0.00  0.00     0.065 H 
ATOM     22  H2* LIG d   1      11.399  11.945  -0.320  0.00  0.00     0.067 H 
BRANCH  17  23
ATOM     23  C5* LIG d   1       8.862  11.168  -3.557  0.00  0.00     0.073 C 
ATOM     24 1H5* LIG d   1       9.382  12.074  -3.870  0.00  0.00     0.058 H 
ATOM     25 2H5* LIG d   1       8.689  10.531  -4.424  0.00  0.00     0.058 H 
BRANCH  23  26
ATOM     26  O5* LIG d   1       7.609  11.520  -2.966  0.00  0.00    -0.392 OA
ATOM     27  H5* LIG d   1       7.380  12.455  -3.058  0.00  0.00     0.209 HD
ENDBRANCH  23  26
ENDBRANCH  17  23
BRANCH  18  28
ATOM     28  O3* LIG d   1      10.948  12.527  -2.657  0.00  0.00    -0.386 OA
ATOM     29  H3* LIG d   1      11.385  13.121  -2.031  0.00  0.00     0.210 HD
ENDBRANCH  18  28
BRANCH  20  30
ATOM     30  O2* LIG d   1      12.560  10.246  -0.609  0.00  0.00    -0.385 OA
ATOM     31  H2* LIG d   1      13.356  10.795  -0.623  0.00  0.00     0.210 HD
ENDBRANCH  20  30
ENDBRANCH   7  14
TORSDOF 6
ENDMDL
MODEL 2
REMARK VINA RESULT:      -5.0     11.823     13.648
REMARK  6 active torsions:
REMARK  status: ('A' for Active; 'I' for Inactive)
REMARK    1  A    between atoms: C_3  and  N_21 
REMARK    2  A    between atoms: N_7  and  C1*_8 
REMARK    3  A    between atoms: C2*_10  and  O2*_20 
REMARK    4  A    between atoms: C3*_12  and  O3*_19 
REMARK    5  A    between atoms: C4*_14  and  C5*_17 
REMARK    6  A    between atoms: C5*_17  and  O5*_18 
ROOT
ATOM      1  C   LIG d   1       4.343  -1.704  -6.799  0.00  0.00     0.033 A 
ATOM      2  C   LIG d   1       3.817  -2.143  -8.001  0.00  0.00     0.108 A 
ATOM      3  C   LIG d   1       2.848  -1.278  -8.686  0.00  0.00     0.141 A 
ATOM      4  N   LIG d   1       2.527  -0.118  -8.130  0.00  0.00    -0.177 NA
ATOM      5  C   LIG d   1       3.068   0.258  -6.973  0.00  0.00     0.352 A 
ATOM      6  O   LIG d   1       2.748   1.334  -6.496  0.00  0.00    -0.244 OA
ATOM      7  N   LIG d   1       3.955  -0.506  -6.315  0.00  0.00    -0.269 N 
ATOM      8  C   LIG d   1       4.202  -3.404  -8.560  0.00  0.00     0.104 C 
ATOM      9  N   LIG d   1       4.509  -4.404  -9.002  0.00  0.00    -0.191 NA
ATOM     10  H   LIG d   1       5.056  -2.310  -6.260  0.00  0.00     0.083 H 
ENDROOT
BRANCH   3  11
ATOM     11  N   LIG d   1       2.287  -1.662  -9.878  0.00  0.00    -0.342 NA
ATOM     12  H   LIG d   1       2.824  -1.289 -10.635  0.00  0.00     0.144 HD
ATOM     13  H   LIG d   1       1.375  -1.406 -10.090  0.00  0.00     0.144 HD
ENDBRANCH   3  11
BRANCH   7  14
ATOM     14  C1* LIG d   1       4.510  -0.029  -5.045  0.00  0.00     0.168 C 
ATOM     15  H1* LIG d   1       4.567   1.059  -5.041  0.00  0.00     0.087 H 
ATOM     16  O4* LIG d   1       5.815  -0.605  -4.820  0.00  0.00    -0.346 OA
ATOM     17  C4* LIG d   1       5.562  -1.951  -4.358  0.00  0.00     0.113 C 
ATOM     18  C3* LIG d   1       4.358  -1.819  -3.399  0.00  0.00     0.114 C 
ATOM     19  H4* LIG d   1       5.311  -2.599  -5.197  0.00  0.00     0.065 H 
ATOM     20  C2* LIG d   1       3.649  -0.526  -3.862  0.00  0.00     0.129 C 
ATOM     21  H3* LIG d   1       3.692  -2.677  -3.502  0.00  0.00     0.065 H 
ATOM     22  H2* LIG d   1       3.638   0.213  -3.061  0.00  0.00     0.067 H 
BRANCH  17  23
ATOM     23  C5* LIG d   1       6.780  -2.497  -3.611  0.00  0.00     0.073 C 
ATOM     24 1H5* LIG d   1       6.448  -3.074  -2.747  0.00  0.00     0.058 H 
ATOM     25 2H5* LIG d   1       7.357  -3.140  -4.276  0.00  0.00     0.058 H 
BRANCH  23  26
ATOM     26  O5* LIG d   1       7.596  -1.410  -3.171  0.00  0.00    -0.392 OA
ATOM     27  H5* LIG d   1       7.928  -0.852  -3.888  0.00  0.00     0.209 HD
ENDBRANCH  23  26
ENDBRANCH  17  23
BRANCH  18  28
ATOM     28  O3* LIG d   1       4.801  -1.691  -2.048  0.00  0.00    -0.386 OA
ATOM     29  H3* LIG d   1       4.197  -1.191  -1.481  0.00  0.00     0.210 HD
ENDBRANCH  18  28
BRANCH  20  30
ATOM     30  O2* LIG d   1       2.318  -0.812  -4.296  0.00  0.00    -0.385 OA
ATOM     31  H2* LIG d   1       1.859  -1.468  -3.754  0.00  0.00     0.210 HD
ENDBRANCH  20  30
ENDBRANCH   7  14
TORSDOF 6
ENDMDL
MODEL 3
REMARK VINA RESULT:      -4.9      3.283      5.425
REMARK  6 active torsions:
REMARK  status: ('A' for Active; 'I' for Inactive)
REMARK    1  A    between atoms: C_3  and  N_21 
REMARK    2  A    between atoms: N_7  and  C1*_8 
REMARK    3  A    between atoms: C2*_10  and  O2*_20 
REMARK    4  A    between atoms: C3*_12  and  O3*_19 
REMARK    5  A    between atoms: C4*_14  and  C5*_17 
REMARK    6  A    between atoms: C5*_17  and  O5*_18 
ROOT
ATOM      1  C   LIG d   1       9.973   9.333  -4.549  0.00  0.00     0.033 A 
ATOM      2  C   LIG d   1       9.757   8.862  -5.831  0.00  0.00     0.108 A 
ATOM      3  C   LIG d   1       9.561   9.847  -6.903  0.00  0.00     0.141 A 
ATOM      4  N   LIG d   1       9.608  11.136  -6.598  0.00  0.00    -0.177 NA
ATOM      5  C   LIG d   1       9.825  11.535  -5.347  0.00  0.00     0.352 A 
ATOM      6  O   LIG d   1       9.862  12.731  -5.108  0.00  0.00    -0.244 OA
ATOM      7  N   LIG d   1      10.005  10.667  -4.339  0.00  0.00    -0.269 N 
ATOM      8  C   LIG d   1       9.721   7.458  -6.107  0.00  0.00     0.104 C 
ATOM      9  N   LIG d   1       9.693   6.343  -6.323  0.00  0.00    -0.191 NA
ATOM     10  H   LIG d   1      10.118   8.645  -3.730  0.00  0.00     0.083 H 
ENDROOT
BRANCH   3  11
ATOM     11  N   LIG d   1       9.337   9.440  -8.194  0.00  0.00    -0.342 NA
ATOM     12  H   LIG d   1       8.654   8.709  -8.201  0.00  0.00     0.144 HD
ATOM     13  H   LIG d   1      10.067   9.083  -8.724  0.00  0.00     0.144 HD
ENDBRANCH   3  11
BRANCH   7  14
ATOM     14  C1* LIG d   1      10.238  11.176  -2.985  0.00  0.00     0.168 C 
ATOM     15  H1* LIG d   1      10.759  12.132  -3.025  0.00  0.00     0.087 H 
ATOM     16  O4* LIG d   1      10.995  10.219  -2.213  0.00  0.00    -0.346 OA
ATOM     17  C4* LIG d   1      10.040   9.212  -1.812  0.00  0.00     0.113 C 
ATOM     18  C3* LIG d   1       8.767  10.002  -1.439  0.00  0.00     0.114 C 
ATOM     19  H4* LIG d   1       9.837   8.532  -2.640  0.00  0.00     0.065 H 
ATOM     20  C2* LIG d   1       8.899  11.324  -2.229  0.00  0.00     0.129 C 
ATOM     21  H3* LIG d   1       7.874   9.459  -1.752  0.00  0.00     0.065 H 
ATOM     22  H2* LIG d   1       8.937  12.174  -1.548  0.00  0.00     0.067 H 
BRANCH  17  23
ATOM     23  C5* LIG d   1      10.558   8.434  -0.602  0.00  0.00     0.073 C 
ATOM     24 1H5* LIG d   1      11.571   8.081  -0.802  0.00  0.00     0.058 H 
ATOM     25 2H5* LIG d   1      10.568   9.085   0.273  0.00  0.00     0.058 H 
BRANCH  23  26
ATOM     26  O5* LIG d   1       9.705   7.314  -0.354  0.00  0.00    -0.392 OA
ATOM     27  H5* LIG d   1       9.255   7.345   0.502  0.00  0.00     0.209 HD
ENDBRANCH  23  26
ENDBRANCH  17  23
BRANCH  18  28
ATOM     28  O3* LIG d   1       8.727  10.260  -0.034  0.00  0.00    -0.386 OA
ATOM     29  H3* LIG d   1       8.268  11.077   0.203  0.00  0.00     0.210 HD
ENDBRANCH  18  28
BRANCH  20  30
ATOM     30  O2* LIG d   1       7.816  11.468  -3.150  0.00  0.00    -0.385 OA
ATOM     31  H2* LIG d   1       7.191  10.731  -3.141  0.00  0.00     0.210 HD
ENDBRANCH  20  30
ENDBRANCH   7  14
TORSDOF 6
ENDMDL
MODEL 4
REMARK VINA RESULT:      -4.9      2.879      4.414
REMARK  6 active torsions:
REMARK  status: ('A' for Active; 'I' for Inactive)
REMARK    1  A    between atoms: C_3  and  N_21 
REMARK    2  A    between atoms: N_7  and  C1*_8 
REMARK    3  A    between atoms: C2*_10  and  O2*_20 
REMARK    4  A    between atoms: C3*_12  and  O3*_19 
REMARK    5  A    between atoms: C4*_14  and  C5*_17 
REMARK    6  A    between atoms: C5*_17  and  O5*_18 
ROOT
ATOM      1  C   LIG d   1       9.654   7.022  -3.647  0.00  0.00     0.033 A 
ATOM      2  C   LIG d   1       9.631   6.739  -5.001  0.00  0.00     0.108 A 
ATOM      3  C   LIG d   1       9.918   5.361  -5.421  0.00  0.00     0.141 A 
ATOM      4  N   LIG d   1      10.176   4.453  -4.490  0.00  0.00    -0.177 NA
ATOM      5  C   LIG d   1      10.179   4.779  -3.200  0.00  0.00     0.352 A 
ATOM      6  O   LIG d   1      10.420   3.914  -2.374  0.00  0.00    -0.244 OA
ATOM      7  N   LIG d   1       9.926   6.028  -2.775  0.00  0.00    -0.269 N 
ATOM      8  C   LIG d   1       9.341   7.757  -5.964  0.00  0.00     0.104 C 
ATOM      9  N   LIG d   1       9.110   8.566  -6.728  0.00  0.00    -0.191 NA
ATOM     10  H   LIG d   1       9.453   8.023  -3.294  0.00  0.00     0.083 H 
ENDROOT
BRANCH   3  11
ATOM     11  N   LIG d   1       9.915   5.020  -6.750  0.00  0.00    -0.342 NA
ATOM     12  H   LIG d   1      10.204   5.806  -7.297  0.00  0.00     0.144 HD
ATOM     13  H   LIG d   1       9.093   4.729  -7.175  0.00  0.00     0.144 HD
ENDBRANCH   3  11
BRANCH   7  14
ATOM     14  C1* LIG d   1       9.948   6.316  -1.339  0.00  0.00     0.168 C 
ATOM     15  H1* LIG d   1       9.719   5.417  -0.768  0.00  0.00     0.087 H 
ATOM     16  O4* LIG d   1       9.009   7.367  -1.024  0.00  0.00    -0.346 OA
ATOM     17  C4* LIG d   1       9.664   8.594  -1.416  0.00  0.00     0.113 C 
ATOM     18  C3* LIG d   1      11.134   8.413  -0.976  0.00  0.00     0.114 C 
ATOM     19  H4* LIG d   1       9.604   8.728  -2.496  0.00  0.00     0.065 H 
ATOM     20  C2* LIG d   1      11.325   6.880  -0.925  0.00  0.00     0.129 C 
ATOM     21  H3* LIG d   1      11.809   8.858  -1.708  0.00  0.00     0.065 H 
ATOM     22  H2* LIG d   1      11.581   6.560   0.085  0.00  0.00     0.067 H 
BRANCH  17  23
ATOM     23  C5* LIG d   1       9.036   9.789  -0.697  0.00  0.00     0.073 C 
ATOM     24 1H5* LIG d   1       8.609   9.460   0.251  0.00  0.00     0.058 H 
ATOM     25 2H5* LIG d   1       9.801  10.543  -0.508  0.00  0.00     0.058 H 
BRANCH  23  26
ATOM     26  O5* LIG d   1       8.005  10.349  -1.513  0.00  0.00    -0.392 OA
ATOM     27  H5* LIG d   1       7.644  11.179  -1.175  0.00  0.00     0.209 HD
ENDBRANCH  23  26
ENDBRANCH  17  23
BRANCH  18  28
ATOM     28  O3* LIG d   1      11.348   8.988   0.314  0.00  0.00    -0.386 OA
ATOM     29  H3* LIG d   1      11.982   8.503   0.861  0.00  0.00     0.210 HD
ENDBRANCH  18  28
BRANCH  20  30
ATOM     30  O2* LIG d   1      12.334   6.470  -1.850  0.00  0.00    -0.385 OA
ATOM     31  H2* LIG d   1      13.229   6.479  -1.486  0.00  0.00     0.210 HD
ENDBRANCH  20  30
ENDBRANCH   7  14
TORSDOF 6
ENDMDL
MODEL 5
REMARK VINA RESULT:      -4.9      2.944      5.347
REMARK  6 active torsions:
REMARK  status: ('A' for Active; 'I' for Inactive)
REMARK    1  A    between atoms: C_3  and  N_21 
REMARK    2  A    between atoms: N_7  and  C1*_8 
REMARK    3  A    between atoms: C2*_10  and  O2*_20 
REMARK    4  A    between atoms: C3*_12  and  O3*_19 
REMARK    5  A    between atoms: C4*_14  and  C5*_17 
REMARK    6  A    between atoms: C5*_17  and  O5*_18 
ROOT
ATOM      1  C   LIG d   1      10.252   7.518  -3.768  0.00  0.00     0.033 A 
ATOM      2  C   LIG d   1       9.873   7.628  -5.094  0.00  0.00     0.108 A 
ATOM      3  C   LIG d   1       9.517   8.959  -5.600  0.00  0.00     0.141 A 
ATOM      4  N   LIG d   1       9.581   9.992  -4.772  0.00  0.00    -0.177 NA
ATOM      5  C   LIG d   1       9.957   9.831  -3.505  0.00  0.00     0.352 A 
ATOM      6  O   LIG d   1      10.004  10.807  -2.776  0.00  0.00    -0.244 OA
ATOM      7  N   LIG d   1      10.287   8.630  -3.004  0.00  0.00    -0.269 N 
ATOM      8  C   LIG d   1       9.827   6.479  -5.947  0.00  0.00     0.104 C 
ATOM      9  N   LIG d   1       9.790   5.567  -6.623  0.00  0.00    -0.191 NA
ATOM     10  H   LIG d   1      10.519   6.557  -3.353  0.00  0.00     0.083 H 
ENDROOT
BRANCH   3  11
ATOM     11  N   LIG d   1       9.128   9.131  -6.905  0.00  0.00    -0.342 NA
ATOM     12  H   LIG d   1       9.277  10.082  -7.176  0.00  0.00     0.144 HD
ATOM     13  H   LIG d   1       8.209   8.956  -7.164  0.00  0.00     0.144 HD
ENDBRANCH   3  11
BRANCH   7  14
ATOM     14  C1* LIG d   1      10.692   8.525  -1.599  0.00  0.00     0.168 C 
ATOM     15  H1* LIG d   1      10.793   9.516  -1.159  0.00  0.00     0.087 H 
ATOM     16  O4* LIG d   1      11.931   7.792  -1.488  0.00  0.00    -0.346 OA
ATOM     17  C4* LIG d   1      11.566   6.401  -1.625  0.00  0.00     0.113 C 
ATOM     18  C3* LIG d   1      10.253   6.258  -0.822  0.00  0.00     0.114 C 
ATOM     19  H4* LIG d   1      11.399   6.155  -2.673  0.00  0.00     0.065 H 
ATOM     20  C2* LIG d   1       9.665   7.687  -0.806  0.00  0.00     0.129 C 
ATOM     21  H3* LIG d   1       9.572   5.570  -1.325  0.00  0.00     0.065 H 
ATOM     22  H2* LIG d   1       9.580   8.054   0.217  0.00  0.00     0.067 H 
BRANCH  17  23
ATOM     23  C5* LIG d   1      12.652   5.502  -1.034  0.00  0.00     0.073 C 
ATOM     24 1H5* LIG d   1      12.193   4.609  -0.608  0.00  0.00     0.058 H 
ATOM     25 2H5* LIG d   1      13.351   5.211  -1.818  0.00  0.00     0.058 H 
BRANCH  23  26
ATOM     26  O5* LIG d   1      13.352   6.211  -0.009  0.00  0.00    -0.392 OA
ATOM     27  H5* LIG d   1      13.465   5.707   0.809  0.00  0.00     0.209 HD
ENDBRANCH  23  26
ENDBRANCH  17  23
BRANCH  18  28
ATOM     28  O3* LIG d   1      10.522   5.811   0.508  0.00  0.00    -0.386 OA
ATOM     29  H3* LIG d   1       9.815   5.275   0.893  0.00  0.00     0.210 HD
ENDBRANCH  18  28
BRANCH  20  30
ATOM     30  O2* LIG d   1       8.390   7.711  -1.452  0.00  0.00    -0.385 OA
ATOM     31  H2* LIG d   1       8.091   8.597  -1.700  0.00  0.00     0.210 HD
ENDBRANCH  20  30
ENDBRANCH   7  14
TORSDOF 6
ENDMDL
MODEL 6
REMARK VINA RESULT:      -4.8     11.643     14.074
REMARK  6 active torsions:
REMARK  status: ('A' for Active; 'I' for Inactive)
REMARK    1  A    between atoms: C_3  and  N_21 
REMARK    2  A    between atoms: N_7  and  C1*_8 
REMARK    3  A    between atoms: C2*_10  and  O2*_20 
REMARK    4  A    between atoms: C3*_12  and  O3*_19 
REMARK    5  A    between atoms: C4*_14  and  C5*_17 
REMARK    6  A    between atoms: C5*_17  and  O5*_18 
ROOT
ATOM      1  C   LIG d   1       4.313  -2.532  -6.940  0.00  0.00     0.033 A 
ATOM      2  C   LIG d   1       4.224  -3.832  -7.401  0.00  0.00     0.108 A 
ATOM      3  C   LIG d   1       4.315  -4.057  -8.849  0.00  0.00     0.141 A 
ATOM      4  N   LIG d   1       4.485  -3.011  -9.646  0.00  0.00    -0.177 NA
ATOM      5  C   LIG d   1       4.570  -1.780  -9.148  0.00  0.00     0.352 A 
ATOM      6  O   LIG d   1       4.727  -0.844  -9.915  0.00  0.00    -0.244 OA
ATOM      7  N   LIG d   1       4.488  -1.532  -7.831  0.00  0.00    -0.269 N 
ATOM      8  C   LIG d   1       4.046  -4.927  -6.496  0.00  0.00     0.104 C 
ATOM      9  N   LIG d   1       3.905  -5.795  -5.776  0.00  0.00    -0.191 NA
ATOM     10  H   LIG d   1       4.248  -2.320  -5.883  0.00  0.00     0.083 H 
ENDROOT
BRANCH   3  11
ATOM     11  N   LIG d   1       4.228  -5.325  -9.368  0.00  0.00    -0.342 NA
ATOM     12  H   LIG d   1       4.042  -5.975  -8.631  0.00  0.00     0.144 HD
ATOM     13  H   LIG d   1       4.985  -5.711  -9.835  0.00  0.00     0.144 HD
ENDBRANCH   3  11
BRANCH   7  14
ATOM     14  C1* LIG d   1       4.589  -0.151  -7.352  0.00  0.00     0.168 C 
ATOM     15  H1* LIG d   1       5.208   0.439  -8.026  0.00  0.00     0.087 H 
ATOM     16  O4* LIG d   1       5.128  -0.123  -6.012  0.00  0.00    -0.346 OA
ATOM     17  C4* LIG d   1       4.026  -0.482  -5.150  0.00  0.00     0.113 C 
ATOM     18  C3* LIG d   1       2.805   0.255  -5.743  0.00  0.00     0.114 C 
ATOM     19  H4* LIG d   1       3.866  -1.560  -5.169  0.00  0.00     0.065 H 
ATOM     20  C2* LIG d   1       3.183   0.477  -7.225  0.00  0.00     0.129 C 
ATOM     21  H3* LIG d   1       1.911  -0.365  -5.666  0.00  0.00     0.065 H 
ATOM     22  H2* LIG d   1       3.218   1.541  -7.456  0.00  0.00     0.067 H 
BRANCH  17  23
ATOM     23  C5* LIG d   1       4.290  -0.010  -3.720  0.00  0.00     0.073 C 
ATOM     24 1H5* LIG d   1       3.353   0.314  -3.265  0.00  0.00     0.058 H 
ATOM     25 2H5* LIG d   1       4.712  -0.829  -3.137  0.00  0.00     0.058 H 
BRANCH  23  26
ATOM     26  O5* LIG d   1       5.210   1.084  -3.741  0.00  0.00    -0.392 OA
ATOM     27  H5* LIG d   1       5.267   1.533  -4.596  0.00  0.00     0.209 HD
ENDBRANCH  23  26
ENDBRANCH  17  23
BRANCH  18  28
ATOM     28  O3* LIG d   1       2.603   1.506  -5.085  0.00  0.00    -0.386 OA
ATOM     29  H3* LIG d   1       2.525   2.260  -5.686  0.00  0.00     0.210 HD
ENDBRANCH  18  28
BRANCH  20  30
ATOM     30  O2* LIG d   1       2.256  -0.190  -8.084  0.00  0.00    -0.385 OA
ATOM     31  H2* LIG d   1       2.172  -1.138  -7.912  0.00  0.00     0.210 HD
ENDBRANCH  20  30
ENDBRANCH   7  14
TORSDOF 6
ENDMDL
MODEL 7
REMARK VINA RESULT:      -4.8      1.704      3.638
REMARK  6 active torsions:
REMARK  status: ('A' for Active; 'I' for Inactive)
REMARK    1  A    between atoms: C_3  and  N_21 
REMARK    2  A    between atoms: N_7  and  C1*_8 
REMARK    3  A    between atoms: C2*_10  and  O2*_20 
REMARK    4  A    between atoms: C3*_12  and  O3*_19 
REMARK    5  A    between atoms: C4*_14  and  C5*_17 
REMARK    6  A    between atoms: C5*_17  and  O5*_18 
ROOT
ATOM      1  C   LIG d   1      10.916   8.235  -0.699  0.00  0.00     0.033 A 
ATOM      2  C   LIG d   1      10.728   6.870  -0.585  0.00  0.00     0.108 A 
ATOM      3  C   LIG d   1      10.250   6.139  -1.765  0.00  0.00     0.141 A 
ATOM      4  N   LIG d   1      10.029   6.814  -2.884  0.00  0.00    -0.177 NA
ATOM      5  C   LIG d   1      10.232   8.129  -2.941  0.00  0.00     0.352 A 
ATOM      6  O   LIG d   1      10.018   8.713  -3.991  0.00  0.00    -0.244 OA
ATOM      7  N   LIG d   1      10.664   8.833  -1.883  0.00  0.00    -0.269 N 
ATOM      8  C   LIG d   1      10.987   6.189   0.648  0.00  0.00     0.104 C 
ATOM      9  N   LIG d   1      11.194   5.650   1.626  0.00  0.00    -0.191 NA
ATOM     10  H   LIG d   1      11.263   8.813   0.145  0.00  0.00     0.083 H 
ENDROOT
BRANCH   3  11
ATOM     11  N   LIG d   1      10.039   4.784  -1.711  0.00  0.00    -0.342 NA
ATOM     12  H   LIG d   1      10.649   4.378  -1.031  0.00  0.00     0.144 HD
ATOM     13  H   LIG d   1      10.176   4.241  -2.503  0.00  0.00     0.144 HD
ENDBRANCH   3  11
BRANCH   7  14
ATOM     14  C1* LIG d   1      10.866  10.278  -2.017  0.00  0.00     0.168 C 
ATOM     15  H1* LIG d   1      11.051  10.541  -3.058  0.00  0.00     0.087 H 
ATOM     16  O4* LIG d   1      11.962  10.712  -1.182  0.00  0.00    -0.346 OA
ATOM     17  C4* LIG d   1      11.420  10.776   0.155  0.00  0.00     0.113 C 
ATOM     18  C3* LIG d   1      10.009  11.379  -0.019  0.00  0.00     0.114 C 
ATOM     19  H4* LIG d   1      11.356   9.777   0.587  0.00  0.00     0.065 H 
ATOM     20  C2* LIG d   1       9.635  11.044  -1.481  0.00  0.00     0.129 C 
ATOM     21  H3* LIG d   1       9.306  10.912   0.671  0.00  0.00     0.065 H 
ATOM     22  H2* LIG d   1       9.474  11.956  -2.054  0.00  0.00     0.067 H 
BRANCH  17  23
ATOM     23  C5* LIG d   1      12.280  11.681   1.038  0.00  0.00     0.073 C 
ATOM     24 1H5* LIG d   1      13.308  11.316   1.042  0.00  0.00     0.058 H 
ATOM     25 2H5* LIG d   1      12.259  12.699   0.647  0.00  0.00     0.058 H 
BRANCH  23  26
ATOM     26  O5* LIG d   1      11.768  11.673   2.372  0.00  0.00    -0.392 OA
ATOM     27  H5* LIG d   1      10.867  12.015   2.449  0.00  0.00     0.209 HD
ENDBRANCH  23  26
ENDBRANCH  17  23
BRANCH  18  28
ATOM     28  O3* LIG d   1      10.037  12.794   0.178  0.00  0.00    -0.386 OA
ATOM     29  H3* LIG d   1       9.875  13.307  -0.625  0.00  0.00     0.210 HD
ENDBRANCH  18  28
BRANCH  20  30
ATOM     30  O2* LIG d   1       8.472  10.215  -1.523  0.00  0.00    -0.385 OA
ATOM     31  H2* LIG d   1       8.506   9.521  -2.196  0.00  0.00     0.210 HD
ENDBRANCH  20  30
ENDBRANCH   7  14
TORSDOF 6
ENDMDL
MODEL 8
REMARK VINA RESULT:      -4.8     10.503     12.862
REMARK  6 active torsions:
REMARK  status: ('A' for Active; 'I' for Inactive)
REMARK    1  A    between atoms: C_3  and  N_21 
REMARK    2  A    between atoms: N_7  and  C1*_8 
REMARK    3  A    between atoms: C2*_10  and  O2*_20 
REMARK    4  A    between atoms: C3*_12  and  O3*_19 
REMARK    5  A    between atoms: C4*_14  and  C5*_17 
REMARK    6  A    between atoms: C5*_17  and  O5*_18 
ROOT
ATOM      1  C   LIG d   1       6.452  -1.094  -4.069  0.00  0.00     0.033 A 
ATOM      2  C   LIG d   1       6.277   0.077  -3.354  0.00  0.00     0.108 A 
ATOM      3  C   LIG d   1       5.145   0.152  -2.422  0.00  0.00     0.141 A 
ATOM      4  N   LIG d   1       4.350  -0.902  -2.302  0.00  0.00    -0.177 NA
ATOM      5  C   LIG d   1       4.568  -2.007  -3.011  0.00  0.00     0.352 A 
ATOM      6  O   LIG d   1       3.813  -2.955  -2.870  0.00  0.00    -0.244 OA
ATOM      7  N   LIG d   1       5.589  -2.114  -3.876  0.00  0.00    -0.269 N 
ATOM      8  C   LIG d   1       7.170   1.184  -3.519  0.00  0.00     0.104 C 
ATOM      9  N   LIG d   1       7.879   2.062  -3.650  0.00  0.00    -0.191 NA
ATOM     10  H   LIG d   1       7.270  -1.192  -4.768  0.00  0.00     0.083 H 
ENDROOT
BRANCH   3  11
ATOM     11  N   LIG d   1       4.916   1.290  -1.689  0.00  0.00    -0.342 NA
ATOM     12  H   LIG d   1       3.941   1.361  -1.479  0.00  0.00     0.144 HD
ATOM     13  H   LIG d   1       5.139   2.158  -2.059  0.00  0.00     0.144 HD
ENDBRANCH   3  11
BRANCH   7  14
ATOM     14  C1* LIG d   1       5.769  -3.360  -4.624  0.00  0.00     0.168 C 
ATOM     15  H1* LIG d   1       5.403  -4.207  -4.044  0.00  0.00     0.087 H 
ATOM     16  O4* LIG d   1       7.160  -3.544  -4.966  0.00  0.00    -0.346 OA
ATOM     17  C4* LIG d   1       7.393  -2.676  -6.097  0.00  0.00     0.113 C 
ATOM     18  C3* LIG d   1       6.129  -2.822  -6.973  0.00  0.00     0.114 C 
ATOM     19  H4* LIG d   1       7.508  -1.644  -5.765  0.00  0.00     0.065 H 
ATOM     20  C2* LIG d   1       5.036  -3.282  -5.982  0.00  0.00     0.129 C 
ATOM     21  H3* LIG d   1       5.860  -1.864  -7.419  0.00  0.00     0.065 H 
ATOM     22  H2* LIG d   1       4.650  -4.262  -6.264  0.00  0.00     0.067 H 
BRANCH  17  23
ATOM     23  C5* LIG d   1       8.632  -3.126  -6.871  0.00  0.00     0.073 C 
ATOM     24 1H5* LIG d   1       9.507  -3.073  -6.221  0.00  0.00     0.058 H 
ATOM     25 2H5* LIG d   1       8.495  -4.152  -7.212  0.00  0.00     0.058 H 
BRANCH  23  26
ATOM     26  O5* LIG d   1       8.826  -2.270  -7.999  0.00  0.00    -0.392 OA
ATOM     27  H5* LIG d   1       8.590  -1.346  -7.836  0.00  0.00     0.209 HD
ENDBRANCH  23  26
ENDBRANCH  17  23
BRANCH  18  28
ATOM     28  O3* LIG d   1       6.330  -3.807  -7.988  0.00  0.00    -0.386 OA
ATOM     29  H3* LIG d   1       6.223  -4.717  -7.681  0.00  0.00     0.210 HD
ENDBRANCH  18  28
BRANCH  20  30
ATOM     30  O2* LIG d   1       3.976  -2.325  -5.925  0.00  0.00    -0.385 OA
ATOM     31  H2* LIG d   1       3.934  -1.739  -6.692  0.00  0.00     0.210 HD
ENDBRANCH  20  30
ENDBRANCH   7  14
TORSDOF 6
ENDMDL
MODEL 9
REMARK VINA RESULT:      -4.8     10.760     13.292
REMARK  6 active torsions:
REMARK  status: ('A' for Active; 'I' for Inactive)
REMARK    1  A    between atoms: C_3  and  N_21 
REMARK    2  A    between atoms: N_7  and  C1*_8 
REMARK    3  A    between atoms: C2*_10  and  O2*_20 
REMARK    4  A    between atoms: C3*_12  and  O3*_19 
REMARK    5  A    between atoms: C4*_14  and  C5*_17 
REMARK    6  A    between atoms: C5*_17  and  O5*_18 
ROOT
ATOM      1  C   LIG d   1       4.050  -0.671  -6.505  0.00  0.00     0.033 A 
ATOM      2  C   LIG d   1       3.532  -0.242  -7.714  0.00  0.00     0.108 A 
ATOM      3  C   LIG d   1       3.398  -1.227  -8.794  0.00  0.00     0.141 A 
ATOM      4  N   LIG d   1       3.768  -2.479  -8.563  0.00  0.00    -0.177 NA
ATOM      5  C   LIG d   1       4.256  -2.840  -7.378  0.00  0.00     0.352 A 
ATOM      6  O   LIG d   1       4.584  -4.002  -7.206  0.00  0.00    -0.244 OA
ATOM      7  N   LIG d   1       4.398  -1.969  -6.366  0.00  0.00    -0.269 N 
ATOM      8  C   LIG d   1       3.142   1.122  -7.908  0.00  0.00     0.104 C 
ATOM      9  N   LIG d   1       2.833   2.204  -8.061  0.00  0.00    -0.191 NA
ATOM     10  H   LIG d   1       4.170   0.020  -5.684  0.00  0.00     0.083 H 
ENDROOT
BRANCH   3  11
ATOM     11  N   LIG d   1       2.896  -0.860 -10.017  0.00  0.00    -0.342 NA
ATOM     12  H   LIG d   1       2.109  -0.257  -9.888  0.00  0.00     0.144 HD
ATOM     13  H   LIG d   1       2.573  -1.537 -10.632  0.00  0.00     0.144 HD
ENDBRANCH   3  11
BRANCH   7  14
ATOM     14  C1* LIG d   1       4.942  -2.435  -5.088  0.00  0.00     0.168 C 
ATOM     15  H1* LIG d   1       4.673  -3.476  -4.919  0.00  0.00     0.087 H 
ATOM     16  O4* LIG d   1       4.464  -1.606  -4.007  0.00  0.00    -0.346 OA
ATOM     17  C4* LIG d   1       5.266  -0.406  -4.063  0.00  0.00     0.113 C 
ATOM     18  C3* LIG d   1       6.696  -0.901  -4.375  0.00  0.00     0.114 C 
ATOM     19  H4* LIG d   1       4.910   0.251  -4.856  0.00  0.00     0.065 H 
ATOM     20  C2* LIG d   1       6.478  -2.266  -5.066  0.00  0.00     0.129 C 
ATOM     21  H3* LIG d   1       7.201  -0.209  -5.049  0.00  0.00     0.065 H 
ATOM     22  H2* LIG d   1       6.941  -3.066  -4.488  0.00  0.00     0.067 H 
BRANCH  17  23
ATOM     23  C5* LIG d   1       5.236   0.321  -2.718  0.00  0.00     0.073 C 
ATOM     24 1H5* LIG d   1       4.205   0.570  -2.461  0.00  0.00     0.058 H 
ATOM     25 2H5* LIG d   1       5.656  -0.324  -1.946  0.00  0.00     0.058 H 
BRANCH  23  26
ATOM     26  O5* LIG d   1       6.006   1.522  -2.808  0.00  0.00    -0.392 OA
ATOM     27  H5* LIG d   1       6.936   1.376  -3.032  0.00  0.00     0.209 HD
ENDBRANCH  23  26
ENDBRANCH  17  23
BRANCH  18  28
ATOM     28  O3* LIG d   1       7.447  -1.063  -3.171  0.00  0.00    -0.386 OA
ATOM     29  H3* LIG d   1       8.369  -1.319  -3.313  0.00  0.00     0.210 HD
ENDBRANCH  18  28
BRANCH  20  30
ATOM     30  O2* LIG d   1       7.000  -2.244  -6.396  0.00  0.00    -0.385 OA
ATOM     31  H2* LIG d   1       6.805  -3.040  -6.909  0.00  0.00     0.210 HD
ENDBRANCH  20  30
ENDBRANCH   7  14
TORSDOF 6
ENDMDL
MODEL 10
REMARK VINA RESULT:      -4.7      3.023      4.950
REMARK  6 active torsions:
REMARK  status: ('A' for Active; 'I' for Inactive)
REMARK    1  A    between atoms: C_3  and  N_21 
REMARK    2  A    between atoms: N_7  and  C1*_8 
REMARK    3  A    between atoms: C2*_10  and  O2*_20 
REMARK    4  A    between atoms: C3*_12  and  O3*_19 
REMARK    5  A    between atoms: C4*_14  and  C5*_17 
REMARK    6  A    between atoms: C5*_17  and  O5*_18 
ROOT
ATOM      1  C   LIG d   1      10.892   8.894  -1.207  0.00  0.00     0.033 A 
ATOM      2  C   LIG d   1      10.240  10.092  -0.979  0.00  0.00     0.108 A 
ATOM      3  C   LIG d   1      10.408  10.729   0.333  0.00  0.00     0.141 A 
ATOM      4  N   LIG d   1      11.181  10.137   1.233  0.00  0.00    -0.177 NA
ATOM      5  C   LIG d   1      11.791   8.986   0.959  0.00  0.00     0.352 A 
ATOM      6  O   LIG d   1      12.494   8.475   1.814  0.00  0.00    -0.244 OA
ATOM      7  N   LIG d   1      11.659   8.370  -0.227  0.00  0.00    -0.269 N 
ATOM      8  C   LIG d   1       9.421  10.691  -1.989  0.00  0.00     0.104 C 
ATOM      9  N   LIG d   1       8.772  11.166  -2.792  0.00  0.00    -0.191 NA
ATOM     10  H   LIG d   1      10.794   8.389  -2.156  0.00  0.00     0.083 H 
ENDROOT
BRANCH   3  11
ATOM     11  N   LIG d   1       9.781  11.916   0.620  0.00  0.00    -0.342 NA
ATOM     12  H   LIG d   1       9.109  11.771   1.346  0.00  0.00     0.144 HD
ATOM     13  H   LIG d   1       9.283  12.381  -0.070  0.00  0.00     0.144 HD
ENDBRANCH   3  11
BRANCH   7  14
ATOM     14  C1* LIG d   1      12.359   7.104  -0.460  0.00  0.00     0.168 C 
ATOM     15  H1* LIG d   1      13.333   7.115   0.027  0.00  0.00     0.087 H 
ATOM     16  O4* LIG d   1      12.504   6.864  -1.876  0.00  0.00    -0.346 OA
ATOM     17  C4* LIG d   1      11.214   6.386  -2.316  0.00  0.00     0.113 C 
ATOM     18  C3* LIG d   1      10.743   5.435  -1.192  0.00  0.00     0.114 C 
ATOM     19  H4* LIG d   1      10.518   7.217  -2.426  0.00  0.00     0.065 H 
ATOM     20  C2* LIG d   1      11.513   5.919   0.057  0.00  0.00     0.129 C 
ATOM     21  H3* LIG d   1       9.667   5.530  -1.038  0.00  0.00     0.065 H 
ATOM     22  H2* LIG d   1      12.157   5.128   0.440  0.00  0.00     0.067 H 
BRANCH  17  23
ATOM     23  C5* LIG d   1      11.346   5.624  -3.636  0.00  0.00     0.073 C 
ATOM     24 1H5* LIG d   1      11.728   6.296  -4.406  0.00  0.00     0.058 H 
ATOM     25 2H5* LIG d   1      12.037   4.791  -3.507  0.00  0.00     0.058 H 
BRANCH  23  26
ATOM     26  O5* LIG d   1      10.066   5.127  -4.030  0.00  0.00    -0.392 OA
ATOM     27  H5* LIG d   1       9.322   5.600  -3.632  0.00  0.00     0.209 HD
ENDBRANCH  23  26
ENDBRANCH  17  23
BRANCH  18  28
ATOM     28  O3* LIG d   1      11.085   4.083  -1.499  0.00  0.00    -0.386 OA
ATOM     29  H3* LIG d   1      12.003   3.964  -1.782  0.00  0.00     0.210 HD
ENDBRANCH  18  28
BRANCH  20  30
ATOM     30  O2* LIG d   1      10.603   6.356   1.068  0.00  0.00    -0.385 OA
ATOM     31  H2* LIG d   1      10.641   5.838   1.883  0.00  0.00     0.210 HD
ENDBRANCH  20  30
ENDBRANCH   7  14
TORSDOF 6
ENDMDL
