MODEL 1
REMARK VINA RESULT:      -6.8      0.000      0.000
REMARK  5 active torsions:
REMARK  status: ('A' for Active; 'I' for Inactive)
REMARK    1  A    between atoms: C_1  and  O_2 
REMARK    2  A    between atoms: O_2  and  C_3 
REMARK    3  A    between atoms: C_6  and  C_11 
REMARK    4  A    between atoms: C_8  and  O_9 
REMARK    5  A    between atoms: O_9  and  C_10 
ROOT
ATOM      1  C   LIG d   1       3.190  -0.912  -8.316  0.00  0.00     0.139 A 
ATOM      2  C   LIG d   1       2.735   0.261  -7.794  0.00  0.00     0.029 A 
ATOM      3  C   LIG d   1       2.953   0.539  -6.424  0.00  0.00     0.194 A 
ATOM      4  O   LIG d   1       2.560   1.579  -5.919  0.00  0.00    -0.287 OA
ATOM      5  C   LIG d   1       3.669  -0.471  -5.635  0.00  0.00     0.072 A 
ATOM      6  C   LIG d   1       3.946  -0.282  -4.217  0.00  0.00    -0.004 A 
ATOM      7  C   LIG d   1       3.543   0.870  -3.533  0.00  0.00    -0.053 A 
ATOM      8  C   LIG d   1       3.823   1.001  -2.205  0.00  0.00    -0.061 A 
ATOM      9  C   LIG d   1       4.513   0.006  -1.520  0.00  0.00    -0.061 A 
ATOM     10  C   LIG d   1       4.916  -1.132  -2.154  0.00  0.00    -0.054 A 
ATOM     11  C   LIG d   1       4.642  -1.300  -3.520  0.00  0.00    -0.017 A 
ATOM     12  C   LIG d   1       5.046  -2.459  -4.211  0.00  0.00    -0.051 A 
ATOM     13  C   LIG d   1       4.781  -2.618  -5.531  0.00  0.00    -0.018 A 
ATOM     14  C   LIG d   1       4.096  -1.644  -6.266  0.00  0.00     0.140 A 
ATOM     15  O   LIG d   1       3.843  -1.823  -7.579  0.00  0.00    -0.455 OA
ATOM     16  H   LIG d   1       2.212   0.969  -8.420  0.00  0.00     0.069 H 
ATOM     17  H   LIG d   1       3.010   1.652  -4.055  0.00  0.00     0.062 H 
ATOM     18  H   LIG d   1       3.511   1.892  -1.680  0.00  0.00     0.062 H 
ATOM     19  H   LIG d   1       4.728   0.134  -0.470  0.00  0.00     0.062 H 
ATOM     20  H   LIG d   1       5.445  -1.898  -1.608  0.00  0.00     0.062 H 
ATOM     21  H   LIG d   1       5.577  -3.235  -3.679  0.00  0.00     0.062 H 
ATOM     22  H   LIG d   1       5.106  -3.520  -6.028  0.00  0.00     0.066 H 
ENDROOT
BRANCH   1  23
ATOM     23  C   LIG d   1       2.957  -1.192  -9.746  0.00  0.00     0.021 A 
ATOM     24  C   LIG d   1       3.539  -0.378 -10.722  0.00  0.00    -0.047 A 
ATOM     25  C   LIG d   1       3.326  -0.644 -12.057  0.00  0.00    -0.016 A 
ATOM     26  H   LIG d   1       4.161   0.455 -10.430  0.00  0.00     0.063 H 
ATOM     27  C   LIG d   1       2.523  -1.711 -12.436  0.00  0.00     0.162 A 
ATOM     28  H   LIG d   1       3.780  -0.017 -12.811  0.00  0.00     0.066 H 
ATOM     29  C   LIG d   1       1.933  -2.523 -11.467  0.00  0.00     0.162 A 
ATOM     30  C   LIG d   1       2.148  -2.266 -10.128  0.00  0.00    -0.006 A 
ATOM     31  H   LIG d   1       1.694  -2.894  -9.375  0.00  0.00     0.066 H 
BRANCH  27  32
ATOM     32  O   LIG d   1       2.311  -1.966 -13.754  0.00  0.00    -0.491 OA
BRANCH  32  33
ATOM     33  C   LIG d   1       3.333  -1.559 -14.666  0.00  0.00     0.079 C 
ATOM     34  H   LIG d   1       3.961  -0.803 -14.193  0.00  0.00     0.066 H 
ATOM     35  H   LIG d   1       3.943  -2.421 -14.936  0.00  0.00     0.066 H 
ATOM     36  H   LIG d   1       2.875  -1.142 -15.562  0.00  0.00     0.066 H 
ENDBRANCH  32  33
ENDBRANCH  27  32
BRANCH  29  37
ATOM     37  O   LIG d   1       1.148  -3.567 -11.842  0.00  0.00    -0.491 OA
BRANCH  37  38
ATOM     38  C   LIG d   1       0.286  -4.121 -10.846  0.00  0.00     0.079 C 
ATOM     39  H   LIG d   1      -0.188  -3.315 -10.286  0.00  0.00     0.066 H 
ATOM     40  H   LIG d   1      -0.479  -4.731 -11.325  0.00  0.00     0.066 H 
ATOM     41  H   LIG d   1       0.871  -4.741 -10.165  0.00  0.00     0.066 H 
ENDBRANCH  37  38
ENDBRANCH  29  37
ENDBRANCH   1  23
TORSDOF 5
ENDMDL
MODEL 2
REMARK VINA RESULT:      -6.8      1.141      1.821
REMARK  5 active torsions:
REMARK  status: ('A' for Active; 'I' for Inactive)
REMARK    1  A    between atoms: C_1  and  O_2 
REMARK    2  A    between atoms: O_2  and  C_3 
REMARK    3  A    between atoms: C_6  and  C_11 
REMARK    4  A    between atoms: C_8  and  O_9 
REMARK    5  A    between atoms: O_9  and  C_10 
ROOT
ATOM      1  C   LIG d   1       3.227  -0.847  -8.378  0.00  0.00     0.139 A 
ATOM      2  C   LIG d   1       2.769   0.320  -7.844  0.00  0.00     0.029 A 
ATOM      3  C   LIG d   1       2.972   0.578  -6.468  0.00  0.00     0.194 A 
ATOM      4  O   LIG d   1       2.576   1.611  -5.952  0.00  0.00    -0.287 OA
ATOM      5  C   LIG d   1       3.676  -0.446  -5.685  0.00  0.00     0.072 A 
ATOM      6  C   LIG d   1       3.936  -0.278  -4.261  0.00  0.00    -0.004 A 
ATOM      7  C   LIG d   1       3.528   0.865  -3.566  0.00  0.00    -0.053 A 
ATOM      8  C   LIG d   1       3.794   0.976  -2.232  0.00  0.00    -0.061 A 
ATOM      9  C   LIG d   1       4.472  -0.031  -1.554  0.00  0.00    -0.061 A 
ATOM     10  C   LIG d   1       4.879  -1.161  -2.199  0.00  0.00    -0.054 A 
ATOM     11  C   LIG d   1       4.621  -1.309  -3.571  0.00  0.00    -0.017 A 
ATOM     12  C   LIG d   1       5.031  -2.458  -4.274  0.00  0.00    -0.051 A 
ATOM     13  C   LIG d   1       4.781  -2.597  -5.600  0.00  0.00    -0.018 A 
ATOM     14  C   LIG d   1       4.107  -1.610  -6.328  0.00  0.00     0.140 A 
ATOM     15  O   LIG d   1       3.870  -1.769  -7.646  0.00  0.00    -0.455 OA
ATOM     16  H   LIG d   1       2.256   1.039  -8.466  0.00  0.00     0.069 H 
ATOM     17  H   LIG d   1       3.004   1.656  -4.082  0.00  0.00     0.062 H 
ATOM     18  H   LIG d   1       3.477   1.859  -1.698  0.00  0.00     0.062 H 
ATOM     19  H   LIG d   1       4.675   0.081  -0.499  0.00  0.00     0.062 H 
ATOM     20  H   LIG d   1       5.401  -1.936  -1.658  0.00  0.00     0.062 H 
ATOM     21  H   LIG d   1       5.554  -3.244  -3.747  0.00  0.00     0.062 H 
ATOM     22  H   LIG d   1       5.109  -3.493  -6.106  0.00  0.00     0.066 H 
ENDROOT
BRANCH   1  23
ATOM     23  C   LIG d   1       3.011  -1.104  -9.814  0.00  0.00     0.021 A 
ATOM     24  C   LIG d   1       1.747  -0.909 -10.378  0.00  0.00    -0.047 A 
ATOM     25  C   LIG d   1       1.548  -1.144 -11.721  0.00  0.00    -0.016 A 
ATOM     26  H   LIG d   1       0.928  -0.569  -9.762  0.00  0.00     0.063 H 
ATOM     27  C   LIG d   1       2.598  -1.587 -12.514  0.00  0.00     0.162 A 
ATOM     28  H   LIG d   1       0.572  -0.990 -12.156  0.00  0.00     0.066 H 
ATOM     29  C   LIG d   1       3.860  -1.790 -11.957  0.00  0.00     0.162 A 
ATOM     30  C   LIG d   1       4.068  -1.549 -10.613  0.00  0.00    -0.006 A 
ATOM     31  H   LIG d   1       5.045  -1.704 -10.179  0.00  0.00     0.066 H 
BRANCH  27  32
ATOM     32  O   LIG d   1       2.396  -1.822 -13.837  0.00  0.00    -0.491 OA
BRANCH  32  33
ATOM     33  C   LIG d   1       1.331  -2.712 -14.182  0.00  0.00     0.079 C 
ATOM     34  H   LIG d   1       1.044  -3.291 -13.305  0.00  0.00     0.066 H 
ATOM     35  H   LIG d   1       0.475  -2.135 -14.532  0.00  0.00     0.066 H 
ATOM     36  H   LIG d   1       1.663  -3.386 -14.971  0.00  0.00     0.066 H 
ENDBRANCH  32  33
ENDBRANCH  27  32
BRANCH  29  37
ATOM     37  O   LIG d   1       4.886  -2.222 -12.738  0.00  0.00    -0.491 OA
BRANCH  37  38
ATOM     38  C   LIG d   1       5.887  -1.263 -13.083  0.00  0.00     0.079 C 
ATOM     39  H   LIG d   1       6.875  -1.705 -12.953  0.00  0.00     0.066 H 
ATOM     40  H   LIG d   1       5.758  -0.961 -14.122  0.00  0.00     0.066 H 
ATOM     41  H   LIG d   1       5.792  -0.390 -12.437  0.00  0.00     0.066 H 
ENDBRANCH  37  38
ENDBRANCH  29  37
ENDBRANCH   1  23
TORSDOF 5
ENDMDL
MODEL 3
REMARK VINA RESULT:      -6.5      5.960      9.692
REMARK  5 active torsions:
REMARK  status: ('A' for Active; 'I' for Inactive)
REMARK    1  A    between atoms: C_1  and  O_2 
REMARK    2  A    between atoms: O_2  and  C_3 
REMARK    3  A    between atoms: C_6  and  C_11 
REMARK    4  A    between atoms: C_8  and  O_9 
REMARK    5  A    between atoms: O_9  and  C_10 
ROOT
ATOM      1  C   LIG d   1       8.473   2.226  -4.060  0.00  0.00     0.139 A 
ATOM      2  C   LIG d   1       8.892   1.178  -4.824  0.00  0.00     0.029 A 
ATOM      3  C   LIG d   1       8.127  -0.012  -4.846  0.00  0.00     0.194 A 
ATOM      4  O   LIG d   1       8.469  -0.973  -5.517  0.00  0.00    -0.287 OA
ATOM      5  C   LIG d   1       6.905  -0.045  -4.030  0.00  0.00     0.072 A 
ATOM      6  C   LIG d   1       6.047  -1.221  -3.983  0.00  0.00    -0.004 A 
ATOM      7  C   LIG d   1       6.341  -2.380  -4.711  0.00  0.00    -0.053 A 
ATOM      8  C   LIG d   1       5.507  -3.456  -4.633  0.00  0.00    -0.061 A 
ATOM      9  C   LIG d   1       4.361  -3.416  -3.844  0.00  0.00    -0.061 A 
ATOM     10  C   LIG d   1       4.048  -2.306  -3.119  0.00  0.00    -0.054 A 
ATOM     11  C   LIG d   1       4.885  -1.180  -3.173  0.00  0.00    -0.017 A 
ATOM     12  C   LIG d   1       4.592  -0.013  -2.442  0.00  0.00    -0.051 A 
ATOM     13  C   LIG d   1       5.402   1.073  -2.498  0.00  0.00    -0.018 A 
ATOM     14  C   LIG d   1       6.562   1.084  -3.281  0.00  0.00     0.140 A 
ATOM     15  O   LIG d   1       7.353   2.176  -3.323  0.00  0.00    -0.455 OA
ATOM     16  H   LIG d   1       9.799   1.256  -5.404  0.00  0.00     0.069 H 
ATOM     17  H   LIG d   1       7.225  -2.422  -5.330  0.00  0.00     0.062 H 
ATOM     18  H   LIG d   1       5.736  -4.349  -5.196  0.00  0.00     0.062 H 
ATOM     19  H   LIG d   1       3.713  -4.279  -3.803  0.00  0.00     0.062 H 
ATOM     20  H   LIG d   1       3.158  -2.291  -2.507  0.00  0.00     0.062 H 
ATOM     21  H   LIG d   1       3.705   0.018  -1.825  0.00  0.00     0.062 H 
ATOM     22  H   LIG d   1       5.146   1.951  -1.924  0.00  0.00     0.066 H 
ENDROOT
BRANCH   1  23
ATOM     23  C   LIG d   1       9.279   3.461  -4.046  0.00  0.00     0.021 A 
ATOM     24  C   LIG d   1       9.389   4.239  -5.202  0.00  0.00    -0.047 A 
ATOM     25  C   LIG d   1      10.137   5.396  -5.185  0.00  0.00    -0.016 A 
ATOM     26  H   LIG d   1       8.883   3.936  -6.107  0.00  0.00     0.063 H 
ATOM     27  C   LIG d   1      10.792   5.786  -4.025  0.00  0.00     0.162 A 
ATOM     28  H   LIG d   1      10.218   5.998  -6.078  0.00  0.00     0.066 H 
ATOM     29  C   LIG d   1      10.692   5.011  -2.870  0.00  0.00     0.162 A 
ATOM     30  C   LIG d   1       9.938   3.854  -2.878  0.00  0.00    -0.006 A 
ATOM     31  H   LIG d   1       9.858   3.253  -1.984  0.00  0.00     0.066 H 
BRANCH  27  32
ATOM     32  O   LIG d   1      11.533   6.924  -4.015  0.00  0.00    -0.491 OA
BRANCH  32  33
ATOM     33  C   LIG d   1      10.821   8.161  -3.937  0.00  0.00     0.079 C 
ATOM     34  H   LIG d   1      11.173   8.832  -4.720  0.00  0.00     0.066 H 
ATOM     35  H   LIG d   1       9.755   7.976  -4.069  0.00  0.00     0.066 H 
ATOM     36  H   LIG d   1      10.992   8.618  -2.962  0.00  0.00     0.066 H 
ENDBRANCH  32  33
ENDBRANCH  27  32
BRANCH  29  37
ATOM     37  O   LIG d   1      11.335   5.396  -1.735  0.00  0.00    -0.491 OA
BRANCH  37  38
ATOM     38  C   LIG d   1      10.544   6.021  -0.722  0.00  0.00     0.079 C 
ATOM     39  H   LIG d   1       9.535   5.610  -0.744  0.00  0.00     0.066 H 
ATOM     40  H   LIG d   1      10.991   5.836   0.254  0.00  0.00     0.066 H 
ATOM     41  H   LIG d   1      10.503   7.095  -0.905  0.00  0.00     0.066 H 
ENDBRANCH  37  38
ENDBRANCH  29  37
ENDBRANCH   1  23
TORSDOF 5
ENDMDL
MODEL 4
REMARK VINA RESULT:      -6.3      0.871      2.150
REMARK  5 active torsions:
REMARK  status: ('A' for Active; 'I' for Inactive)
REMARK    1  A    between atoms: C_1  and  O_2 
REMARK    2  A    between atoms: O_2  and  C_3 
REMARK    3  A    between atoms: C_6  and  C_11 
REMARK    4  A    between atoms: C_8  and  O_9 
REMARK    5  A    between atoms: O_9  and  C_10 
ROOT
ATOM      1  C   LIG d   1       3.205  -1.146  -8.367  0.00  0.00     0.139 A 
ATOM      2  C   LIG d   1       4.109  -1.978  -7.780  0.00  0.00     0.029 A 
ATOM      3  C   LIG d   1       4.459  -1.774  -6.424  0.00  0.00     0.194 A 
ATOM      4  O   LIG d   1       5.265  -2.497  -5.862  0.00  0.00    -0.287 OA
ATOM      5  C   LIG d   1       3.812  -0.658  -5.721  0.00  0.00     0.072 A 
ATOM      6  C   LIG d   1       4.102  -0.362  -4.323  0.00  0.00    -0.004 A 
ATOM      7  C   LIG d   1       5.010  -1.124  -3.580  0.00  0.00    -0.053 A 
ATOM      8  C   LIG d   1       5.248  -0.807  -2.275  0.00  0.00    -0.061 A 
ATOM      9  C   LIG d   1       4.595   0.261  -1.669  0.00  0.00    -0.061 A 
ATOM     10  C   LIG d   1       3.709   1.028  -2.365  0.00  0.00    -0.054 A 
ATOM     11  C   LIG d   1       3.440   0.731  -3.711  0.00  0.00    -0.017 A 
ATOM     12  C   LIG d   1       2.527   1.496  -4.461  0.00  0.00    -0.051 A 
ATOM     13  C   LIG d   1       2.270   1.206  -5.761  0.00  0.00    -0.018 A 
ATOM     14  C   LIG d   1       2.896   0.139  -6.414  0.00  0.00     0.140 A 
ATOM     15  O   LIG d   1       2.625  -0.132  -7.707  0.00  0.00    -0.455 OA
ATOM     16  H   LIG d   1       4.555  -2.783  -8.344  0.00  0.00     0.069 H 
ATOM     17  H   LIG d   1       5.520  -1.959  -4.038  0.00  0.00     0.062 H 
ATOM     18  H   LIG d   1       5.950  -1.397  -1.703  0.00  0.00     0.062 H 
ATOM     19  H   LIG d   1       4.796   0.490  -0.633  0.00  0.00     0.062 H 
ATOM     20  H   LIG d   1       3.213   1.857  -1.883  0.00  0.00     0.062 H 
ATOM     21  H   LIG d   1       2.023   2.330  -3.994  0.00  0.00     0.062 H 
ATOM     22  H   LIG d   1       1.564   1.815  -6.306  0.00  0.00     0.066 H 
ENDROOT
BRANCH   1  23
ATOM     23  C   LIG d   1       2.848  -1.369  -9.781  0.00  0.00     0.021 A 
ATOM     24  C   LIG d   1       3.522  -0.676 -10.791  0.00  0.00    -0.047 A 
ATOM     25  C   LIG d   1       3.191  -0.891 -12.111  0.00  0.00    -0.016 A 
ATOM     26  H   LIG d   1       4.305   0.022 -10.537  0.00  0.00     0.063 H 
ATOM     27  C   LIG d   1       2.181  -1.784 -12.442  0.00  0.00     0.162 A 
ATOM     28  H   LIG d   1       3.716  -0.358 -12.892  0.00  0.00     0.066 H 
ATOM     29  C   LIG d   1       1.500  -2.473 -11.439  0.00  0.00     0.162 A 
ATOM     30  C   LIG d   1       1.831  -2.268 -10.114  0.00  0.00    -0.006 A 
ATOM     31  H   LIG d   1       1.305  -2.801  -9.335  0.00  0.00     0.066 H 
BRANCH  27  32
ATOM     32  O   LIG d   1       1.855  -1.988 -13.745  0.00  0.00    -0.491 OA
BRANCH  32  33
ATOM     33  C   LIG d   1       2.890  -1.790 -14.711  0.00  0.00     0.079 C 
ATOM     34  H   LIG d   1       2.689  -2.405 -15.588  0.00  0.00     0.066 H 
ATOM     35  H   LIG d   1       2.919  -0.740 -15.002  0.00  0.00     0.066 H 
ATOM     36  H   LIG d   1       3.849  -2.074 -14.279  0.00  0.00     0.066 H 
ENDBRANCH  32  33
ENDBRANCH  27  32
BRANCH  29  37
ATOM     37  O   LIG d   1       0.511  -3.347 -11.766  0.00  0.00    -0.491 OA
BRANCH  37  38
ATOM     38  C   LIG d   1       0.105  -4.274 -10.757  0.00  0.00     0.079 C 
ATOM     39  H   LIG d   1       0.675  -5.197 -10.861  0.00  0.00     0.066 H 
ATOM     40  H   LIG d   1       0.286  -3.843  -9.773  0.00  0.00     0.066 H 
ATOM     41  H   LIG d   1      -0.958  -4.489 -10.870  0.00  0.00     0.066 H 
ENDBRANCH  37  38
ENDBRANCH  29  37
ENDBRANCH   1  23
TORSDOF 5
ENDMDL
MODEL 5
REMARK VINA RESULT:      -6.3      1.844      8.220
REMARK  5 active torsions:
REMARK  status: ('A' for Active; 'I' for Inactive)
REMARK    1  A    between atoms: C_1  and  O_2 
REMARK    2  A    between atoms: O_2  and  C_3 
REMARK    3  A    between atoms: C_6  and  C_11 
REMARK    4  A    between atoms: C_8  and  O_9 
REMARK    5  A    between atoms: O_9  and  C_10 
ROOT
ATOM      1  C   LIG d   1       3.634  -0.567  -7.868  0.00  0.00     0.139 A 
ATOM      2  C   LIG d   1       4.634   0.023  -8.579  0.00  0.00     0.029 A 
ATOM      3  C   LIG d   1       4.637  -0.087  -9.990  0.00  0.00     0.194 A 
ATOM      4  O   LIG d   1       5.516   0.427 -10.664  0.00  0.00    -0.287 OA
ATOM      5  C   LIG d   1       3.542  -0.844 -10.612  0.00  0.00     0.072 A 
ATOM      6  C   LIG d   1       3.453  -1.017 -12.056  0.00  0.00    -0.004 A 
ATOM      7  C   LIG d   1       4.404  -0.471 -12.925  0.00  0.00    -0.053 A 
ATOM      8  C   LIG d   1       4.277  -0.661 -14.270  0.00  0.00    -0.061 A 
ATOM      9  C   LIG d   1       3.209  -1.385 -14.791  0.00  0.00    -0.061 A 
ATOM     10  C   LIG d   1       2.268  -1.934 -13.972  0.00  0.00    -0.054 A 
ATOM     11  C   LIG d   1       2.368  -1.760 -12.583  0.00  0.00    -0.017 A 
ATOM     12  C   LIG d   1       1.412  -2.308 -11.706  0.00  0.00    -0.051 A 
ATOM     13  C   LIG d   1       1.512  -2.137 -10.364  0.00  0.00    -0.018 A 
ATOM     14  C   LIG d   1       2.563  -1.412  -9.791  0.00  0.00     0.140 A 
ATOM     15  O   LIG d   1       2.642  -1.254  -8.454  0.00  0.00    -0.455 OA
ATOM     16  H   LIG d   1       5.416   0.568  -8.072  0.00  0.00     0.069 H 
ATOM     17  H   LIG d   1       5.235   0.096 -12.533  0.00  0.00     0.062 H 
ATOM     18  H   LIG d   1       5.012  -0.239 -14.939  0.00  0.00     0.062 H 
ATOM     19  H   LIG d   1       3.127  -1.517 -15.859  0.00  0.00     0.062 H 
ATOM     20  H   LIG d   1       1.447  -2.497 -14.391  0.00  0.00     0.062 H 
ATOM     21  H   LIG d   1       0.585  -2.874 -12.109  0.00  0.00     0.062 H 
ATOM     22  H   LIG d   1       0.760  -2.571  -9.721  0.00  0.00     0.066 H 
ENDROOT
BRANCH   1  23
ATOM     23  C   LIG d   1       3.641  -0.445  -6.397  0.00  0.00     0.021 A 
ATOM     24  C   LIG d   1       2.752   0.427  -5.763  0.00  0.00    -0.047 A 
ATOM     25  C   LIG d   1       2.756   0.535  -4.390  0.00  0.00    -0.016 A 
ATOM     26  H   LIG d   1       2.058   1.012  -6.350  0.00  0.00     0.063 H 
ATOM     27  C   LIG d   1       3.649  -0.211  -3.634  0.00  0.00     0.162 A 
ATOM     28  H   LIG d   1       2.065   1.207  -3.900  0.00  0.00     0.066 H 
ATOM     29  C   LIG d   1       4.543  -1.078  -4.260  0.00  0.00     0.162 A 
ATOM     30  C   LIG d   1       4.540  -1.196  -5.636  0.00  0.00    -0.006 A 
ATOM     31  H   LIG d   1       5.231  -1.869  -6.124  0.00  0.00     0.066 H 
BRANCH  27  32
ATOM     32  O   LIG d   1       3.653  -0.097  -2.280  0.00  0.00    -0.491 OA
BRANCH  32  33
ATOM     33  C   LIG d   1       4.439   0.957  -1.720  0.00  0.00     0.079 C 
ATOM     34  H   LIG d   1       4.152   1.111  -0.679  0.00  0.00     0.066 H 
ATOM     35  H   LIG d   1       5.495   0.689  -1.770  0.00  0.00     0.066 H 
ATOM     36  H   LIG d   1       4.270   1.875  -2.283  0.00  0.00     0.066 H 
ENDBRANCH  32  33
ENDBRANCH  27  32
BRANCH  29  37
ATOM     37  O   LIG d   1       5.417  -1.808  -3.516  0.00  0.00    -0.491 OA
BRANCH  37  38
ATOM     38  C   LIG d   1       6.778  -1.373  -3.502  0.00  0.00     0.079 C 
ATOM     39  H   LIG d   1       7.430  -2.212  -3.748  0.00  0.00     0.066 H 
ATOM     40  H   LIG d   1       6.914  -0.579  -4.235  0.00  0.00     0.066 H 
ATOM     41  H   LIG d   1       7.028  -0.998  -2.509  0.00  0.00     0.066 H 
ENDBRANCH  37  38
ENDBRANCH  29  37
ENDBRANCH   1  23
TORSDOF 5
ENDMDL
MODEL 6
REMARK VINA RESULT:      -6.1      4.547      6.049
REMARK  5 active torsions:
REMARK  status: ('A' for Active; 'I' for Inactive)
REMARK    1  A    between atoms: C_1  and  O_2 
REMARK    2  A    between atoms: O_2  and  C_3 
REMARK    3  A    between atoms: C_6  and  C_11 
REMARK    4  A    between atoms: C_8  and  O_9 
REMARK    5  A    between atoms: O_9  and  C_10 
ROOT
ATOM      1  C   LIG d   1       5.313  -4.766  -5.445  0.00  0.00     0.139 A 
ATOM      2  C   LIG d   1       6.289  -3.991  -5.995  0.00  0.00     0.029 A 
ATOM      3  C   LIG d   1       6.490  -2.679  -5.504  0.00  0.00     0.194 A 
ATOM      4  O   LIG d   1       7.353  -1.953  -5.970  0.00  0.00    -0.287 OA
ATOM      5  C   LIG d   1       5.618  -2.226  -4.411  0.00  0.00     0.072 A 
ATOM      6  C   LIG d   1       5.742  -0.894  -3.834  0.00  0.00    -0.004 A 
ATOM      7  C   LIG d   1       6.696   0.022  -4.289  0.00  0.00    -0.053 A 
ATOM      8  C   LIG d   1       6.772   1.258  -3.717  0.00  0.00    -0.061 A 
ATOM      9  C   LIG d   1       5.918   1.619  -2.681  0.00  0.00    -0.061 A 
ATOM     10  C   LIG d   1       4.973   0.753  -2.216  0.00  0.00    -0.054 A 
ATOM     11  C   LIG d   1       4.865  -0.527  -2.783  0.00  0.00    -0.017 A 
ATOM     12  C   LIG d   1       3.906  -1.451  -2.327  0.00  0.00    -0.051 A 
ATOM     13  C   LIG d   1       3.805  -2.688  -2.876  0.00  0.00    -0.018 A 
ATOM     14  C   LIG d   1       4.645  -3.100  -3.916  0.00  0.00     0.140 A 
ATOM     15  O   LIG d   1       4.528  -4.334  -4.447  0.00  0.00    -0.455 OA
ATOM     16  H   LIG d   1       6.902  -4.374  -6.797  0.00  0.00     0.069 H 
ATOM     17  H   LIG d   1       7.368  -0.247  -5.091  0.00  0.00     0.062 H 
ATOM     18  H   LIG d   1       7.510   1.964  -4.071  0.00  0.00     0.062 H 
ATOM     19  H   LIG d   1       6.000   2.601  -2.240  0.00  0.00     0.062 H 
ATOM     20  H   LIG d   1       4.314   1.049  -1.414  0.00  0.00     0.062 H 
ATOM     21  H   LIG d   1       3.238  -1.171  -1.525  0.00  0.00     0.062 H 
ATOM     22  H   LIG d   1       3.057  -3.371  -2.501  0.00  0.00     0.066 H 
ENDROOT
BRANCH   1  23
ATOM     23  C   LIG d   1       5.114  -6.132  -5.965  0.00  0.00     0.021 A 
ATOM     24  C   LIG d   1       5.721  -7.219  -5.329  0.00  0.00    -0.047 A 
ATOM     25  C   LIG d   1       5.528  -8.495  -5.812  0.00  0.00    -0.016 A 
ATOM     26  H   LIG d   1       6.334  -7.059  -4.455  0.00  0.00     0.063 H 
ATOM     27  C   LIG d   1       4.744  -8.703  -6.939  0.00  0.00     0.162 A 
ATOM     28  H   LIG d   1       5.994  -9.335  -5.317  0.00  0.00     0.066 H 
ATOM     29  C   LIG d   1       4.142  -7.623  -7.583  0.00  0.00     0.162 A 
ATOM     30  C   LIG d   1       4.325  -6.342  -7.099  0.00  0.00    -0.006 A 
ATOM     31  H   LIG d   1       3.858  -5.504  -7.596  0.00  0.00     0.066 H 
BRANCH  27  32
ATOM     32  O   LIG d   1       4.562  -9.963  -7.415  0.00  0.00    -0.491 OA
BRANCH  32  33
ATOM     33  C   LIG d   1       4.361 -10.998  -6.451  0.00  0.00     0.079 C 
ATOM     34  H   LIG d   1       3.309 -11.285  -6.441  0.00  0.00     0.066 H 
ATOM     35  H   LIG d   1       4.971 -11.863  -6.712  0.00  0.00     0.066 H 
ATOM     36  H   LIG d   1       4.648 -10.636  -5.464  0.00  0.00     0.066 H 
ENDBRANCH  32  33
ENDBRANCH  27  32
BRANCH  29  37
ATOM     37  O   LIG d   1       3.374  -7.831  -8.686  0.00  0.00    -0.491 OA
BRANCH  37  38
ATOM     38  C   LIG d   1       3.638  -7.009  -9.824  0.00  0.00     0.079 C 
ATOM     39  H   LIG d   1       3.467  -7.583 -10.735  0.00  0.00     0.066 H 
ATOM     40  H   LIG d   1       2.975  -6.144  -9.809  0.00  0.00     0.066 H 
ATOM     41  H   LIG d   1       4.675  -6.672  -9.796  0.00  0.00     0.066 H 
ENDBRANCH  37  38
ENDBRANCH  29  37
ENDBRANCH   1  23
TORSDOF 5
ENDMDL
MODEL 7
REMARK VINA RESULT:      -5.9      8.609     10.953
REMARK  5 active torsions:
REMARK  status: ('A' for Active; 'I' for Inactive)
REMARK    1  A    between atoms: C_1  and  O_2 
REMARK    2  A    between atoms: O_2  and  C_3 
REMARK    3  A    between atoms: C_6  and  C_11 
REMARK    4  A    between atoms: C_8  and  O_9 
REMARK    5  A    between atoms: O_9  and  C_10 
ROOT
ATOM      1  C   LIG d   1       9.851   5.238  -3.265  0.00  0.00     0.139 A 
ATOM      2  C   LIG d   1       9.777   6.517  -3.728  0.00  0.00     0.029 A 
ATOM      3  C   LIG d   1      10.105   7.587  -2.861  0.00  0.00     0.194 A 
ATOM      4  O   LIG d   1      10.050   8.747  -3.237  0.00  0.00    -0.287 OA
ATOM      5  C   LIG d   1      10.512   7.246  -1.491  0.00  0.00     0.072 A 
ATOM      6  C   LIG d   1      10.870   8.271  -0.520  0.00  0.00    -0.004 A 
ATOM      7  C   LIG d   1      10.844   9.633  -0.840  0.00  0.00    -0.053 A 
ATOM      8  C   LIG d   1      11.187  10.556   0.104  0.00  0.00    -0.061 A 
ATOM      9  C   LIG d   1      11.569  10.161   1.381  0.00  0.00    -0.061 A 
ATOM     10  C   LIG d   1      11.601   8.844   1.729  0.00  0.00    -0.054 A 
ATOM     11  C   LIG d   1      11.253   7.867   0.783  0.00  0.00    -0.017 A 
ATOM     12  C   LIG d   1      11.279   6.496   1.102  0.00  0.00    -0.051 A 
ATOM     13  C   LIG d   1      10.943   5.554   0.185  0.00  0.00    -0.018 A 
ATOM     14  C   LIG d   1      10.557   5.900  -1.115  0.00  0.00     0.140 A 
ATOM     15  O   LIG d   1      10.227   4.947  -2.011  0.00  0.00    -0.455 OA
ATOM     16  H   LIG d   1       9.471   6.712  -4.745  0.00  0.00     0.069 H 
ATOM     17  H   LIG d   1      10.552   9.952  -1.830  0.00  0.00     0.062 H 
ATOM     18  H   LIG d   1      11.165  11.606  -0.146  0.00  0.00     0.062 H 
ATOM     19  H   LIG d   1      11.841  10.910   2.110  0.00  0.00     0.062 H 
ATOM     20  H   LIG d   1      11.896   8.553   2.726  0.00  0.00     0.062 H 
ATOM     21  H   LIG d   1      11.571   6.188   2.096  0.00  0.00     0.062 H 
ATOM     22  H   LIG d   1      10.973   4.512   0.466  0.00  0.00     0.066 H 
ENDROOT
BRANCH   1  23
ATOM     23  C   LIG d   1       9.508   4.132  -4.179  0.00  0.00     0.021 A 
ATOM     24  C   LIG d   1       9.741   4.259  -5.551  0.00  0.00    -0.047 A 
ATOM     25  C   LIG d   1       9.426   3.222  -6.401  0.00  0.00    -0.016 A 
ATOM     26  H   LIG d   1      10.174   5.167  -5.943  0.00  0.00     0.063 H 
ATOM     27  C   LIG d   1       8.865   2.055  -5.901  0.00  0.00     0.162 A 
ATOM     28  H   LIG d   1       9.610   3.320  -7.462  0.00  0.00     0.066 H 
ATOM     29  C   LIG d   1       8.624   1.924  -4.534  0.00  0.00     0.162 A 
ATOM     30  C   LIG d   1       8.944   2.957  -3.675  0.00  0.00    -0.006 A 
ATOM     31  H   LIG d   1       8.759   2.857  -2.615  0.00  0.00     0.066 H 
BRANCH  27  32
ATOM     32  O   LIG d   1       8.550   1.037  -6.745  0.00  0.00    -0.491 OA
BRANCH  32  33
ATOM     33  C   LIG d   1       7.407   1.219  -7.583  0.00  0.00     0.079 C 
ATOM     34  H   LIG d   1       6.525   0.814  -7.086  0.00  0.00     0.066 H 
ATOM     35  H   LIG d   1       7.261   2.283  -7.772  0.00  0.00     0.066 H 
ATOM     36  H   LIG d   1       7.563   0.699  -8.528  0.00  0.00     0.066 H 
ENDBRANCH  32  33
ENDBRANCH  27  32
BRANCH  29  37
ATOM     37  O   LIG d   1       8.075   0.779  -4.047  0.00  0.00    -0.491 OA
BRANCH  37  38
ATOM     38  C   LIG d   1       6.743   0.864  -3.538  0.00  0.00     0.079 C 
ATOM     39  H   LIG d   1       6.109   1.378  -4.261  0.00  0.00     0.066 H 
ATOM     40  H   LIG d   1       6.355  -0.139  -3.364  0.00  0.00     0.066 H 
ATOM     41  H   LIG d   1       6.748   1.419  -2.600  0.00  0.00     0.066 H 
ENDBRANCH  37  38
ENDBRANCH  29  37
ENDBRANCH   1  23
TORSDOF 5
ENDMDL
MODEL 8
REMARK VINA RESULT:      -5.9     12.312     16.152
REMARK  5 active torsions:
REMARK  status: ('A' for Active; 'I' for Inactive)
REMARK    1  A    between atoms: C_1  and  O_2 
REMARK    2  A    between atoms: O_2  and  C_3 
REMARK    3  A    between atoms: C_6  and  C_11 
REMARK    4  A    between atoms: C_8  and  O_9 
REMARK    5  A    between atoms: O_9  and  C_10 
ROOT
ATOM      1  C   LIG d   1      11.402   7.661   2.254  0.00  0.00     0.139 A 
ATOM      2  C   LIG d   1      11.812   8.956   2.358  0.00  0.00     0.029 A 
ATOM      3  C   LIG d   1      12.058   9.504   3.639  0.00  0.00     0.194 A 
ATOM      4  O   LIG d   1      12.426  10.660   3.775  0.00  0.00    -0.287 OA
ATOM      5  C   LIG d   1      11.852   8.626   4.799  0.00  0.00     0.072 A 
ATOM      6  C   LIG d   1      12.077   9.092   6.162  0.00  0.00    -0.004 A 
ATOM      7  C   LIG d   1      12.500  10.397   6.436  0.00  0.00    -0.053 A 
ATOM      8  C   LIG d   1      12.695  10.786   7.728  0.00  0.00    -0.061 A 
ATOM      9  C   LIG d   1      12.487   9.900   8.780  0.00  0.00    -0.061 A 
ATOM     10  C   LIG d   1      12.071   8.623   8.549  0.00  0.00    -0.054 A 
ATOM     11  C   LIG d   1      11.858   8.189   7.231  0.00  0.00    -0.017 A 
ATOM     12  C   LIG d   1      11.433   6.876   6.953  0.00  0.00    -0.051 A 
ATOM     13  C   LIG d   1      11.229   6.459   5.678  0.00  0.00    -0.018 A 
ATOM     14  C   LIG d   1      11.430   7.311   4.586  0.00  0.00     0.140 A 
ATOM     15  O   LIG d   1      11.221   6.876   3.326  0.00  0.00    -0.455 OA
ATOM     16  H   LIG d   1      11.947   9.558   1.471  0.00  0.00     0.069 H 
ATOM     17  H   LIG d   1      12.668  11.094   5.628  0.00  0.00     0.062 H 
ATOM     18  H   LIG d   1      13.021  11.795   7.937  0.00  0.00     0.062 H 
ATOM     19  H   LIG d   1      12.654  10.229   9.795  0.00  0.00     0.062 H 
ATOM     20  H   LIG d   1      11.909   7.948   9.376  0.00  0.00     0.062 H 
ATOM     21  H   LIG d   1      11.266   6.187   7.769  0.00  0.00     0.062 H 
ATOM     22  H   LIG d   1      10.902   5.445   5.501  0.00  0.00     0.066 H 
ENDROOT
BRANCH   1  23
ATOM     23  C   LIG d   1      11.150   7.101   0.913  0.00  0.00     0.021 A 
ATOM     24  C   LIG d   1      11.455   5.764   0.644  0.00  0.00    -0.047 A 
ATOM     25  C   LIG d   1      11.213   5.241  -0.608  0.00  0.00    -0.016 A 
ATOM     26  H   LIG d   1      11.874   5.139   1.419  0.00  0.00     0.063 H 
ATOM     27  C   LIG d   1      10.679   6.043  -1.608  0.00  0.00     0.162 A 
ATOM     28  H   LIG d   1      11.445   4.206  -0.814  0.00  0.00     0.066 H 
ATOM     29  C   LIG d   1      10.380   7.380  -1.348  0.00  0.00     0.162 A 
ATOM     30  C   LIG d   1      10.613   7.908  -0.094  0.00  0.00    -0.006 A 
ATOM     31  H   LIG d   1      10.380   8.944   0.110  0.00  0.00     0.066 H 
BRANCH  27  32
ATOM     32  O   LIG d   1      10.448   5.524  -2.842  0.00  0.00    -0.491 OA
BRANCH  32  33
ATOM     33  C   LIG d   1       9.962   4.181  -2.901  0.00  0.00     0.079 C 
ATOM     34  H   LIG d   1      10.226   3.660  -1.981  0.00  0.00     0.066 H 
ATOM     35  H   LIG d   1       8.878   4.191  -3.014  0.00  0.00     0.066 H 
ATOM     36  H   LIG d   1      10.412   3.669  -3.751  0.00  0.00     0.066 H 
ENDBRANCH  32  33
ENDBRANCH  27  32
BRANCH  29  37
ATOM     37  O   LIG d   1       9.856   8.162  -2.330  0.00  0.00    -0.491 OA
BRANCH  37  38
ATOM     38  C   LIG d   1      10.111   9.565  -2.246  0.00  0.00     0.079 C 
ATOM     39  H   LIG d   1      11.119   9.774  -2.607  0.00  0.00     0.066 H 
ATOM     40  H   LIG d   1       9.387  10.104  -2.857  0.00  0.00     0.066 H 
ATOM     41  H   LIG d   1      10.024   9.889  -1.208  0.00  0.00     0.066 H 
ENDBRANCH  37  38
ENDBRANCH  29  37
ENDBRANCH   1  23
TORSDOF 5
ENDMDL
MODEL 9
REMARK VINA RESULT:      -5.9      9.884     14.223
REMARK  5 active torsions:
REMARK  status: ('A' for Active; 'I' for Inactive)
REMARK    1  A    between atoms: C_1  and  O_2 
REMARK    2  A    between atoms: O_2  and  C_3 
REMARK    3  A    between atoms: C_6  and  C_11 
REMARK    4  A    between atoms: C_8  and  O_9 
REMARK    5  A    between atoms: O_9  and  C_10 
ROOT
ATOM      1  C   LIG d   1      10.419   7.081  -2.665  0.00  0.00     0.139 A 
ATOM      2  C   LIG d   1      10.202   8.226  -3.370  0.00  0.00     0.029 A 
ATOM      3  C   LIG d   1       9.946   8.145  -4.759  0.00  0.00     0.194 A 
ATOM      4  O   LIG d   1       9.747   9.148  -5.426  0.00  0.00    -0.287 OA
ATOM      5  C   LIG d   1       9.930   6.808  -5.367  0.00  0.00     0.072 A 
ATOM      6  C   LIG d   1       9.676   6.614  -6.789  0.00  0.00    -0.004 A 
ATOM      7  C   LIG d   1       9.435   7.691  -7.649  0.00  0.00    -0.053 A 
ATOM      8  C   LIG d   1       9.204   7.460  -8.973  0.00  0.00    -0.061 A 
ATOM      9  C   LIG d   1       9.196   6.164  -9.480  0.00  0.00    -0.061 A 
ATOM     10  C   LIG d   1       9.432   5.093  -8.671  0.00  0.00    -0.054 A 
ATOM     11  C   LIG d   1       9.676   5.295  -7.304  0.00  0.00    -0.017 A 
ATOM     12  C   LIG d   1       9.918   4.213  -6.436  0.00  0.00    -0.051 A 
ATOM     13  C   LIG d   1      10.152   4.411  -5.114  0.00  0.00    -0.018 A 
ATOM     14  C   LIG d   1      10.164   5.694  -4.555  0.00  0.00     0.140 A 
ATOM     15  O   LIG d   1      10.399   5.868  -3.238  0.00  0.00    -0.455 OA
ATOM     16  H   LIG d   1      10.226   9.184  -2.873  0.00  0.00     0.069 H 
ATOM     17  H   LIG d   1       9.434   8.702  -7.266  0.00  0.00     0.062 H 
ATOM     18  H   LIG d   1       9.018   8.293  -9.635  0.00  0.00     0.062 H 
ATOM     19  H   LIG d   1       9.006   6.005 -10.531  0.00  0.00     0.062 H 
ATOM     20  H   LIG d   1       9.428   4.094  -9.080  0.00  0.00     0.062 H 
ATOM     21  H   LIG d   1       9.918   3.206  -6.829  0.00  0.00     0.062 H 
ATOM     22  H   LIG d   1      10.335   3.558  -4.478  0.00  0.00     0.066 H 
ENDROOT
BRANCH   1  23
ATOM     23  C   LIG d   1      10.684   7.178  -1.217  0.00  0.00     0.021 A 
ATOM     24  C   LIG d   1      10.750   6.019  -0.438  0.00  0.00    -0.047 A 
ATOM     25  C   LIG d   1      11.004   6.111   0.913  0.00  0.00    -0.016 A 
ATOM     26  H   LIG d   1      10.608   5.051  -0.897  0.00  0.00     0.063 H 
ATOM     27  C   LIG d   1      11.181   7.354   1.506  0.00  0.00     0.162 A 
ATOM     28  H   LIG d   1      11.058   5.214   1.513  0.00  0.00     0.066 H 
ATOM     29  C   LIG d   1      11.110   8.514   0.737  0.00  0.00     0.162 A 
ATOM     30  C   LIG d   1      10.863   8.428  -0.620  0.00  0.00    -0.006 A 
ATOM     31  H   LIG d   1      10.809   9.326  -1.218  0.00  0.00     0.066 H 
BRANCH  27  32
ATOM     32  O   LIG d   1      11.426   7.440   2.840  0.00  0.00    -0.491 OA
BRANCH  32  33
ATOM     33  C   LIG d   1      10.995   6.344   3.650  0.00  0.00     0.079 C 
ATOM     34  H   LIG d   1      11.860   5.752   3.950  0.00  0.00     0.066 H 
ATOM     35  H   LIG d   1      10.490   6.725   4.538  0.00  0.00     0.066 H 
ATOM     36  H   LIG d   1      10.306   5.720   3.081  0.00  0.00     0.066 H 
ENDBRANCH  32  33
ENDBRANCH  27  32
BRANCH  29  37
ATOM     37  O   LIG d   1      11.286   9.729   1.321  0.00  0.00    -0.491 OA
BRANCH  37  38
ATOM     38  C   LIG d   1      10.761  10.864   0.629  0.00  0.00     0.079 C 
ATOM     39  H   LIG d   1       9.677  10.888   0.742  0.00  0.00     0.066 H 
ATOM     40  H   LIG d   1      11.190  11.774   1.044  0.00  0.00     0.066 H 
ATOM     41  H   LIG d   1      11.014  10.792  -0.429  0.00  0.00     0.066 H 
ENDBRANCH  37  38
ENDBRANCH  29  37
ENDBRANCH   1  23
TORSDOF 5
ENDMDL
MODEL 10
REMARK VINA RESULT:      -5.7      1.452      2.925
REMARK  5 active torsions:
REMARK  status: ('A' for Active; 'I' for Inactive)
REMARK    1  A    between atoms: C_1  and  O_2 
REMARK    2  A    between atoms: O_2  and  C_3 
REMARK    3  A    between atoms: C_6  and  C_11 
REMARK    4  A    between atoms: C_8  and  O_9 
REMARK    5  A    between atoms: O_9  and  C_10 
ROOT
ATOM      1  C   LIG d   1       3.722  -1.915  -8.161  0.00  0.00     0.139 A 
ATOM      2  C   LIG d   1       4.583  -2.607  -7.364  0.00  0.00     0.029 A 
ATOM      3  C   LIG d   1       4.787  -2.179  -6.031  0.00  0.00     0.194 A 
ATOM      4  O   LIG d   1       5.551  -2.771  -5.285  0.00  0.00    -0.287 OA
ATOM      5  C   LIG d   1       4.043  -0.995  -5.580  0.00  0.00     0.072 A 
ATOM      6  C   LIG d   1       4.181  -0.472  -4.227  0.00  0.00    -0.004 A 
ATOM      7  C   LIG d   1       5.028  -1.070  -3.287  0.00  0.00    -0.053 A 
ATOM      8  C   LIG d   1       5.123  -0.543  -2.033  0.00  0.00    -0.061 A 
ATOM      9  C   LIG d   1       4.384   0.579  -1.672  0.00  0.00    -0.061 A 
ATOM     10  C   LIG d   1       3.554   1.189  -2.564  0.00  0.00    -0.054 A 
ATOM     11  C   LIG d   1       3.432   0.675  -3.864  0.00  0.00    -0.017 A 
ATOM     12  C   LIG d   1       2.581   1.274  -4.812  0.00  0.00    -0.051 A 
ATOM     13  C   LIG d   1       2.465   0.774  -6.068  0.00  0.00    -0.018 A 
ATOM     14  C   LIG d   1       3.182  -0.355  -6.478  0.00  0.00     0.140 A 
ATOM     15  O   LIG d   1       3.051  -0.836  -7.731  0.00  0.00    -0.455 OA
ATOM     16  H   LIG d   1       5.105  -3.471  -7.746  0.00  0.00     0.069 H 
ATOM     17  H   LIG d   1       5.604  -1.943  -3.554  0.00  0.00     0.062 H 
ATOM     18  H   LIG d   1       5.778  -1.006  -1.309  0.00  0.00     0.062 H 
ATOM     19  H   LIG d   1       4.473   0.975  -0.671  0.00  0.00     0.062 H 
ATOM     20  H   LIG d   1       2.990   2.062  -2.270  0.00  0.00     0.062 H 
ATOM     21  H   LIG d   1       2.010   2.149  -4.535  0.00  0.00     0.062 H 
ATOM     22  H   LIG d   1       1.803   1.260  -6.769  0.00  0.00     0.066 H 
ENDROOT
BRANCH   1  23
ATOM     23  C   LIG d   1       3.517  -2.372  -9.549  0.00  0.00     0.021 A 
ATOM     24  C   LIG d   1       3.388  -3.736  -9.826  0.00  0.00    -0.047 A 
ATOM     25  C   LIG d   1       3.191  -4.159 -11.122  0.00  0.00    -0.016 A 
ATOM     26  H   LIG d   1       3.437  -4.457  -9.023  0.00  0.00     0.063 H 
ATOM     27  C   LIG d   1       3.132  -3.236 -12.157  0.00  0.00     0.162 A 
ATOM     28  H   LIG d   1       3.087  -5.214 -11.335  0.00  0.00     0.066 H 
ATOM     29  C   LIG d   1       3.267  -1.874 -11.889  0.00  0.00     0.162 A 
ATOM     30  C   LIG d   1       3.458  -1.442 -10.591  0.00  0.00    -0.006 A 
ATOM     31  H   LIG d   1       3.562  -0.387 -10.381  0.00  0.00     0.066 H 
BRANCH  27  32
ATOM     32  O   LIG d   1       2.943  -3.659 -13.434  0.00  0.00    -0.491 OA
BRANCH  32  33
ATOM     33  C   LIG d   1       4.031  -4.344 -14.058  0.00  0.00     0.079 C 
ATOM     34  H   LIG d   1       3.730  -5.366 -14.292  0.00  0.00     0.066 H 
ATOM     35  H   LIG d   1       4.307  -3.827 -14.977  0.00  0.00     0.066 H 
ATOM     36  H   LIG d   1       4.885  -4.362 -13.381  0.00  0.00     0.066 H 
ENDBRANCH  32  33
ENDBRANCH  27  32
BRANCH  29  37
ATOM     37  O   LIG d   1       3.209  -0.972 -12.905  0.00  0.00    -0.491 OA
BRANCH  37  38
ATOM     38  C   LIG d   1       4.453  -0.528 -13.450  0.00  0.00     0.079 C 
ATOM     39  H   LIG d   1       5.008   0.020 -12.689  0.00  0.00     0.066 H 
ATOM     40  H   LIG d   1       5.035  -1.389 -13.776  0.00  0.00     0.066 H 
ATOM     41  H   LIG d   1       4.262   0.125 -14.302  0.00  0.00     0.066 H 
ENDBRANCH  37  38
ENDBRANCH  29  37
ENDBRANCH   1  23
TORSDOF 5
ENDMDL
