MODEL 1
REMARK VINA RESULT:      -7.1      0.000      0.000
REMARK  9 active torsions:
REMARK  status: ('A' for Active; 'I' for Inactive)
REMARK    1  A    between atoms: C_1  and  C_2 
REMARK    2  A    between atoms: C_2  and  C_3 
REMARK    3  A    between atoms: C_3  and  C_5 
REMARK    4  A    between atoms: C_3  and  C_6 
REMARK    5  A    between atoms: C_6  and  C_8 
REMARK    6  A    between atoms: C_6  and  N_21 
REMARK       I    between atoms: C_8  and  N_10 
REMARK       I    between atoms: N_10  and  C_11 
REMARK       I    between atoms: C_11  and  N_13 
REMARK    7  A    between atoms: N_13  and  C_14 
REMARK    8  A    between atoms: C_14  and  C_15 
REMARK       I    between atoms: N_21  and  C_22 
REMARK    9  A    between atoms: C_22  and  C_24 
ROOT
ATOM      1  C   LIG d   1       4.544  -1.987  -4.123  0.00  0.00     0.102 C 
ATOM      2  H   LIG d   1       5.586  -2.039  -3.809  0.00  0.00     0.060 H 
ENDROOT
BRANCH   1   3
ATOM      3  C   LIG d   1       3.668  -1.613  -2.926  0.00  0.00    -0.017 C 
ATOM      4  H   LIG d   1       3.176  -2.507  -2.542  0.00  0.00     0.032 H 
BRANCH   3   5
ATOM      5  C   LIG d   1       4.539  -0.999  -1.829  0.00  0.00    -0.051 C 
ATOM      6  H   LIG d   1       4.265  -1.428  -0.864  0.00  0.00     0.027 H 
ATOM      7  H   LIG d   1       5.587  -1.211  -2.036  0.00  0.00     0.027 H 
BRANCH   5   8
ATOM      8  C   LIG d   1       4.322   0.516  -1.792  0.00  0.00    -0.065 C 
ATOM      9  H   LIG d   1       5.041   0.969  -1.111  0.00  0.00     0.023 H 
ATOM     10  H   LIG d   1       4.460   0.926  -2.792  0.00  0.00     0.023 H 
ATOM     11  H   LIG d   1       3.310   0.729  -1.448  0.00  0.00     0.023 H 
ENDBRANCH   5   8
ENDBRANCH   3   5
BRANCH   3  12
ATOM     12  C   LIG d   1       2.611  -0.599  -3.366  0.00  0.00    -0.060 C 
ATOM     13  H   LIG d   1       2.708  -0.413  -4.435  0.00  0.00     0.023 H 
ATOM     14  H   LIG d   1       1.618  -0.994  -3.155  0.00  0.00     0.023 H 
ATOM     15  H   LIG d   1       2.754   0.335  -2.820  0.00  0.00     0.023 H 
ENDBRANCH   3  12
ENDBRANCH   1   3
BRANCH   1  16
ATOM     16  C   LIG d   1       4.396  -0.945  -5.201  0.00  0.00     0.241 C 
ATOM     17  O   LIG d   1       5.055   0.072  -5.157  0.00  0.00    -0.273 OA
ATOM     18  N   LIG d   1       3.531  -1.144  -6.216  0.00  0.00    -0.239 N 
ATOM     19  C   LIG d   1       3.399  -0.211  -7.180  0.00  0.00     0.306 C 
ATOM     20  H   LIG d   1       3.003  -1.957  -6.251  0.00  0.00     0.159 HD
ATOM     21  O   LIG d   1       4.059   0.808  -7.136  0.00  0.00    -0.252 OA
ATOM     22  N   LIG d   1       2.532  -0.410  -8.194  0.00  0.00    -0.295 N 
ATOM     23  H   LIG d   1       2.005  -1.223  -8.230  0.00  0.00     0.151 HD
BRANCH  22  24
ATOM     24  C   LIG d   1       2.388   0.603  -9.242  0.00  0.00     0.038 C 
ATOM     25  H   LIG d   1       1.354   0.944  -9.279  0.00  0.00     0.051 H 
ATOM     26  H   LIG d   1       3.042   1.447  -9.025  0.00  0.00     0.051 H 
BRANCH  24  27
ATOM     27  C   LIG d   1       2.767   0.005 -10.573  0.00  0.00    -0.030 A 
ATOM     28  C   LIG d   1       3.949   0.376 -11.186  0.00  0.00    -0.057 A 
ATOM     29  C   LIG d   1       4.295  -0.172 -12.408  0.00  0.00    -0.061 A 
ATOM     30  H   LIG d   1       4.601   1.093 -10.712  0.00  0.00     0.062 H 
ATOM     31  C   LIG d   1       3.459  -1.090 -13.015  0.00  0.00    -0.062 A 
ATOM     32  H   LIG d   1       5.219   0.117 -12.887  0.00  0.00     0.062 H 
ATOM     33  C   LIG d   1       2.278  -1.461 -12.402  0.00  0.00    -0.061 A 
ATOM     34  H   LIG d   1       3.730  -1.519 -13.970  0.00  0.00     0.062 H 
ATOM     35  C   LIG d   1       1.933  -0.917 -11.179  0.00  0.00    -0.057 A 
ATOM     36  H   LIG d   1       1.624  -2.179 -12.876  0.00  0.00     0.062 H 
ATOM     37  H   LIG d   1       1.012  -1.210 -10.697  0.00  0.00     0.062 H 
ENDBRANCH  24  27
ENDBRANCH  22  24
ENDBRANCH   1  16
BRANCH   1  38
ATOM     38  N   LIG d   1       4.126  -3.291  -4.645  0.00  0.00    -0.304 N 
ATOM     39  C   LIG d   1       5.051  -4.198  -5.016  0.00  0.00     0.210 C 
ATOM     40  O   LIG d   1       6.231  -3.936  -4.913  0.00  0.00    -0.276 OA
ATOM     41  H   LIG d   1       3.182  -3.500  -4.727  0.00  0.00     0.149 HD
BRANCH  39  42
ATOM     42  C   LIG d   1       4.622  -5.536  -5.559  0.00  0.00     0.012 C 
ATOM     43  H   LIG d   1       4.180  -5.401  -6.546  0.00  0.00     0.032 H 
ATOM     44  H   LIG d   1       5.487  -6.192  -5.634  0.00  0.00     0.032 H 
ATOM     45  H   LIG d   1       3.884  -5.979  -4.889  0.00  0.00     0.032 H 
ENDBRANCH  39  42
ENDBRANCH   1  38
TORSDOF 9
ENDMDL
MODEL 2
REMARK VINA RESULT:      -6.8      2.454      7.770
REMARK  9 active torsions:
REMARK  status: ('A' for Active; 'I' for Inactive)
REMARK    1  A    between atoms: C_1  and  C_2 
REMARK    2  A    between atoms: C_2  and  C_3 
REMARK    3  A    between atoms: C_3  and  C_5 
REMARK    4  A    between atoms: C_3  and  C_6 
REMARK    5  A    between atoms: C_6  and  C_8 
REMARK    6  A    between atoms: C_6  and  N_21 
REMARK       I    between atoms: C_8  and  N_10 
REMARK       I    between atoms: N_10  and  C_11 
REMARK       I    between atoms: C_11  and  N_13 
REMARK    7  A    between atoms: N_13  and  C_14 
REMARK    8  A    between atoms: C_14  and  C_15 
REMARK       I    between atoms: N_21  and  C_22 
REMARK    9  A    between atoms: C_22  and  C_24 
ROOT
ATOM      1  C   LIG d   1       2.965  -1.291 -10.490  0.00  0.00     0.102 C 
ATOM      2  H   LIG d   1       3.655  -2.116 -10.321  0.00  0.00     0.060 H 
ENDROOT
BRANCH   1   3
ATOM      3  C   LIG d   1       1.535  -1.829 -10.569  0.00  0.00    -0.017 C 
ATOM      4  H   LIG d   1       1.005  -1.591  -9.647  0.00  0.00     0.032 H 
BRANCH   3   5
ATOM      5  C   LIG d   1       0.813  -1.186 -11.754  0.00  0.00    -0.051 C 
ATOM      6  H   LIG d   1      -0.032  -0.600 -11.389  0.00  0.00     0.027 H 
ATOM      7  H   LIG d   1       1.502  -0.534 -12.289  0.00  0.00     0.027 H 
BRANCH   5   8
ATOM      8  C   LIG d   1       0.305  -2.279 -12.698  0.00  0.00    -0.065 C 
ATOM      9  H   LIG d   1       0.081  -3.178 -12.125  0.00  0.00     0.023 H 
ATOM     10  H   LIG d   1      -0.597  -1.933 -13.200  0.00  0.00     0.023 H 
ATOM     11  H   LIG d   1       1.072  -2.502 -13.440  0.00  0.00     0.023 H 
ENDBRANCH   5   8
ENDBRANCH   3   5
BRANCH   3  12
ATOM     12  C   LIG d   1       1.572  -3.347 -10.758  0.00  0.00    -0.060 C 
ATOM     13  H   LIG d   1       1.988  -3.814  -9.865  0.00  0.00     0.023 H 
ATOM     14  H   LIG d   1       0.561  -3.718 -10.924  0.00  0.00     0.023 H 
ATOM     15  H   LIG d   1       2.195  -3.591 -11.620  0.00  0.00     0.023 H 
ENDBRANCH   3  12
ENDBRANCH   1   3
BRANCH   1  16
ATOM     16  C   LIG d   1       3.070  -0.308  -9.353  0.00  0.00     0.241 C 
ATOM     17  O   LIG d   1       3.524   0.800  -9.547  0.00  0.00    -0.273 OA
ATOM     18  N   LIG d   1       2.656  -0.659  -8.118  0.00  0.00    -0.239 N 
ATOM     19  C   LIG d   1       2.749   0.220  -7.101  0.00  0.00     0.306 C 
ATOM     20  H   LIG d   1       2.293  -1.545  -7.963  0.00  0.00     0.159 HD
ATOM     21  O   LIG d   1       3.205   1.330  -7.296  0.00  0.00    -0.252 OA
ATOM     22  N   LIG d   1       2.337  -0.132  -5.867  0.00  0.00    -0.295 N 
ATOM     23  H   LIG d   1       1.974  -1.018  -5.711  0.00  0.00     0.151 HD
BRANCH  22  24
ATOM     24  C   LIG d   1       2.438   0.823  -4.761  0.00  0.00     0.038 C 
ATOM     25  H   LIG d   1       2.969   1.714  -5.098  0.00  0.00     0.051 H 
ATOM     26  H   LIG d   1       1.439   1.100  -4.427  0.00  0.00     0.051 H 
BRANCH  24  27
ATOM     27  C   LIG d   1       3.193   0.193  -3.619  0.00  0.00    -0.030 A 
ATOM     28  C   LIG d   1       3.144  -1.176  -3.431  0.00  0.00    -0.057 A 
ATOM     29  C   LIG d   1       3.835  -1.754  -2.382  0.00  0.00    -0.061 A 
ATOM     30  H   LIG d   1       2.565  -1.793  -4.101  0.00  0.00     0.062 H 
ATOM     31  C   LIG d   1       4.576  -0.963  -1.523  0.00  0.00    -0.062 A 
ATOM     32  H   LIG d   1       3.797  -2.823  -2.234  0.00  0.00     0.062 H 
ATOM     33  C   LIG d   1       4.625   0.405  -1.712  0.00  0.00    -0.061 A 
ATOM     34  H   LIG d   1       5.117  -1.415  -0.704  0.00  0.00     0.062 H 
ATOM     35  C   LIG d   1       3.938   0.983  -2.763  0.00  0.00    -0.057 A 
ATOM     36  H   LIG d   1       5.204   1.023  -1.041  0.00  0.00     0.062 H 
ATOM     37  H   LIG d   1       3.979   2.051  -2.913  0.00  0.00     0.062 H 
ENDBRANCH  24  27
ENDBRANCH  22  24
ENDBRANCH   1  16
BRANCH   1  38
ATOM     38  N   LIG d   1       3.304  -0.619 -11.747  0.00  0.00    -0.304 N 
ATOM     39  C   LIG d   1       4.215  -1.164 -12.579  0.00  0.00     0.210 C 
ATOM     40  O   LIG d   1       4.749  -2.213 -12.287  0.00  0.00    -0.276 OA
ATOM     41  H   LIG d   1       2.876   0.219 -11.980  0.00  0.00     0.149 HD
BRANCH  39  42
ATOM     42  C   LIG d   1       4.568  -0.470 -13.868  0.00  0.00     0.012 C 
ATOM     43  H   LIG d   1       4.917  -1.206 -14.592  0.00  0.00     0.032 H 
ATOM     44  H   LIG d   1       3.689   0.038 -14.261  0.00  0.00     0.032 H 
ATOM     45  H   LIG d   1       5.358   0.259 -13.683  0.00  0.00     0.032 H 
ENDBRANCH  39  42
ENDBRANCH   1  38
TORSDOF 9
ENDMDL
MODEL 3
REMARK VINA RESULT:      -6.8      2.259      7.448
REMARK  9 active torsions:
REMARK  status: ('A' for Active; 'I' for Inactive)
REMARK    1  A    between atoms: C_1  and  C_2 
REMARK    2  A    between atoms: C_2  and  C_3 
REMARK    3  A    between atoms: C_3  and  C_5 
REMARK    4  A    between atoms: C_3  and  C_6 
REMARK    5  A    between atoms: C_6  and  C_8 
REMARK    6  A    between atoms: C_6  and  N_21 
REMARK       I    between atoms: C_8  and  N_10 
REMARK       I    between atoms: N_10  and  C_11 
REMARK       I    between atoms: C_11  and  N_13 
REMARK    7  A    between atoms: N_13  and  C_14 
REMARK    8  A    between atoms: C_14  and  C_15 
REMARK       I    between atoms: N_21  and  C_22 
REMARK    9  A    between atoms: C_22  and  C_24 
ROOT
ATOM      1  C   LIG d   1       3.026  -1.419 -10.442  0.00  0.00     0.102 C 
ATOM      2  H   LIG d   1       2.413  -2.263 -10.129  0.00  0.00     0.060 H 
ENDROOT
BRANCH   1   3
ATOM      3  C   LIG d   1       2.409  -0.775 -11.685  0.00  0.00    -0.017 C 
ATOM      4  H   LIG d   1       2.459   0.311 -11.594  0.00  0.00     0.032 H 
BRANCH   3   5
ATOM      5  C   LIG d   1       3.184  -1.218 -12.927  0.00  0.00    -0.051 C 
ATOM      6  H   LIG d   1       3.460  -0.342 -13.515  0.00  0.00     0.027 H 
ATOM      7  H   LIG d   1       4.084  -1.749 -12.623  0.00  0.00     0.027 H 
BRANCH   5   8
ATOM      8  C   LIG d   1       2.306  -2.144 -13.773  0.00  0.00    -0.065 C 
ATOM      9  H   LIG d   1       2.097  -3.056 -13.215  0.00  0.00     0.023 H 
ATOM     10  H   LIG d   1       1.369  -1.639 -14.008  0.00  0.00     0.023 H 
ATOM     11  H   LIG d   1       2.827  -2.393 -14.697  0.00  0.00     0.023 H 
ENDBRANCH   5   8
ENDBRANCH   3   5
BRANCH   3  12
ATOM     12  C   LIG d   1       0.948  -1.209 -11.813  0.00  0.00    -0.060 C 
ATOM     13  H   LIG d   1       0.618  -1.656 -10.875  0.00  0.00     0.023 H 
ATOM     14  H   LIG d   1       0.329  -0.341 -12.038  0.00  0.00     0.023 H 
ATOM     15  H   LIG d   1       0.856  -1.940 -12.617  0.00  0.00     0.023 H 
ENDBRANCH   3  12
ENDBRANCH   1   3
BRANCH   1  16
ATOM     16  C   LIG d   1       3.091  -0.405  -9.329  0.00  0.00     0.241 C 
ATOM     17  O   LIG d   1       3.504   0.713  -9.551  0.00  0.00    -0.273 OA
ATOM     18  N   LIG d   1       2.687  -0.741  -8.087  0.00  0.00    -0.239 N 
ATOM     19  C   LIG d   1       2.745   0.167  -7.092  0.00  0.00     0.306 C 
ATOM     20  H   LIG d   1       2.356  -1.636  -7.911  0.00  0.00     0.159 HD
ATOM     21  O   LIG d   1       3.160   1.287  -7.314  0.00  0.00    -0.252 OA
ATOM     22  N   LIG d   1       2.343  -0.171  -5.851  0.00  0.00    -0.295 N 
ATOM     23  H   LIG d   1       2.012  -1.064  -5.673  0.00  0.00     0.151 HD
BRANCH  22  24
ATOM     24  C   LIG d   1       2.405   0.815  -4.769  0.00  0.00     0.038 C 
ATOM     25  H   LIG d   1       2.898   1.719  -5.128  0.00  0.00     0.051 H 
ATOM     26  H   LIG d   1       1.396   1.059  -4.439  0.00  0.00     0.051 H 
BRANCH  24  27
ATOM     27  C   LIG d   1       3.186   0.245  -3.613  0.00  0.00    -0.030 A 
ATOM     28  C   LIG d   1       3.190  -1.119  -3.388  0.00  0.00    -0.057 A 
ATOM     29  C   LIG d   1       3.906  -1.642  -2.327  0.00  0.00    -0.061 A 
ATOM     30  H   LIG d   1       2.633  -1.775  -4.038  0.00  0.00     0.062 H 
ATOM     31  C   LIG d   1       4.619  -0.802  -1.492  0.00  0.00    -0.062 A 
ATOM     32  H   LIG d   1       3.908  -2.708  -2.150  0.00  0.00     0.062 H 
ATOM     33  C   LIG d   1       4.616   0.562  -1.718  0.00  0.00    -0.061 A 
ATOM     34  H   LIG d   1       5.178  -1.210  -0.663  0.00  0.00     0.062 H 
ATOM     35  C   LIG d   1       3.904   1.085  -2.781  0.00  0.00    -0.057 A 
ATOM     36  H   LIG d   1       5.173   1.219  -1.067  0.00  0.00     0.062 H 
ATOM     37  H   LIG d   1       3.905   2.149  -2.961  0.00  0.00     0.062 H 
ENDBRANCH  24  27
ENDBRANCH  22  24
ENDBRANCH   1  16
BRANCH   1  38
ATOM     38  N   LIG d   1       4.378  -1.887 -10.755  0.00  0.00    -0.304 N 
ATOM     39  C   LIG d   1       4.923  -2.897 -10.048  0.00  0.00     0.210 C 
ATOM     40  O   LIG d   1       4.290  -3.422  -9.156  0.00  0.00    -0.276 OA
ATOM     41  H   LIG d   1       4.884  -1.468 -11.469  0.00  0.00     0.149 HD
BRANCH  39  42
ATOM     42  C   LIG d   1       6.316  -3.374 -10.365  0.00  0.00     0.012 C 
ATOM     43  H   LIG d   1       6.348  -4.462 -10.310  0.00  0.00     0.032 H 
ATOM     44  H   LIG d   1       6.591  -3.052 -11.369  0.00  0.00     0.032 H 
ATOM     45  H   LIG d   1       7.017  -2.954  -9.643  0.00  0.00     0.032 H 
ENDBRANCH  39  42
ENDBRANCH   1  38
TORSDOF 9
ENDMDL
MODEL 4
REMARK VINA RESULT:      -6.8      4.794      7.522
REMARK  9 active torsions:
REMARK  status: ('A' for Active; 'I' for Inactive)
REMARK    1  A    between atoms: C_1  and  C_2 
REMARK    2  A    between atoms: C_2  and  C_3 
REMARK    3  A    between atoms: C_3  and  C_5 
REMARK    4  A    between atoms: C_3  and  C_6 
REMARK    5  A    between atoms: C_6  and  C_8 
REMARK    6  A    between atoms: C_6  and  N_21 
REMARK       I    between atoms: C_8  and  N_10 
REMARK       I    between atoms: N_10  and  C_11 
REMARK       I    between atoms: C_11  and  N_13 
REMARK    7  A    between atoms: N_13  and  C_14 
REMARK    8  A    between atoms: C_14  and  C_15 
REMARK       I    between atoms: N_21  and  C_22 
REMARK    9  A    between atoms: C_22  and  C_24 
ROOT
ATOM      1  C   LIG d   1       5.090  -0.976  -4.240  0.00  0.00     0.102 C 
ATOM      2  H   LIG d   1       5.078  -1.989  -4.639  0.00  0.00     0.060 H 
ENDROOT
BRANCH   1   3
ATOM      3  C   LIG d   1       4.628  -0.996  -2.782  0.00  0.00    -0.017 C 
ATOM      4  H   LIG d   1       5.497  -0.954  -2.124  0.00  0.00     0.032 H 
BRANCH   3   5
ATOM      5  C   LIG d   1       3.728   0.211  -2.515  0.00  0.00    -0.051 C 
ATOM      6  H   LIG d   1       3.468   0.687  -3.461  0.00  0.00     0.027 H 
ATOM      7  H   LIG d   1       2.819  -0.118  -2.012  0.00  0.00     0.027 H 
BRANCH   5   8
ATOM      8  C   LIG d   1       4.468   1.214  -1.627  0.00  0.00    -0.065 C 
ATOM      9  H   LIG d   1       5.175   0.683  -0.991  0.00  0.00     0.023 H 
ATOM     10  H   LIG d   1       5.006   1.925  -2.253  0.00  0.00     0.023 H 
ATOM     11  H   LIG d   1       3.749   1.748  -1.005  0.00  0.00     0.023 H 
ENDBRANCH   5   8
ENDBRANCH   3   5
BRANCH   3  12
ATOM     12  C   LIG d   1       3.848  -2.284  -2.512  0.00  0.00    -0.060 C 
ATOM     13  H   LIG d   1       3.220  -2.515  -3.372  0.00  0.00     0.023 H 
ATOM     14  H   LIG d   1       4.546  -3.103  -2.341  0.00  0.00     0.023 H 
ATOM     15  H   LIG d   1       3.221  -2.151  -1.629  0.00  0.00     0.023 H 
ENDBRANCH   3  12
ENDBRANCH   1   3
BRANCH   1  16
ATOM     16  C   LIG d   1       6.489  -0.422  -4.317  0.00  0.00     0.241 C 
ATOM     17  O   LIG d   1       7.439  -1.134  -4.071  0.00  0.00    -0.273 OA
ATOM     18  N   LIG d   1       6.685   0.867  -4.662  0.00  0.00    -0.239 N 
ATOM     19  C   LIG d   1       7.937   1.363  -4.731  0.00  0.00     0.306 C 
ATOM     20  H   LIG d   1       5.925   1.438  -4.858  0.00  0.00     0.159 HD
ATOM     21  O   LIG d   1       8.888   0.649  -4.484  0.00  0.00    -0.252 OA
ATOM     22  N   LIG d   1       8.132   2.652  -5.074  0.00  0.00    -0.295 N 
ATOM     23  H   LIG d   1       7.373   3.222  -5.271  0.00  0.00     0.151 HD
BRANCH  22  24
ATOM     24  C   LIG d   1       9.492   3.190  -5.150  0.00  0.00     0.038 C 
ATOM     25  H   LIG d   1      10.206   2.416  -4.868  0.00  0.00     0.051 H 
ATOM     26  H   LIG d   1       9.697   3.520  -6.168  0.00  0.00     0.051 H 
BRANCH  24  27
ATOM     27  C   LIG d   1       9.623   4.359  -4.208  0.00  0.00    -0.030 A 
ATOM     28  C   LIG d   1      10.037   4.154  -2.905  0.00  0.00    -0.057 A 
ATOM     29  C   LIG d   1      10.156   5.227  -2.041  0.00  0.00    -0.061 A 
ATOM     30  H   LIG d   1      10.266   3.157  -2.562  0.00  0.00     0.062 H 
ATOM     31  C   LIG d   1       9.862   6.504  -2.480  0.00  0.00    -0.062 A 
ATOM     32  H   LIG d   1      10.479   5.067  -1.022  0.00  0.00     0.062 H 
ATOM     33  C   LIG d   1       9.449   6.710  -3.782  0.00  0.00    -0.061 A 
ATOM     34  H   LIG d   1       9.955   7.343  -1.804  0.00  0.00     0.062 H 
ATOM     35  C   LIG d   1       9.334   5.638  -4.648  0.00  0.00    -0.057 A 
ATOM     36  H   LIG d   1       9.219   7.707  -4.126  0.00  0.00     0.062 H 
ATOM     37  H   LIG d   1       9.015   5.798  -5.667  0.00  0.00     0.062 H 
ENDBRANCH  24  27
ENDBRANCH  22  24
ENDBRANCH   1  16
BRANCH   1  38
ATOM     38  N   LIG d   1       4.187  -0.131  -5.026  0.00  0.00    -0.304 N 
ATOM     39  C   LIG d   1       3.828  -0.502  -6.271  0.00  0.00     0.210 C 
ATOM     40  O   LIG d   1       4.249  -1.540  -6.738  0.00  0.00    -0.276 OA
ATOM     41  H   LIG d   1       3.850   0.698  -4.652  0.00  0.00     0.149 HD
BRANCH  39  42
ATOM     42  C   LIG d   1       2.905   0.370  -7.082  0.00  0.00     0.012 C 
ATOM     43  H   LIG d   1       2.399  -0.238  -7.832  0.00  0.00     0.032 H 
ATOM     44  H   LIG d   1       2.167   0.827  -6.425  0.00  0.00     0.032 H 
ATOM     45  H   LIG d   1       3.485   1.150  -7.577  0.00  0.00     0.032 H 
ENDBRANCH  39  42
ENDBRANCH   1  38
TORSDOF 9
ENDMDL
MODEL 5
REMARK VINA RESULT:      -6.3      7.130     10.017
REMARK  9 active torsions:
REMARK  status: ('A' for Active; 'I' for Inactive)
REMARK    1  A    between atoms: C_1  and  C_2 
REMARK    2  A    between atoms: C_2  and  C_3 
REMARK    3  A    between atoms: C_3  and  C_5 
REMARK    4  A    between atoms: C_3  and  C_6 
REMARK    5  A    between atoms: C_6  and  C_8 
REMARK    6  A    between atoms: C_6  and  N_21 
REMARK       I    between atoms: C_8  and  N_10 
REMARK       I    between atoms: N_10  and  C_11 
REMARK       I    between atoms: C_11  and  N_13 
REMARK    7  A    between atoms: N_13  and  C_14 
REMARK    8  A    between atoms: C_14  and  C_15 
REMARK       I    between atoms: N_21  and  C_22 
REMARK    9  A    between atoms: C_22  and  C_24 
ROOT
ATOM      1  C   LIG d   1      10.856   5.264  -2.692  0.00  0.00     0.102 C 
ATOM      2  H   LIG d   1      11.039   4.773  -1.737  0.00  0.00     0.060 H 
ENDROOT
BRANCH   1   3
ATOM      3  C   LIG d   1      12.172   5.384  -3.463  0.00  0.00    -0.017 C 
ATOM      4  H   LIG d   1      12.187   4.653  -4.273  0.00  0.00     0.032 H 
BRANCH   3   5
ATOM      5  C   LIG d   1      12.296   6.793  -4.045  0.00  0.00    -0.051 C 
ATOM      6  H   LIG d   1      11.452   7.398  -3.713  0.00  0.00     0.027 H 
ATOM      7  H   LIG d   1      13.225   7.246  -3.704  0.00  0.00     0.027 H 
BRANCH   5   8
ATOM      8  C   LIG d   1      12.297   6.715  -5.574  0.00  0.00    -0.065 C 
ATOM      9  H   LIG d   1      11.279   6.555  -5.930  0.00  0.00     0.023 H 
ATOM     10  H   LIG d   1      12.682   7.648  -5.984  0.00  0.00     0.023 H 
ATOM     11  H   LIG d   1      12.929   5.888  -5.895  0.00  0.00     0.023 H 
ENDBRANCH   5   8
ENDBRANCH   3   5
BRANCH   3  12
ATOM     12  C   LIG d   1      13.344   5.118  -2.516  0.00  0.00    -0.060 C 
ATOM     13  H   LIG d   1      13.877   6.050  -2.327  0.00  0.00     0.023 H 
ATOM     14  H   LIG d   1      12.968   4.717  -1.576  0.00  0.00     0.023 H 
ATOM     15  H   LIG d   1      14.023   4.397  -2.973  0.00  0.00     0.023 H 
ENDBRANCH   3  12
ENDBRANCH   1   3
BRANCH   1  16
ATOM     16  C   LIG d   1       9.875   4.450  -3.495  0.00  0.00     0.241 C 
ATOM     17  O   LIG d   1       9.319   4.942  -4.454  0.00  0.00    -0.273 OA
ATOM     18  N   LIG d   1       9.616   3.172  -3.149  0.00  0.00    -0.239 N 
ATOM     19  C   LIG d   1       8.739   2.444  -3.867  0.00  0.00     0.306 C 
ATOM     20  H   LIG d   1      10.061   2.779  -2.382  0.00  0.00     0.159 HD
ATOM     21  O   LIG d   1       8.181   2.938  -4.828  0.00  0.00    -0.252 OA
ATOM     22  N   LIG d   1       8.480   1.168  -3.519  0.00  0.00    -0.295 N 
ATOM     23  H   LIG d   1       8.924   0.773  -2.753  0.00  0.00     0.151 HD
BRANCH  22  24
ATOM     24  C   LIG d   1       7.526   0.376  -4.301  0.00  0.00     0.038 C 
ATOM     25  H   LIG d   1       7.185   0.958  -5.157  0.00  0.00     0.051 H 
ATOM     26  H   LIG d   1       8.011  -0.535  -4.651  0.00  0.00     0.051 H 
BRANCH  24  27
ATOM     27  C   LIG d   1       6.345   0.016  -3.436  0.00  0.00    -0.030 A 
ATOM     28  C   LIG d   1       5.998  -1.310  -3.258  0.00  0.00    -0.057 A 
ATOM     29  C   LIG d   1       4.913  -1.639  -2.466  0.00  0.00    -0.061 A 
ATOM     30  H   LIG d   1       6.571  -2.087  -3.737  0.00  0.00     0.062 H 
ATOM     31  C   LIG d   1       4.177  -0.643  -1.852  0.00  0.00    -0.062 A 
ATOM     32  H   LIG d   1       4.641  -2.675  -2.326  0.00  0.00     0.062 H 
ATOM     33  C   LIG d   1       4.525   0.683  -2.030  0.00  0.00    -0.061 A 
ATOM     34  H   LIG d   1       3.330  -0.900  -1.233  0.00  0.00     0.062 H 
ATOM     35  C   LIG d   1       5.612   1.013  -2.818  0.00  0.00    -0.057 A 
ATOM     36  H   LIG d   1       3.951   1.462  -1.550  0.00  0.00     0.062 H 
ATOM     37  H   LIG d   1       5.887   2.048  -2.954  0.00  0.00     0.062 H 
ENDBRANCH  24  27
ENDBRANCH  22  24
ENDBRANCH   1  16
BRANCH   1  38
ATOM     38  N   LIG d   1      10.304   6.601  -2.458  0.00  0.00    -0.304 N 
ATOM     39  C   LIG d   1       9.989   6.990  -1.207  0.00  0.00     0.210 C 
ATOM     40  O   LIG d   1      10.168   6.235  -0.274  0.00  0.00    -0.276 OA
ATOM     41  H   LIG d   1      10.162   7.204  -3.204  0.00  0.00     0.149 HD
BRANCH  39  42
ATOM     42  C   LIG d   1       9.415   8.362  -0.966  0.00  0.00     0.012 C 
ATOM     43  H   LIG d   1       8.394   8.269  -0.598  0.00  0.00     0.032 H 
ATOM     44  H   LIG d   1      10.021   8.886  -0.229  0.00  0.00     0.032 H 
ATOM     45  H   LIG d   1       9.413   8.924  -1.901  0.00  0.00     0.032 H 
ENDBRANCH  39  42
ENDBRANCH   1  38
TORSDOF 9
ENDMDL
MODEL 6
REMARK VINA RESULT:      -6.1      4.896      6.125
REMARK  9 active torsions:
REMARK  status: ('A' for Active; 'I' for Inactive)
REMARK    1  A    between atoms: C_1  and  C_2 
REMARK    2  A    between atoms: C_2  and  C_3 
REMARK    3  A    between atoms: C_3  and  C_5 
REMARK    4  A    between atoms: C_3  and  C_6 
REMARK    5  A    between atoms: C_6  and  C_8 
REMARK    6  A    between atoms: C_6  and  N_21 
REMARK       I    between atoms: C_8  and  N_10 
REMARK       I    between atoms: N_10  and  C_11 
REMARK       I    between atoms: C_11  and  N_13 
REMARK    7  A    between atoms: N_13  and  C_14 
REMARK    8  A    between atoms: C_14  and  C_15 
REMARK       I    between atoms: N_21  and  C_22 
REMARK    9  A    between atoms: C_22  and  C_24 
ROOT
ATOM      1  C   LIG d   1       5.188  -0.838  -4.304  0.00  0.00     0.102 C 
ATOM      2  H   LIG d   1       5.297  -1.832  -4.734  0.00  0.00     0.060 H 
ENDROOT
BRANCH   1   3
ATOM      3  C   LIG d   1       4.704  -0.958  -2.857  0.00  0.00    -0.017 C 
ATOM      4  H   LIG d   1       5.561  -0.926  -2.183  0.00  0.00     0.032 H 
BRANCH   3   5
ATOM      5  C   LIG d   1       3.759   0.201  -2.537  0.00  0.00    -0.051 C 
ATOM      6  H   LIG d   1       3.473   0.703  -3.462  0.00  0.00     0.027 H 
ATOM      7  H   LIG d   1       2.868  -0.183  -2.043  0.00  0.00     0.027 H 
BRANCH   5   8
ATOM      8  C   LIG d   1       4.466   1.196  -1.615  0.00  0.00    -0.065 C 
ATOM      9  H   LIG d   1       5.358   1.580  -2.110  0.00  0.00     0.023 H 
ATOM     10  H   LIG d   1       3.793   2.022  -1.388  0.00  0.00     0.023 H 
ATOM     11  H   LIG d   1       4.751   0.695  -0.690  0.00  0.00     0.023 H 
ENDBRANCH   5   8
ENDBRANCH   3   5
BRANCH   3  12
ATOM     12  C   LIG d   1       3.964  -2.285  -2.677  0.00  0.00    -0.060 C 
ATOM     13  H   LIG d   1       4.548  -2.943  -2.033  0.00  0.00     0.023 H 
ATOM     14  H   LIG d   1       2.992  -2.100  -2.220  0.00  0.00     0.023 H 
ATOM     15  H   LIG d   1       3.825  -2.758  -3.649  0.00  0.00     0.023 H 
ENDBRANCH   3  12
ENDBRANCH   1   3
BRANCH   1  16
ATOM     16  C   LIG d   1       6.518  -0.130  -4.332  0.00  0.00     0.241 C 
ATOM     17  O   LIG d   1       7.294  -0.259  -3.409  0.00  0.00    -0.273 OA
ATOM     18  N   LIG d   1       6.846   0.646  -5.385  0.00  0.00    -0.239 N 
ATOM     19  C   LIG d   1       8.036   1.279  -5.410  0.00  0.00     0.306 C 
ATOM     20  H   LIG d   1       6.225   0.749  -6.123  0.00  0.00     0.159 HD
ATOM     21  O   LIG d   1       8.813   1.150  -4.485  0.00  0.00    -0.252 OA
ATOM     22  N   LIG d   1       8.362   2.055  -6.462  0.00  0.00    -0.295 N 
ATOM     23  H   LIG d   1       7.743   2.159  -7.201  0.00  0.00     0.151 HD
BRANCH  22  24
ATOM     24  C   LIG d   1       9.656   2.743  -6.491  0.00  0.00     0.038 C 
ATOM     25  H   LIG d   1       9.936   3.032  -5.478  0.00  0.00     0.051 H 
ATOM     26  H   LIG d   1      10.414   2.076  -6.901  0.00  0.00     0.051 H 
BRANCH  24  27
ATOM     27  C   LIG d   1       9.551   3.975  -7.352  0.00  0.00    -0.030 A 
ATOM     28  C   LIG d   1       9.056   3.878  -8.639  0.00  0.00    -0.057 A 
ATOM     29  C   LIG d   1       8.961   5.009  -9.430  0.00  0.00    -0.061 A 
ATOM     30  H   LIG d   1       8.745   2.921  -9.028  0.00  0.00     0.062 H 
ATOM     31  C   LIG d   1       9.360   6.235  -8.933  0.00  0.00    -0.062 A 
ATOM     32  H   LIG d   1       8.575   4.934 -10.436  0.00  0.00     0.062 H 
ATOM     33  C   LIG d   1       9.855   6.332  -7.646  0.00  0.00    -0.061 A 
ATOM     34  H   LIG d   1       9.286   7.119  -9.550  0.00  0.00     0.062 H 
ATOM     35  C   LIG d   1       9.946   5.203  -6.854  0.00  0.00    -0.057 A 
ATOM     36  H   LIG d   1      10.166   7.290  -7.257  0.00  0.00     0.062 H 
ATOM     37  H   LIG d   1      10.328   5.279  -5.847  0.00  0.00     0.062 H 
ENDBRANCH  24  27
ENDBRANCH  22  24
ENDBRANCH   1  16
BRANCH   1  38
ATOM     38  N   LIG d   1       4.212  -0.072  -5.083  0.00  0.00    -0.304 N 
ATOM     39  C   LIG d   1       3.806  -0.523  -6.286  0.00  0.00     0.210 C 
ATOM     40  O   LIG d   1       4.245  -1.567  -6.721  0.00  0.00    -0.276 OA
ATOM     41  H   LIG d   1       3.860   0.762  -4.734  0.00  0.00     0.149 HD
BRANCH  39  42
ATOM     42  C   LIG d   1       2.807   0.267  -7.090  0.00  0.00     0.012 C 
ATOM     43  H   LIG d   1       2.386   1.059  -6.470  0.00  0.00     0.032 H 
ATOM     44  H   LIG d   1       3.303   0.708  -7.954  0.00  0.00     0.032 H 
ATOM     45  H   LIG d   1       2.007  -0.393  -7.427  0.00  0.00     0.032 H 
ENDBRANCH  39  42
ENDBRANCH   1  38
TORSDOF 9
ENDMDL
MODEL 7
REMARK VINA RESULT:      -6.1      1.719      2.101
REMARK  9 active torsions:
REMARK  status: ('A' for Active; 'I' for Inactive)
REMARK    1  A    between atoms: C_1  and  C_2 
REMARK    2  A    between atoms: C_2  and  C_3 
REMARK    3  A    between atoms: C_3  and  C_5 
REMARK    4  A    between atoms: C_3  and  C_6 
REMARK    5  A    between atoms: C_6  and  C_8 
REMARK    6  A    between atoms: C_6  and  N_21 
REMARK       I    between atoms: C_8  and  N_10 
REMARK       I    between atoms: N_10  and  C_11 
REMARK       I    between atoms: C_11  and  N_13 
REMARK    7  A    between atoms: N_13  and  C_14 
REMARK    8  A    between atoms: C_14  and  C_15 
REMARK       I    between atoms: N_21  and  C_22 
REMARK    9  A    between atoms: C_22  and  C_24 
ROOT
ATOM      1  C   LIG d   1       4.853  -1.174  -4.095  0.00  0.00     0.102 C 
ATOM      2  H   LIG d   1       5.641  -0.527  -3.714  0.00  0.00     0.060 H 
ENDROOT
BRANCH   1   3
ATOM      3  C   LIG d   1       3.887  -1.523  -2.961  0.00  0.00    -0.017 C 
ATOM      4  H   LIG d   1       3.756  -2.605  -2.915  0.00  0.00     0.032 H 
BRANCH   3   5
ATOM      5  C   LIG d   1       4.457  -1.023  -1.633  0.00  0.00    -0.051 C 
ATOM      6  H   LIG d   1       3.775  -1.284  -0.823  0.00  0.00     0.027 H 
ATOM      7  H   LIG d   1       5.426  -1.487  -1.456  0.00  0.00     0.027 H 
BRANCH   5   8
ATOM      8  C   LIG d   1       4.622   0.498  -1.689  0.00  0.00    -0.065 C 
ATOM      9  H   LIG d   1       4.129   0.949  -0.829  0.00  0.00     0.023 H 
ATOM     10  H   LIG d   1       5.682   0.749  -1.672  0.00  0.00     0.023 H 
ATOM     11  H   LIG d   1       4.173   0.878  -2.607  0.00  0.00     0.023 H 
ENDBRANCH   5   8
ENDBRANCH   3   5
BRANCH   3  12
ATOM     12  C   LIG d   1       2.535  -0.856  -3.219  0.00  0.00    -0.060 C 
ATOM     13  H   LIG d   1       2.687   0.198  -3.447  0.00  0.00     0.023 H 
ATOM     14  H   LIG d   1       2.044  -1.343  -4.062  0.00  0.00     0.023 H 
ATOM     15  H   LIG d   1       1.908  -0.950  -2.331  0.00  0.00     0.023 H 
ENDBRANCH   3  12
ENDBRANCH   1   3
BRANCH   1  16
ATOM     16  C   LIG d   1       4.104  -0.462  -5.192  0.00  0.00     0.241 C 
ATOM     17  O   LIG d   1       3.809   0.707  -5.065  0.00  0.00    -0.273 OA
ATOM     18  N   LIG d   1       3.764  -1.125  -6.316  0.00  0.00    -0.239 N 
ATOM     19  C   LIG d   1       3.095  -0.488  -7.297  0.00  0.00     0.306 C 
ATOM     20  H   LIG d   1       4.000  -2.061  -6.417  0.00  0.00     0.159 HD
ATOM     21  O   LIG d   1       2.798   0.683  -7.170  0.00  0.00    -0.252 OA
ATOM     22  N   LIG d   1       2.754  -1.152  -8.419  0.00  0.00    -0.295 N 
ATOM     23  H   LIG d   1       2.990  -2.087  -8.522  0.00  0.00     0.151 HD
BRANCH  22  24
ATOM     24  C   LIG d   1       2.027  -0.460  -9.487  0.00  0.00     0.038 C 
ATOM     25  H   LIG d   1       1.199   0.104  -9.056  0.00  0.00     0.051 H 
ATOM     26  H   LIG d   1       2.702   0.222 -10.004  0.00  0.00     0.051 H 
BRANCH  24  27
ATOM     27  C   LIG d   1       1.488  -1.471 -10.465  0.00  0.00    -0.030 A 
ATOM     28  C   LIG d   1       1.532  -2.819 -10.161  0.00  0.00    -0.057 A 
ATOM     29  C   LIG d   1       1.039  -3.746 -11.060  0.00  0.00    -0.061 A 
ATOM     30  H   LIG d   1       1.953  -3.147  -9.224  0.00  0.00     0.062 H 
ATOM     31  C   LIG d   1       0.500  -3.326 -12.262  0.00  0.00    -0.062 A 
ATOM     32  H   LIG d   1       1.073  -4.800 -10.823  0.00  0.00     0.062 H 
ATOM     33  C   LIG d   1       0.455  -1.979 -12.566  0.00  0.00    -0.061 A 
ATOM     34  H   LIG d   1       0.114  -4.051 -12.964  0.00  0.00     0.062 H 
ATOM     35  C   LIG d   1       0.945  -1.051 -11.666  0.00  0.00    -0.057 A 
ATOM     36  H   LIG d   1       0.035  -1.649 -13.504  0.00  0.00     0.062 H 
ATOM     37  H   LIG d   1       0.906   0.003 -11.900  0.00  0.00     0.062 H 
ENDBRANCH  24  27
ENDBRANCH  22  24
ENDBRANCH   1  16
BRANCH   1  38
ATOM     38  N   LIG d   1       5.445  -2.404  -4.628  0.00  0.00    -0.304 N 
ATOM     39  C   LIG d   1       6.699  -2.754  -4.281  0.00  0.00     0.210 C 
ATOM     40  O   LIG d   1       7.336  -2.053  -3.524  0.00  0.00    -0.276 OA
ATOM     41  H   LIG d   1       4.935  -2.965  -5.233  0.00  0.00     0.149 HD
BRANCH  39  42
ATOM     42  C   LIG d   1       7.310  -4.015  -4.835  0.00  0.00     0.012 C 
ATOM     43  H   LIG d   1       7.274  -4.798  -4.077  0.00  0.00     0.032 H 
ATOM     44  H   LIG d   1       6.753  -4.333  -5.714  0.00  0.00     0.032 H 
ATOM     45  H   LIG d   1       8.348  -3.825  -5.110  0.00  0.00     0.032 H 
ENDBRANCH  39  42
ENDBRANCH   1  38
TORSDOF 9
ENDMDL
MODEL 8
REMARK VINA RESULT:      -6.1      2.952      7.617
REMARK  9 active torsions:
REMARK  status: ('A' for Active; 'I' for Inactive)
REMARK    1  A    between atoms: C_1  and  C_2 
REMARK    2  A    between atoms: C_2  and  C_3 
REMARK    3  A    between atoms: C_3  and  C_5 
REMARK    4  A    between atoms: C_3  and  C_6 
REMARK    5  A    between atoms: C_6  and  C_8 
REMARK    6  A    between atoms: C_6  and  N_21 
REMARK       I    between atoms: C_8  and  N_10 
REMARK       I    between atoms: N_10  and  C_11 
REMARK       I    between atoms: C_11  and  N_13 
REMARK    7  A    between atoms: N_13  and  C_14 
REMARK    8  A    between atoms: C_14  and  C_15 
REMARK       I    between atoms: N_21  and  C_22 
REMARK    9  A    between atoms: C_22  and  C_24 
ROOT
ATOM      1  C   LIG d   1       3.650  -4.711  -8.754  0.00  0.00     0.102 C 
ATOM      2  H   LIG d   1       4.541  -4.458  -9.327  0.00  0.00     0.060 H 
ENDROOT
BRANCH   1   3
ATOM      3  C   LIG d   1       3.235  -6.150  -9.067  0.00  0.00    -0.017 C 
ATOM      4  H   LIG d   1       2.904  -6.640  -8.151  0.00  0.00     0.032 H 
BRANCH   3   5
ATOM      5  C   LIG d   1       2.091  -6.142 -10.082  0.00  0.00    -0.051 C 
ATOM      6  H   LIG d   1       1.304  -5.470  -9.738  0.00  0.00     0.027 H 
ATOM      7  H   LIG d   1       2.465  -5.799 -11.047  0.00  0.00     0.027 H 
BRANCH   5   8
ATOM      8  C   LIG d   1       1.526  -7.557 -10.227  0.00  0.00    -0.065 C 
ATOM      9  H   LIG d   1       2.338  -8.280 -10.165  0.00  0.00     0.023 H 
ATOM     10  H   LIG d   1       0.811  -7.745  -9.426  0.00  0.00     0.023 H 
ATOM     11  H   LIG d   1       1.026  -7.651 -11.191  0.00  0.00     0.023 H 
ENDBRANCH   5   8
ENDBRANCH   3   5
BRANCH   3  12
ATOM     12  C   LIG d   1       4.428  -6.910  -9.649  0.00  0.00    -0.060 C 
ATOM     13  H   LIG d   1       4.731  -7.696  -8.957  0.00  0.00     0.023 H 
ATOM     14  H   LIG d   1       4.147  -7.354 -10.603  0.00  0.00     0.023 H 
ATOM     15  H   LIG d   1       5.259  -6.220  -9.800  0.00  0.00     0.023 H 
ENDBRANCH   3  12
ENDBRANCH   1   3
BRANCH   1  16
ATOM     16  C   LIG d   1       3.946  -4.582  -7.282  0.00  0.00     0.241 C 
ATOM     17  O   LIG d   1       3.363  -5.282  -6.482  0.00  0.00    -0.273 OA
ATOM     18  N   LIG d   1       4.862  -3.688  -6.855  0.00  0.00    -0.239 N 
ATOM     19  C   LIG d   1       5.127  -3.573  -5.539  0.00  0.00     0.306 C 
ATOM     20  H   LIG d   1       5.328  -3.128  -7.496  0.00  0.00     0.159 HD
ATOM     21  O   LIG d   1       4.542  -4.274  -4.736  0.00  0.00    -0.252 OA
ATOM     22  N   LIG d   1       6.041  -2.678  -5.113  0.00  0.00    -0.295 N 
ATOM     23  H   LIG d   1       6.507  -2.119  -5.752  0.00  0.00     0.151 HD
BRANCH  22  24
ATOM     24  C   LIG d   1       6.330  -2.553  -3.682  0.00  0.00     0.038 C 
ATOM     25  H   LIG d   1       5.918  -3.412  -3.151  0.00  0.00     0.051 H 
ATOM     26  H   LIG d   1       7.408  -2.515  -3.530  0.00  0.00     0.051 H 
BRANCH  24  27
ATOM     27  C   LIG d   1       5.703  -1.289  -3.151  0.00  0.00    -0.030 A 
ATOM     28  C   LIG d   1       6.310  -0.068  -3.381  0.00  0.00    -0.057 A 
ATOM     29  C   LIG d   1       5.735   1.091  -2.894  0.00  0.00    -0.061 A 
ATOM     30  H   LIG d   1       7.231  -0.020  -3.940  0.00  0.00     0.062 H 
ATOM     31  C   LIG d   1       4.554   1.029  -2.178  0.00  0.00    -0.062 A 
ATOM     32  H   LIG d   1       6.208   2.045  -3.073  0.00  0.00     0.062 H 
ATOM     33  C   LIG d   1       3.948  -0.191  -1.949  0.00  0.00    -0.061 A 
ATOM     34  H   LIG d   1       4.105   1.935  -1.797  0.00  0.00     0.062 H 
ATOM     35  C   LIG d   1       4.519  -1.350  -2.439  0.00  0.00    -0.057 A 
ATOM     36  H   LIG d   1       3.025  -0.240  -1.390  0.00  0.00     0.062 H 
ATOM     37  H   LIG d   1       4.044  -2.303  -2.265  0.00  0.00     0.062 H 
ENDBRANCH  24  27
ENDBRANCH  22  24
ENDBRANCH   1  16
BRANCH   1  38
ATOM     38  N   LIG d   1       2.561  -3.800  -9.114  0.00  0.00    -0.304 N 
ATOM     39  C   LIG d   1       2.837  -2.539  -9.501  0.00  0.00     0.210 C 
ATOM     40  O   LIG d   1       3.988  -2.160  -9.556  0.00  0.00    -0.276 OA
ATOM     41  H   LIG d   1       1.641  -4.103  -9.070  0.00  0.00     0.149 HD
BRANCH  39  42
ATOM     42  C   LIG d   1       1.717  -1.599  -9.865  0.00  0.00     0.012 C 
ATOM     43  H   LIG d   1       2.116  -0.765 -10.442  0.00  0.00     0.032 H 
ATOM     44  H   LIG d   1       0.975  -2.131 -10.459  0.00  0.00     0.032 H 
ATOM     45  H   LIG d   1       1.251  -1.221  -8.955  0.00  0.00     0.032 H 
ENDBRANCH  39  42
ENDBRANCH   1  38
TORSDOF 9
ENDMDL
MODEL 9
REMARK VINA RESULT:      -6.1      5.185      7.212
REMARK  9 active torsions:
REMARK  status: ('A' for Active; 'I' for Inactive)
REMARK    1  A    between atoms: C_1  and  C_2 
REMARK    2  A    between atoms: C_2  and  C_3 
REMARK    3  A    between atoms: C_3  and  C_5 
REMARK    4  A    between atoms: C_3  and  C_6 
REMARK    5  A    between atoms: C_6  and  C_8 
REMARK    6  A    between atoms: C_6  and  N_21 
REMARK       I    between atoms: C_8  and  N_10 
REMARK       I    between atoms: N_10  and  C_11 
REMARK       I    between atoms: C_11  and  N_13 
REMARK    7  A    between atoms: N_13  and  C_14 
REMARK    8  A    between atoms: C_14  and  C_15 
REMARK       I    between atoms: N_21  and  C_22 
REMARK    9  A    between atoms: C_22  and  C_24 
ROOT
ATOM      1  C   LIG d   1       5.868  -0.949  -3.520  0.00  0.00     0.102 C 
ATOM      2  H   LIG d   1       5.252  -0.692  -4.380  0.00  0.00     0.060 H 
ENDROOT
BRANCH   1   3
ATOM      3  C   LIG d   1       4.972  -1.174  -2.300  0.00  0.00    -0.017 C 
ATOM      4  H   LIG d   1       5.509  -1.768  -1.560  0.00  0.00     0.032 H 
BRANCH   3   5
ATOM      5  C   LIG d   1       4.591   0.176  -1.692  0.00  0.00    -0.051 C 
ATOM      6  H   LIG d   1       4.275   0.033  -0.657  0.00  0.00     0.027 H 
ATOM      7  H   LIG d   1       5.452   0.843  -1.719  0.00  0.00     0.027 H 
BRANCH   5   8
ATOM      8  C   LIG d   1       3.442   0.792  -2.494  0.00  0.00    -0.065 C 
ATOM      9  H   LIG d   1       2.871   1.464  -1.854  0.00  0.00     0.023 H 
ATOM     10  H   LIG d   1       3.848   1.351  -3.337  0.00  0.00     0.023 H 
ATOM     11  H   LIG d   1       2.791  -0.001  -2.863  0.00  0.00     0.023 H 
ENDBRANCH   5   8
ENDBRANCH   3   5
BRANCH   3  12
ATOM     12  C   LIG d   1       3.705  -1.917  -2.728  0.00  0.00    -0.060 C 
ATOM     13  H   LIG d   1       3.754  -2.134  -3.795  0.00  0.00     0.023 H 
ATOM     14  H   LIG d   1       3.625  -2.850  -2.171  0.00  0.00     0.023 H 
ATOM     15  H   LIG d   1       2.833  -1.295  -2.523  0.00  0.00     0.023 H 
ENDBRANCH   3  12
ENDBRANCH   1   3
BRANCH   1  16
ATOM     16  C   LIG d   1       6.643  -2.208  -3.814  0.00  0.00     0.241 C 
ATOM     17  O   LIG d   1       7.655  -2.456  -3.195  0.00  0.00    -0.273 OA
ATOM     18  N   LIG d   1       6.208  -3.060  -4.765  0.00  0.00    -0.239 N 
ATOM     19  C   LIG d   1       6.900  -4.186  -5.028  0.00  0.00     0.306 C 
ATOM     20  H   LIG d   1       5.397  -2.861  -5.260  0.00  0.00     0.159 HD
ATOM     21  O   LIG d   1       7.916  -4.434  -4.408  0.00  0.00    -0.252 OA
ATOM     22  N   LIG d   1       6.466  -5.036  -5.979  0.00  0.00    -0.295 N 
ATOM     23  H   LIG d   1       5.656  -4.838  -6.474  0.00  0.00     0.151 HD
BRANCH  22  24
ATOM     24  C   LIG d   1       7.218  -6.260  -6.265  0.00  0.00     0.038 C 
ATOM     25  H   LIG d   1       7.169  -6.477  -7.332  0.00  0.00     0.051 H 
ATOM     26  H   LIG d   1       8.258  -6.126  -5.969  0.00  0.00     0.051 H 
BRANCH  24  27
ATOM     27  C   LIG d   1       6.621  -7.409  -5.493  0.00  0.00    -0.030 A 
ATOM     28  C   LIG d   1       7.411  -8.147  -4.631  0.00  0.00    -0.057 A 
ATOM     29  C   LIG d   1       6.862  -9.201  -3.924  0.00  0.00    -0.061 A 
ATOM     30  H   LIG d   1       8.454  -7.902  -4.512  0.00  0.00     0.062 H 
ATOM     31  C   LIG d   1       5.525  -9.515  -4.077  0.00  0.00    -0.062 A 
ATOM     32  H   LIG d   1       7.479  -9.779  -3.251  0.00  0.00     0.062 H 
ATOM     33  C   LIG d   1       4.735  -8.776  -4.937  0.00  0.00    -0.061 A 
ATOM     34  H   LIG d   1       5.096 -10.338  -3.524  0.00  0.00     0.062 H 
ATOM     35  C   LIG d   1       5.282  -7.720  -5.642  0.00  0.00    -0.057 A 
ATOM     36  H   LIG d   1       3.690  -9.021  -5.057  0.00  0.00     0.062 H 
ATOM     37  H   LIG d   1       4.664  -7.139  -6.311  0.00  0.00     0.062 H 
ENDBRANCH  24  27
ENDBRANCH  22  24
ENDBRANCH   1  16
BRANCH   1  38
ATOM     38  N   LIG d   1       6.803   0.145  -3.245  0.00  0.00    -0.304 N 
ATOM     39  C   LIG d   1       7.193   0.965  -4.240  0.00  0.00     0.210 C 
ATOM     40  O   LIG d   1       6.767   0.800  -5.363  0.00  0.00    -0.276 OA
ATOM     41  H   LIG d   1       7.143   0.277  -2.346  0.00  0.00     0.149 HD
BRANCH  39  42
ATOM     42  C   LIG d   1       8.160   2.086  -3.958  0.00  0.00     0.012 C 
ATOM     43  H   LIG d   1       7.766   3.016  -4.369  0.00  0.00     0.032 H 
ATOM     44  H   LIG d   1       8.290   2.192  -2.882  0.00  0.00     0.032 H 
ATOM     45  H   LIG d   1       9.121   1.862  -4.421  0.00  0.00     0.032 H 
ENDBRANCH  39  42
ENDBRANCH   1  38
TORSDOF 9
ENDMDL
