MODEL 1
REMARK VINA RESULT:      -6.5      0.000      0.000
REMARK  4 active torsions:
REMARK  status: ('A' for Active; 'I' for Inactive)
REMARK    1  A    between atoms: C_1  and  O_2 
REMARK    2  A    between atoms: O_2  and  C_3 
REMARK    3  A    between atoms: C_6  and  C_9 
REMARK    4  A    between atoms: C_18  and  O_21 
ROOT
ATOM      1  C   LIG d   1       3.047  -0.151  -6.773  0.00  0.00     0.091 C 
ATOM      2  H   LIG d   1       2.106  -0.672  -6.593  0.00  0.00     0.065 H 
ATOM      3  C   LIG d   1       4.204  -0.966  -6.192  0.00  0.00     0.003 C 
ATOM      4  C   LIG d   1       4.151  -0.926  -4.685  0.00  0.00    -0.037 A 
ATOM      5  C   LIG d   1       4.878  -1.862  -3.967  0.00  0.00    -0.058 A 
ATOM      6  C   LIG d   1       4.854  -1.852  -2.586  0.00  0.00    -0.061 A 
ATOM      7  C   LIG d   1       4.106  -0.899  -1.918  0.00  0.00    -0.061 A 
ATOM      8  C   LIG d   1       3.382   0.034  -2.633  0.00  0.00    -0.053 A 
ATOM      9  C   LIG d   1       3.402   0.022  -4.019  0.00  0.00     0.011 A 
ATOM     10  C   LIG d   1       2.597   1.055  -4.763  0.00  0.00     0.184 C 
ATOM     11  H   LIG d   1       1.541   0.783  -4.730  0.00  0.00     0.096 H 
ATOM     12  O   LIG d   1       3.021   1.125  -6.124  0.00  0.00    -0.339 OA
ATOM     13  H   LIG d   1       5.151  -0.546  -6.532  0.00  0.00     0.034 H 
ATOM     14  H   LIG d   1       4.125  -2.000  -6.529  0.00  0.00     0.034 H 
ATOM     15  H   LIG d   1       5.462  -2.605  -4.489  0.00  0.00     0.062 H 
ATOM     16  H   LIG d   1       5.419  -2.583  -2.030  0.00  0.00     0.062 H 
ATOM     17  H   LIG d   1       4.087  -0.886  -0.838  0.00  0.00     0.062 H 
ATOM     18  H   LIG d   1       2.798   0.777  -2.111  0.00  0.00     0.062 H 
ENDROOT
BRANCH   1  19
ATOM     19  C   LIG d   1       3.248   0.036  -8.254  0.00  0.00    -0.018 A 
ATOM     20  C   LIG d   1       3.501   1.297  -8.762  0.00  0.00    -0.053 A 
ATOM     21  C   LIG d   1       3.685   1.472 -10.120  0.00  0.00    -0.020 A 
ATOM     22  H   LIG d   1       3.554   2.146  -8.097  0.00  0.00     0.062 H 
ATOM     23  C   LIG d   1       3.618   0.380 -10.974  0.00  0.00     0.120 A 
ATOM     24  H   LIG d   1       3.883   2.457 -10.516  0.00  0.00     0.065 H 
ATOM     25  C   LIG d   1       3.364  -0.884 -10.462  0.00  0.00    -0.020 A 
ATOM     26  C   LIG d   1       3.186  -1.054  -9.103  0.00  0.00    -0.053 A 
ATOM     27  H   LIG d   1       3.311  -1.735 -11.125  0.00  0.00     0.065 H 
ATOM     28  H   LIG d   1       2.993  -2.038  -8.703  0.00  0.00     0.062 H 
BRANCH  23  29
ATOM     29  O   LIG d   1       3.800   0.550 -12.310  0.00  0.00    -0.495 OA
BRANCH  29  30
ATOM     30  C   LIG d   1       4.347  -0.554 -13.035  0.00  0.00     0.079 C 
ATOM     31  H   LIG d   1       4.847  -1.231 -12.343  0.00  0.00     0.066 H 
ATOM     32  H   LIG d   1       3.545  -1.084 -13.547  0.00  0.00     0.066 H 
ATOM     33  H   LIG d   1       5.066  -0.187 -13.767  0.00  0.00     0.066 H 
ENDBRANCH  29  30
ENDBRANCH  23  29
ENDBRANCH   1  19
BRANCH  10  34
ATOM     34  O   LIG d   1       2.776   2.331  -4.145  0.00  0.00    -0.363 OA
ATOM     35  H   LIG d   1       2.504   2.359  -3.217  0.00  0.00     0.213 HD
ENDBRANCH  10  34
TORSDOF 4
ENDMDL
MODEL 2
REMARK VINA RESULT:      -6.5      2.015      2.855
REMARK  4 active torsions:
REMARK  status: ('A' for Active; 'I' for Inactive)
REMARK    1  A    between atoms: C_1  and  O_2 
REMARK    2  A    between atoms: O_2  and  C_3 
REMARK    3  A    between atoms: C_6  and  C_9 
REMARK    4  A    between atoms: C_18  and  O_21 
ROOT
ATOM      1  C   LIG d   1       3.993  -0.803  -6.585  0.00  0.00     0.091 C 
ATOM      2  H   LIG d   1       5.024  -0.467  -6.694  0.00  0.00     0.065 H 
ATOM      3  C   LIG d   1       3.225   0.177  -5.696  0.00  0.00     0.003 C 
ATOM      4  C   LIG d   1       3.704   0.055  -4.271  0.00  0.00    -0.037 A 
ATOM      5  C   LIG d   1       3.402   1.070  -3.377  0.00  0.00    -0.058 A 
ATOM      6  C   LIG d   1       3.823   0.990  -2.065  0.00  0.00    -0.061 A 
ATOM      7  C   LIG d   1       4.544  -0.111  -1.639  0.00  0.00    -0.061 A 
ATOM      8  C   LIG d   1       4.845  -1.123  -2.529  0.00  0.00    -0.053 A 
ATOM      9  C   LIG d   1       4.425  -1.041  -3.848  0.00  0.00     0.011 A 
ATOM     10  C   LIG d   1       4.776  -2.165  -4.789  0.00  0.00     0.184 C 
ATOM     11  H   LIG d   1       5.827  -2.087  -5.069  0.00  0.00     0.096 H 
ATOM     12  O   LIG d   1       3.970  -2.093  -5.965  0.00  0.00    -0.339 OA
ATOM     13  H   LIG d   1       2.159  -0.052  -5.740  0.00  0.00     0.034 H 
ATOM     14  H   LIG d   1       3.392   1.194  -6.048  0.00  0.00     0.034 H 
ATOM     15  H   LIG d   1       2.840   1.930  -3.709  0.00  0.00     0.062 H 
ATOM     16  H   LIG d   1       3.589   1.783  -1.372  0.00  0.00     0.062 H 
ATOM     17  H   LIG d   1       4.872  -0.179  -0.612  0.00  0.00     0.062 H 
ATOM     18  H   LIG d   1       5.407  -1.983  -2.196  0.00  0.00     0.062 H 
ENDROOT
BRANCH   1  19
ATOM     19  C   LIG d   1       3.340  -0.880  -7.941  0.00  0.00    -0.018 A 
ATOM     20  C   LIG d   1       3.378  -2.061  -8.659  0.00  0.00    -0.053 A 
ATOM     21  C   LIG d   1       2.781  -2.135  -9.902  0.00  0.00    -0.020 A 
ATOM     22  H   LIG d   1       3.876  -2.927  -8.248  0.00  0.00     0.062 H 
ATOM     23  C   LIG d   1       2.140  -1.022 -10.430  0.00  0.00     0.120 A 
ATOM     24  H   LIG d   1       2.811  -3.057 -10.463  0.00  0.00     0.065 H 
ATOM     25  C   LIG d   1       2.103   0.161  -9.707  0.00  0.00    -0.020 A 
ATOM     26  C   LIG d   1       2.697   0.229  -8.462  0.00  0.00    -0.053 A 
ATOM     27  H   LIG d   1       1.605   1.029 -10.116  0.00  0.00     0.065 H 
ATOM     28  H   LIG d   1       2.665   1.148  -7.897  0.00  0.00     0.062 H 
BRANCH  23  29
ATOM     29  O   LIG d   1       1.550  -1.092 -11.653  0.00  0.00    -0.495 OA
BRANCH  29  30
ATOM     30  C   LIG d   1       0.963  -2.343 -12.019  0.00  0.00     0.079 C 
ATOM     31  H   LIG d   1       0.420  -2.228 -12.956  0.00  0.00     0.066 H 
ATOM     32  H   LIG d   1       1.747  -3.089 -12.141  0.00  0.00     0.066 H 
ATOM     33  H   LIG d   1       0.274  -2.663 -11.237  0.00  0.00     0.066 H 
ENDBRANCH  29  30
ENDBRANCH  23  29
ENDBRANCH   1  19
BRANCH  10  34
ATOM     34  O   LIG d   1       4.551  -3.416  -4.137  0.00  0.00    -0.363 OA
ATOM     35  H   LIG d   1       4.045  -4.049  -4.665  0.00  0.00     0.213 HD
ENDBRANCH  10  34
TORSDOF 4
ENDMDL
MODEL 3
REMARK VINA RESULT:      -6.2      5.098      6.402
REMARK  4 active torsions:
REMARK  status: ('A' for Active; 'I' for Inactive)
REMARK    1  A    between atoms: C_1  and  O_2 
REMARK    2  A    between atoms: O_2  and  C_3 
REMARK    3  A    between atoms: C_6  and  C_9 
REMARK    4  A    between atoms: C_18  and  O_21 
ROOT
ATOM      1  C   LIG d   1       5.685  -2.958  -4.946  0.00  0.00     0.091 C 
ATOM      2  H   LIG d   1       5.298  -2.422  -5.812  0.00  0.00     0.065 H 
ATOM      3  C   LIG d   1       4.749  -2.751  -3.753  0.00  0.00     0.003 C 
ATOM      4  C   LIG d   1       4.852  -1.328  -3.264  0.00  0.00    -0.037 A 
ATOM      5  C   LIG d   1       3.858  -0.834  -2.435  0.00  0.00    -0.058 A 
ATOM      6  C   LIG d   1       3.923   0.463  -1.967  0.00  0.00    -0.061 A 
ATOM      7  C   LIG d   1       4.988   1.271  -2.321  0.00  0.00    -0.061 A 
ATOM      8  C   LIG d   1       5.980   0.778  -3.146  0.00  0.00    -0.053 A 
ATOM      9  C   LIG d   1       5.914  -0.523  -3.620  0.00  0.00     0.011 A 
ATOM     10  C   LIG d   1       7.014  -1.022  -4.520  0.00  0.00     0.184 C 
ATOM     11  H   LIG d   1       6.883  -0.603  -5.518  0.00  0.00     0.096 H 
ATOM     12  O   LIG d   1       6.978  -2.446  -4.602  0.00  0.00    -0.339 OA
ATOM     13  H   LIG d   1       5.030  -3.432  -2.949  0.00  0.00     0.034 H 
ATOM     14  H   LIG d   1       3.723  -2.955  -4.058  0.00  0.00     0.034 H 
ATOM     15  H   LIG d   1       3.026  -1.464  -2.159  0.00  0.00     0.062 H 
ATOM     16  H   LIG d   1       3.145   0.846  -1.324  0.00  0.00     0.062 H 
ATOM     17  H   LIG d   1       5.044   2.284  -1.954  0.00  0.00     0.062 H 
ATOM     18  H   LIG d   1       6.812   1.409  -3.423  0.00  0.00     0.062 H 
ENDROOT
BRANCH   1  19
ATOM     19  C   LIG d   1       5.789  -4.427  -5.263  0.00  0.00    -0.018 A 
ATOM     20  C   LIG d   1       7.031  -5.030  -5.338  0.00  0.00    -0.053 A 
ATOM     21  C   LIG d   1       7.129  -6.377  -5.630  0.00  0.00    -0.020 A 
ATOM     22  H   LIG d   1       7.925  -4.449  -5.168  0.00  0.00     0.062 H 
ATOM     23  C   LIG d   1       5.980  -7.125  -5.847  0.00  0.00     0.120 A 
ATOM     24  H   LIG d   1       8.099  -6.848  -5.688  0.00  0.00     0.065 H 
ATOM     25  C   LIG d   1       4.735  -6.517  -5.771  0.00  0.00    -0.020 A 
ATOM     26  C   LIG d   1       4.642  -5.171  -5.474  0.00  0.00    -0.053 A 
ATOM     27  H   LIG d   1       3.840  -7.096  -5.940  0.00  0.00     0.065 H 
ATOM     28  H   LIG d   1       3.674  -4.698  -5.410  0.00  0.00     0.062 H 
BRANCH  23  29
ATOM     29  O   LIG d   1       6.074  -8.450  -6.134  0.00  0.00    -0.495 OA
BRANCH  29  30
ATOM     30  C   LIG d   1       4.997  -9.285  -5.702  0.00  0.00     0.079 C 
ATOM     31  H   LIG d   1       5.341 -10.317  -5.638  0.00  0.00     0.066 H 
ATOM     32  H   LIG d   1       4.652  -8.954  -4.723  0.00  0.00     0.066 H 
ATOM     33  H   LIG d   1       4.178  -9.219  -6.418  0.00  0.00     0.066 H 
ENDBRANCH  29  30
ENDBRANCH  23  29
ENDBRANCH   1  19
BRANCH  10  34
ATOM     34  O   LIG d   1       8.278  -0.610  -3.996  0.00  0.00    -0.363 OA
ATOM     35  H   LIG d   1       8.994  -1.240  -4.157  0.00  0.00     0.213 HD
ENDBRANCH  10  34
TORSDOF 4
ENDMDL
MODEL 4
REMARK VINA RESULT:      -6.0      5.110      7.132
REMARK  4 active torsions:
REMARK  status: ('A' for Active; 'I' for Inactive)
REMARK    1  A    between atoms: C_1  and  O_2 
REMARK    2  A    between atoms: O_2  and  C_3 
REMARK    3  A    between atoms: C_6  and  C_9 
REMARK    4  A    between atoms: C_18  and  O_21 
ROOT
ATOM      1  C   LIG d   1       7.074  -2.628  -3.456  0.00  0.00     0.091 C 
ATOM      2  H   LIG d   1       6.842  -3.153  -2.529  0.00  0.00     0.065 H 
ATOM      3  C   LIG d   1       7.002  -1.117  -3.222  0.00  0.00     0.003 C 
ATOM      4  C   LIG d   1       5.567  -0.700  -3.022  0.00  0.00    -0.037 A 
ATOM      5  C   LIG d   1       5.305   0.539  -2.460  0.00  0.00    -0.058 A 
ATOM      6  C   LIG d   1       4.003   0.954  -2.265  0.00  0.00    -0.061 A 
ATOM      7  C   LIG d   1       2.955   0.133  -2.639  0.00  0.00    -0.061 A 
ATOM      8  C   LIG d   1       3.215  -1.101  -3.201  0.00  0.00    -0.053 A 
ATOM      9  C   LIG d   1       4.523  -1.521  -3.393  0.00  0.00     0.011 A 
ATOM     10  C   LIG d   1       4.765  -2.875  -4.007  0.00  0.00     0.184 C 
ATOM     11  H   LIG d   1       4.578  -3.649  -3.261  0.00  0.00     0.096 H 
ATOM     12  O   LIG d   1       6.114  -2.978  -4.460  0.00  0.00    -0.339 OA
ATOM     13  H   LIG d   1       7.414  -0.597  -4.088  0.00  0.00     0.034 H 
ATOM     14  H   LIG d   1       7.581  -0.860  -2.336  0.00  0.00     0.034 H 
ATOM     15  H   LIG d   1       6.123   1.181  -2.167  0.00  0.00     0.062 H 
ATOM     16  H   LIG d   1       3.803   1.918  -1.823  0.00  0.00     0.062 H 
ATOM     17  H   LIG d   1       1.935   0.455  -2.491  0.00  0.00     0.062 H 
ATOM     18  H   LIG d   1       2.397  -1.743  -3.493  0.00  0.00     0.062 H 
ENDROOT
BRANCH   1  19
ATOM     19  C   LIG d   1       8.456  -3.007  -3.921  0.00  0.00    -0.018 A 
ATOM     20  C   LIG d   1       8.953  -2.488  -5.102  0.00  0.00    -0.053 A 
ATOM     21  C   LIG d   1      10.219  -2.835  -5.531  0.00  0.00    -0.020 A 
ATOM     22  H   LIG d   1       8.351  -1.812  -5.690  0.00  0.00     0.062 H 
ATOM     23  C   LIG d   1      10.994  -3.703  -4.775  0.00  0.00     0.120 A 
ATOM     24  H   LIG d   1      10.607  -2.430  -6.454  0.00  0.00     0.065 H 
ATOM     25  C   LIG d   1      10.493  -4.222  -3.590  0.00  0.00    -0.020 A 
ATOM     26  C   LIG d   1       9.228  -3.869  -3.162  0.00  0.00    -0.053 A 
ATOM     27  H   LIG d   1      11.093  -4.899  -2.999  0.00  0.00     0.065 H 
ATOM     28  H   LIG d   1       8.839  -4.269  -2.238  0.00  0.00     0.062 H 
BRANCH  23  29
ATOM     29  O   LIG d   1      12.240  -4.045  -5.194  0.00  0.00    -0.495 OA
BRANCH  29  30
ATOM     30  C   LIG d   1      12.970  -4.965  -4.378  0.00  0.00     0.079 C 
ATOM     31  H   LIG d   1      14.002  -4.626  -4.285  0.00  0.00     0.066 H 
ATOM     32  H   LIG d   1      12.512  -5.015  -3.391  0.00  0.00     0.066 H 
ATOM     33  H   LIG d   1      12.952  -5.952  -4.839  0.00  0.00     0.066 H 
ENDBRANCH  29  30
ENDBRANCH  23  29
ENDBRANCH   1  19
BRANCH  10  34
ATOM     34  O   LIG d   1       3.879  -3.060  -5.112  0.00  0.00    -0.363 OA
ATOM     35  H   LIG d   1       4.183  -2.645  -5.932  0.00  0.00     0.213 HD
ENDBRANCH  10  34
TORSDOF 4
ENDMDL
MODEL 5
REMARK VINA RESULT:      -5.9      5.152      6.258
REMARK  4 active torsions:
REMARK  status: ('A' for Active; 'I' for Inactive)
REMARK    1  A    between atoms: C_1  and  O_2 
REMARK    2  A    between atoms: O_2  and  C_3 
REMARK    3  A    between atoms: C_6  and  C_9 
REMARK    4  A    between atoms: C_18  and  O_21 
ROOT
ATOM      1  C   LIG d   1       6.907   1.247  -4.199  0.00  0.00     0.091 C 
ATOM      2  H   LIG d   1       6.149   1.538  -4.926  0.00  0.00     0.065 H 
ATOM      3  C   LIG d   1       7.097  -0.271  -4.234  0.00  0.00     0.003 C 
ATOM      4  C   LIG d   1       5.883  -0.949  -3.650  0.00  0.00    -0.037 A 
ATOM      5  C   LIG d   1       5.691  -2.300  -3.897  0.00  0.00    -0.058 A 
ATOM      6  C   LIG d   1       4.592  -2.953  -3.376  0.00  0.00    -0.061 A 
ATOM      7  C   LIG d   1       3.682  -2.258  -2.599  0.00  0.00    -0.061 A 
ATOM      8  C   LIG d   1       3.874  -0.914  -2.352  0.00  0.00    -0.053 A 
ATOM      9  C   LIG d   1       4.975  -0.255  -2.878  0.00  0.00     0.011 A 
ATOM     10  C   LIG d   1       5.147   1.213  -2.589  0.00  0.00     0.184 C 
ATOM     11  H   LIG d   1       4.452   1.786  -3.203  0.00  0.00     0.096 H 
ATOM     12  O   LIG d   1       6.482   1.621  -2.884  0.00  0.00    -0.339 OA
ATOM     13  H   LIG d   1       7.978  -0.540  -3.650  0.00  0.00     0.034 H 
ATOM     14  H   LIG d   1       7.232  -0.595  -5.265  0.00  0.00     0.034 H 
ATOM     15  H   LIG d   1       6.401  -2.842  -4.504  0.00  0.00     0.062 H 
ATOM     16  H   LIG d   1       4.444  -4.003  -3.572  0.00  0.00     0.062 H 
ATOM     17  H   LIG d   1       2.824  -2.767  -2.187  0.00  0.00     0.062 H 
ATOM     18  H   LIG d   1       3.163  -0.372  -1.745  0.00  0.00     0.062 H 
ENDROOT
BRANCH   1  19
ATOM     19  C   LIG d   1       8.210   1.931  -4.524  0.00  0.00    -0.018 A 
ATOM     20  C   LIG d   1       9.095   2.248  -3.511  0.00  0.00    -0.053 A 
ATOM     21  C   LIG d   1      10.289   2.876  -3.806  0.00  0.00    -0.020 A 
ATOM     22  H   LIG d   1       8.852   2.005  -2.487  0.00  0.00     0.062 H 
ATOM     23  C   LIG d   1      10.602   3.187  -5.122  0.00  0.00     0.120 A 
ATOM     24  H   LIG d   1      10.980   3.123  -3.014  0.00  0.00     0.065 H 
ATOM     25  C   LIG d   1       9.712   2.868  -6.137  0.00  0.00    -0.020 A 
ATOM     26  C   LIG d   1       8.521   2.235  -5.838  0.00  0.00    -0.053 A 
ATOM     27  H   LIG d   1       9.953   3.109  -7.162  0.00  0.00     0.065 H 
ATOM     28  H   LIG d   1       7.830   1.983  -6.627  0.00  0.00     0.062 H 
BRANCH  23  29
ATOM     29  O   LIG d   1      11.777   3.804  -5.415  0.00  0.00    -0.495 OA
BRANCH  29  30
ATOM     30  C   LIG d   1      11.838   4.532  -6.643  0.00  0.00     0.079 C 
ATOM     31  H   LIG d   1      12.627   4.119  -7.271  0.00  0.00     0.066 H 
ATOM     32  H   LIG d   1      10.882   4.453  -7.160  0.00  0.00     0.066 H 
ATOM     33  H   LIG d   1      12.052   5.580  -6.434  0.00  0.00     0.066 H 
ENDBRANCH  29  30
ENDBRANCH  23  29
ENDBRANCH   1  19
BRANCH  10  34
ATOM     34  O   LIG d   1       4.871   1.458  -1.208  0.00  0.00    -0.363 OA
ATOM     35  H   LIG d   1       3.927   1.492  -0.996  0.00  0.00     0.213 HD
ENDBRANCH  10  34
TORSDOF 4
ENDMDL
MODEL 6
REMARK VINA RESULT:      -5.4     11.400     13.678
REMARK  4 active torsions:
REMARK  status: ('A' for Active; 'I' for Inactive)
REMARK    1  A    between atoms: C_1  and  O_2 
REMARK    2  A    between atoms: O_2  and  C_3 
REMARK    3  A    between atoms: C_6  and  C_9 
REMARK    4  A    between atoms: C_18  and  O_21 
ROOT
ATOM      1  C   LIG d   1      10.090   7.847  -0.627  0.00  0.00     0.091 C 
ATOM      2  H   LIG d   1       9.106   7.557  -0.259  0.00  0.00     0.065 H 
ATOM      3  C   LIG d   1      10.036   8.037  -2.144  0.00  0.00     0.003 C 
ATOM      4  C   LIG d   1       9.875   6.699  -2.820  0.00  0.00    -0.037 A 
ATOM      5  C   LIG d   1       9.460   6.666  -4.142  0.00  0.00    -0.058 A 
ATOM      6  C   LIG d   1       9.305   5.458  -4.793  0.00  0.00    -0.061 A 
ATOM      7  C   LIG d   1       9.570   4.277  -4.124  0.00  0.00    -0.061 A 
ATOM      8  C   LIG d   1       9.984   4.309  -2.808  0.00  0.00    -0.053 A 
ATOM      9  C   LIG d   1      10.137   5.522  -2.152  0.00  0.00     0.011 A 
ATOM     10  C   LIG d   1      10.588   5.515  -0.714  0.00  0.00     0.184 C 
ATOM     11  H   LIG d   1       9.755   5.221  -0.076  0.00  0.00     0.096 H 
ATOM     12  O   LIG d   1      11.038   6.814  -0.332  0.00  0.00    -0.339 OA
ATOM     13  H   LIG d   1      10.961   8.506  -2.484  0.00  0.00     0.034 H 
ATOM     14  H   LIG d   1       9.192   8.677  -2.399  0.00  0.00     0.034 H 
ATOM     15  H   LIG d   1       9.253   7.588  -4.664  0.00  0.00     0.062 H 
ATOM     16  H   LIG d   1       8.979   5.436  -5.821  0.00  0.00     0.062 H 
ATOM     17  H   LIG d   1       9.453   3.331  -4.631  0.00  0.00     0.062 H 
ATOM     18  H   LIG d   1      10.192   3.387  -2.286  0.00  0.00     0.062 H 
ENDROOT
BRANCH   1  19
ATOM     19  C   LIG d   1      10.519   9.132   0.034  0.00  0.00    -0.018 A 
ATOM     20  C   LIG d   1      11.488   9.111   1.019  0.00  0.00    -0.053 A 
ATOM     21  C   LIG d   1      11.883  10.287   1.626  0.00  0.00    -0.020 A 
ATOM     22  H   LIG d   1      11.938   8.175   1.314  0.00  0.00     0.062 H 
ATOM     23  C   LIG d   1      11.307  11.491   1.246  0.00  0.00     0.120 A 
ATOM     24  H   LIG d   1      12.640  10.271   2.396  0.00  0.00     0.065 H 
ATOM     25  C   LIG d   1      10.334  11.509   0.256  0.00  0.00    -0.020 A 
ATOM     26  C   LIG d   1       9.946  10.331  -0.352  0.00  0.00    -0.053 A 
ATOM     27  H   LIG d   1       9.883  12.444  -0.041  0.00  0.00     0.065 H 
ATOM     28  H   LIG d   1       9.193  10.344  -1.124  0.00  0.00     0.062 H 
BRANCH  23  29
ATOM     29  O   LIG d   1      11.693  12.650   1.841  0.00  0.00    -0.495 OA
BRANCH  29  30
ATOM     30  C   LIG d   1      11.476  13.859   1.110  0.00  0.00     0.079 C 
ATOM     31  H   LIG d   1      12.067  13.840   0.194  0.00  0.00     0.066 H 
ATOM     32  H   LIG d   1      10.419  13.946   0.860  0.00  0.00     0.066 H 
ATOM     33  H   LIG d   1      11.777  14.711   1.719  0.00  0.00     0.066 H 
ENDBRANCH  29  30
ENDBRANCH  23  29
ENDBRANCH   1  19
BRANCH  10  34
ATOM     34  O   LIG d   1      11.656   4.579  -0.558  0.00  0.00    -0.363 OA
ATOM     35  H   LIG d   1      12.302   4.596  -1.279  0.00  0.00     0.213 HD
ENDBRANCH  10  34
TORSDOF 4
ENDMDL
MODEL 7
REMARK VINA RESULT:      -5.3      8.954     11.466
REMARK  4 active torsions:
REMARK  status: ('A' for Active; 'I' for Inactive)
REMARK    1  A    between atoms: C_1  and  O_2 
REMARK    2  A    between atoms: O_2  and  C_3 
REMARK    3  A    between atoms: C_6  and  C_9 
REMARK    4  A    between atoms: C_18  and  O_21 
ROOT
ATOM      1  C   LIG d   1      10.130   7.224  -5.994  0.00  0.00     0.091 C 
ATOM      2  H   LIG d   1      11.137   7.500  -6.305  0.00  0.00     0.065 H 
ATOM      3  C   LIG d   1       9.823   5.798  -6.454  0.00  0.00     0.003 C 
ATOM      4  C   LIG d   1       9.664   5.769  -7.954  0.00  0.00    -0.037 A 
ATOM      5  C   LIG d   1       9.728   4.550  -8.608  0.00  0.00    -0.058 A 
ATOM      6  C   LIG d   1       9.585   4.487  -9.980  0.00  0.00    -0.061 A 
ATOM      7  C   LIG d   1       9.368   5.646 -10.703  0.00  0.00    -0.061 A 
ATOM      8  C   LIG d   1       9.302   6.861 -10.051  0.00  0.00    -0.053 A 
ATOM      9  C   LIG d   1       9.451   6.926  -8.674  0.00  0.00     0.011 A 
ATOM     10  C   LIG d   1       9.376   8.271  -8.001  0.00  0.00     0.184 C 
ATOM     11  H   LIG d   1      10.305   8.814  -8.173  0.00  0.00     0.096 H 
ATOM     12  O   LIG d   1       9.180   8.110  -6.596  0.00  0.00    -0.339 OA
ATOM     13  H   LIG d   1       8.899   5.456  -5.986  0.00  0.00     0.034 H 
ATOM     14  H   LIG d   1      10.641   5.139  -6.164  0.00  0.00     0.034 H 
ATOM     15  H   LIG d   1       9.898   3.645  -8.043  0.00  0.00     0.062 H 
ATOM     16  H   LIG d   1       9.638   3.536 -10.487  0.00  0.00     0.062 H 
ATOM     17  H   LIG d   1       9.251   5.600 -11.775  0.00  0.00     0.062 H 
ATOM     18  H   LIG d   1       9.133   7.766 -10.616  0.00  0.00     0.062 H 
ENDROOT
BRANCH   1  19
ATOM     19  C   LIG d   1      10.022   7.310  -4.493  0.00  0.00    -0.018 A 
ATOM     20  C   LIG d   1      10.232   8.517  -3.854  0.00  0.00    -0.053 A 
ATOM     21  C   LIG d   1      10.135   8.599  -2.478  0.00  0.00    -0.020 A 
ATOM     22  H   LIG d   1      10.473   9.398  -4.430  0.00  0.00     0.062 H 
ATOM     23  C   LIG d   1       9.823   7.467  -1.738  0.00  0.00     0.120 A 
ATOM     24  H   LIG d   1      10.299   9.542  -1.979  0.00  0.00     0.065 H 
ATOM     25  C   LIG d   1       9.613   6.256  -2.382  0.00  0.00    -0.020 A 
ATOM     26  C   LIG d   1       9.707   6.181  -3.758  0.00  0.00    -0.053 A 
ATOM     27  H   LIG d   1       9.371   5.373  -1.808  0.00  0.00     0.065 H 
ATOM     28  H   LIG d   1       9.539   5.241  -4.260  0.00  0.00     0.062 H 
BRANCH  23  29
ATOM     29  O   LIG d   1       9.726   7.544  -0.385  0.00  0.00    -0.495 OA
BRANCH  29  30
ATOM     30  C   LIG d   1      10.874   7.152   0.372  0.00  0.00     0.079 C 
ATOM     31  H   LIG d   1      10.564   6.507   1.193  0.00  0.00     0.066 H 
ATOM     32  H   LIG d   1      11.567   6.614  -0.273  0.00  0.00     0.066 H 
ATOM     33  H   LIG d   1      11.364   8.039   0.773  0.00  0.00     0.066 H 
ENDBRANCH  29  30
ENDBRANCH  23  29
ENDBRANCH   1  19
BRANCH  10  34
ATOM     34  O   LIG d   1       8.285   9.015  -8.549  0.00  0.00    -0.363 OA
ATOM     35  H   LIG d   1       7.945   8.657  -9.381  0.00  0.00     0.213 HD
ENDBRANCH  10  34
TORSDOF 4
ENDMDL
MODEL 8
REMARK VINA RESULT:      -5.3      4.270      6.803
REMARK  4 active torsions:
REMARK  status: ('A' for Active; 'I' for Inactive)
REMARK    1  A    between atoms: C_1  and  O_2 
REMARK    2  A    between atoms: O_2  and  C_3 
REMARK    3  A    between atoms: C_6  and  C_9 
REMARK    4  A    between atoms: C_18  and  O_21 
ROOT
ATOM      1  C   LIG d   1       1.933  -2.077 -10.638  0.00  0.00     0.091 C 
ATOM      2  H   LIG d   1       1.136  -1.584 -11.193  0.00  0.00     0.065 H 
ATOM      3  C   LIG d   1       2.102  -1.404  -9.275  0.00  0.00     0.003 C 
ATOM      4  C   LIG d   1       2.700  -0.031  -9.454  0.00  0.00    -0.037 A 
ATOM      5  C   LIG d   1       2.617   0.874  -8.408  0.00  0.00    -0.058 A 
ATOM      6  C   LIG d   1       3.155   2.139  -8.537  0.00  0.00    -0.061 A 
ATOM      7  C   LIG d   1       3.787   2.501  -9.713  0.00  0.00    -0.061 A 
ATOM      8  C   LIG d   1       3.871   1.599 -10.755  0.00  0.00    -0.053 A 
ATOM      9  C   LIG d   1       3.327   0.330 -10.628  0.00  0.00     0.011 A 
ATOM     10  C   LIG d   1       3.437  -0.624 -11.788  0.00  0.00     0.184 C 
ATOM     11  H   LIG d   1       2.718  -0.342 -12.558  0.00  0.00     0.096 H 
ATOM     12  O   LIG d   1       3.166  -1.957 -11.359  0.00  0.00    -0.339 OA
ATOM     13  H   LIG d   1       2.762  -2.008  -8.651  0.00  0.00     0.034 H 
ATOM     14  H   LIG d   1       1.129  -1.315  -8.792  0.00  0.00     0.034 H 
ATOM     15  H   LIG d   1       2.123   0.591  -7.490  0.00  0.00     0.062 H 
ATOM     16  H   LIG d   1       3.086   2.842  -7.722  0.00  0.00     0.062 H 
ATOM     17  H   LIG d   1       4.213   3.488  -9.817  0.00  0.00     0.062 H 
ATOM     18  H   LIG d   1       4.365   1.882 -11.673  0.00  0.00     0.062 H 
ENDROOT
BRANCH   1  19
ATOM     19  C   LIG d   1       1.596  -3.533 -10.450  0.00  0.00    -0.018 A 
ATOM     20  C   LIG d   1       2.557  -4.410  -9.982  0.00  0.00    -0.053 A 
ATOM     21  C   LIG d   1       2.250  -5.746  -9.809  0.00  0.00    -0.020 A 
ATOM     22  H   LIG d   1       3.549  -4.050  -9.752  0.00  0.00     0.062 H 
ATOM     23  C   LIG d   1       0.975  -6.207 -10.104  0.00  0.00     0.120 A 
ATOM     24  H   LIG d   1       3.001  -6.430  -9.444  0.00  0.00     0.065 H 
ATOM     25  C   LIG d   1       0.012  -5.325 -10.573  0.00  0.00    -0.020 A 
ATOM     26  C   LIG d   1       0.322  -3.990 -10.740  0.00  0.00    -0.053 A 
ATOM     27  H   LIG d   1      -0.981  -5.682 -10.804  0.00  0.00     0.065 H 
ATOM     28  H   LIG d   1      -0.428  -3.302 -11.100  0.00  0.00     0.062 H 
BRANCH  23  29
ATOM     29  O   LIG d   1       0.670  -7.521  -9.934  0.00  0.00    -0.495 OA
BRANCH  29  30
ATOM     30  C   LIG d   1      -0.677  -7.914 -10.206  0.00  0.00     0.079 C 
ATOM     31  H   LIG d   1      -1.234  -7.971  -9.271  0.00  0.00     0.066 H 
ATOM     32  H   LIG d   1      -1.143  -7.182 -10.864  0.00  0.00     0.066 H 
ATOM     33  H   LIG d   1      -0.679  -8.891 -10.689  0.00  0.00     0.066 H 
ENDBRANCH  29  30
ENDBRANCH  23  29
ENDBRANCH   1  19
BRANCH  10  34
ATOM     34  O   LIG d   1       4.758  -0.560 -12.330  0.00  0.00    -0.363 OA
ATOM     35  H   LIG d   1       5.454  -0.493 -11.661  0.00  0.00     0.213 HD
ENDBRANCH  10  34
TORSDOF 4
ENDMDL
MODEL 9
REMARK VINA RESULT:      -5.3      9.264     12.053
REMARK  4 active torsions:
REMARK  status: ('A' for Active; 'I' for Inactive)
REMARK    1  A    between atoms: C_1  and  O_2 
REMARK    2  A    between atoms: O_2  and  C_3 
REMARK    3  A    between atoms: C_6  and  C_9 
REMARK    4  A    between atoms: C_18  and  O_21 
ROOT
ATOM      1  C   LIG d   1       9.650   6.255  -3.944  0.00  0.00     0.091 C 
ATOM      2  H   LIG d   1       8.650   5.827  -4.002  0.00  0.00     0.065 H 
ATOM      3  C   LIG d   1       9.660   7.630  -4.616  0.00  0.00     0.003 C 
ATOM      4  C   LIG d   1       9.517   7.469  -6.109  0.00  0.00    -0.037 A 
ATOM      5  C   LIG d   1       9.156   8.572  -6.867  0.00  0.00    -0.058 A 
ATOM      6  C   LIG d   1       9.018   8.460  -8.236  0.00  0.00    -0.061 A 
ATOM      7  C   LIG d   1       9.247   7.244  -8.855  0.00  0.00    -0.061 A 
ATOM      8  C   LIG d   1       9.607   6.146  -8.100  0.00  0.00    -0.053 A 
ATOM      9  C   LIG d   1       9.742   6.256  -6.724  0.00  0.00     0.011 A 
ATOM     10  C   LIG d   1      10.134   5.033  -5.936  0.00  0.00     0.184 C 
ATOM     11  H   LIG d   1       9.273   4.370  -5.845  0.00  0.00     0.096 H 
ATOM     12  O   LIG d   1      10.577   5.407  -4.632  0.00  0.00    -0.339 OA
ATOM     13  H   LIG d   1      10.601   8.135  -4.396  0.00  0.00     0.034 H 
ATOM     14  H   LIG d   1       8.831   8.226  -4.235  0.00  0.00     0.034 H 
ATOM     15  H   LIG d   1       8.977   9.521  -6.384  0.00  0.00     0.062 H 
ATOM     16  H   LIG d   1       8.735   9.320  -8.823  0.00  0.00     0.062 H 
ATOM     17  H   LIG d   1       9.144   7.154  -9.926  0.00  0.00     0.062 H 
ATOM     18  H   LIG d   1       9.786   5.196  -8.583  0.00  0.00     0.062 H 
ENDROOT
BRANCH   1  19
ATOM     19  C   LIG d   1      10.061   6.390  -2.501  0.00  0.00    -0.018 A 
ATOM     20  C   LIG d   1      10.643   5.321  -1.846  0.00  0.00    -0.053 A 
ATOM     21  C   LIG d   1      11.020   5.441  -0.523  0.00  0.00    -0.020 A 
ATOM     22  H   LIG d   1      10.803   4.390  -2.370  0.00  0.00     0.062 H 
ATOM     23  C   LIG d   1      10.816   6.638   0.149  0.00  0.00     0.120 A 
ATOM     24  H   LIG d   1      11.475   4.606  -0.012  0.00  0.00     0.065 H 
ATOM     25  C   LIG d   1      10.232   7.710  -0.510  0.00  0.00    -0.020 A 
ATOM     26  C   LIG d   1       9.861   7.586  -1.835  0.00  0.00    -0.053 A 
ATOM     27  H   LIG d   1      10.071   8.643   0.011  0.00  0.00     0.065 H 
ATOM     28  H   LIG d   1       9.410   8.421  -2.350  0.00  0.00     0.062 H 
BRANCH  23  29
ATOM     29  O   LIG d   1      11.187   6.760   1.451  0.00  0.00    -0.495 OA
BRANCH  29  30
ATOM     30  C   LIG d   1      10.912   5.651   2.310  0.00  0.00     0.079 C 
ATOM     31  H   LIG d   1      10.476   6.013   3.241  0.00  0.00     0.066 H 
ATOM     32  H   LIG d   1      10.213   4.976   1.818  0.00  0.00     0.066 H 
ATOM     33  H   LIG d   1      11.839   5.121   2.526  0.00  0.00     0.066 H 
ENDBRANCH  29  30
ENDBRANCH  23  29
ENDBRANCH   1  19
BRANCH  10  34
ATOM     34  O   LIG d   1      11.188   4.349  -6.616  0.00  0.00    -0.363 OA
ATOM     35  H   LIG d   1      11.665   3.714  -6.063  0.00  0.00     0.213 HD
ENDBRANCH  10  34
TORSDOF 4
ENDMDL
MODEL 10
REMARK VINA RESULT:      -5.2      9.614     10.788
REMARK  4 active torsions:
REMARK  status: ('A' for Active; 'I' for Inactive)
REMARK    1  A    between atoms: C_1  and  O_2 
REMARK    2  A    between atoms: O_2  and  C_3 
REMARK    3  A    between atoms: C_6  and  C_9 
REMARK    4  A    between atoms: C_18  and  O_21 
ROOT
ATOM      1  C   LIG d   1      10.863   5.844  -1.962  0.00  0.00     0.091 C 
ATOM      2  H   LIG d   1      11.947   5.870  -2.064  0.00  0.00     0.065 H 
ATOM      3  C   LIG d   1      10.302   7.263  -2.077  0.00  0.00     0.003 C 
ATOM      4  C   LIG d   1      10.673   8.059  -0.852  0.00  0.00    -0.037 A 
ATOM      5  C   LIG d   1      10.574   9.440  -0.898  0.00  0.00    -0.058 A 
ATOM      6  C   LIG d   1      10.903  10.200   0.207  0.00  0.00    -0.061 A 
ATOM      7  C   LIG d   1      11.328   9.578   1.368  0.00  0.00    -0.061 A 
ATOM      8  C   LIG d   1      11.427   8.202   1.415  0.00  0.00    -0.053 A 
ATOM      9  C   LIG d   1      11.100   7.439   0.304  0.00  0.00     0.011 A 
ATOM     10  C   LIG d   1      11.224   5.940   0.394  0.00  0.00     0.184 C 
ATOM     11  H   LIG d   1      12.276   5.660   0.335  0.00  0.00     0.096 H 
ATOM     12  O   LIG d   1      10.512   5.320  -0.676  0.00  0.00    -0.339 OA
ATOM     13  H   LIG d   1       9.216   7.218  -2.164  0.00  0.00     0.034 H 
ATOM     14  H   LIG d   1      10.717   7.746  -2.962  0.00  0.00     0.034 H 
ATOM     15  H   LIG d   1      10.242   9.925  -1.804  0.00  0.00     0.062 H 
ATOM     16  H   LIG d   1      10.827  11.275   0.167  0.00  0.00     0.062 H 
ATOM     17  H   LIG d   1      11.583  10.169   2.235  0.00  0.00     0.062 H 
ATOM     18  H   LIG d   1      11.759   7.717   2.321  0.00  0.00     0.062 H 
ENDROOT
BRANCH   1  19
ATOM     19  C   LIG d   1      10.273   4.974  -3.042  0.00  0.00    -0.018 A 
ATOM     20  C   LIG d   1      10.043   3.632  -2.798  0.00  0.00    -0.053 A 
ATOM     21  C   LIG d   1       9.503   2.832  -3.786  0.00  0.00    -0.020 A 
ATOM     22  H   LIG d   1      10.285   3.210  -1.834  0.00  0.00     0.062 H 
ATOM     23  C   LIG d   1       9.190   3.376  -5.024  0.00  0.00     0.120 A 
ATOM     24  H   LIG d   1       9.323   1.785  -3.595  0.00  0.00     0.065 H 
ATOM     25  C   LIG d   1       9.421   4.722  -5.266  0.00  0.00    -0.020 A 
ATOM     26  C   LIG d   1       9.957   5.520  -4.273  0.00  0.00    -0.053 A 
ATOM     27  H   LIG d   1       9.179   5.148  -6.229  0.00  0.00     0.065 H 
ATOM     28  H   LIG d   1      10.133   6.568  -4.459  0.00  0.00     0.062 H 
BRANCH  23  29
ATOM     29  O   LIG d   1       8.657   2.591  -5.997  0.00  0.00    -0.495 OA
BRANCH  29  30
ATOM     30  C   LIG d   1       8.068   1.356  -5.585  0.00  0.00     0.079 C 
ATOM     31  H   LIG d   1       7.988   0.688  -6.442  0.00  0.00     0.066 H 
ATOM     32  H   LIG d   1       8.691   0.895  -4.820  0.00  0.00     0.066 H 
ATOM     33  H   LIG d   1       7.074   1.546  -5.179  0.00  0.00     0.066 H 
ENDBRANCH  29  30
ENDBRANCH  23  29
ENDBRANCH   1  19
BRANCH  10  34
ATOM     34  O   LIG d   1      10.685   5.495   1.641  0.00  0.00    -0.363 OA
ATOM     35  H   LIG d   1      11.295   4.954   2.162  0.00  0.00     0.213 HD
ENDBRANCH  10  34
TORSDOF 4
ENDMDL
