MODEL 1
REMARK VINA RESULT:      -6.8      0.000      0.000
REMARK  11 active torsions:
REMARK  status: ('A' for Active; 'I' for Inactive)
REMARK    1  A    between atoms: C_1  and  C_2 
REMARK       I    between atoms: C_2  and  N_4 
REMARK    2  A    between atoms: N_4  and  C_5 
REMARK    3  A    between atoms: C_8  and  C_11 
REMARK    4  A    between atoms: C_11  and  N_12 
REMARK    5  A    between atoms: C_16  and  C_18 
REMARK    6  A    between atoms: C_20  and  C_23 
REMARK    7  A    between atoms: C_25  and  O_29 
REMARK    8  A    between atoms: O_29  and  C_30 
REMARK    9  A    between atoms: C_30  and  C_31 
REMARK   10  A    between atoms: C_31  and  O_32 
REMARK   11  A    between atoms: O_32  and  C_33 
ROOT
ATOM      1  N   LIG d   1       3.976  -0.488  -4.157  0.00  0.00     0.247 N 
ATOM      2  C   LIG d   1       3.405  -1.468  -3.209  0.00  0.00    -0.031 C 
ATOM      3  C   LIG d   1       4.243  -1.305  -1.917  0.00  0.00    -0.007 C 
ATOM      4  C   LIG d   1       4.483   0.228  -1.890  0.00  0.00     0.004 C 
ATOM      5  C   LIG d   1       4.637   0.581  -3.385  0.00  0.00     0.060 C 
ATOM      6  H   LIG d   1       4.156   1.538  -3.590  0.00  0.00     0.095 H 
ATOM      7  H   LIG d   1       2.357  -1.240  -3.013  0.00  0.00     0.082 H 
ATOM      8  H   LIG d   1       3.507  -2.480  -3.602  0.00  0.00     0.082 H 
ATOM      9  H   LIG d   1       3.679  -1.627  -1.042  0.00  0.00     0.032 H 
ATOM     10  H   LIG d   1       5.186  -1.846  -1.992  0.00  0.00     0.032 H 
ATOM     11  H   LIG d   1       3.626   0.745  -1.458  0.00  0.00     0.033 H 
ATOM     12  H   LIG d   1       5.394   0.466  -1.343  0.00  0.00     0.033 H 
ATOM     13  H   LIG d   1       4.653  -0.946  -4.749  0.00  0.00     0.204 HD
ENDROOT
BRANCH   5  14
ATOM     14  C   LIG d   1       6.098   0.650  -3.748  0.00  0.00     0.276 A 
ATOM     15  O   LIG d   1       6.771  -0.265  -4.458  0.00  0.00    -0.332 OA
ATOM     16  N   LIG d   1       8.106   0.209  -4.557  0.00  0.00    -0.050 NA
ATOM     17  C   LIG d   1       8.145   1.345  -3.908  0.00  0.00     0.267 A 
ATOM     18  N   LIG d   1       6.920   1.605  -3.420  0.00  0.00    -0.181 NA
BRANCH  17  19
ATOM     19  C   LIG d   1       9.344   2.205  -3.739  0.00  0.00     0.257 A 
ATOM     20  N   LIG d   1      10.540   1.647  -3.604  0.00  0.00    -0.208 N 
ATOM     21  C   LIG d   1      11.632   2.370  -3.458  0.00  0.00     0.174 A 
ATOM     22  H   LIG d   1      10.613   0.679  -3.616  0.00  0.00     0.453 HD
ATOM     23  C   LIG d   1      11.571   3.750  -3.428  0.00  0.00     0.044 A 
ATOM     24  H   LIG d   1      12.587   1.877  -3.355  0.00  0.00     0.138 H 
ATOM     25  C   LIG d   1      10.336   4.380  -3.560  0.00  0.00     0.133 A 
ATOM     26  H   LIG d   1      12.471   4.333  -3.302  0.00  0.00     0.071 H 
ATOM     27  C   LIG d   1       9.202   3.588  -3.719  0.00  0.00     0.055 A 
ATOM     28  H   LIG d   1       8.228   4.041  -3.825  0.00  0.00     0.072 H 
BRANCH  25  29
ATOM     29  O   LIG d   1      10.239   5.734  -3.535  0.00  0.00    -0.489 OA
BRANCH  29  30
ATOM     30  C   LIG d   1      10.894   6.411  -2.461  0.00  0.00     0.113 C 
ATOM     31  H   LIG d   1      11.648   5.754  -2.024  0.00  0.00     0.072 H 
ATOM     32  H   LIG d   1      11.375   7.313  -2.839  0.00  0.00     0.072 H 
BRANCH  30  33
ATOM     33  C   LIG d   1       9.866   6.789  -1.394  0.00  0.00     0.081 C 
ATOM     34  H   LIG d   1       9.846   7.872  -1.276  0.00  0.00     0.059 H 
ATOM     35  H   LIG d   1       8.880   6.438  -1.698  0.00  0.00     0.059 H 
BRANCH  33  36
ATOM     36  O   LIG d   1      10.224   6.182  -0.150  0.00  0.00    -0.380 OA
BRANCH  36  37
ATOM     37  C   LIG d   1      11.523   5.586  -0.145  0.00  0.00     0.037 C 
ATOM     38  H   LIG d   1      11.905   5.555   0.875  0.00  0.00     0.052 H 
ATOM     39  H   LIG d   1      11.458   4.573  -0.540  0.00  0.00     0.052 H 
ATOM     40  H   LIG d   1      12.195   6.176  -0.767  0.00  0.00     0.052 H 
ENDBRANCH  36  37
ENDBRANCH  33  36
ENDBRANCH  30  33
ENDBRANCH  29  30
ENDBRANCH  25  29
ENDBRANCH  17  19
ENDBRANCH   5  14
BRANCH   1  41
ATOM     41  C   LIG d   1       2.904   0.087  -4.980  0.00  0.00    -0.005 C 
ATOM     42  H   LIG d   1       2.737   1.124  -4.687  0.00  0.00     0.087 H 
ATOM     43  H   LIG d   1       1.987  -0.484  -4.833  0.00  0.00     0.087 H 
BRANCH  41  44
ATOM     44  C   LIG d   1       3.303   0.033  -6.432  0.00  0.00    -0.003 A 
ATOM     45  C   LIG d   1       4.179  -0.944  -6.872  0.00  0.00    -0.052 A 
ATOM     46  C   LIG d   1       4.546  -0.996  -8.201  0.00  0.00    -0.040 A 
ATOM     47  H   LIG d   1       4.574  -1.667  -6.173  0.00  0.00     0.062 H 
ATOM     48  C   LIG d   1       4.036  -0.068  -9.098  0.00  0.00     0.033 A 
ATOM     49  H   LIG d   1       5.229  -1.759  -8.544  0.00  0.00     0.064 H 
ATOM     50  C   LIG d   1       3.162   0.916  -8.653  0.00  0.00    -0.040 A 
ATOM     51  C   LIG d   1       2.794   0.959  -7.323  0.00  0.00    -0.052 A 
ATOM     52  H   LIG d   1       2.767   1.643  -9.348  0.00  0.00     0.064 H 
ATOM     53  H   LIG d   1       2.110   1.721  -6.977  0.00  0.00     0.062 H 
BRANCH  48  54
ATOM     54  N   LIG d   1       4.406  -0.118 -10.447  0.00  0.00    -0.286 N 
ATOM     55  C   LIG d   1       3.603  -0.722 -11.345  0.00  0.00     0.214 C 
ATOM     56  O   LIG d   1       2.602  -1.296 -10.973  0.00  0.00    -0.276 OA
ATOM     57  H   LIG d   1       5.241   0.284 -10.735  0.00  0.00     0.155 HD
BRANCH  55  58
ATOM     58  C   LIG d   1       3.950  -0.685 -12.811  0.00  0.00     0.013 C 
ATOM     59  H   LIG d   1       3.189  -1.220 -13.378  0.00  0.00     0.032 H 
ATOM     60  H   LIG d   1       3.994   0.350 -13.149  0.00  0.00     0.032 H 
ATOM     61  H   LIG d   1       4.919  -1.159 -12.967  0.00  0.00     0.032 H 
ENDBRANCH  55  58
ENDBRANCH  48  54
ENDBRANCH  41  44
ENDBRANCH   1  41
TORSDOF 11
ENDMDL
MODEL 2
REMARK VINA RESULT:      -6.7      3.385      9.873
REMARK  11 active torsions:
REMARK  status: ('A' for Active; 'I' for Inactive)
REMARK    1  A    between atoms: C_1  and  C_2 
REMARK       I    between atoms: C_2  and  N_4 
REMARK    2  A    between atoms: N_4  and  C_5 
REMARK    3  A    between atoms: C_8  and  C_11 
REMARK    4  A    between atoms: C_11  and  N_12 
REMARK    5  A    between atoms: C_16  and  C_18 
REMARK    6  A    between atoms: C_20  and  C_23 
REMARK    7  A    between atoms: C_25  and  O_29 
REMARK    8  A    between atoms: O_29  and  C_30 
REMARK    9  A    between atoms: C_30  and  C_31 
REMARK   10  A    between atoms: C_31  and  O_32 
REMARK   11  A    between atoms: O_32  and  C_33 
ROOT
ATOM      1  N   LIG d   1      10.979   1.930  -4.362  0.00  0.00     0.247 N 
ATOM      2  C   LIG d   1      12.027   0.889  -4.415  0.00  0.00    -0.031 C 
ATOM      3  C   LIG d   1      11.302  -0.379  -4.927  0.00  0.00    -0.007 C 
ATOM      4  C   LIG d   1      10.308   0.222  -5.955  0.00  0.00     0.004 C 
ATOM      5  C   LIG d   1       9.908   1.565  -5.308  0.00  0.00     0.060 C 
ATOM      6  H   LIG d   1       9.813   2.333  -6.075  0.00  0.00     0.095 H 
ATOM      7  H   LIG d   1      12.817   1.181  -5.107  0.00  0.00     0.082 H 
ATOM      8  H   LIG d   1      12.440   0.715  -3.420  0.00  0.00     0.082 H 
ATOM      9  H   LIG d   1      12.001  -1.060  -5.411  0.00  0.00     0.032 H 
ATOM     10  H   LIG d   1      10.771  -0.879  -4.117  0.00  0.00     0.032 H 
ATOM     11  H   LIG d   1      10.799   0.388  -6.914  0.00  0.00     0.033 H 
ATOM     12  H   LIG d   1       9.438  -0.423  -6.073  0.00  0.00     0.033 H 
ATOM     13  H   LIG d   1      10.602   1.983  -3.427  0.00  0.00     0.204 HD
ENDROOT
BRANCH   5  14
ATOM     14  C   LIG d   1       8.603   1.409  -4.571  0.00  0.00     0.276 A 
ATOM     15  O   LIG d   1       7.934   2.389  -3.948  0.00  0.00    -0.332 OA
ATOM     16  N   LIG d   1       6.769   1.792  -3.399  0.00  0.00    -0.050 NA
ATOM     17  C   LIG d   1       6.818   0.522  -3.715  0.00  0.00     0.267 A 
ATOM     18  N   LIG d   1       7.937   0.300  -4.426  0.00  0.00    -0.181 NA
BRANCH  17  19
ATOM     19  C   LIG d   1       5.807  -0.501  -3.347  0.00  0.00     0.257 A 
ATOM     20  N   LIG d   1       5.075  -0.339  -2.253  0.00  0.00    -0.208 N 
ATOM     21  C   LIG d   1       4.163  -1.219  -1.892  0.00  0.00     0.174 A 
ATOM     22  H   LIG d   1       5.213   0.450  -1.706  0.00  0.00     0.453 HD
ATOM     23  C   LIG d   1       3.940  -2.359  -2.638  0.00  0.00     0.044 A 
ATOM     24  H   LIG d   1       3.584  -1.047  -0.996  0.00  0.00     0.138 H 
ATOM     25  C   LIG d   1       4.690  -2.574  -3.792  0.00  0.00     0.133 A 
ATOM     26  H   LIG d   1       3.193  -3.076  -2.331  0.00  0.00     0.071 H 
ATOM     27  C   LIG d   1       5.641  -1.624  -4.151  0.00  0.00     0.055 A 
ATOM     28  H   LIG d   1       6.241  -1.756  -5.038  0.00  0.00     0.072 H 
BRANCH  25  29
ATOM     29  O   LIG d   1       4.497  -3.684  -4.550  0.00  0.00    -0.489 OA
BRANCH  29  30
ATOM     30  C   LIG d   1       4.869  -3.601  -5.927  0.00  0.00     0.113 C 
ATOM     31  H   LIG d   1       4.683  -2.591  -6.294  0.00  0.00     0.072 H 
ATOM     32  H   LIG d   1       5.928  -3.836  -6.032  0.00  0.00     0.072 H 
BRANCH  30  33
ATOM     33  C   LIG d   1       4.043  -4.599  -6.740  0.00  0.00     0.081 C 
ATOM     34  H   LIG d   1       3.113  -4.128  -7.058  0.00  0.00     0.059 H 
ATOM     35  H   LIG d   1       4.611  -4.911  -7.617  0.00  0.00     0.059 H 
BRANCH  33  36
ATOM     36  O   LIG d   1       3.746  -5.741  -5.934  0.00  0.00    -0.380 OA
BRANCH  36  37
ATOM     37  C   LIG d   1       4.684  -6.811  -6.073  0.00  0.00     0.037 C 
ATOM     38  H   LIG d   1       5.226  -6.943  -5.137  0.00  0.00     0.052 H 
ATOM     39  H   LIG d   1       4.152  -7.730  -6.317  0.00  0.00     0.052 H 
ATOM     40  H   LIG d   1       5.388  -6.575  -6.870  0.00  0.00     0.052 H 
ENDBRANCH  36  37
ENDBRANCH  33  36
ENDBRANCH  30  33
ENDBRANCH  29  30
ENDBRANCH  25  29
ENDBRANCH  17  19
ENDBRANCH   5  14
BRANCH   1  41
ATOM     41  C   LIG d   1      11.551   3.229  -4.741  0.00  0.00    -0.005 C 
ATOM     42  H   LIG d   1      11.409   3.390  -5.810  0.00  0.00     0.087 H 
ATOM     43  H   LIG d   1      12.617   3.237  -4.511  0.00  0.00     0.087 H 
BRANCH  41  44
ATOM     44  C   LIG d   1      10.862   4.325  -3.971  0.00  0.00    -0.003 A 
ATOM     45  C   LIG d   1      10.917   4.338  -2.589  0.00  0.00    -0.052 A 
ATOM     46  C   LIG d   1      10.287   5.341  -1.880  0.00  0.00    -0.040 A 
ATOM     47  H   LIG d   1      11.455   3.562  -2.064  0.00  0.00     0.062 H 
ATOM     48  C   LIG d   1       9.597   6.338  -2.556  0.00  0.00     0.033 A 
ATOM     49  H   LIG d   1      10.331   5.351  -0.801  0.00  0.00     0.064 H 
ATOM     50  C   LIG d   1       9.537   6.320  -3.944  0.00  0.00    -0.040 A 
ATOM     51  C   LIG d   1      10.175   5.317  -4.647  0.00  0.00    -0.052 A 
ATOM     52  H   LIG d   1       8.998   7.092  -4.472  0.00  0.00     0.064 H 
ATOM     53  H   LIG d   1      10.134   5.305  -5.726  0.00  0.00     0.062 H 
BRANCH  48  54
ATOM     54  N   LIG d   1       8.957   7.357  -1.841  0.00  0.00    -0.286 N 
ATOM     55  C   LIG d   1       9.641   8.461  -1.482  0.00  0.00     0.214 C 
ATOM     56  O   LIG d   1      10.831   8.536  -1.703  0.00  0.00    -0.276 OA
ATOM     57  H   LIG d   1       8.020   7.268  -1.605  0.00  0.00     0.155 HD
BRANCH  55  58
ATOM     58  C   LIG d   1       8.927   9.603  -0.804  0.00  0.00     0.013 C 
ATOM     59  H   LIG d   1       8.010   9.831  -1.345  0.00  0.00     0.032 H 
ATOM     60  H   LIG d   1       8.685   9.323   0.221  0.00  0.00     0.032 H 
ATOM     61  H   LIG d   1       9.573  10.482  -0.797  0.00  0.00     0.032 H 
ENDBRANCH  55  58
ENDBRANCH  48  54
ENDBRANCH  41  44
ENDBRANCH   1  41
TORSDOF 11
ENDMDL
MODEL 3
REMARK VINA RESULT:      -6.5      1.540      2.127
REMARK  11 active torsions:
REMARK  status: ('A' for Active; 'I' for Inactive)
REMARK    1  A    between atoms: C_1  and  C_2 
REMARK       I    between atoms: C_2  and  N_4 
REMARK    2  A    between atoms: N_4  and  C_5 
REMARK    3  A    between atoms: C_8  and  C_11 
REMARK    4  A    between atoms: C_11  and  N_12 
REMARK    5  A    between atoms: C_16  and  C_18 
REMARK    6  A    between atoms: C_20  and  C_23 
REMARK    7  A    between atoms: C_25  and  O_29 
REMARK    8  A    between atoms: O_29  and  C_30 
REMARK    9  A    between atoms: C_30  and  C_31 
REMARK   10  A    between atoms: C_31  and  O_32 
REMARK   11  A    between atoms: O_32  and  C_33 
ROOT
ATOM      1  N   LIG d   1       3.992  -0.555  -4.118  0.00  0.00     0.247 N 
ATOM      2  C   LIG d   1       3.457  -1.606  -3.225  0.00  0.00    -0.031 C 
ATOM      3  C   LIG d   1       4.277  -1.470  -1.918  0.00  0.00    -0.007 C 
ATOM      4  C   LIG d   1       4.449   0.068  -1.813  0.00  0.00     0.004 C 
ATOM      5  C   LIG d   1       4.598   0.502  -3.287  0.00  0.00     0.060 C 
ATOM      6  H   LIG d   1       4.078   1.445  -3.451  0.00  0.00     0.095 H 
ATOM      7  H   LIG d   1       2.399  -1.434  -3.029  0.00  0.00     0.082 H 
ATOM      8  H   LIG d   1       3.606  -2.592  -3.666  0.00  0.00     0.082 H 
ATOM      9  H   LIG d   1       3.720  -1.860  -1.066  0.00  0.00     0.032 H 
ATOM     10  H   LIG d   1       5.243  -1.966  -2.010  0.00  0.00     0.032 H 
ATOM     11  H   LIG d   1       3.566   0.525  -1.365  0.00  0.00     0.033 H 
ATOM     12  H   LIG d   1       5.344   0.318  -1.246  0.00  0.00     0.033 H 
ATOM     13  H   LIG d   1       4.693  -0.954  -4.725  0.00  0.00     0.204 HD
ENDROOT
BRANCH   5  14
ATOM     14  C   LIG d   1       6.058   0.652  -3.632  0.00  0.00     0.276 A 
ATOM     15  O   LIG d   1       6.841  -0.302  -4.154  0.00  0.00    -0.332 OA
ATOM     16  N   LIG d   1       8.126   0.279  -4.314  0.00  0.00    -0.050 NA
ATOM     17  C   LIG d   1       8.034   1.511  -3.879  0.00  0.00     0.267 A 
ATOM     18  N   LIG d   1       6.773   1.728  -3.467  0.00  0.00    -0.181 NA
BRANCH  17  19
ATOM     19  C   LIG d   1       9.138   2.503  -3.848  0.00  0.00     0.257 A 
ATOM     20  N   LIG d   1      10.207   2.273  -3.098  0.00  0.00    -0.208 N 
ATOM     21  C   LIG d   1      11.213   3.123  -3.044  0.00  0.00     0.174 A 
ATOM     22  H   LIG d   1      10.252   1.455  -2.578  0.00  0.00     0.453 HD
ATOM     23  C   LIG d   1      11.187   4.302  -3.763  0.00  0.00     0.044 A 
ATOM     24  H   LIG d   1      12.069   2.896  -2.425  0.00  0.00     0.138 H 
ATOM     25  C   LIG d   1      10.081   4.588  -4.559  0.00  0.00     0.133 A 
ATOM     26  H   LIG d   1      12.014   4.993  -3.708  0.00  0.00     0.071 H 
ATOM     27  C   LIG d   1       9.037   3.668  -4.600  0.00  0.00     0.055 A 
ATOM     28  H   LIG d   1       8.164   3.856  -5.206  0.00  0.00     0.072 H 
BRANCH  25  29
ATOM     29  O   LIG d   1      10.021   5.738  -5.280  0.00  0.00    -0.489 OA
BRANCH  29  30
ATOM     30  C   LIG d   1       9.933   6.960  -4.544  0.00  0.00     0.113 C 
ATOM     31  H   LIG d   1       8.924   7.069  -4.143  0.00  0.00     0.072 H 
ATOM     32  H   LIG d   1      10.650   6.944  -3.724  0.00  0.00     0.072 H 
BRANCH  30  33
ATOM     33  C   LIG d   1      10.243   8.137  -5.471  0.00  0.00     0.081 C 
ATOM     34  H   LIG d   1      10.633   8.968  -4.884  0.00  0.00     0.059 H 
ATOM     35  H   LIG d   1      10.986   7.832  -6.208  0.00  0.00     0.059 H 
BRANCH  33  36
ATOM     36  O   LIG d   1       9.048   8.546  -6.140  0.00  0.00    -0.380 OA
BRANCH  36  37
ATOM     37  C   LIG d   1       9.121   8.462  -7.565  0.00  0.00     0.037 C 
ATOM     38  H   LIG d   1       8.982   9.454  -7.994  0.00  0.00     0.052 H 
ATOM     39  H   LIG d   1      10.097   8.075  -7.855  0.00  0.00     0.052 H 
ATOM     40  H   LIG d   1       8.341   7.796  -7.929  0.00  0.00     0.052 H 
ENDBRANCH  36  37
ENDBRANCH  33  36
ENDBRANCH  30  33
ENDBRANCH  29  30
ENDBRANCH  25  29
ENDBRANCH  17  19
ENDBRANCH   5  14
BRANCH   1  41
ATOM     41  C   LIG d   1       2.903   0.011  -4.923  0.00  0.00    -0.005 C 
ATOM     42  H   LIG d   1       2.674   1.017  -4.567  0.00  0.00     0.087 H 
ATOM     43  H   LIG d   1       2.017  -0.617  -4.830  0.00  0.00     0.087 H 
BRANCH  41  44
ATOM     44  C   LIG d   1       3.326   0.074  -6.367  0.00  0.00    -0.003 A 
ATOM     45  C   LIG d   1       4.322  -0.766  -6.831  0.00  0.00    -0.052 A 
ATOM     46  C   LIG d   1       4.713  -0.712  -8.154  0.00  0.00    -0.040 A 
ATOM     47  H   LIG d   1       4.794  -1.465  -6.157  0.00  0.00     0.062 H 
ATOM     48  C   LIG d   1       4.104   0.187  -9.020  0.00  0.00     0.033 A 
ATOM     49  H   LIG d   1       5.490  -1.368  -8.516  0.00  0.00     0.064 H 
ATOM     50  C   LIG d   1       3.108   1.034  -8.550  0.00  0.00    -0.040 A 
ATOM     51  C   LIG d   1       2.718   0.970  -7.227  0.00  0.00    -0.052 A 
ATOM     52  H   LIG d   1       2.635   1.737  -9.221  0.00  0.00     0.064 H 
ATOM     53  H   LIG d   1       1.939   1.625  -6.862  0.00  0.00     0.062 H 
BRANCH  48  54
ATOM     54  N   LIG d   1       4.497   0.244 -10.362  0.00  0.00    -0.286 N 
ATOM     55  C   LIG d   1       3.860  -0.505 -11.284  0.00  0.00     0.214 C 
ATOM     56  O   LIG d   1       3.004  -1.291 -10.940  0.00  0.00    -0.276 OA
ATOM     57  H   LIG d   1       5.227   0.824 -10.629  0.00  0.00     0.155 HD
BRANCH  55  58
ATOM     58  C   LIG d   1       4.213  -0.366 -12.743  0.00  0.00     0.013 C 
ATOM     59  H   LIG d   1       4.776  -1.241 -13.066  0.00  0.00     0.032 H 
ATOM     60  H   LIG d   1       3.299  -0.284 -13.331  0.00  0.00     0.032 H 
ATOM     61  H   LIG d   1       4.818   0.530 -12.887  0.00  0.00     0.032 H 
ENDBRANCH  55  58
ENDBRANCH  48  54
ENDBRANCH  41  44
ENDBRANCH   1  41
TORSDOF 11
ENDMDL
MODEL 4
REMARK VINA RESULT:      -6.4      2.992      7.349
REMARK  11 active torsions:
REMARK  status: ('A' for Active; 'I' for Inactive)
REMARK    1  A    between atoms: C_1  and  C_2 
REMARK       I    between atoms: C_2  and  N_4 
REMARK    2  A    between atoms: N_4  and  C_5 
REMARK    3  A    between atoms: C_8  and  C_11 
REMARK    4  A    between atoms: C_11  and  N_12 
REMARK    5  A    between atoms: C_16  and  C_18 
REMARK    6  A    between atoms: C_20  and  C_23 
REMARK    7  A    between atoms: C_25  and  O_29 
REMARK    8  A    between atoms: O_29  and  C_30 
REMARK    9  A    between atoms: C_30  and  C_31 
REMARK   10  A    between atoms: C_31  and  O_32 
REMARK   11  A    between atoms: O_32  and  C_33 
ROOT
ATOM      1  N   LIG d   1       8.895   2.456  -7.462  0.00  0.00     0.247 N 
ATOM      2  C   LIG d   1       9.763   3.646  -7.595  0.00  0.00    -0.031 C 
ATOM      3  C   LIG d   1      10.361   3.859  -6.183  0.00  0.00    -0.007 C 
ATOM      4  C   LIG d   1      10.578   2.398  -5.710  0.00  0.00     0.004 C 
ATOM      5  C   LIG d   1       9.372   1.653  -6.322  0.00  0.00     0.060 C 
ATOM      6  H   LIG d   1       9.682   0.666  -6.667  0.00  0.00     0.095 H 
ATOM      7  H   LIG d   1      10.555   3.458  -8.319  0.00  0.00     0.082 H 
ATOM      8  H   LIG d   1       9.174   4.514  -7.893  0.00  0.00     0.082 H 
ATOM      9  H   LIG d   1      11.308   4.396  -6.237  0.00  0.00     0.032 H 
ATOM     10  H   LIG d   1       9.657   4.379  -5.534  0.00  0.00     0.032 H 
ATOM     11  H   LIG d   1      11.515   2.000  -6.101  0.00  0.00     0.033 H 
ATOM     12  H   LIG d   1      10.556   2.337  -4.623  0.00  0.00     0.033 H 
ATOM     13  H   LIG d   1       7.943   2.749  -7.296  0.00  0.00     0.204 HD
ENDROOT
BRANCH   5  14
ATOM     14  C   LIG d   1       8.277   1.518  -5.295  0.00  0.00     0.276 A 
ATOM     15  O   LIG d   1       7.833   2.495  -4.492  0.00  0.00    -0.332 OA
ATOM     16  N   LIG d   1       6.805   1.923  -3.698  0.00  0.00    -0.050 NA
ATOM     17  C   LIG d   1       6.708   0.669  -4.062  0.00  0.00     0.267 A 
ATOM     18  N   LIG d   1       7.607   0.433  -5.033  0.00  0.00    -0.181 NA
BRANCH  17  19
ATOM     19  C   LIG d   1       5.762  -0.326  -3.497  0.00  0.00     0.257 A 
ATOM     20  N   LIG d   1       5.168  -0.083  -2.336  0.00  0.00    -0.208 N 
ATOM     21  C   LIG d   1       4.318  -0.935  -1.800  0.00  0.00     0.174 A 
ATOM     22  H   LIG d   1       5.362   0.746  -1.871  0.00  0.00     0.453 HD
ATOM     23  C   LIG d   1       4.019  -2.130  -2.425  0.00  0.00     0.044 A 
ATOM     24  H   LIG d   1       3.851  -0.698  -0.855  0.00  0.00     0.138 H 
ATOM     25  C   LIG d   1       4.624  -2.430  -3.643  0.00  0.00     0.133 A 
ATOM     26  H   LIG d   1       3.324  -2.823  -1.975  0.00  0.00     0.071 H 
ATOM     27  C   LIG d   1       5.512  -1.507  -4.187  0.00  0.00     0.055 A 
ATOM     28  H   LIG d   1       6.000  -1.705  -5.129  0.00  0.00     0.072 H 
BRANCH  25  29
ATOM     29  O   LIG d   1       4.352  -3.595  -4.286  0.00  0.00    -0.489 OA
BRANCH  29  30
ATOM     30  C   LIG d   1       4.734  -3.681  -5.660  0.00  0.00     0.113 C 
ATOM     31  H   LIG d   1       4.397  -2.787  -6.187  0.00  0.00     0.072 H 
ATOM     32  H   LIG d   1       5.819  -3.757  -5.733  0.00  0.00     0.072 H 
BRANCH  30  33
ATOM     33  C   LIG d   1       4.092  -4.917  -6.292  0.00  0.00     0.081 C 
ATOM     34  H   LIG d   1       3.089  -4.670  -6.638  0.00  0.00     0.059 H 
ATOM     35  H   LIG d   1       4.697  -5.249  -7.136  0.00  0.00     0.059 H 
BRANCH  33  36
ATOM     36  O   LIG d   1       4.016  -5.964  -5.321  0.00  0.00    -0.380 OA
BRANCH  36  37
ATOM     37  C   LIG d   1       4.984  -6.999  -5.504  0.00  0.00     0.037 C 
ATOM     38  H   LIG d   1       5.766  -6.903  -4.752  0.00  0.00     0.052 H 
ATOM     39  H   LIG d   1       4.499  -7.970  -5.402  0.00  0.00     0.052 H 
ATOM     40  H   LIG d   1       5.423  -6.914  -6.498  0.00  0.00     0.052 H 
ENDBRANCH  36  37
ENDBRANCH  33  36
ENDBRANCH  30  33
ENDBRANCH  29  30
ENDBRANCH  25  29
ENDBRANCH  17  19
ENDBRANCH   5  14
BRANCH   1  41
ATOM     41  C   LIG d   1       8.960   1.656  -8.693  0.00  0.00    -0.005 C 
ATOM     42  H   LIG d   1       9.491   0.725  -8.493  0.00  0.00     0.087 H 
ATOM     43  H   LIG d   1       9.489   2.217  -9.463  0.00  0.00     0.087 H 
BRANCH  41  44
ATOM     44  C   LIG d   1       7.563   1.347  -9.165  0.00  0.00    -0.003 A 
ATOM     45  C   LIG d   1       7.337   0.250  -9.978  0.00  0.00    -0.052 A 
ATOM     46  C   LIG d   1       6.059  -0.037 -10.412  0.00  0.00    -0.040 A 
ATOM     47  H   LIG d   1       8.162  -0.382 -10.271  0.00  0.00     0.062 H 
ATOM     48  C   LIG d   1       4.999   0.775 -10.032  0.00  0.00     0.033 A 
ATOM     49  H   LIG d   1       5.882  -0.894 -11.045  0.00  0.00     0.064 H 
ATOM     50  C   LIG d   1       5.230   1.880  -9.221  0.00  0.00    -0.040 A 
ATOM     51  C   LIG d   1       6.510   2.158  -8.785  0.00  0.00    -0.052 A 
ATOM     52  H   LIG d   1       4.408   2.516  -8.928  0.00  0.00     0.064 H 
ATOM     53  H   LIG d   1       6.690   3.014  -8.150  0.00  0.00     0.062 H 
BRANCH  48  54
ATOM     54  N   LIG d   1       3.701   0.487 -10.470  0.00  0.00    -0.286 N 
ATOM     55  C   LIG d   1       2.903  -0.312  -9.735  0.00  0.00     0.214 C 
ATOM     56  O   LIG d   1       3.336  -0.849  -8.738  0.00  0.00    -0.276 OA
ATOM     57  H   LIG d   1       3.376   0.864 -11.303  0.00  0.00     0.155 HD
BRANCH  55  58
ATOM     58  C   LIG d   1       1.473  -0.538 -10.152  0.00  0.00     0.013 C 
ATOM     59  H   LIG d   1       1.417  -0.609 -11.238  0.00  0.00     0.032 H 
ATOM     60  H   LIG d   1       1.107  -1.464  -9.709  0.00  0.00     0.032 H 
ATOM     61  H   LIG d   1       0.858   0.295  -9.810  0.00  0.00     0.032 H 
ENDBRANCH  55  58
ENDBRANCH  48  54
ENDBRANCH  41  44
ENDBRANCH   1  41
TORSDOF 11
ENDMDL
MODEL 5
REMARK VINA RESULT:      -6.2      5.451      9.444
REMARK  11 active torsions:
REMARK  status: ('A' for Active; 'I' for Inactive)
REMARK    1  A    between atoms: C_1  and  C_2 
REMARK       I    between atoms: C_2  and  N_4 
REMARK    2  A    between atoms: N_4  and  C_5 
REMARK    3  A    between atoms: C_8  and  C_11 
REMARK    4  A    between atoms: C_11  and  N_12 
REMARK    5  A    between atoms: C_16  and  C_18 
REMARK    6  A    between atoms: C_20  and  C_23 
REMARK    7  A    between atoms: C_25  and  O_29 
REMARK    8  A    between atoms: O_29  and  C_30 
REMARK    9  A    between atoms: C_30  and  C_31 
REMARK   10  A    between atoms: C_31  and  O_32 
REMARK   11  A    between atoms: O_32  and  C_33 
ROOT
ATOM      1  N   LIG d   1       3.980  -1.405  -4.700  0.00  0.00     0.247 N 
ATOM      2  C   LIG d   1       3.049  -1.239  -3.564  0.00  0.00    -0.031 C 
ATOM      3  C   LIG d   1       3.698  -2.028  -2.401  0.00  0.00    -0.007 C 
ATOM      4  C   LIG d   1       5.205  -1.738  -2.627  0.00  0.00     0.004 C 
ATOM      5  C   LIG d   1       5.323  -1.699  -4.166  0.00  0.00     0.060 C 
ATOM      6  H   LIG d   1       6.020  -0.916  -4.465  0.00  0.00     0.095 H 
ATOM      7  H   LIG d   1       2.954  -0.186  -3.302  0.00  0.00     0.082 H 
ATOM      8  H   LIG d   1       2.072  -1.659  -3.809  0.00  0.00     0.082 H 
ATOM      9  H   LIG d   1       3.367  -1.644  -1.436  0.00  0.00     0.032 H 
ATOM     10  H   LIG d   1       3.488  -3.094  -2.486  0.00  0.00     0.032 H 
ATOM     11  H   LIG d   1       5.482  -0.777  -2.195  0.00  0.00     0.033 H 
ATOM     12  H   LIG d   1       5.818  -2.538  -2.215  0.00  0.00     0.033 H 
ATOM     13  H   LIG d   1       3.671  -2.171  -5.281  0.00  0.00     0.204 HD
ENDROOT
BRANCH   5  14
ATOM     14  C   LIG d   1       5.798  -3.034  -4.678  0.00  0.00     0.276 A 
ATOM     15  O   LIG d   1       7.057  -3.489  -4.626  0.00  0.00    -0.332 OA
ATOM     16  N   LIG d   1       7.041  -4.780  -5.216  0.00  0.00    -0.050 NA
ATOM     17  C   LIG d   1       5.804  -5.006  -5.581  0.00  0.00     0.267 A 
ATOM     18  N   LIG d   1       5.057  -3.939  -5.250  0.00  0.00    -0.181 NA
BRANCH  17  19
ATOM     19  C   LIG d   1       5.309  -6.236  -6.250  0.00  0.00     0.257 A 
ATOM     20  N   LIG d   1       4.631  -6.140  -7.385  0.00  0.00    -0.208 N 
ATOM     21  C   LIG d   1       4.178  -7.205  -8.016  0.00  0.00     0.174 A 
ATOM     22  H   LIG d   1       4.467  -5.262  -7.764  0.00  0.00     0.453 HD
ATOM     23  C   LIG d   1       4.384  -8.472  -7.508  0.00  0.00     0.044 A 
ATOM     24  H   LIG d   1       3.634  -7.084  -8.941  0.00  0.00     0.138 H 
ATOM     25  C   LIG d   1       5.086  -8.621  -6.314  0.00  0.00     0.133 A 
ATOM     26  H   LIG d   1       4.004  -9.338  -8.030  0.00  0.00     0.071 H 
ATOM     27  C   LIG d   1       5.557  -7.478  -5.675  0.00  0.00     0.055 A 
ATOM     28  H   LIG d   1       6.105  -7.554  -4.748  0.00  0.00     0.072 H 
BRANCH  25  29
ATOM     29  O   LIG d   1       5.307  -9.853  -5.786  0.00  0.00    -0.489 OA
BRANCH  29  30
ATOM     30  C   LIG d   1       4.378 -10.882  -6.132  0.00  0.00     0.113 C 
ATOM     31  H   LIG d   1       3.486 -10.434  -6.570  0.00  0.00     0.072 H 
ATOM     32  H   LIG d   1       4.836 -11.559  -6.852  0.00  0.00     0.072 H 
BRANCH  30  33
ATOM     33  C   LIG d   1       3.990 -11.663  -4.875  0.00  0.00     0.081 C 
ATOM     34  H   LIG d   1       3.728 -12.685  -5.147  0.00  0.00     0.059 H 
ATOM     35  H   LIG d   1       4.831 -11.676  -4.182  0.00  0.00     0.059 H 
BRANCH  33  36
ATOM     36  O   LIG d   1       2.869 -11.034  -4.249  0.00  0.00    -0.380 OA
BRANCH  36  37
ATOM     37  C   LIG d   1       3.211 -10.210  -3.133  0.00  0.00     0.037 C 
ATOM     38  H   LIG d   1       4.295 -10.124  -3.064  0.00  0.00     0.052 H 
ATOM     39  H   LIG d   1       2.776  -9.220  -3.268  0.00  0.00     0.052 H 
ATOM     40  H   LIG d   1       2.822 -10.657  -2.219  0.00  0.00     0.052 H 
ENDBRANCH  36  37
ENDBRANCH  33  36
ENDBRANCH  30  33
ENDBRANCH  29  30
ENDBRANCH  25  29
ENDBRANCH  17  19
ENDBRANCH   5  14
BRANCH   1  41
ATOM     41  C   LIG d   1       4.022  -0.168  -5.490  0.00  0.00    -0.005 C 
ATOM     42  H   LIG d   1       5.035   0.235  -5.481  0.00  0.00     0.087 H 
ATOM     43  H   LIG d   1       3.336   0.562  -5.060  0.00  0.00     0.087 H 
BRANCH  41  44
ATOM     44  C   LIG d   1       3.613  -0.465  -6.910  0.00  0.00    -0.003 A 
ATOM     45  C   LIG d   1       2.713   0.363  -7.557  0.00  0.00    -0.052 A 
ATOM     46  C   LIG d   1       2.337   0.094  -8.857  0.00  0.00    -0.040 A 
ATOM     47  H   LIG d   1       2.305   1.221  -7.043  0.00  0.00     0.062 H 
ATOM     48  C   LIG d   1       2.863  -1.008  -9.517  0.00  0.00     0.033 A 
ATOM     49  H   LIG d   1       1.635   0.741  -9.362  0.00  0.00     0.064 H 
ATOM     50  C   LIG d   1       3.762  -1.842  -8.863  0.00  0.00    -0.040 A 
ATOM     51  C   LIG d   1       4.139  -1.564  -7.564  0.00  0.00    -0.052 A 
ATOM     52  H   LIG d   1       4.170  -2.703  -9.373  0.00  0.00     0.064 H 
ATOM     53  H   LIG d   1       4.842  -2.209  -7.057  0.00  0.00     0.062 H 
BRANCH  48  54
ATOM     54  N   LIG d   1       2.484  -1.284 -10.836  0.00  0.00    -0.286 N 
ATOM     55  C   LIG d   1       1.493  -2.163 -11.082  0.00  0.00     0.214 C 
ATOM     56  O   LIG d   1       0.987  -2.779 -10.168  0.00  0.00    -0.276 OA
ATOM     57  H   LIG d   1       2.934  -0.841 -11.572  0.00  0.00     0.155 HD
BRANCH  55  58
ATOM     58  C   LIG d   1       1.013  -2.383 -12.494  0.00  0.00     0.013 C 
ATOM     59  H   LIG d   1       0.459  -1.507 -12.830  0.00  0.00     0.032 H 
ATOM     60  H   LIG d   1       1.870  -2.543 -13.148  0.00  0.00     0.032 H 
ATOM     61  H   LIG d   1       0.364  -3.259 -12.526  0.00  0.00     0.032 H 
ENDBRANCH  55  58
ENDBRANCH  48  54
ENDBRANCH  41  44
ENDBRANCH   1  41
TORSDOF 11
ENDMDL
MODEL 6
REMARK VINA RESULT:      -6.1      4.779      8.949
REMARK  11 active torsions:
REMARK  status: ('A' for Active; 'I' for Inactive)
REMARK    1  A    between atoms: C_1  and  C_2 
REMARK       I    between atoms: C_2  and  N_4 
REMARK    2  A    between atoms: N_4  and  C_5 
REMARK    3  A    between atoms: C_8  and  C_11 
REMARK    4  A    between atoms: C_11  and  N_12 
REMARK    5  A    between atoms: C_16  and  C_18 
REMARK    6  A    between atoms: C_20  and  C_23 
REMARK    7  A    between atoms: C_25  and  O_29 
REMARK    8  A    between atoms: O_29  and  C_30 
REMARK    9  A    between atoms: C_30  and  C_31 
REMARK   10  A    between atoms: C_31  and  O_32 
REMARK   11  A    between atoms: O_32  and  C_33 
ROOT
ATOM      1  N   LIG d   1       5.740  -5.931  -6.170  0.00  0.00     0.247 N 
ATOM      2  C   LIG d   1       5.703  -7.259  -5.521  0.00  0.00    -0.031 C 
ATOM      3  C   LIG d   1       5.195  -8.223  -6.622  0.00  0.00    -0.007 C 
ATOM      4  C   LIG d   1       5.882  -7.645  -7.887  0.00  0.00     0.004 C 
ATOM      5  C   LIG d   1       5.865  -6.123  -7.626  0.00  0.00     0.060 C 
ATOM      6  H   LIG d   1       6.793  -5.675  -7.981  0.00  0.00     0.095 H 
ATOM      7  H   LIG d   1       6.701  -7.549  -5.193  0.00  0.00     0.082 H 
ATOM      8  H   LIG d   1       5.013  -7.250  -4.676  0.00  0.00     0.082 H 
ATOM      9  H   LIG d   1       5.526  -9.243  -6.430  0.00  0.00     0.032 H 
ATOM     10  H   LIG d   1       4.110  -8.177  -6.711  0.00  0.00     0.032 H 
ATOM     11  H   LIG d   1       6.906  -8.009  -7.971  0.00  0.00     0.033 H 
ATOM     12  H   LIG d   1       5.311  -7.888  -8.782  0.00  0.00     0.033 H 
ATOM     13  H   LIG d   1       4.886  -5.432  -5.965  0.00  0.00     0.204 HD
ENDROOT
BRANCH   5  14
ATOM     14  C   LIG d   1       4.689  -5.496  -8.330  0.00  0.00     0.276 A 
ATOM     15  O   LIG d   1       3.722  -6.157  -8.980  0.00  0.00    -0.332 OA
ATOM     16  N   LIG d   1       2.830  -5.173  -9.480  0.00  0.00    -0.050 NA
ATOM     17  C   LIG d   1       3.313  -4.012  -9.112  0.00  0.00     0.267 A 
ATOM     18  N   LIG d   1       4.443  -4.220  -8.413  0.00  0.00    -0.181 NA
BRANCH  17  19
ATOM     19  C   LIG d   1       2.713  -2.689  -9.415  0.00  0.00     0.257 A 
ATOM     20  N   LIG d   1       1.838  -2.575 -10.406  0.00  0.00    -0.208 N 
ATOM     21  C   LIG d   1       1.276  -1.422 -10.706  0.00  0.00     0.174 A 
ATOM     22  H   LIG d   1       1.603  -3.363 -10.920  0.00  0.00     0.453 HD
ATOM     23  C   LIG d   1       1.588  -0.275 -10.004  0.00  0.00     0.044 A 
ATOM     24  H   LIG d   1       0.565  -1.372 -11.518  0.00  0.00     0.138 H 
ATOM     25  C   LIG d   1       2.507  -0.345  -8.959  0.00  0.00     0.133 A 
ATOM     26  H   LIG d   1       1.126   0.667 -10.261  0.00  0.00     0.071 H 
ATOM     27  C   LIG d   1       3.078  -1.579  -8.661  0.00  0.00     0.055 A 
ATOM     28  H   LIG d   1       3.794  -1.672  -7.858  0.00  0.00     0.072 H 
BRANCH  25  29
ATOM     29  O   LIG d   1       2.836   0.763  -8.246  0.00  0.00    -0.489 OA
BRANCH  29  30
ATOM     30  C   LIG d   1       2.766   2.016  -8.928  0.00  0.00     0.113 C 
ATOM     31  H   LIG d   1       2.213   1.892  -9.860  0.00  0.00     0.072 H 
ATOM     32  H   LIG d   1       2.256   2.745  -8.298  0.00  0.00     0.072 H 
BRANCH  30  33
ATOM     33  C   LIG d   1       4.180   2.510  -9.236  0.00  0.00     0.081 C 
ATOM     34  H   LIG d   1       4.389   2.378 -10.298  0.00  0.00     0.059 H 
ATOM     35  H   LIG d   1       4.261   3.566  -8.979  0.00  0.00     0.059 H 
BRANCH  33  36
ATOM     36  O   LIG d   1       5.125   1.760  -8.469  0.00  0.00    -0.380 OA
BRANCH  36  37
ATOM     37  C   LIG d   1       6.237   1.278  -9.226  0.00  0.00     0.037 C 
ATOM     38  H   LIG d   1       6.185   0.192  -9.297  0.00  0.00     0.052 H 
ATOM     39  H   LIG d   1       6.208   1.708 -10.227  0.00  0.00     0.052 H 
ATOM     40  H   LIG d   1       7.164   1.566  -8.733  0.00  0.00     0.052 H 
ENDBRANCH  36  37
ENDBRANCH  33  36
ENDBRANCH  30  33
ENDBRANCH  29  30
ENDBRANCH  25  29
ENDBRANCH  17  19
ENDBRANCH   5  14
BRANCH   1  41
ATOM     41  C   LIG d   1       6.892  -5.169  -5.670  0.00  0.00    -0.005 C 
ATOM     42  H   LIG d   1       7.477  -4.800  -6.514  0.00  0.00     0.087 H 
ATOM     43  H   LIG d   1       7.515  -5.814  -5.051  0.00  0.00     0.087 H 
BRANCH  41  44
ATOM     44  C   LIG d   1       6.405  -4.003  -4.849  0.00  0.00    -0.003 A 
ATOM     45  C   LIG d   1       5.047  -3.790  -4.690  0.00  0.00    -0.052 A 
ATOM     46  C   LIG d   1       4.597  -2.723  -3.939  0.00  0.00    -0.040 A 
ATOM     47  H   LIG d   1       4.339  -4.461  -5.154  0.00  0.00     0.062 H 
ATOM     48  C   LIG d   1       5.509  -1.863  -3.342  0.00  0.00     0.033 A 
ATOM     49  H   LIG d   1       3.538  -2.558  -3.814  0.00  0.00     0.064 H 
ATOM     50  C   LIG d   1       6.872  -2.074  -3.508  0.00  0.00    -0.040 A 
ATOM     51  C   LIG d   1       7.315  -3.148  -4.257  0.00  0.00    -0.052 A 
ATOM     52  H   LIG d   1       7.584  -1.404  -3.049  0.00  0.00     0.064 H 
ATOM     53  H   LIG d   1       8.375  -3.316  -4.382  0.00  0.00     0.062 H 
BRANCH  48  54
ATOM     54  N   LIG d   1       5.057  -0.780  -2.579  0.00  0.00    -0.286 N 
ATOM     55  C   LIG d   1       4.571   0.319  -3.190  0.00  0.00     0.214 C 
ATOM     56  O   LIG d   1       4.605   0.405  -4.399  0.00  0.00    -0.276 OA
ATOM     57  H   LIG d   1       5.091  -0.821  -1.611  0.00  0.00     0.155 HD
BRANCH  55  58
ATOM     58  C   LIG d   1       3.988   1.442  -2.371  0.00  0.00     0.013 C 
ATOM     59  H   LIG d   1       4.785   1.948  -1.828  0.00  0.00     0.032 H 
ATOM     60  H   LIG d   1       3.489   2.152  -3.031  0.00  0.00     0.032 H 
ATOM     61  H   LIG d   1       3.266   1.037  -1.662  0.00  0.00     0.032 H 
ENDBRANCH  55  58
ENDBRANCH  48  54
ENDBRANCH  41  44
ENDBRANCH   1  41
TORSDOF 11
ENDMDL
MODEL 7
REMARK VINA RESULT:      -6.1      3.538      8.551
REMARK  11 active torsions:
REMARK  status: ('A' for Active; 'I' for Inactive)
REMARK    1  A    between atoms: C_1  and  C_2 
REMARK       I    between atoms: C_2  and  N_4 
REMARK    2  A    between atoms: N_4  and  C_5 
REMARK    3  A    between atoms: C_8  and  C_11 
REMARK    4  A    between atoms: C_11  and  N_12 
REMARK    5  A    between atoms: C_16  and  C_18 
REMARK    6  A    between atoms: C_20  and  C_23 
REMARK    7  A    between atoms: C_25  and  O_29 
REMARK    8  A    between atoms: O_29  and  C_30 
REMARK    9  A    between atoms: C_30  and  C_31 
REMARK   10  A    between atoms: C_31  and  O_32 
REMARK   11  A    between atoms: O_32  and  C_33 
ROOT
ATOM      1  N   LIG d   1       9.986   1.043  -6.682  0.00  0.00     0.247 N 
ATOM      2  C   LIG d   1      11.322   0.755  -7.245  0.00  0.00    -0.031 C 
ATOM      3  C   LIG d   1      11.382   1.571  -8.560  0.00  0.00    -0.007 C 
ATOM      4  C   LIG d   1      10.620   2.863  -8.163  0.00  0.00     0.004 C 
ATOM      5  C   LIG d   1       9.524   2.340  -7.210  0.00  0.00     0.060 C 
ATOM      6  H   LIG d   1       9.378   3.043  -6.391  0.00  0.00     0.095 H 
ATOM      7  H   LIG d   1      12.102   1.083  -6.559  0.00  0.00     0.082 H 
ATOM      8  H   LIG d   1      11.424  -0.311  -7.455  0.00  0.00     0.082 H 
ATOM      9  H   LIG d   1      12.413   1.794  -8.835  0.00  0.00     0.032 H 
ATOM     10  H   LIG d   1      10.870   1.048  -9.368  0.00  0.00     0.032 H 
ATOM     11  H   LIG d   1      11.282   3.557  -7.645  0.00  0.00     0.033 H 
ATOM     12  H   LIG d   1      10.176   3.333  -9.039  0.00  0.00     0.033 H 
ATOM     13  H   LIG d   1       9.340   0.316  -6.955  0.00  0.00     0.204 HD
ENDROOT
BRANCH   5  14
ATOM     14  C   LIG d   1       8.233   2.156  -7.966  0.00  0.00     0.276 A 
ATOM     15  O   LIG d   1       7.927   2.721  -9.142  0.00  0.00    -0.332 OA
ATOM     16  N   LIG d   1       6.624   2.270  -9.476  0.00  0.00    -0.050 NA
ATOM     17  C   LIG d   1       6.239   1.488  -8.498  0.00  0.00     0.267 A 
ATOM     18  N   LIG d   1       7.225   1.425  -7.585  0.00  0.00    -0.181 NA
BRANCH  17  19
ATOM     19  C   LIG d   1       4.933   0.788  -8.412  0.00  0.00     0.257 A 
ATOM     20  N   LIG d   1       3.815   1.493  -8.303  0.00  0.00    -0.208 N 
ATOM     21  C   LIG d   1       2.633   0.913  -8.230  0.00  0.00     0.174 A 
ATOM     22  H   LIG d   1       3.868   2.461  -8.281  0.00  0.00     0.453 HD
ATOM     23  C   LIG d   1       2.514  -0.462  -8.251  0.00  0.00     0.044 A 
ATOM     24  H   LIG d   1       1.746   1.524  -8.147  0.00  0.00     0.138 H 
ATOM     25  C   LIG d   1       3.662  -1.244  -8.357  0.00  0.00     0.133 A 
ATOM     26  H   LIG d   1       1.542  -0.927  -8.185  0.00  0.00     0.071 H 
ATOM     27  C   LIG d   1       4.895  -0.602  -8.439  0.00  0.00     0.055 A 
ATOM     28  H   LIG d   1       5.806  -1.174  -8.523  0.00  0.00     0.072 H 
BRANCH  25  29
ATOM     29  O   LIG d   1       3.582  -2.599  -8.381  0.00  0.00    -0.489 OA
BRANCH  29  30
ATOM     30  C   LIG d   1       4.548  -3.319  -7.613  0.00  0.00     0.113 C 
ATOM     31  H   LIG d   1       5.416  -3.538  -8.235  0.00  0.00     0.072 H 
ATOM     32  H   LIG d   1       4.855  -2.716  -6.758  0.00  0.00     0.072 H 
BRANCH  30  33
ATOM     33  C   LIG d   1       3.931  -4.628  -7.117  0.00  0.00     0.081 C 
ATOM     34  H   LIG d   1       2.869  -4.645  -7.358  0.00  0.00     0.059 H 
ATOM     35  H   LIG d   1       4.427  -5.469  -7.602  0.00  0.00     0.059 H 
BRANCH  33  36
ATOM     36  O   LIG d   1       4.099  -4.729  -5.701  0.00  0.00    -0.380 OA
BRANCH  36  37
ATOM     37  C   LIG d   1       4.777  -3.616  -5.115  0.00  0.00     0.037 C 
ATOM     38  H   LIG d   1       4.646  -3.640  -4.033  0.00  0.00     0.052 H 
ATOM     39  H   LIG d   1       5.838  -3.671  -5.354  0.00  0.00     0.052 H 
ATOM     40  H   LIG d   1       4.362  -2.689  -5.510  0.00  0.00     0.052 H 
ENDBRANCH  36  37
ENDBRANCH  33  36
ENDBRANCH  30  33
ENDBRANCH  29  30
ENDBRANCH  25  29
ENDBRANCH  17  19
ENDBRANCH   5  14
BRANCH   1  41
ATOM     41  C   LIG d   1      10.070   1.107  -5.217  0.00  0.00    -0.005 C 
ATOM     42  H   LIG d   1      10.318   2.124  -4.912  0.00  0.00     0.087 H 
ATOM     43  H   LIG d   1      10.844   0.424  -4.867  0.00  0.00     0.087 H 
BRANCH  41  44
ATOM     44  C   LIG d   1       8.744   0.713  -4.620  0.00  0.00    -0.003 A 
ATOM     45  C   LIG d   1       7.992   1.648  -3.932  0.00  0.00    -0.052 A 
ATOM     46  C   LIG d   1       6.776   1.291  -3.385  0.00  0.00    -0.040 A 
ATOM     47  H   LIG d   1       8.356   2.659  -3.826  0.00  0.00     0.062 H 
ATOM     48  C   LIG d   1       6.308  -0.009  -3.524  0.00  0.00     0.033 A 
ATOM     49  H   LIG d   1       6.189   2.022  -2.849  0.00  0.00     0.064 H 
ATOM     50  C   LIG d   1       7.069  -0.948  -4.209  0.00  0.00    -0.040 A 
ATOM     51  C   LIG d   1       8.281  -0.582  -4.760  0.00  0.00    -0.052 A 
ATOM     52  H   LIG d   1       6.710  -1.961  -4.316  0.00  0.00     0.064 H 
ATOM     53  H   LIG d   1       8.871  -1.311  -5.298  0.00  0.00     0.062 H 
BRANCH  48  54
ATOM     54  N   LIG d   1       5.076  -0.375  -2.970  0.00  0.00    -0.286 N 
ATOM     55  C   LIG d   1       3.947  -0.247  -3.694  0.00  0.00     0.214 C 
ATOM     56  O   LIG d   1       3.985   0.263  -4.793  0.00  0.00    -0.276 OA
ATOM     57  H   LIG d   1       5.036  -0.721  -2.065  0.00  0.00     0.155 HD
BRANCH  55  58
ATOM     58  C   LIG d   1       2.635  -0.738  -3.137  0.00  0.00     0.013 C 
ATOM     59  H   LIG d   1       2.817  -1.560  -2.446  0.00  0.00     0.032 H 
ATOM     60  H   LIG d   1       2.137   0.076  -2.610  0.00  0.00     0.032 H 
ATOM     61  H   LIG d   1       1.999  -1.083  -3.954  0.00  0.00     0.032 H 
ENDBRANCH  55  58
ENDBRANCH  48  54
ENDBRANCH  41  44
ENDBRANCH   1  41
TORSDOF 11
ENDMDL
MODEL 8
REMARK VINA RESULT:      -6.1      5.591     10.588
REMARK  11 active torsions:
REMARK  status: ('A' for Active; 'I' for Inactive)
REMARK    1  A    between atoms: C_1  and  C_2 
REMARK       I    between atoms: C_2  and  N_4 
REMARK    2  A    between atoms: N_4  and  C_5 
REMARK    3  A    between atoms: C_8  and  C_11 
REMARK    4  A    between atoms: C_11  and  N_12 
REMARK    5  A    between atoms: C_16  and  C_18 
REMARK    6  A    between atoms: C_20  and  C_23 
REMARK    7  A    between atoms: C_25  and  O_29 
REMARK    8  A    between atoms: O_29  and  C_30 
REMARK    9  A    between atoms: C_30  and  C_31 
REMARK   10  A    between atoms: C_31  and  O_32 
REMARK   11  A    between atoms: O_32  and  C_33 
ROOT
ATOM      1  N   LIG d   1      11.112   9.828  -0.704  0.00  0.00     0.247 N 
ATOM      2  C   LIG d   1      12.329  10.507  -0.210  0.00  0.00    -0.031 C 
ATOM      3  C   LIG d   1      12.179  11.977  -0.674  0.00  0.00    -0.007 C 
ATOM      4  C   LIG d   1      10.654  12.206  -0.501  0.00  0.00     0.004 C 
ATOM      5  C   LIG d   1      10.052  10.837  -0.882  0.00  0.00     0.060 C 
ATOM      6  H   LIG d   1       9.209  10.608  -0.230  0.00  0.00     0.095 H 
ATOM      7  H   LIG d   1      12.377  10.455   0.878  0.00  0.00     0.082 H 
ATOM      8  H   LIG d   1      13.220  10.058  -0.652  0.00  0.00     0.082 H 
ATOM      9  H   LIG d   1      12.750  12.649  -0.034  0.00  0.00     0.032 H 
ATOM     10  H   LIG d   1      12.474  12.089  -1.717  0.00  0.00     0.032 H 
ATOM     11  H   LIG d   1      10.417  12.457   0.533  0.00  0.00     0.033 H 
ATOM     12  H   LIG d   1      10.302  12.983  -1.178  0.00  0.00     0.033 H 
ATOM     13  H   LIG d   1      11.309   9.383  -1.588  0.00  0.00     0.204 HD
ENDROOT
BRANCH   5  14
ATOM     14  C   LIG d   1       9.599  10.858  -2.319  0.00  0.00     0.276 A 
ATOM     15  O   LIG d   1       8.779  11.764  -2.868  0.00  0.00    -0.332 OA
ATOM     16  N   LIG d   1       8.632  11.397  -4.232  0.00  0.00    -0.050 NA
ATOM     17  C   LIG d   1       9.352  10.317  -4.405  0.00  0.00     0.267 A 
ATOM     18  N   LIG d   1       9.936   9.998  -3.237  0.00  0.00    -0.181 NA
BRANCH  17  19
ATOM     19  C   LIG d   1       9.500   9.570  -5.680  0.00  0.00     0.257 A 
ATOM     20  N   LIG d   1       9.623  10.235  -6.821  0.00  0.00    -0.208 N 
ATOM     21  C   LIG d   1       9.762   9.614  -7.975  0.00  0.00     0.174 A 
ATOM     22  H   LIG d   1       9.615  11.205  -6.805  0.00  0.00     0.453 HD
ATOM     23  C   LIG d   1       9.772   8.234  -8.042  0.00  0.00     0.044 A 
ATOM     24  H   LIG d   1       9.865  10.192  -8.881  0.00  0.00     0.138 H 
ATOM     25  C   LIG d   1       9.639   7.494  -6.869  0.00  0.00     0.133 A 
ATOM     26  H   LIG d   1       9.882   7.735  -8.993  0.00  0.00     0.071 H 
ATOM     27  C   LIG d   1       9.500   8.180  -5.666  0.00  0.00     0.055 A 
ATOM     28  H   LIG d   1       9.395   7.640  -4.737  0.00  0.00     0.072 H 
BRANCH  25  29
ATOM     29  O   LIG d   1       9.645   6.137  -6.899  0.00  0.00    -0.489 OA
BRANCH  29  30
ATOM     30  C   LIG d   1      10.071   5.465  -5.712  0.00  0.00     0.113 C 
ATOM     31  H   LIG d   1      11.160   5.483  -5.656  0.00  0.00     0.072 H 
ATOM     32  H   LIG d   1       9.655   5.967  -4.840  0.00  0.00     0.072 H 
BRANCH  30  33
ATOM     33  C   LIG d   1       9.587   4.015  -5.745  0.00  0.00     0.081 C 
ATOM     34  H   LIG d   1       8.925   3.871  -6.599  0.00  0.00     0.059 H 
ATOM     35  H   LIG d   1      10.444   3.347  -5.833  0.00  0.00     0.059 H 
BRANCH  33  36
ATOM     36  O   LIG d   1       8.877   3.721  -4.540  0.00  0.00    -0.380 OA
BRANCH  36  37
ATOM     37  C   LIG d   1       8.315   2.408  -4.500  0.00  0.00     0.037 C 
ATOM     38  H   LIG d   1       8.804   1.826  -3.719  0.00  0.00     0.052 H 
ATOM     39  H   LIG d   1       7.248   2.476  -4.288  0.00  0.00     0.052 H 
ATOM     40  H   LIG d   1       8.464   1.920  -5.463  0.00  0.00     0.052 H 
ENDBRANCH  36  37
ENDBRANCH  33  36
ENDBRANCH  30  33
ENDBRANCH  29  30
ENDBRANCH  25  29
ENDBRANCH  17  19
ENDBRANCH   5  14
BRANCH   1  41
ATOM     41  C   LIG d   1      10.677   8.820   0.272  0.00  0.00    -0.005 C 
ATOM     42  H   LIG d   1       9.650   9.026   0.573  0.00  0.00     0.087 H 
ATOM     43  H   LIG d   1      11.326   8.858   1.147  0.00  0.00     0.087 H 
BRANCH  41  44
ATOM     44  C   LIG d   1      10.754   7.451  -0.352  0.00  0.00    -0.003 A 
ATOM     45  C   LIG d   1       9.910   7.121  -1.398  0.00  0.00    -0.052 A 
ATOM     46  C   LIG d   1       9.977   5.868  -1.973  0.00  0.00    -0.040 A 
ATOM     47  H   LIG d   1       9.199   7.847  -1.765  0.00  0.00     0.062 H 
ATOM     48  C   LIG d   1      10.893   4.938  -1.500  0.00  0.00     0.033 A 
ATOM     49  H   LIG d   1       9.320   5.612  -2.790  0.00  0.00     0.064 H 
ATOM     50  C   LIG d   1      11.735   5.269  -0.445  0.00  0.00    -0.040 A 
ATOM     51  C   LIG d   1      11.666   6.527   0.121  0.00  0.00    -0.052 A 
ATOM     52  H   LIG d   1      12.445   4.545  -0.073  0.00  0.00     0.064 H 
ATOM     53  H   LIG d   1      12.324   6.786   0.938  0.00  0.00     0.062 H 
BRANCH  48  54
ATOM     54  N   LIG d   1      10.964   3.666  -2.080  0.00  0.00    -0.286 N 
ATOM     55  C   LIG d   1      11.876   3.413  -3.040  0.00  0.00     0.214 C 
ATOM     56  O   LIG d   1      12.578   4.307  -3.461  0.00  0.00    -0.276 OA
ATOM     57  H   LIG d   1      10.357   2.967  -1.791  0.00  0.00     0.155 HD
BRANCH  55  58
ATOM     58  C   LIG d   1      12.023   2.017  -3.591  0.00  0.00     0.013 C 
ATOM     59  H   LIG d   1      11.587   1.972  -4.588  0.00  0.00     0.032 H 
ATOM     60  H   LIG d   1      13.080   1.757  -3.644  0.00  0.00     0.032 H 
ATOM     61  H   LIG d   1      11.509   1.312  -2.936  0.00  0.00     0.032 H 
ENDBRANCH  55  58
ENDBRANCH  48  54
ENDBRANCH  41  44
ENDBRANCH   1  41
TORSDOF 11
ENDMDL
MODEL 9
REMARK VINA RESULT:      -6.0      4.661      8.876
REMARK  11 active torsions:
REMARK  status: ('A' for Active; 'I' for Inactive)
REMARK    1  A    between atoms: C_1  and  C_2 
REMARK       I    between atoms: C_2  and  N_4 
REMARK    2  A    between atoms: N_4  and  C_5 
REMARK    3  A    between atoms: C_8  and  C_11 
REMARK    4  A    between atoms: C_11  and  N_12 
REMARK    5  A    between atoms: C_16  and  C_18 
REMARK    6  A    between atoms: C_20  and  C_23 
REMARK    7  A    between atoms: C_25  and  O_29 
REMARK    8  A    between atoms: O_29  and  C_30 
REMARK    9  A    between atoms: C_30  and  C_31 
REMARK   10  A    between atoms: C_31  and  O_32 
REMARK   11  A    between atoms: O_32  and  C_33 
ROOT
ATOM      1  N   LIG d   1       5.022  -0.849  -3.693  0.00  0.00     0.247 N 
ATOM      2  C   LIG d   1       5.551  -0.145  -2.505  0.00  0.00    -0.031 C 
ATOM      3  C   LIG d   1       4.553   1.012  -2.254  0.00  0.00    -0.007 C 
ATOM      4  C   LIG d   1       3.200   0.345  -2.614  0.00  0.00     0.004 C 
ATOM      5  C   LIG d   1       3.575  -0.586  -3.788  0.00  0.00     0.060 C 
ATOM      6  H   LIG d   1       3.021  -1.522  -3.710  0.00  0.00     0.095 H 
ATOM      7  H   LIG d   1       5.577  -0.816  -1.646  0.00  0.00     0.082 H 
ATOM      8  H   LIG d   1       6.547   0.250  -2.709  0.00  0.00     0.082 H 
ATOM      9  H   LIG d   1       4.570   1.322  -1.209  0.00  0.00     0.032 H 
ATOM     10  H   LIG d   1       4.760   1.856  -2.912  0.00  0.00     0.032 H 
ATOM     11  H   LIG d   1       2.818  -0.233  -1.772  0.00  0.00     0.033 H 
ATOM     12  H   LIG d   1       2.474   1.091  -2.932  0.00  0.00     0.033 H 
ATOM     13  H   LIG d   1       5.485  -0.506  -4.522  0.00  0.00     0.204 HD
ENDROOT
BRANCH   5  14
ATOM     14  C   LIG d   1       3.261   0.090  -5.098  0.00  0.00     0.276 A 
ATOM     15  O   LIG d   1       2.810   1.343  -5.244  0.00  0.00    -0.332 OA
ATOM     16  N   LIG d   1       2.658   1.554  -6.639  0.00  0.00    -0.050 NA
ATOM     17  C   LIG d   1       3.013   0.438  -7.224  0.00  0.00     0.267 A 
ATOM     18  N   LIG d   1       3.378  -0.446  -6.279  0.00  0.00    -0.181 NA
BRANCH  17  19
ATOM     19  C   LIG d   1       3.012   0.189  -8.688  0.00  0.00     0.257 A 
ATOM     20  N   LIG d   1       3.819   0.890  -9.474  0.00  0.00    -0.208 N 
ATOM     21  C   LIG d   1       3.857   0.699 -10.777  0.00  0.00     0.174 A 
ATOM     22  H   LIG d   1       4.401   1.558  -9.078  0.00  0.00     0.453 HD
ATOM     23  C   LIG d   1       3.041  -0.237 -11.382  0.00  0.00     0.044 A 
ATOM     24  H   LIG d   1       4.532   1.287 -11.382  0.00  0.00     0.138 H 
ATOM     25  C   LIG d   1       2.173  -0.992 -10.597  0.00  0.00     0.133 A 
ATOM     26  H   LIG d   1       3.076  -0.383 -12.451  0.00  0.00     0.071 H 
ATOM     27  C   LIG d   1       2.162  -0.772  -9.223  0.00  0.00     0.055 A 
ATOM     28  H   LIG d   1       1.502  -1.338  -8.582  0.00  0.00     0.072 H 
BRANCH  25  29
ATOM     29  O   LIG d   1       1.358  -1.922 -11.158  0.00  0.00    -0.489 OA
BRANCH  29  30
ATOM     30  C   LIG d   1       1.219  -3.164 -10.466  0.00  0.00     0.113 C 
ATOM     31  H   LIG d   1       2.172  -3.695 -10.478  0.00  0.00     0.072 H 
ATOM     32  H   LIG d   1       0.921  -2.975  -9.435  0.00  0.00     0.072 H 
BRANCH  30  33
ATOM     33  C   LIG d   1       0.152  -4.016 -11.156  0.00  0.00     0.081 C 
ATOM     34  H   LIG d   1      -0.435  -3.390 -11.828  0.00  0.00     0.059 H 
ATOM     35  H   LIG d   1       0.634  -4.809 -11.727  0.00  0.00     0.059 H 
BRANCH  33  36
ATOM     36  O   LIG d   1      -0.708  -4.594 -10.171  0.00  0.00    -0.380 OA
BRANCH  36  37
ATOM     37  C   LIG d   1      -1.824  -5.301 -10.716  0.00  0.00     0.037 C 
ATOM     38  H   LIG d   1      -1.466  -6.129 -11.327  0.00  0.00     0.052 H 
ATOM     39  H   LIG d   1      -2.439  -5.688  -9.904  0.00  0.00     0.052 H 
ATOM     40  H   LIG d   1      -2.416  -4.625 -11.331  0.00  0.00     0.052 H 
ENDBRANCH  36  37
ENDBRANCH  33  36
ENDBRANCH  30  33
ENDBRANCH  29  30
ENDBRANCH  25  29
ENDBRANCH  17  19
ENDBRANCH   5  14
BRANCH   1  41
ATOM     41  C   LIG d   1       5.255  -2.293  -3.556  0.00  0.00    -0.005 C 
ATOM     42  H   LIG d   1       4.371  -2.764  -3.124  0.00  0.00     0.087 H 
ATOM     43  H   LIG d   1       6.111  -2.463  -2.904  0.00  0.00     0.087 H 
BRANCH  41  44
ATOM     44  C   LIG d   1       5.529  -2.888  -4.913  0.00  0.00    -0.003 A 
ATOM     45  C   LIG d   1       6.446  -2.289  -5.756  0.00  0.00    -0.052 A 
ATOM     46  C   LIG d   1       6.701  -2.831  -7.000  0.00  0.00    -0.040 A 
ATOM     47  H   LIG d   1       6.966  -1.396  -5.440  0.00  0.00     0.062 H 
ATOM     48  C   LIG d   1       6.034  -3.981  -7.404  0.00  0.00     0.033 A 
ATOM     49  H   LIG d   1       7.418  -2.364  -7.658  0.00  0.00     0.064 H 
ATOM     50  C   LIG d   1       5.108  -4.577  -6.557  0.00  0.00    -0.040 A 
ATOM     51  C   LIG d   1       4.863  -4.032  -5.312  0.00  0.00    -0.052 A 
ATOM     52  H   LIG d   1       4.584  -5.468  -6.870  0.00  0.00     0.064 H 
ATOM     53  H   LIG d   1       4.147  -4.498  -4.651  0.00  0.00     0.062 H 
BRANCH  48  54
ATOM     54  N   LIG d   1       6.289  -4.533  -8.664  0.00  0.00    -0.286 N 
ATOM     55  C   LIG d   1       5.633  -4.072  -9.747  0.00  0.00     0.214 C 
ATOM     56  O   LIG d   1       4.762  -3.239  -9.620  0.00  0.00    -0.276 OA
ATOM     57  H   LIG d   1       6.939  -5.247  -8.757  0.00  0.00     0.155 HD
BRANCH  55  58
ATOM     58  C   LIG d   1       5.982  -4.594 -11.118  0.00  0.00     0.013 C 
ATOM     59  H   LIG d   1       5.420  -4.042 -11.871  0.00  0.00     0.032 H 
ATOM     60  H   LIG d   1       7.049  -4.466 -11.295  0.00  0.00     0.032 H 
ATOM     61  H   LIG d   1       5.728  -5.653 -11.179  0.00  0.00     0.032 H 
ENDBRANCH  55  58
ENDBRANCH  48  54
ENDBRANCH  41  44
ENDBRANCH   1  41
TORSDOF 11
ENDMDL
