MODEL 1
REMARK VINA RESULT:      -7.3      0.000      0.000
REMARK  11 active torsions:
REMARK  status: ('A' for Active; 'I' for Inactive)
REMARK    1  A    between atoms: C_1  and  O_2 
REMARK    2  A    between atoms: O_2  and  C_3 
REMARK    3  A    between atoms: C_8  and  O_9 
REMARK    4  A    between atoms: O_9  and  C_10 
REMARK    5  A    between atoms: C_13  and  N_33 
REMARK    6  A    between atoms: C_15  and  C_16 
REMARK    7  A    between atoms: C_19  and  O_23 
REMARK    8  A    between atoms: C_21  and  O_22 
REMARK    9  A    between atoms: O_23  and  C_24 
REMARK   10  A    between atoms: C_24  and  C_25 
REMARK   11  A    between atoms: C_28  and  C_31 
ROOT
ATOM      1  C   LIG d   1       5.174  -4.191  -7.021  0.00  0.00     0.046 A 
ATOM      2  C   LIG d   1       6.539  -4.347  -7.265  0.00  0.00    -0.045 A 
ATOM      3  C   LIG d   1       7.171  -5.520  -6.915  0.00  0.00    -0.019 A 
ATOM      4  C   LIG d   1       6.452  -6.554  -6.327  0.00  0.00     0.124 A 
ATOM      5  C   LIG d   1       5.095  -6.406  -6.080  0.00  0.00     0.022 A 
ATOM      6  C   LIG d   1       4.451  -5.230  -6.424  0.00  0.00     0.130 A 
ATOM      7  H   LIG d   1       7.100  -3.548  -7.726  0.00  0.00     0.063 H 
ATOM      8  H   LIG d   1       8.228  -5.638  -7.101  0.00  0.00     0.065 H 
ATOM      9  H   LIG d   1       4.540  -7.211  -5.618  0.00  0.00     0.069 H 
ENDROOT
BRANCH   1  10
ATOM     10  C   LIG d   1       4.493  -2.930  -7.392  0.00  0.00     0.122 A 
ATOM     11  C   LIG d   1       4.765  -1.742  -6.697  0.00  0.00     0.173 A 
ATOM     12  C   LIG d   1       4.105  -0.586  -7.087  0.00  0.00     0.076 A 
ATOM     13  N   LIG d   1       3.237  -0.641  -8.086  0.00  0.00    -0.219 NA
ATOM     14  H   LIG d   1       4.291   0.348  -6.578  0.00  0.00     0.087 H 
ATOM     15  C   LIG d   1       2.998  -1.780  -8.720  0.00  0.00     0.213 A 
ATOM     16  N   LIG d   1       3.608  -2.906  -8.387  0.00  0.00    -0.211 NA
BRANCH  11  17
ATOM     17  O   LIG d   1       5.658  -1.724  -5.673  0.00  0.00    -0.449 OA
BRANCH  17  18
ATOM     18  C   LIG d   1       5.190  -1.468  -4.422  0.00  0.00     0.170 A 
ATOM     19  C   LIG d   1       5.468  -0.249  -3.809  0.00  0.00     0.162 A 
ATOM     20  C   LIG d   1       4.987   0.006  -2.534  0.00  0.00    -0.016 A 
ATOM     21  C   LIG d   1       4.232  -0.947  -1.876  0.00  0.00    -0.058 A 
ATOM     22  H   LIG d   1       5.201   0.950  -2.056  0.00  0.00     0.066 H 
ATOM     23  C   LIG d   1       3.956  -2.157  -2.485  0.00  0.00    -0.058 A 
ATOM     24  H   LIG d   1       3.858  -0.745  -0.883  0.00  0.00     0.062 H 
ATOM     25  C   LIG d   1       4.429  -2.417  -3.758  0.00  0.00    -0.016 A 
ATOM     26  H   LIG d   1       3.366  -2.899  -1.968  0.00  0.00     0.062 H 
ATOM     27  H   LIG d   1       4.208  -3.361  -4.234  0.00  0.00     0.066 H 
BRANCH  19  28
ATOM     28  O   LIG d   1       6.209   0.687  -4.458  0.00  0.00    -0.491 OA
BRANCH  28  29
ATOM     29  C   LIG d   1       7.319   1.241  -3.748  0.00  0.00     0.079 C 
ATOM     30  H   LIG d   1       7.039   2.209  -3.334  0.00  0.00     0.066 H 
ATOM     31  H   LIG d   1       7.606   0.569  -2.940  0.00  0.00     0.066 H 
ATOM     32  H   LIG d   1       8.160   1.369  -4.431  0.00  0.00     0.066 H 
ENDBRANCH  28  29
ENDBRANCH  19  28
ENDBRANCH  17  18
ENDBRANCH  11  17
BRANCH  15  33
ATOM     33  N   LIG d   1       2.082  -1.792  -9.760  0.00  0.00    -0.328 N 
ATOM     34  H   LIG d   1       1.712  -0.959 -10.090  0.00  0.00     0.145 HD
ATOM     35  H   LIG d   1       1.811  -2.635 -10.158  0.00  0.00     0.145 HD
ENDBRANCH  15  33
ENDBRANCH   1  10
BRANCH   6  36
ATOM     36  O   LIG d   1       3.122  -5.085  -6.183  0.00  0.00    -0.506 OA
ATOM     37  H   LIG d   1       2.894  -4.271  -5.714  0.00  0.00     0.292 HD
ENDBRANCH   6  36
BRANCH   4  38
ATOM     38  O   LIG d   1       7.081  -7.709  -5.988  0.00  0.00    -0.487 OA
BRANCH  38  39
ATOM     39  C   LIG d   1       7.970  -7.660  -4.870  0.00  0.00     0.115 C 
ATOM     40  H   LIG d   1       7.994  -6.647  -4.470  0.00  0.00     0.075 H 
ATOM     41  H   LIG d   1       8.971  -7.948  -5.190  0.00  0.00     0.075 H 
BRANCH  39  42
ATOM     42  C   LIG d   1       7.490  -8.610  -3.804  0.00  0.00    -0.010 A 
ATOM     43  C   LIG d   1       6.353  -9.368  -4.018  0.00  0.00    -0.055 A 
ATOM     44  C   LIG d   1       5.911 -10.244  -3.048  0.00  0.00    -0.054 A 
ATOM     45  H   LIG d   1       5.809  -9.274  -4.946  0.00  0.00     0.062 H 
ATOM     46  C   LIG d   1       6.615 -10.365  -1.849  0.00  0.00    -0.026 A 
ATOM     47  H   LIG d   1       5.024 -10.835  -3.216  0.00  0.00     0.062 H 
ATOM     48  C   LIG d   1       7.762  -9.598  -1.640  0.00  0.00    -0.054 A 
ATOM     49  C   LIG d   1       8.193  -8.725  -2.618  0.00  0.00    -0.055 A 
ATOM     50  H   LIG d   1       8.311  -9.686  -0.714  0.00  0.00     0.062 H 
ATOM     51  H   LIG d   1       9.079  -8.130  -2.457  0.00  0.00     0.062 H 
BRANCH  46  52
ATOM     52  C   LIG d   1       6.148 -11.302  -0.805  0.00  0.00    -0.062 C 
ATOM     53  C   LIG d   1       6.743 -12.477  -0.656  0.00  0.00    -0.098 C 
ATOM     54  H   LIG d   1       7.568 -12.751  -1.297  0.00  0.00     0.053 H 
ATOM     55  H   LIG d   1       6.401 -13.162   0.106  0.00  0.00     0.053 H 
ATOM     56  H   LIG d   1       5.323 -11.029  -0.164  0.00  0.00     0.062 H 
ENDBRANCH  46  52
ENDBRANCH  39  42
ENDBRANCH  38  39
ENDBRANCH   4  38
TORSDOF 11
ENDMDL
MODEL 2
REMARK VINA RESULT:      -6.9      3.994      7.873
REMARK  11 active torsions:
REMARK  status: ('A' for Active; 'I' for Inactive)
REMARK    1  A    between atoms: C_1  and  O_2 
REMARK    2  A    between atoms: O_2  and  C_3 
REMARK    3  A    between atoms: C_8  and  O_9 
REMARK    4  A    between atoms: O_9  and  C_10 
REMARK    5  A    between atoms: C_13  and  N_33 
REMARK    6  A    between atoms: C_15  and  C_16 
REMARK    7  A    between atoms: C_19  and  O_23 
REMARK    8  A    between atoms: C_21  and  O_22 
REMARK    9  A    between atoms: O_23  and  C_24 
REMARK   10  A    between atoms: C_24  and  C_25 
REMARK   11  A    between atoms: C_28  and  C_31 
ROOT
ATOM      1  C   LIG d   1       6.080  -3.984  -6.712  0.00  0.00     0.046 A 
ATOM      2  C   LIG d   1       4.747  -4.340  -6.505  0.00  0.00    -0.045 A 
ATOM      3  C   LIG d   1       3.873  -4.383  -7.569  0.00  0.00    -0.019 A 
ATOM      4  C   LIG d   1       4.318  -4.084  -8.852  0.00  0.00     0.124 A 
ATOM      5  C   LIG d   1       5.641  -3.728  -9.066  0.00  0.00     0.022 A 
ATOM      6  C   LIG d   1       6.526  -3.677  -8.002  0.00  0.00     0.130 A 
ATOM      7  H   LIG d   1       4.399  -4.578  -5.511  0.00  0.00     0.063 H 
ATOM      8  H   LIG d   1       2.840  -4.655  -7.408  0.00  0.00     0.065 H 
ATOM      9  H   LIG d   1       5.982  -3.492 -10.064  0.00  0.00     0.069 H 
ENDROOT
BRANCH   1  10
ATOM     10  C   LIG d   1       7.020  -3.932  -5.569  0.00  0.00     0.122 A 
ATOM     11  C   LIG d   1       7.082  -2.795  -4.749  0.00  0.00     0.173 A 
ATOM     12  C   LIG d   1       7.976  -2.798  -3.688  0.00  0.00     0.076 A 
ATOM     13  N   LIG d   1       8.744  -3.858  -3.490  0.00  0.00    -0.219 NA
ATOM     14  H   LIG d   1       8.049  -1.942  -3.033  0.00  0.00     0.087 H 
ATOM     15  C   LIG d   1       8.665  -4.915  -4.286  0.00  0.00     0.213 A 
ATOM     16  N   LIG d   1       7.824  -4.960  -5.307  0.00  0.00    -0.211 NA
BRANCH  11  17
ATOM     17  O   LIG d   1       6.282  -1.722  -4.985  0.00  0.00    -0.449 OA
BRANCH  17  18
ATOM     18  C   LIG d   1       5.675  -1.132  -3.922  0.00  0.00     0.170 A 
ATOM     19  C   LIG d   1       5.882   0.220  -3.662  0.00  0.00     0.162 A 
ATOM     20  C   LIG d   1       5.259   0.817  -2.577  0.00  0.00    -0.016 A 
ATOM     21  C   LIG d   1       4.434   0.070  -1.756  0.00  0.00    -0.058 A 
ATOM     22  H   LIG d   1       5.418   1.865  -2.373  0.00  0.00     0.066 H 
ATOM     23  C   LIG d   1       4.228  -1.272  -2.014  0.00  0.00    -0.058 A 
ATOM     24  H   LIG d   1       3.949   0.537  -0.912  0.00  0.00     0.062 H 
ATOM     25  C   LIG d   1       4.842  -1.873  -3.098  0.00  0.00    -0.016 A 
ATOM     26  H   LIG d   1       3.583  -1.852  -1.372  0.00  0.00     0.062 H 
ATOM     27  H   LIG d   1       4.676  -2.921  -3.300  0.00  0.00     0.066 H 
BRANCH  19  28
ATOM     28  O   LIG d   1       6.693   0.953  -4.470  0.00  0.00    -0.491 OA
BRANCH  28  29
ATOM     29  C   LIG d   1       7.987   1.285  -3.961  0.00  0.00     0.079 C 
ATOM     30  H   LIG d   1       8.491   1.953  -4.659  0.00  0.00     0.066 H 
ATOM     31  H   LIG d   1       7.881   1.780  -2.995  0.00  0.00     0.066 H 
ATOM     32  H   LIG d   1       8.575   0.375  -3.841  0.00  0.00     0.066 H 
ENDBRANCH  28  29
ENDBRANCH  19  28
ENDBRANCH  17  18
ENDBRANCH  11  17
BRANCH  15  33
ATOM     33  N   LIG d   1       9.488  -6.004  -4.042  0.00  0.00    -0.328 N 
ATOM     34  H   LIG d   1      10.451  -5.891  -4.035  0.00  0.00     0.145 HD
ATOM     35  H   LIG d   1       9.100  -6.878  -3.880  0.00  0.00     0.145 HD
ENDBRANCH  15  33
ENDBRANCH   1  10
BRANCH   6  36
ATOM     36  O   LIG d   1       7.823  -3.331  -8.211  0.00  0.00    -0.506 OA
ATOM     37  H   LIG d   1       8.201  -3.694  -9.023  0.00  0.00     0.292 HD
ENDBRANCH   6  36
BRANCH   4  38
ATOM     38  O   LIG d   1       3.451  -4.133  -9.897  0.00  0.00    -0.487 OA
BRANCH  38  39
ATOM     39  C   LIG d   1       2.265  -3.344  -9.794  0.00  0.00     0.115 C 
ATOM     40  H   LIG d   1       1.790  -3.525  -8.830  0.00  0.00     0.075 H 
ATOM     41  H   LIG d   1       1.577  -3.616 -10.595  0.00  0.00     0.075 H 
BRANCH  39  42
ATOM     42  C   LIG d   1       2.620  -1.885  -9.913  0.00  0.00    -0.010 A 
ATOM     43  C   LIG d   1       2.465  -1.047  -8.823  0.00  0.00    -0.055 A 
ATOM     44  C   LIG d   1       2.793   0.290  -8.924  0.00  0.00    -0.054 A 
ATOM     45  H   LIG d   1       2.086  -1.439  -7.892  0.00  0.00     0.062 H 
ATOM     46  C   LIG d   1       3.283   0.795 -10.130  0.00  0.00    -0.026 A 
ATOM     47  H   LIG d   1       2.672   0.943  -8.074  0.00  0.00     0.062 H 
ATOM     48  C   LIG d   1       3.437  -0.055 -11.225  0.00  0.00    -0.054 A 
ATOM     49  C   LIG d   1       3.104  -1.390 -11.111  0.00  0.00    -0.055 A 
ATOM     50  H   LIG d   1       3.815   0.330 -12.160  0.00  0.00     0.062 H 
ATOM     51  H   LIG d   1       3.223  -2.049 -11.958  0.00  0.00     0.062 H 
BRANCH  46  52
ATOM     52  C   LIG d   1       3.636   2.226 -10.245  0.00  0.00    -0.062 C 
ATOM     53  C   LIG d   1       4.092   2.883  -9.187  0.00  0.00    -0.098 C 
ATOM     54  H   LIG d   1       4.204   2.373  -8.241  0.00  0.00     0.053 H 
ATOM     55  H   LIG d   1       4.350   3.928  -9.271  0.00  0.00     0.053 H 
ATOM     56  H   LIG d   1       3.525   2.736 -11.189  0.00  0.00     0.062 H 
ENDBRANCH  46  52
ENDBRANCH  39  42
ENDBRANCH  38  39
ENDBRANCH   4  38
TORSDOF 11
ENDMDL
MODEL 3
REMARK VINA RESULT:      -6.8      7.056     11.231
REMARK  11 active torsions:
REMARK  status: ('A' for Active; 'I' for Inactive)
REMARK    1  A    between atoms: C_1  and  O_2 
REMARK    2  A    between atoms: O_2  and  C_3 
REMARK    3  A    between atoms: C_8  and  O_9 
REMARK    4  A    between atoms: O_9  and  C_10 
REMARK    5  A    between atoms: C_13  and  N_33 
REMARK    6  A    between atoms: C_15  and  C_16 
REMARK    7  A    between atoms: C_19  and  O_23 
REMARK    8  A    between atoms: C_21  and  O_22 
REMARK    9  A    between atoms: O_23  and  C_24 
REMARK   10  A    between atoms: C_24  and  C_25 
REMARK   11  A    between atoms: C_28  and  C_31 
ROOT
ATOM      1  C   LIG d   1      10.234   5.214  -3.085  0.00  0.00     0.046 A 
ATOM      2  C   LIG d   1       9.719   4.940  -4.353  0.00  0.00    -0.045 A 
ATOM      3  C   LIG d   1       9.582   3.634  -4.772  0.00  0.00    -0.019 A 
ATOM      4  C   LIG d   1       9.947   2.588  -3.932  0.00  0.00     0.124 A 
ATOM      5  C   LIG d   1      10.461   2.852  -2.671  0.00  0.00     0.022 A 
ATOM      6  C   LIG d   1      10.606   4.161  -2.243  0.00  0.00     0.130 A 
ATOM      7  H   LIG d   1       9.430   5.749  -5.006  0.00  0.00     0.063 H 
ATOM      8  H   LIG d   1       9.187   3.422  -5.755  0.00  0.00     0.065 H 
ATOM      9  H   LIG d   1      10.747   2.037  -2.024  0.00  0.00     0.069 H 
ENDROOT
BRANCH   1  10
ATOM     10  C   LIG d   1      10.386   6.616  -2.634  0.00  0.00     0.122 A 
ATOM     11  C   LIG d   1      11.560   7.332  -2.916  0.00  0.00     0.173 A 
ATOM     12  C   LIG d   1      11.651   8.644  -2.475  0.00  0.00     0.076 A 
ATOM     13  N   LIG d   1      10.642   9.172  -1.800  0.00  0.00    -0.219 NA
ATOM     14  H   LIG d   1      12.538   9.227  -2.676  0.00  0.00     0.087 H 
ATOM     15  C   LIG d   1       9.548   8.469  -1.546  0.00  0.00     0.213 A 
ATOM     16  N   LIG d   1       9.414   7.216  -1.950  0.00  0.00    -0.211 NA
BRANCH  11  17
ATOM     17  O   LIG d   1      12.578   6.755  -3.607  0.00  0.00    -0.449 OA
BRANCH  17  18
ATOM     18  C   LIG d   1      13.478   6.008  -2.914  0.00  0.00     0.170 A 
ATOM     19  C   LIG d   1      13.895   4.777  -3.414  0.00  0.00     0.162 A 
ATOM     20  C   LIG d   1      14.813   4.020  -2.704  0.00  0.00    -0.016 A 
ATOM     21  C   LIG d   1      15.313   4.488  -1.503  0.00  0.00    -0.058 A 
ATOM     22  H   LIG d   1      15.138   3.065  -3.089  0.00  0.00     0.066 H 
ATOM     23  C   LIG d   1      14.900   5.709  -1.007  0.00  0.00    -0.058 A 
ATOM     24  H   LIG d   1      16.030   3.896  -0.952  0.00  0.00     0.062 H 
ATOM     25  C   LIG d   1      13.987   6.472  -1.712  0.00  0.00    -0.016 A 
ATOM     26  H   LIG d   1      15.293   6.072  -0.069  0.00  0.00     0.062 H 
ATOM     27  H   LIG d   1      13.669   7.429  -1.325  0.00  0.00     0.066 H 
BRANCH  19  28
ATOM     28  O   LIG d   1      13.402   4.319  -4.596  0.00  0.00    -0.491 OA
BRANCH  28  29
ATOM     29  C   LIG d   1      13.540   2.921  -4.857  0.00  0.00     0.079 C 
ATOM     30  H   LIG d   1      13.893   2.775  -5.878  0.00  0.00     0.066 H 
ATOM     31  H   LIG d   1      14.258   2.490  -4.160  0.00  0.00     0.066 H 
ATOM     32  H   LIG d   1      12.574   2.431  -4.734  0.00  0.00     0.066 H 
ENDBRANCH  28  29
ENDBRANCH  19  28
ENDBRANCH  17  18
ENDBRANCH  11  17
BRANCH  15  33
ATOM     33  N   LIG d   1       8.516   9.062  -0.835  0.00  0.00    -0.328 N 
ATOM     34  H   LIG d   1       7.725   8.548  -0.610  0.00  0.00     0.145 HD
ATOM     35  H   LIG d   1       8.586   9.991  -0.564  0.00  0.00     0.145 HD
ENDBRANCH  15  33
ENDBRANCH   1  10
BRANCH   6  36
ATOM     36  O   LIG d   1      11.108   4.421  -1.008  0.00  0.00    -0.506 OA
ATOM     37  H   LIG d   1      11.706   3.737  -0.674  0.00  0.00     0.292 HD
ENDBRANCH   6  36
BRANCH   4  38
ATOM     38  O   LIG d   1       9.806   1.303  -4.351  0.00  0.00    -0.487 OA
BRANCH  38  39
ATOM     39  C   LIG d   1       8.675   1.009  -5.174  0.00  0.00     0.115 C 
ATOM     40  H   LIG d   1       8.957   0.275  -5.929  0.00  0.00     0.075 H 
ATOM     41  H   LIG d   1       8.335   1.921  -5.663  0.00  0.00     0.075 H 
BRANCH  39  42
ATOM     42  C   LIG d   1       7.565   0.452  -4.322  0.00  0.00    -0.010 A 
ATOM     43  C   LIG d   1       7.401  -0.917  -4.211  0.00  0.00    -0.055 A 
ATOM     44  C   LIG d   1       6.389  -1.433  -3.429  0.00  0.00    -0.054 A 
ATOM     45  H   LIG d   1       8.067  -1.583  -4.738  0.00  0.00     0.062 H 
ATOM     46  C   LIG d   1       5.529  -0.570  -2.748  0.00  0.00    -0.026 A 
ATOM     47  H   LIG d   1       6.262  -2.501  -3.342  0.00  0.00     0.062 H 
ATOM     48  C   LIG d   1       5.700   0.810  -2.864  0.00  0.00    -0.054 A 
ATOM     49  C   LIG d   1       6.716   1.314  -3.650  0.00  0.00    -0.055 A 
ATOM     50  H   LIG d   1       5.037   1.483  -2.340  0.00  0.00     0.062 H 
ATOM     51  H   LIG d   1       6.848   2.381  -3.741  0.00  0.00     0.062 H 
BRANCH  46  52
ATOM     52  C   LIG d   1       4.442  -1.116  -1.908  0.00  0.00    -0.062 C 
ATOM     53  C   LIG d   1       3.750  -2.168  -2.322  0.00  0.00    -0.098 C 
ATOM     54  H   LIG d   1       3.979  -2.626  -3.273  0.00  0.00     0.053 H 
ATOM     55  H   LIG d   1       2.956  -2.567  -1.708  0.00  0.00     0.053 H 
ATOM     56  H   LIG d   1       4.213  -0.659  -0.957  0.00  0.00     0.062 H 
ENDBRANCH  46  52
ENDBRANCH  39  42
ENDBRANCH  38  39
ENDBRANCH   4  38
TORSDOF 11
ENDMDL
MODEL 4
REMARK VINA RESULT:      -6.7      7.639     11.915
REMARK  11 active torsions:
REMARK  status: ('A' for Active; 'I' for Inactive)
REMARK    1  A    between atoms: C_1  and  O_2 
REMARK    2  A    between atoms: O_2  and  C_3 
REMARK    3  A    between atoms: C_8  and  O_9 
REMARK    4  A    between atoms: O_9  and  C_10 
REMARK    5  A    between atoms: C_13  and  N_33 
REMARK    6  A    between atoms: C_15  and  C_16 
REMARK    7  A    between atoms: C_19  and  O_23 
REMARK    8  A    between atoms: C_21  and  O_22 
REMARK    9  A    between atoms: O_23  and  C_24 
REMARK   10  A    between atoms: C_24  and  C_25 
REMARK   11  A    between atoms: C_28  and  C_31 
ROOT
ATOM      1  C   LIG d   1      11.048   5.373  -3.369  0.00  0.00     0.046 A 
ATOM      2  C   LIG d   1      10.502   5.584  -4.636  0.00  0.00    -0.045 A 
ATOM      3  C   LIG d   1       9.572   4.700  -5.140  0.00  0.00    -0.019 A 
ATOM      4  C   LIG d   1       9.168   3.605  -4.386  0.00  0.00     0.124 A 
ATOM      5  C   LIG d   1       9.707   3.388  -3.126  0.00  0.00     0.022 A 
ATOM      6  C   LIG d   1      10.646   4.267  -2.613  0.00  0.00     0.130 A 
ATOM      7  H   LIG d   1      10.810   6.437  -5.223  0.00  0.00     0.063 H 
ATOM      8  H   LIG d   1       9.153   4.861  -6.122  0.00  0.00     0.065 H 
ATOM      9  H   LIG d   1       9.394   2.532  -2.545  0.00  0.00     0.069 H 
ENDROOT
BRANCH   1  10
ATOM     10  C   LIG d   1      12.051   6.318  -2.827  0.00  0.00     0.122 A 
ATOM     11  C   LIG d   1      11.651   7.546  -2.280  0.00  0.00     0.173 A 
ATOM     12  C   LIG d   1      12.629   8.394  -1.781  0.00  0.00     0.076 A 
ATOM     13  N   LIG d   1      13.900   8.026  -1.846  0.00  0.00    -0.219 NA
ATOM     14  H   LIG d   1      12.359   9.346  -1.349  0.00  0.00     0.087 H 
ATOM     15  C   LIG d   1      14.247   6.860  -2.373  0.00  0.00     0.213 A 
ATOM     16  N   LIG d   1      13.348   6.018  -2.856  0.00  0.00    -0.211 NA
BRANCH  11  17
ATOM     17  O   LIG d   1      10.338   7.894  -2.235  0.00  0.00    -0.449 OA
BRANCH  17  18
ATOM     18  C   LIG d   1       9.961   9.048  -2.847  0.00  0.00     0.170 A 
ATOM     19  C   LIG d   1       9.477  10.112  -2.092  0.00  0.00     0.162 A 
ATOM     20  C   LIG d   1       9.096  11.287  -2.721  0.00  0.00    -0.016 A 
ATOM     21  C   LIG d   1       9.198  11.400  -4.095  0.00  0.00    -0.058 A 
ATOM     22  H   LIG d   1       8.719  12.113  -2.138  0.00  0.00     0.066 H 
ATOM     23  C   LIG d   1       9.679  10.343  -4.845  0.00  0.00    -0.058 A 
ATOM     24  H   LIG d   1       8.901  12.316  -4.583  0.00  0.00     0.062 H 
ATOM     25  C   LIG d   1      10.066   9.170  -4.224  0.00  0.00    -0.016 A 
ATOM     26  H   LIG d   1       9.758  10.435  -5.918  0.00  0.00     0.062 H 
ATOM     27  H   LIG d   1      10.446   8.347  -4.812  0.00  0.00     0.066 H 
BRANCH  19  28
ATOM     28  O   LIG d   1       9.378   9.999  -0.741  0.00  0.00    -0.491 OA
BRANCH  28  29
ATOM     29  C   LIG d   1      10.176  10.888   0.045  0.00  0.00     0.079 C 
ATOM     30  H   LIG d   1      11.227  10.752  -0.209  0.00  0.00     0.066 H 
ATOM     31  H   LIG d   1       9.882  11.917  -0.161  0.00  0.00     0.066 H 
ATOM     32  H   LIG d   1      10.027  10.671   1.103  0.00  0.00     0.066 H 
ENDBRANCH  28  29
ENDBRANCH  19  28
ENDBRANCH  17  18
ENDBRANCH  11  17
BRANCH  15  33
ATOM     33  N   LIG d   1      15.588   6.515  -2.420  0.00  0.00    -0.328 N 
ATOM     34  H   LIG d   1      16.008   6.317  -3.271  0.00  0.00     0.145 HD
ATOM     35  H   LIG d   1      16.107   6.472  -1.601  0.00  0.00     0.145 HD
ENDBRANCH  15  33
ENDBRANCH   1  10
BRANCH   6  36
ATOM     36  O   LIG d   1      11.173   4.056  -1.379  0.00  0.00    -0.506 OA
ATOM     37  H   LIG d   1      11.178   3.128  -1.107  0.00  0.00     0.292 HD
ENDBRANCH   6  36
BRANCH   4  38
ATOM     38  O   LIG d   1       8.248   2.740  -4.887  0.00  0.00    -0.487 OA
BRANCH  38  39
ATOM     39  C   LIG d   1       8.534   1.346  -4.766  0.00  0.00     0.115 C 
ATOM     40  H   LIG d   1       9.466   1.212  -4.217  0.00  0.00     0.075 H 
ATOM     41  H   LIG d   1       8.631   0.907  -5.758  0.00  0.00     0.075 H 
BRANCH  39  42
ATOM     42  C   LIG d   1       7.413   0.666  -4.024  0.00  0.00    -0.010 A 
ATOM     43  C   LIG d   1       6.463   1.425  -3.364  0.00  0.00    -0.055 A 
ATOM     44  C   LIG d   1       5.431   0.809  -2.687  0.00  0.00    -0.054 A 
ATOM     45  H   LIG d   1       6.530   2.503  -3.378  0.00  0.00     0.062 H 
ATOM     46  C   LIG d   1       5.347  -0.584  -2.669  0.00  0.00    -0.026 A 
ATOM     47  H   LIG d   1       4.691   1.402  -2.172  0.00  0.00     0.062 H 
ATOM     48  C   LIG d   1       6.307  -1.344  -3.337  0.00  0.00    -0.054 A 
ATOM     49  C   LIG d   1       7.335  -0.715  -4.010  0.00  0.00    -0.055 A 
ATOM     50  H   LIG d   1       6.247  -2.422  -3.327  0.00  0.00     0.062 H 
ATOM     51  H   LIG d   1       8.079  -1.302  -4.527  0.00  0.00     0.062 H 
BRANCH  46  52
ATOM     52  C   LIG d   1       4.243  -1.251  -1.945  0.00  0.00    -0.062 C 
ATOM     53  C   LIG d   1       3.723  -2.374  -2.421  0.00  0.00    -0.098 C 
ATOM     54  H   LIG d   1       4.104  -2.801  -3.337  0.00  0.00     0.053 H 
ATOM     55  H   LIG d   1       2.917  -2.861  -1.893  0.00  0.00     0.053 H 
ATOM     56  H   LIG d   1       3.862  -0.825  -1.030  0.00  0.00     0.062 H 
ENDBRANCH  46  52
ENDBRANCH  39  42
ENDBRANCH  38  39
ENDBRANCH   4  38
TORSDOF 11
ENDMDL
MODEL 5
REMARK VINA RESULT:      -6.7      1.986      2.555
REMARK  11 active torsions:
REMARK  status: ('A' for Active; 'I' for Inactive)
REMARK    1  A    between atoms: C_1  and  O_2 
REMARK    2  A    between atoms: O_2  and  C_3 
REMARK    3  A    between atoms: C_8  and  O_9 
REMARK    4  A    between atoms: O_9  and  C_10 
REMARK    5  A    between atoms: C_13  and  N_33 
REMARK    6  A    between atoms: C_15  and  C_16 
REMARK    7  A    between atoms: C_19  and  O_23 
REMARK    8  A    between atoms: C_21  and  O_22 
REMARK    9  A    between atoms: O_23  and  C_24 
REMARK   10  A    between atoms: C_24  and  C_25 
REMARK   11  A    between atoms: C_28  and  C_31 
ROOT
ATOM      1  C   LIG d   1       5.240  -4.377  -6.607  0.00  0.00     0.046 A 
ATOM      2  C   LIG d   1       6.622  -4.561  -6.552  0.00  0.00    -0.045 A 
ATOM      3  C   LIG d   1       7.141  -5.730  -6.037  0.00  0.00    -0.019 A 
ATOM      4  C   LIG d   1       6.291  -6.731  -5.581  0.00  0.00     0.124 A 
ATOM      5  C   LIG d   1       4.916  -6.555  -5.631  0.00  0.00     0.022 A 
ATOM      6  C   LIG d   1       4.385  -5.383  -6.142  0.00  0.00     0.130 A 
ATOM      7  H   LIG d   1       7.285  -3.788  -6.911  0.00  0.00     0.063 H 
ATOM      8  H   LIG d   1       8.211  -5.870  -5.992  0.00  0.00     0.065 H 
ATOM      9  H   LIG d   1       4.259  -7.333  -5.270  0.00  0.00     0.069 H 
ENDROOT
BRANCH   1  10
ATOM     10  C   LIG d   1       4.680  -3.121  -7.155  0.00  0.00     0.122 A 
ATOM     11  C   LIG d   1       5.007  -1.884  -6.579  0.00  0.00     0.173 A 
ATOM     12  C   LIG d   1       4.460  -0.736  -7.133  0.00  0.00     0.076 A 
ATOM     13  N   LIG d   1       3.645  -0.842  -8.172  0.00  0.00    -0.219 NA
ATOM     14  H   LIG d   1       4.691   0.234  -6.718  0.00  0.00     0.087 H 
ATOM     15  C   LIG d   1       3.353  -2.026  -8.691  0.00  0.00     0.213 A 
ATOM     16  N   LIG d   1       3.854  -3.147  -8.199  0.00  0.00    -0.211 NA
BRANCH  11  17
ATOM     17  O   LIG d   1       5.842  -1.813  -5.509  0.00  0.00    -0.449 OA
BRANCH  17  18
ATOM     18  C   LIG d   1       5.311  -1.469  -4.306  0.00  0.00     0.170 A 
ATOM     19  C   LIG d   1       5.543  -0.203  -3.777  0.00  0.00     0.162 A 
ATOM     20  C   LIG d   1       4.998   0.143  -2.550  0.00  0.00    -0.016 A 
ATOM     21  C   LIG d   1       4.224  -0.769  -1.856  0.00  0.00    -0.058 A 
ATOM     22  H   LIG d   1       5.177   1.124  -2.138  0.00  0.00     0.066 H 
ATOM     23  C   LIG d   1       3.993  -2.026  -2.381  0.00  0.00    -0.058 A 
ATOM     24  H   LIG d   1       3.800  -0.497  -0.901  0.00  0.00     0.062 H 
ATOM     25  C   LIG d   1       4.530  -2.376  -3.606  0.00  0.00    -0.016 A 
ATOM     26  H   LIG d   1       3.388  -2.735  -1.836  0.00  0.00     0.062 H 
ATOM     27  H   LIG d   1       4.344  -3.358  -4.017  0.00  0.00     0.066 H 
BRANCH  19  28
ATOM     28  O   LIG d   1       6.304   0.692  -4.462  0.00  0.00    -0.491 OA
BRANCH  28  29
ATOM     29  C   LIG d   1       7.446   1.223  -3.786  0.00  0.00     0.079 C 
ATOM     30  H   LIG d   1       7.186   2.175  -3.325  0.00  0.00     0.066 H 
ATOM     31  H   LIG d   1       7.771   0.523  -3.016  0.00  0.00     0.066 H 
ATOM     32  H   LIG d   1       8.254   1.375  -4.502  0.00  0.00     0.066 H 
ENDBRANCH  28  29
ENDBRANCH  19  28
ENDBRANCH  17  18
ENDBRANCH  11  17
BRANCH  15  33
ATOM     33  N   LIG d   1       2.496  -2.091  -9.778  0.00  0.00    -0.328 N 
ATOM     34  H   LIG d   1       1.898  -1.351  -9.969  0.00  0.00     0.145 HD
ATOM     35  H   LIG d   1       2.493  -2.876 -10.348  0.00  0.00     0.145 HD
ENDBRANCH  15  33
ENDBRANCH   1  10
BRANCH   6  36
ATOM     36  O   LIG d   1       3.039  -5.210  -6.192  0.00  0.00    -0.506 OA
ATOM     37  H   LIG d   1       2.695  -5.055  -7.082  0.00  0.00     0.292 HD
ENDBRANCH   6  36
BRANCH   4  38
ATOM     38  O   LIG d   1       6.810  -7.881  -5.078  0.00  0.00    -0.487 OA
BRANCH  38  39
ATOM     39  C   LIG d   1       7.115  -8.918  -6.012  0.00  0.00     0.115 C 
ATOM     40  H   LIG d   1       8.037  -9.416  -5.714  0.00  0.00     0.075 H 
ATOM     41  H   LIG d   1       7.240  -8.487  -7.005  0.00  0.00     0.075 H 
BRANCH  39  42
ATOM     42  C   LIG d   1       5.989  -9.919  -6.038  0.00  0.00    -0.010 A 
ATOM     43  C   LIG d   1       5.359 -10.217  -7.233  0.00  0.00    -0.055 A 
ATOM     44  C   LIG d   1       4.330 -11.136  -7.264  0.00  0.00    -0.054 A 
ATOM     45  H   LIG d   1       5.673  -9.729  -8.144  0.00  0.00     0.062 H 
ATOM     46  C   LIG d   1       3.926 -11.765  -6.086  0.00  0.00    -0.026 A 
ATOM     47  H   LIG d   1       3.840 -11.368  -8.197  0.00  0.00     0.062 H 
ATOM     48  C   LIG d   1       4.566 -11.461  -4.884  0.00  0.00    -0.054 A 
ATOM     49  C   LIG d   1       5.593 -10.539  -4.867  0.00  0.00    -0.055 A 
ATOM     50  H   LIG d   1       4.257 -11.944  -3.969  0.00  0.00     0.062 H 
ATOM     51  H   LIG d   1       6.088 -10.302  -3.937  0.00  0.00     0.062 H 
BRANCH  46  52
ATOM     52  C   LIG d   1       2.824 -12.751  -6.112  0.00  0.00    -0.062 C 
ATOM     53  C   LIG d   1       2.842 -13.740  -6.995  0.00  0.00    -0.098 C 
ATOM     54  H   LIG d   1       3.660 -13.826  -7.695  0.00  0.00     0.053 H 
ATOM     55  H   LIG d   1       2.038 -14.460  -7.014  0.00  0.00     0.053 H 
ATOM     56  H   LIG d   1       2.006 -12.666  -5.413  0.00  0.00     0.062 H 
ENDBRANCH  46  52
ENDBRANCH  39  42
ENDBRANCH  38  39
ENDBRANCH   4  38
TORSDOF 11
ENDMDL
MODEL 6
REMARK VINA RESULT:      -6.5      7.106     11.385
REMARK  11 active torsions:
REMARK  status: ('A' for Active; 'I' for Inactive)
REMARK    1  A    between atoms: C_1  and  O_2 
REMARK    2  A    between atoms: O_2  and  C_3 
REMARK    3  A    between atoms: C_8  and  O_9 
REMARK    4  A    between atoms: O_9  and  C_10 
REMARK    5  A    between atoms: C_13  and  N_33 
REMARK    6  A    between atoms: C_15  and  C_16 
REMARK    7  A    between atoms: C_19  and  O_23 
REMARK    8  A    between atoms: C_21  and  O_22 
REMARK    9  A    between atoms: O_23  and  C_24 
REMARK   10  A    between atoms: C_24  and  C_25 
REMARK   11  A    between atoms: C_28  and  C_31 
ROOT
ATOM      1  C   LIG d   1       9.881   5.434  -3.242  0.00  0.00     0.046 A 
ATOM      2  C   LIG d   1       9.272   4.999  -4.420  0.00  0.00    -0.045 A 
ATOM      3  C   LIG d   1       9.228   3.654  -4.715  0.00  0.00    -0.019 A 
ATOM      4  C   LIG d   1       9.779   2.727  -3.838  0.00  0.00     0.124 A 
ATOM      5  C   LIG d   1      10.387   3.152  -2.665  0.00  0.00     0.022 A 
ATOM      6  C   LIG d   1      10.441   4.501  -2.363  0.00  0.00     0.130 A 
ATOM      7  H   LIG d   1       8.839   5.716  -5.102  0.00  0.00     0.063 H 
ATOM      8  H   LIG d   1       8.760   3.317  -5.629  0.00  0.00     0.065 H 
ATOM      9  H   LIG d   1      10.818   2.428  -1.988  0.00  0.00     0.069 H 
ENDROOT
BRANCH   1  10
ATOM     10  C   LIG d   1       9.935   6.880  -2.926  0.00  0.00     0.122 A 
ATOM     11  C   LIG d   1      10.604   7.772  -3.777  0.00  0.00     0.173 A 
ATOM     12  C   LIG d   1      10.621   9.117  -3.438  0.00  0.00     0.076 A 
ATOM     13  N   LIG d   1      10.020   9.512  -2.326  0.00  0.00    -0.219 NA
ATOM     14  H   LIG d   1      11.124   9.833  -4.071  0.00  0.00     0.087 H 
ATOM     15  C   LIG d   1       9.400   8.645  -1.540  0.00  0.00     0.213 A 
ATOM     16  N   LIG d   1       9.353   7.353  -1.826  0.00  0.00    -0.211 NA
BRANCH  11  17
ATOM     17  O   LIG d   1      11.215   7.329  -4.908  0.00  0.00    -0.449 OA
BRANCH  17  18
ATOM     18  C   LIG d   1      10.834   7.873  -6.094  0.00  0.00     0.170 A 
ATOM     19  C   LIG d   1      11.783   8.452  -6.932  0.00  0.00     0.162 A 
ATOM     20  C   LIG d   1      11.389   9.004  -8.141  0.00  0.00    -0.016 A 
ATOM     21  C   LIG d   1      10.058   8.977  -8.513  0.00  0.00    -0.058 A 
ATOM     22  H   LIG d   1      12.122   9.455  -8.793  0.00  0.00     0.066 H 
ATOM     23  C   LIG d   1       9.116   8.401  -7.681  0.00  0.00    -0.058 A 
ATOM     24  H   LIG d   1       9.753   9.407  -9.456  0.00  0.00     0.062 H 
ATOM     25  C   LIG d   1       9.502   7.844  -6.475  0.00  0.00    -0.016 A 
ATOM     26  H   LIG d   1       8.077   8.381  -7.975  0.00  0.00     0.062 H 
ATOM     27  H   LIG d   1       8.765   7.391  -5.829  0.00  0.00     0.066 H 
BRANCH  19  28
ATOM     28  O   LIG d   1      13.092   8.478  -6.565  0.00  0.00    -0.491 OA
BRANCH  28  29
ATOM     29  C   LIG d   1      13.989   7.649  -7.307  0.00  0.00     0.079 C 
ATOM     30  H   LIG d   1      13.869   6.612  -6.995  0.00  0.00     0.066 H 
ATOM     31  H   LIG d   1      13.769   7.736  -8.371  0.00  0.00     0.066 H 
ATOM     32  H   LIG d   1      15.015   7.967  -7.121  0.00  0.00     0.066 H 
ENDBRANCH  28  29
ENDBRANCH  19  28
ENDBRANCH  17  18
ENDBRANCH  11  17
BRANCH  15  33
ATOM     33  N   LIG d   1       8.784   9.103  -0.386  0.00  0.00    -0.328 N 
ATOM     34  H   LIG d   1       7.947   8.708  -0.094  0.00  0.00     0.145 HD
ATOM     35  H   LIG d   1       9.189   9.818   0.129  0.00  0.00     0.145 HD
ENDBRANCH  15  33
ENDBRANCH   1  10
BRANCH   6  36
ATOM     36  O   LIG d   1      11.035   4.918  -1.214  0.00  0.00    -0.506 OA
ATOM     37  H   LIG d   1      10.723   4.461  -0.422  0.00  0.00     0.292 HD
ENDBRANCH   6  36
BRANCH   4  38
ATOM     38  O   LIG d   1       9.728   1.402  -4.133  0.00  0.00    -0.487 OA
BRANCH  38  39
ATOM     39  C   LIG d   1       8.694   0.974  -5.022  0.00  0.00     0.115 C 
ATOM     40  H   LIG d   1       9.096   0.242  -5.721  0.00  0.00     0.075 H 
ATOM     41  H   LIG d   1       8.312   1.832  -5.574  0.00  0.00     0.075 H 
BRANCH  39  42
ATOM     42  C   LIG d   1       7.576   0.350  -4.229  0.00  0.00    -0.010 A 
ATOM     43  C   LIG d   1       7.459  -1.027  -4.167  0.00  0.00    -0.055 A 
ATOM     44  C   LIG d   1       6.440  -1.604  -3.439  0.00  0.00    -0.054 A 
ATOM     45  H   LIG d   1       8.167  -1.651  -4.692  0.00  0.00     0.062 H 
ATOM     46  C   LIG d   1       5.525  -0.795  -2.762  0.00  0.00    -0.026 A 
ATOM     47  H   LIG d   1       6.349  -2.679  -3.392  0.00  0.00     0.062 H 
ATOM     48  C   LIG d   1       5.649   0.593  -2.827  0.00  0.00    -0.054 A 
ATOM     49  C   LIG d   1       6.673   1.158  -3.560  0.00  0.00    -0.055 A 
ATOM     50  H   LIG d   1       4.945   1.224  -2.306  0.00  0.00     0.062 H 
ATOM     51  H   LIG d   1       6.769   2.232  -3.612  0.00  0.00     0.062 H 
BRANCH  46  52
ATOM     52  C   LIG d   1       4.431  -1.408  -1.979  0.00  0.00    -0.062 C 
ATOM     53  C   LIG d   1       3.271  -1.679  -2.562  0.00  0.00    -0.098 C 
ATOM     54  H   LIG d   1       3.126  -1.453  -3.608  0.00  0.00     0.053 H 
ATOM     55  H   LIG d   1       2.472  -2.127  -1.990  0.00  0.00     0.053 H 
ATOM     56  H   LIG d   1       4.575  -1.634  -0.934  0.00  0.00     0.062 H 
ENDBRANCH  46  52
ENDBRANCH  39  42
ENDBRANCH  38  39
ENDBRANCH   4  38
TORSDOF 11
ENDMDL
MODEL 7
REMARK VINA RESULT:      -6.4      7.279     11.653
REMARK  11 active torsions:
REMARK  status: ('A' for Active; 'I' for Inactive)
REMARK    1  A    between atoms: C_1  and  O_2 
REMARK    2  A    between atoms: O_2  and  C_3 
REMARK    3  A    between atoms: C_8  and  O_9 
REMARK    4  A    between atoms: O_9  and  C_10 
REMARK    5  A    between atoms: C_13  and  N_33 
REMARK    6  A    between atoms: C_15  and  C_16 
REMARK    7  A    between atoms: C_19  and  O_23 
REMARK    8  A    between atoms: C_21  and  O_22 
REMARK    9  A    between atoms: O_23  and  C_24 
REMARK   10  A    between atoms: C_24  and  C_25 
REMARK   11  A    between atoms: C_28  and  C_31 
ROOT
ATOM      1  C   LIG d   1      10.080   5.995  -2.798  0.00  0.00     0.046 A 
ATOM      2  C   LIG d   1      10.532   4.928  -2.021  0.00  0.00    -0.045 A 
ATOM      3  C   LIG d   1      10.315   3.632  -2.439  0.00  0.00    -0.019 A 
ATOM      4  C   LIG d   1       9.657   3.386  -3.639  0.00  0.00     0.124 A 
ATOM      5  C   LIG d   1       9.204   4.442  -4.416  0.00  0.00     0.022 A 
ATOM      6  C   LIG d   1       9.413   5.746  -4.002  0.00  0.00     0.130 A 
ATOM      7  H   LIG d   1      11.048   5.115  -1.091  0.00  0.00     0.063 H 
ATOM      8  H   LIG d   1      10.662   2.806  -1.836  0.00  0.00     0.065 H 
ATOM      9  H   LIG d   1       8.689   4.246  -5.345  0.00  0.00     0.069 H 
ENDROOT
BRANCH   1  10
ATOM     10  C   LIG d   1      10.307   7.388  -2.348  0.00  0.00     0.122 A 
ATOM     11  C   LIG d   1      11.514   8.043  -2.637  0.00  0.00     0.173 A 
ATOM     12  C   LIG d   1      11.674   9.348  -2.198  0.00  0.00     0.076 A 
ATOM     13  N   LIG d   1      10.698   9.928  -1.517  0.00  0.00    -0.219 NA
ATOM     14  H   LIG d   1      12.589   9.885  -2.405  0.00  0.00     0.087 H 
ATOM     15  C   LIG d   1       9.571   9.281  -1.256  0.00  0.00     0.213 A 
ATOM     16  N   LIG d   1       9.371   8.036  -1.659  0.00  0.00    -0.211 NA
BRANCH  11  17
ATOM     17  O   LIG d   1      12.497   7.414  -3.334  0.00  0.00    -0.449 OA
BRANCH  17  18
ATOM     18  C   LIG d   1      13.329   6.582  -2.655  0.00  0.00     0.170 A 
ATOM     19  C   LIG d   1      13.722   5.373  -3.222  0.00  0.00     0.162 A 
ATOM     20  C   LIG d   1      14.572   4.528  -2.525  0.00  0.00    -0.016 A 
ATOM     21  C   LIG d   1      15.029   4.888  -1.271  0.00  0.00    -0.058 A 
ATOM     22  H   LIG d   1      14.878   3.590  -2.962  0.00  0.00     0.066 H 
ATOM     23  C   LIG d   1      14.639   6.089  -0.707  0.00  0.00    -0.058 A 
ATOM     24  H   LIG d   1      15.692   4.229  -0.730  0.00  0.00     0.062 H 
ATOM     25  C   LIG d   1      13.795   6.938  -1.399  0.00  0.00    -0.016 A 
ATOM     26  H   LIG d   1      14.997   6.366   0.272  0.00  0.00     0.062 H 
ATOM     27  H   LIG d   1      13.495   7.878  -0.959  0.00  0.00     0.066 H 
BRANCH  19  28
ATOM     28  O   LIG d   1      13.273   5.021  -4.456  0.00  0.00    -0.491 OA
BRANCH  28  29
ATOM     29  C   LIG d   1      13.242   3.625  -4.762  0.00  0.00     0.079 C 
ATOM     30  H   LIG d   1      13.791   3.443  -5.685  0.00  0.00     0.066 H 
ATOM     31  H   LIG d   1      13.704   3.065  -3.948  0.00  0.00     0.066 H 
ATOM     32  H   LIG d   1      12.208   3.303  -4.884  0.00  0.00     0.066 H 
ENDBRANCH  28  29
ENDBRANCH  19  28
ENDBRANCH  17  18
ENDBRANCH  11  17
BRANCH  15  33
ATOM     33  N   LIG d   1       8.575   9.926  -0.539  0.00  0.00    -0.328 N 
ATOM     34  H   LIG d   1       8.143   9.476   0.203  0.00  0.00     0.145 HD
ATOM     35  H   LIG d   1       8.310  10.827  -0.781  0.00  0.00     0.145 HD
ENDBRANCH  15  33
ENDBRANCH   1  10
BRANCH   6  36
ATOM     36  O   LIG d   1       8.970   6.781  -4.763  0.00  0.00    -0.506 OA
ATOM     37  H   LIG d   1       8.712   7.561  -4.253  0.00  0.00     0.292 HD
ENDBRANCH   6  36
BRANCH   4  38
ATOM     38  O   LIG d   1       9.451   2.106  -4.047  0.00  0.00    -0.487 OA
BRANCH  38  39
ATOM     39  C   LIG d   1       8.290   1.858  -4.842  0.00  0.00     0.115 C 
ATOM     40  H   LIG d   1       8.578   1.326  -5.749  0.00  0.00     0.075 H 
ATOM     41  H   LIG d   1       7.824   2.806  -5.110  0.00  0.00     0.075 H 
BRANCH  39  42
ATOM     42  C   LIG d   1       7.313   1.022  -4.058  0.00  0.00    -0.010 A 
ATOM     43  C   LIG d   1       6.290   1.635  -3.356  0.00  0.00    -0.055 A 
ATOM     44  C   LIG d   1       5.389   0.875  -2.640  0.00  0.00    -0.054 A 
ATOM     45  H   LIG d   1       6.198   2.710  -3.368  0.00  0.00     0.062 H 
ATOM     46  C   LIG d   1       5.511  -0.516  -2.625  0.00  0.00    -0.026 A 
ATOM     47  H   LIG d   1       4.591   1.354  -2.092  0.00  0.00     0.062 H 
ATOM     48  C   LIG d   1       6.544  -1.127  -3.336  0.00  0.00    -0.054 A 
ATOM     49  C   LIG d   1       7.439  -0.355  -4.048  0.00  0.00    -0.055 A 
ATOM     50  H   LIG d   1       6.643  -2.202  -3.328  0.00  0.00     0.062 H 
ATOM     51  H   LIG d   1       8.239  -0.828  -4.598  0.00  0.00     0.062 H 
BRANCH  46  52
ATOM     52  C   LIG d   1       4.548  -1.336  -1.860  0.00  0.00    -0.062 C 
ATOM     53  C   LIG d   1       3.774  -2.209  -2.490  0.00  0.00    -0.098 C 
ATOM     54  H   LIG d   1       3.847  -2.321  -3.562  0.00  0.00     0.053 H 
ATOM     55  H   LIG d   1       3.071  -2.809  -1.931  0.00  0.00     0.053 H 
ATOM     56  H   LIG d   1       4.475  -1.225  -0.789  0.00  0.00     0.062 H 
ENDBRANCH  46  52
ENDBRANCH  39  42
ENDBRANCH  38  39
ENDBRANCH   4  38
TORSDOF 11
ENDMDL
MODEL 8
REMARK VINA RESULT:      -6.4      2.075      3.244
REMARK  11 active torsions:
REMARK  status: ('A' for Active; 'I' for Inactive)
REMARK    1  A    between atoms: C_1  and  O_2 
REMARK    2  A    between atoms: O_2  and  C_3 
REMARK    3  A    between atoms: C_8  and  O_9 
REMARK    4  A    between atoms: O_9  and  C_10 
REMARK    5  A    between atoms: C_13  and  N_33 
REMARK    6  A    between atoms: C_15  and  C_16 
REMARK    7  A    between atoms: C_19  and  O_23 
REMARK    8  A    between atoms: C_21  and  O_22 
REMARK    9  A    between atoms: O_23  and  C_24 
REMARK   10  A    between atoms: C_24  and  C_25 
REMARK   11  A    between atoms: C_28  and  C_31 
ROOT
ATOM      1  C   LIG d   1       5.076  -4.054  -7.292  0.00  0.00     0.046 A 
ATOM      2  C   LIG d   1       6.392  -4.200  -7.734  0.00  0.00    -0.045 A 
ATOM      3  C   LIG d   1       7.067  -5.380  -7.508  0.00  0.00    -0.019 A 
ATOM      4  C   LIG d   1       6.438  -6.430  -6.849  0.00  0.00     0.124 A 
ATOM      5  C   LIG d   1       5.131  -6.292  -6.405  0.00  0.00     0.022 A 
ATOM      6  C   LIG d   1       4.446  -5.109  -6.623  0.00  0.00     0.130 A 
ATOM      7  H   LIG d   1       6.882  -3.389  -8.251  0.00  0.00     0.063 H 
ATOM      8  H   LIG d   1       8.086  -5.491  -7.847  0.00  0.00     0.065 H 
ATOM      9  H   LIG d   1       4.648  -7.109  -5.889  0.00  0.00     0.069 H 
ENDROOT
BRANCH   1  10
ATOM     10  C   LIG d   1       4.350  -2.786  -7.530  0.00  0.00     0.122 A 
ATOM     11  C   LIG d   1       4.613  -1.656  -6.741  0.00  0.00     0.173 A 
ATOM     12  C   LIG d   1       3.909  -0.490  -7.007  0.00  0.00     0.076 A 
ATOM     13  N   LIG d   1       3.013  -0.483  -7.981  0.00  0.00    -0.219 NA
ATOM     14  H   LIG d   1       4.087   0.400  -6.422  0.00  0.00     0.087 H 
ATOM     15  C   LIG d   1       2.785  -1.568  -8.707  0.00  0.00     0.213 A 
ATOM     16  N   LIG d   1       3.435  -2.701  -8.492  0.00  0.00    -0.211 NA
BRANCH  11  17
ATOM     17  O   LIG d   1       5.536  -1.702  -5.744  0.00  0.00    -0.449 OA
BRANCH  17  18
ATOM     18  C   LIG d   1       5.118  -1.462  -4.474  0.00  0.00     0.170 A 
ATOM     19  C   LIG d   1       5.446  -0.265  -3.845  0.00  0.00     0.162 A 
ATOM     20  C   LIG d   1       5.016  -0.026  -2.549  0.00  0.00    -0.016 A 
ATOM     21  C   LIG d   1       4.260  -0.974  -1.885  0.00  0.00    -0.058 A 
ATOM     22  H   LIG d   1       5.270   0.902  -2.059  0.00  0.00     0.066 H 
ATOM     23  C   LIG d   1       3.933  -2.163  -2.510  0.00  0.00    -0.058 A 
ATOM     24  H   LIG d   1       3.925  -0.785  -0.876  0.00  0.00     0.062 H 
ATOM     25  C   LIG d   1       4.356  -2.407  -3.804  0.00  0.00    -0.016 A 
ATOM     26  H   LIG d   1       3.343  -2.902  -1.989  0.00  0.00     0.062 H 
ATOM     27  H   LIG d   1       4.095  -3.335  -4.292  0.00  0.00     0.066 H 
BRANCH  19  28
ATOM     28  O   LIG d   1       6.189   0.667  -4.499  0.00  0.00    -0.491 OA
BRANCH  28  29
ATOM     29  C   LIG d   1       7.318   1.201  -3.804  0.00  0.00     0.079 C 
ATOM     30  H   LIG d   1       7.072   2.189  -3.415  0.00  0.00     0.066 H 
ATOM     31  H   LIG d   1       7.583   0.540  -2.978  0.00  0.00     0.066 H 
ATOM     32  H   LIG d   1       8.162   1.282  -4.490  0.00  0.00     0.066 H 
ENDBRANCH  28  29
ENDBRANCH  19  28
ENDBRANCH  17  18
ENDBRANCH  11  17
BRANCH  15  33
ATOM     33  N   LIG d   1       1.837  -1.516  -9.717  0.00  0.00    -0.328 N 
ATOM     34  H   LIG d   1       2.097  -1.247 -10.612  0.00  0.00     0.145 HD
ATOM     35  H   LIG d   1       0.914  -1.747  -9.528  0.00  0.00     0.145 HD
ENDBRANCH  15  33
ENDBRANCH   1  10
BRANCH   6  36
ATOM     36  O   LIG d   1       3.166  -4.974  -6.190  0.00  0.00    -0.506 OA
ATOM     37  H   LIG d   1       2.974  -4.113  -5.793  0.00  0.00     0.292 HD
ENDBRANCH   6  36
BRANCH   4  38
ATOM     38  O   LIG d   1       7.109  -7.592  -6.632  0.00  0.00    -0.487 OA
BRANCH  38  39
ATOM     39  C   LIG d   1       7.452  -7.901  -5.280  0.00  0.00     0.115 C 
ATOM     40  H   LIG d   1       7.617  -8.973  -5.183  0.00  0.00     0.075 H 
ATOM     41  H   LIG d   1       6.640  -7.597  -4.621  0.00  0.00     0.075 H 
BRANCH  39  42
ATOM     42  C   LIG d   1       8.709  -7.163  -4.900  0.00  0.00    -0.010 A 
ATOM     43  C   LIG d   1       9.926  -7.555  -5.429  0.00  0.00    -0.055 A 
ATOM     44  C   LIG d   1      11.080  -6.880  -5.089  0.00  0.00    -0.054 A 
ATOM     45  H   LIG d   1       9.972  -8.392  -6.110  0.00  0.00     0.062 H 
ATOM     46  C   LIG d   1      11.018  -5.799  -4.208  0.00  0.00    -0.026 A 
ATOM     47  H   LIG d   1      12.029  -7.187  -5.502  0.00  0.00     0.062 H 
ATOM     48  C   LIG d   1       9.788  -5.408  -3.679  0.00  0.00    -0.054 A 
ATOM     49  C   LIG d   1       8.641  -6.092  -4.027  0.00  0.00    -0.055 A 
ATOM     50  H   LIG d   1       9.733  -4.572  -2.997  0.00  0.00     0.062 H 
ATOM     51  H   LIG d   1       7.688  -5.790  -3.618  0.00  0.00     0.062 H 
BRANCH  46  52
ATOM     52  C   LIG d   1      12.250  -5.071  -3.839  0.00  0.00    -0.062 C 
ATOM     53  C   LIG d   1      12.192  -3.782  -3.534  0.00  0.00    -0.098 C 
ATOM     54  H   LIG d   1      11.245  -3.264  -3.554  0.00  0.00     0.053 H 
ATOM     55  H   LIG d   1      13.093  -3.251  -3.264  0.00  0.00     0.053 H 
ATOM     56  H   LIG d   1      13.198  -5.588  -3.819  0.00  0.00     0.062 H 
ENDBRANCH  46  52
ENDBRANCH  39  42
ENDBRANCH  38  39
ENDBRANCH   4  38
TORSDOF 11
ENDMDL
MODEL 9
REMARK VINA RESULT:      -6.3      1.732      2.200
REMARK  11 active torsions:
REMARK  status: ('A' for Active; 'I' for Inactive)
REMARK    1  A    between atoms: C_1  and  O_2 
REMARK    2  A    between atoms: O_2  and  C_3 
REMARK    3  A    between atoms: C_8  and  O_9 
REMARK    4  A    between atoms: O_9  and  C_10 
REMARK    5  A    between atoms: C_13  and  N_33 
REMARK    6  A    between atoms: C_15  and  C_16 
REMARK    7  A    between atoms: C_19  and  O_23 
REMARK    8  A    between atoms: C_21  and  O_22 
REMARK    9  A    between atoms: O_23  and  C_24 
REMARK   10  A    between atoms: C_24  and  C_25 
REMARK   11  A    between atoms: C_28  and  C_31 
ROOT
ATOM      1  C   LIG d   1       5.253  -2.842  -7.051  0.00  0.00     0.046 A 
ATOM      2  C   LIG d   1       5.007  -3.629  -5.925  0.00  0.00    -0.045 A 
ATOM      3  C   LIG d   1       5.877  -4.645  -5.593  0.00  0.00    -0.019 A 
ATOM      4  C   LIG d   1       7.005  -4.883  -6.369  0.00  0.00     0.124 A 
ATOM      5  C   LIG d   1       7.256  -4.105  -7.491  0.00  0.00     0.022 A 
ATOM      6  C   LIG d   1       6.386  -3.085  -7.836  0.00  0.00     0.130 A 
ATOM      7  H   LIG d   1       4.135  -3.445  -5.316  0.00  0.00     0.063 H 
ATOM      8  H   LIG d   1       5.684  -5.257  -4.724  0.00  0.00     0.065 H 
ATOM      9  H   LIG d   1       8.131  -4.296  -8.094  0.00  0.00     0.069 H 
ENDROOT
BRANCH   1  10
ATOM     10  C   LIG d   1       4.318  -1.753  -7.413  0.00  0.00     0.122 A 
ATOM     11  C   LIG d   1       4.385  -0.511  -6.764  0.00  0.00     0.173 A 
ATOM     12  C   LIG d   1       3.489   0.478  -7.144  0.00  0.00     0.076 A 
ATOM     13  N   LIG d   1       2.601   0.219  -8.091  0.00  0.00    -0.219 NA
ATOM     14  H   LIG d   1       3.513   1.448  -6.669  0.00  0.00     0.087 H 
ATOM     15  C   LIG d   1       2.561  -0.966  -8.683  0.00  0.00     0.213 A 
ATOM     16  N   LIG d   1       3.397  -1.938  -8.357  0.00  0.00    -0.211 NA
BRANCH  11  17
ATOM     17  O   LIG d   1       5.307  -0.282  -5.792  0.00  0.00    -0.449 OA
BRANCH  17  18
ATOM     18  C   LIG d   1       4.869  -0.176  -4.509  0.00  0.00     0.170 A 
ATOM     19  C   LIG d   1       5.458   0.743  -3.645  0.00  0.00     0.162 A 
ATOM     20  C   LIG d   1       5.007   0.847  -2.338  0.00  0.00    -0.016 A 
ATOM     21  C   LIG d   1       3.974   0.041  -1.897  0.00  0.00    -0.058 A 
ATOM     22  H   LIG d   1       5.462   1.558  -1.666  0.00  0.00     0.066 H 
ATOM     23  C   LIG d   1       3.389  -0.871  -2.755  0.00  0.00    -0.058 A 
ATOM     24  H   LIG d   1       3.624   0.124  -0.878  0.00  0.00     0.062 H 
ATOM     25  C   LIG d   1       3.831  -0.977  -4.061  0.00  0.00    -0.016 A 
ATOM     26  H   LIG d   1       2.583  -1.499  -2.407  0.00  0.00     0.062 H 
ATOM     27  H   LIG d   1       3.369  -1.687  -4.732  0.00  0.00     0.066 H 
BRANCH  19  28
ATOM     28  O   LIG d   1       6.473   1.535  -4.081  0.00  0.00    -0.491 OA
BRANCH  28  29
ATOM     29  C   LIG d   1       7.804   1.105  -3.784  0.00  0.00     0.079 C 
ATOM     30  H   LIG d   1       8.063   1.399  -2.767  0.00  0.00     0.066 H 
ATOM     31  H   LIG d   1       7.865   0.021  -3.876  0.00  0.00     0.066 H 
ATOM     32  H   LIG d   1       8.500   1.569  -4.484  0.00  0.00     0.066 H 
ENDBRANCH  28  29
ENDBRANCH  19  28
ENDBRANCH  17  18
ENDBRANCH  11  17
BRANCH  15  33
ATOM     33  N   LIG d   1       1.614  -1.194  -9.669  0.00  0.00    -0.328 N 
ATOM     34  H   LIG d   1       1.117  -2.027  -9.680  0.00  0.00     0.145 HD
ATOM     35  H   LIG d   1       1.449  -0.521 -10.349  0.00  0.00     0.145 HD
ENDBRANCH  15  33
ENDBRANCH   1  10
BRANCH   6  36
ATOM     36  O   LIG d   1       6.632  -2.322  -8.932  0.00  0.00    -0.506 OA
ATOM     37  H   LIG d   1       6.850  -2.832  -9.725  0.00  0.00     0.292 HD
ENDBRANCH   6  36
BRANCH   4  38
ATOM     38  O   LIG d   1       7.860  -5.884  -6.033  0.00  0.00    -0.487 OA
BRANCH  38  39
ATOM     39  C   LIG d   1       7.647  -7.154  -6.652  0.00  0.00     0.115 C 
ATOM     40  H   LIG d   1       8.608  -7.632  -6.839  0.00  0.00     0.075 H 
ATOM     41  H   LIG d   1       7.122  -7.014  -7.597  0.00  0.00     0.075 H 
BRANCH  39  42
ATOM     42  C   LIG d   1       6.821  -8.024  -5.743  0.00  0.00    -0.010 A 
ATOM     43  C   LIG d   1       5.527  -8.362  -6.100  0.00  0.00    -0.055 A 
ATOM     44  C   LIG d   1       4.767  -9.163  -5.274  0.00  0.00    -0.054 A 
ATOM     45  H   LIG d   1       5.112  -7.998  -7.028  0.00  0.00     0.062 H 
ATOM     46  C   LIG d   1       5.305  -9.633  -4.075  0.00  0.00    -0.026 A 
ATOM     47  H   LIG d   1       3.758  -9.426  -5.553  0.00  0.00     0.062 H 
ATOM     48  C   LIG d   1       6.610  -9.289  -3.721  0.00  0.00    -0.054 A 
ATOM     49  C   LIG d   1       7.360  -8.487  -4.556  0.00  0.00    -0.055 A 
ATOM     50  H   LIG d   1       7.032  -9.650  -2.794  0.00  0.00     0.062 H 
ATOM     51  H   LIG d   1       8.370  -8.220  -4.283  0.00  0.00     0.062 H 
BRANCH  46  52
ATOM     52  C   LIG d   1       4.496 -10.492  -3.184  0.00  0.00    -0.062 C 
ATOM     53  C   LIG d   1       3.178 -10.348  -3.144  0.00  0.00    -0.098 C 
ATOM     54  H   LIG d   1       2.696  -9.603  -3.760  0.00  0.00     0.053 H 
ATOM     55  H   LIG d   1       2.587 -10.975  -2.494  0.00  0.00     0.053 H 
ATOM     56  H   LIG d   1       4.976 -11.237  -2.568  0.00  0.00     0.062 H 
ENDBRANCH  46  52
ENDBRANCH  39  42
ENDBRANCH  38  39
ENDBRANCH   4  38
TORSDOF 11
ENDMDL
