MODEL 1
REMARK VINA RESULT:      -6.4      0.000      0.000
REMARK  9 active torsions:
REMARK  status: ('A' for Active; 'I' for Inactive)
REMARK    1  A    between atoms: C_1  and  C_2 
REMARK    2  A    between atoms: C_4  and  C_17 
REMARK    3  A    between atoms: C_5  and  O_16 
REMARK    4  A    between atoms: C_6  and  C_8 
REMARK    5  A    between atoms: C_8  and  C_9 
REMARK    6  A    between atoms: C_9  and  C_10 
REMARK    7  A    between atoms: C_17  and  S_18 
REMARK    8  A    between atoms: S_18  and  C_19 
REMARK    9  A    between atoms: C_19  and  N_21 
ROOT
ATOM      1  C   LIG d   1       2.193  -1.021  -9.259  0.00  0.00     0.180 A 
ATOM      2  C   LIG d   1       3.008  -2.138  -9.289  0.00  0.00     0.013 A 
ATOM      3  C   LIG d   1       3.926  -2.332  -8.271  0.00  0.00     0.017 A 
ATOM      4  C   LIG d   1       3.996  -1.385  -7.253  0.00  0.00     0.188 A 
ATOM      5  C   LIG d   1       3.141  -0.294  -7.289  0.00  0.00     0.225 A 
ATOM      6  N   LIG d   1       2.281  -0.145  -8.277  0.00  0.00    -0.209 N 
ATOM      7  H   LIG d   1       2.939  -2.801 -10.034  0.00  0.00     0.068 H 
ATOM      8  H   LIG d   1       1.612   0.728  -8.297  0.00  0.00     0.453 HD
ENDROOT
BRANCH   5   9
ATOM      9  C   LIG d   1       3.206   0.740  -6.195  0.00  0.00     0.040 C 
ATOM     10  H   LIG d   1       2.911   1.720  -6.598  0.00  0.00     0.038 H 
ATOM     11  H   LIG d   1       4.232   0.797  -5.803  0.00  0.00     0.038 H 
BRANCH   9  12
ATOM     12  C   LIG d   1       2.251   0.346  -5.064  0.00  0.00    -0.018 C 
ATOM     13  H   LIG d   1       1.558   1.177  -4.864  0.00  0.00     0.032 H 
ATOM     14  H   LIG d   1       1.679  -0.545  -5.362  0.00  0.00     0.032 H 
BRANCH  12  15
ATOM     15  C   LIG d   1       3.044   0.042  -3.820  0.00  0.00    -0.047 A 
ATOM     16  C   LIG d   1       3.642   1.068  -3.112  0.00  0.00    -0.059 A 
ATOM     17  C   LIG d   1       4.370   0.789  -1.971  0.00  0.00    -0.061 A 
ATOM     18  H   LIG d   1       3.539   2.088  -3.452  0.00  0.00     0.062 H 
ATOM     19  C   LIG d   1       4.500  -0.518  -1.537  0.00  0.00    -0.062 A 
ATOM     20  H   LIG d   1       4.836   1.590  -1.419  0.00  0.00     0.062 H 
ATOM     21  C   LIG d   1       3.902  -1.544  -2.244  0.00  0.00    -0.061 A 
ATOM     22  H   LIG d   1       5.064  -0.736  -0.643  0.00  0.00     0.062 H 
ATOM     23  C   LIG d   1       3.174  -1.265  -3.386  0.00  0.00    -0.059 A 
ATOM     24  H   LIG d   1       4.003  -2.565  -1.905  0.00  0.00     0.062 H 
ATOM     25  H   LIG d   1       2.707  -2.066  -3.939  0.00  0.00     0.062 H 
ENDBRANCH  12  15
ENDBRANCH   9  12
ENDBRANCH   5   9
BRANCH   4  26
ATOM     26  O   LIG d   1       4.889  -1.529  -6.238  0.00  0.00    -0.501 OA
ATOM     27  H   LIG d   1       4.545  -1.849  -5.244  0.00  0.00     0.292 HD
ENDBRANCH   4  26
BRANCH   3  28
ATOM     28  C   LIG d   1       4.827  -3.540  -8.265  0.00  0.00     0.034 C 
ATOM     29  H   LIG d   1       5.577  -3.435  -7.468  0.00  0.00     0.043 H 
ATOM     30  H   LIG d   1       5.334  -3.624  -9.238  0.00  0.00     0.043 H 
BRANCH  28  31
ATOM     31  S   LIG d   1       3.839  -5.028  -7.970  0.00  0.00    -0.036 SA
BRANCH  31  32
ATOM     32  C   LIG d   1       4.230  -5.323  -6.277  0.00  0.00     0.297 C 
ATOM     33  N   LIG d   1       4.076  -4.373  -5.397  0.00  0.00    -0.236 N 
ATOM     34  H   LIG d   1       4.320  -4.558  -4.340  0.00  0.00     0.445 HD
ATOM     35  H   LIG d   1       3.703  -3.388  -5.710  0.00  0.00     0.445 HD
BRANCH  32  36
ATOM     36  N   LIG d   1       4.697  -6.557  -5.884  0.00  0.00    -0.300 N 
ATOM     37  H   LIG d   1       4.790  -7.370  -6.619  0.00  0.00     0.148 HD
ATOM     38  H   LIG d   1       4.977  -6.730  -4.834  0.00  0.00     0.148 HD
ENDBRANCH  32  36
ENDBRANCH  31  32
ENDBRANCH  28  31
ENDBRANCH   3  28
BRANCH   1  39
ATOM     39  C   LIG d   1       1.191  -0.801 -10.363  0.00  0.00     0.021 C 
ATOM     40  H   LIG d   1       1.007  -1.751 -10.886  0.00  0.00     0.034 H 
ATOM     41  H   LIG d   1       1.586  -0.061 -11.075  0.00  0.00     0.034 H 
ATOM     42  H   LIG d   1       0.248  -0.430  -9.935  0.00  0.00     0.034 H 
ENDBRANCH   1  39
TORSDOF 9
ENDMDL
MODEL 2
REMARK VINA RESULT:      -6.2      2.428      2.772
REMARK  9 active torsions:
REMARK  status: ('A' for Active; 'I' for Inactive)
REMARK    1  A    between atoms: C_1  and  C_2 
REMARK    2  A    between atoms: C_4  and  C_17 
REMARK    3  A    between atoms: C_5  and  O_16 
REMARK    4  A    between atoms: C_6  and  C_8 
REMARK    5  A    between atoms: C_8  and  C_9 
REMARK    6  A    between atoms: C_9  and  C_10 
REMARK    7  A    between atoms: C_17  and  S_18 
REMARK    8  A    between atoms: S_18  and  C_19 
REMARK    9  A    between atoms: C_19  and  N_21 
ROOT
ATOM      1  C   LIG d   1       3.610  -1.912  -8.337  0.00  0.00     0.180 A 
ATOM      2  C   LIG d   1       4.950  -2.186  -8.137  0.00  0.00     0.013 A 
ATOM      3  C   LIG d   1       5.653  -1.467  -7.186  0.00  0.00     0.017 A 
ATOM      4  C   LIG d   1       4.978  -0.486  -6.466  0.00  0.00     0.188 A 
ATOM      5  C   LIG d   1       3.631  -0.273  -6.717  0.00  0.00     0.225 A 
ATOM      6  N   LIG d   1       2.998  -0.980  -7.634  0.00  0.00    -0.209 N 
ATOM      7  H   LIG d   1       5.413  -2.894  -8.672  0.00  0.00     0.068 H 
ATOM      8  H   LIG d   1       1.930  -0.798  -7.827  0.00  0.00     0.453 HD
ENDROOT
BRANCH   5   9
ATOM      9  C   LIG d   1       2.886   0.786  -5.946  0.00  0.00     0.040 C 
ATOM     10  H   LIG d   1       2.205   1.322  -6.623  0.00  0.00     0.038 H 
ATOM     11  H   LIG d   1       3.604   1.495  -5.510  0.00  0.00     0.038 H 
BRANCH   9  12
ATOM     12  C   LIG d   1       2.076   0.126  -4.827  0.00  0.00    -0.018 C 
ATOM     13  H   LIG d   1       1.252   0.792  -4.530  0.00  0.00     0.032 H 
ATOM     14  H   LIG d   1       1.665  -0.829  -5.186  0.00  0.00     0.032 H 
BRANCH  12  15
ATOM     15  C   LIG d   1       2.971  -0.126  -3.641  0.00  0.00    -0.047 A 
ATOM     16  C   LIG d   1       3.492   0.938  -2.929  0.00  0.00    -0.059 A 
ATOM     17  C   LIG d   1       4.313   0.707  -1.841  0.00  0.00    -0.061 A 
ATOM     18  H   LIG d   1       3.256   1.950  -3.222  0.00  0.00     0.062 H 
ATOM     19  C   LIG d   1       4.614  -0.590  -1.466  0.00  0.00    -0.062 A 
ATOM     20  H   LIG d   1       4.720   1.537  -1.285  0.00  0.00     0.062 H 
ATOM     21  C   LIG d   1       4.093  -1.654  -2.179  0.00  0.00    -0.061 A 
ATOM     22  H   LIG d   1       5.251  -0.771  -0.614  0.00  0.00     0.062 H 
ATOM     23  C   LIG d   1       3.272  -1.423  -3.266  0.00  0.00    -0.059 A 
ATOM     24  H   LIG d   1       4.328  -2.667  -1.885  0.00  0.00     0.062 H 
ATOM     25  H   LIG d   1       2.865  -2.254  -3.823  0.00  0.00     0.062 H 
ENDBRANCH  12  15
ENDBRANCH   9  12
ENDBRANCH   5   9
BRANCH   4  26
ATOM     26  O   LIG d   1       5.629   0.253  -5.528  0.00  0.00    -0.501 OA
ATOM     27  H   LIG d   1       6.030  -0.233  -4.627  0.00  0.00     0.292 HD
ENDBRANCH   4  26
BRANCH   3  28
ATOM     28  C   LIG d   1       7.114  -1.740  -6.935  0.00  0.00     0.034 C 
ATOM     29  H   LIG d   1       7.588  -0.842  -6.513  0.00  0.00     0.043 H 
ATOM     30  H   LIG d   1       7.605  -2.002  -7.884  0.00  0.00     0.043 H 
BRANCH  28  31
ATOM     31  S   LIG d   1       7.279  -3.114  -5.770  0.00  0.00    -0.036 SA
BRANCH  31  32
ATOM     32  C   LIG d   1       8.127  -2.301  -4.457  0.00  0.00     0.297 C 
ATOM     33  N   LIG d   1       9.230  -2.809  -3.980  0.00  0.00    -0.236 N 
ATOM     34  H   LIG d   1       9.760  -2.301  -3.160  0.00  0.00     0.445 HD
ATOM     35  H   LIG d   1       9.631  -3.744  -4.396  0.00  0.00     0.445 HD
BRANCH  32  36
ATOM     36  N   LIG d   1       7.627  -1.130  -3.935  0.00  0.00    -0.300 N 
ATOM     37  H   LIG d   1       6.541  -1.001  -3.815  0.00  0.00     0.148 HD
ATOM     38  H   LIG d   1       8.313  -0.322  -3.639  0.00  0.00     0.148 HD
ENDBRANCH  32  36
ENDBRANCH  31  32
ENDBRANCH  28  31
ENDBRANCH   3  28
BRANCH   1  39
ATOM     39  C   LIG d   1       2.837  -2.690  -9.371  0.00  0.00     0.021 C 
ATOM     40  H   LIG d   1       3.113  -3.753  -9.312  0.00  0.00     0.034 H 
ATOM     41  H   LIG d   1       3.075  -2.304 -10.373  0.00  0.00     0.034 H 
ATOM     42  H   LIG d   1       1.759  -2.581  -9.182  0.00  0.00     0.034 H 
ENDBRANCH   1  39
TORSDOF 9
ENDMDL
MODEL 3
REMARK VINA RESULT:      -6.2      2.082      2.343
REMARK  9 active torsions:
REMARK  status: ('A' for Active; 'I' for Inactive)
REMARK    1  A    between atoms: C_1  and  C_2 
REMARK    2  A    between atoms: C_4  and  C_17 
REMARK    3  A    between atoms: C_5  and  O_16 
REMARK    4  A    between atoms: C_6  and  C_8 
REMARK    5  A    between atoms: C_8  and  C_9 
REMARK    6  A    between atoms: C_9  and  C_10 
REMARK    7  A    between atoms: C_17  and  S_18 
REMARK    8  A    between atoms: S_18  and  C_19 
REMARK    9  A    between atoms: C_19  and  N_21 
ROOT
ATOM      1  C   LIG d   1       3.951   1.494  -8.667  0.00  0.00     0.180 A 
ATOM      2  C   LIG d   1       4.792   0.472  -9.068  0.00  0.00     0.013 A 
ATOM      3  C   LIG d   1       4.766  -0.733  -8.387  0.00  0.00     0.017 A 
ATOM      4  C   LIG d   1       3.892  -0.867  -7.313  0.00  0.00     0.188 A 
ATOM      5  C   LIG d   1       3.073   0.200  -6.973  0.00  0.00     0.225 A 
ATOM      6  N   LIG d   1       3.129   1.332  -7.648  0.00  0.00    -0.209 N 
ATOM      7  H   LIG d   1       5.414   0.597  -9.841  0.00  0.00     0.068 H 
ATOM      8  H   LIG d   1       2.478   2.173  -7.365  0.00  0.00     0.453 HD
ENDROOT
BRANCH   5   9
ATOM      9  C   LIG d   1       2.121   0.070  -5.813  0.00  0.00     0.040 C 
ATOM     10  H   LIG d   1       2.191  -0.944  -5.392  0.00  0.00     0.038 H 
ATOM     11  H   LIG d   1       1.093   0.254  -6.159  0.00  0.00     0.038 H 
BRANCH   9  12
ATOM     12  C   LIG d   1       2.487   1.094  -4.736  0.00  0.00    -0.018 C 
ATOM     13  H   LIG d   1       3.138   1.867  -5.171  0.00  0.00     0.032 H 
ATOM     14  H   LIG d   1       1.570   1.562  -4.349  0.00  0.00     0.032 H 
BRANCH  12  15
ATOM     15  C   LIG d   1       3.211   0.402  -3.610  0.00  0.00    -0.047 A 
ATOM     16  C   LIG d   1       4.000   1.134  -2.742  0.00  0.00    -0.059 A 
ATOM     17  C   LIG d   1       4.664   0.499  -1.709  0.00  0.00    -0.061 A 
ATOM     18  H   LIG d   1       4.095   2.201  -2.870  0.00  0.00     0.062 H 
ATOM     19  C   LIG d   1       4.540  -0.869  -1.545  0.00  0.00    -0.062 A 
ATOM     20  H   LIG d   1       5.280   1.070  -1.031  0.00  0.00     0.062 H 
ATOM     21  C   LIG d   1       3.752  -1.600  -2.414  0.00  0.00    -0.061 A 
ATOM     22  H   LIG d   1       5.055  -1.364  -0.736  0.00  0.00     0.062 H 
ATOM     23  C   LIG d   1       3.087  -0.966  -3.446  0.00  0.00    -0.059 A 
ATOM     24  H   LIG d   1       3.655  -2.669  -2.285  0.00  0.00     0.062 H 
ATOM     25  H   LIG d   1       2.471  -1.537  -4.125  0.00  0.00     0.062 H 
ENDBRANCH  12  15
ENDBRANCH   9  12
ENDBRANCH   5   9
BRANCH   4  26
ATOM     26  O   LIG d   1       3.839  -2.028  -6.607  0.00  0.00    -0.501 OA
ATOM     27  H   LIG d   1       3.510  -2.020  -5.559  0.00  0.00     0.292 HD
ENDBRANCH   4  26
BRANCH   3  28
ATOM     28  C   LIG d   1       5.665  -1.871  -8.798  0.00  0.00     0.034 C 
ATOM     29  H   LIG d   1       5.768  -2.577  -7.962  0.00  0.00     0.043 H 
ATOM     30  H   LIG d   1       6.655  -1.477  -9.071  0.00  0.00     0.043 H 
BRANCH  28  31
ATOM     31  S   LIG d   1       4.942  -2.724 -10.221  0.00  0.00    -0.036 SA
BRANCH  31  32
ATOM     32  C   LIG d   1       4.290  -4.153  -9.422  0.00  0.00     0.297 C 
ATOM     33  N   LIG d   1       4.973  -5.265  -9.414  0.00  0.00    -0.236 N 
ATOM     34  H   LIG d   1       4.566  -6.157  -8.916  0.00  0.00     0.445 HD
ATOM     35  H   LIG d   1       5.955  -5.311  -9.907  0.00  0.00     0.445 HD
BRANCH  32  36
ATOM     36  N   LIG d   1       3.061  -4.096  -8.805  0.00  0.00    -0.300 N 
ATOM     37  H   LIG d   1       2.433  -4.997  -8.746  0.00  0.00     0.148 HD
ATOM     38  H   LIG d   1       2.707  -3.149  -8.371  0.00  0.00     0.148 HD
ENDBRANCH  32  36
ENDBRANCH  31  32
ENDBRANCH  28  31
ENDBRANCH   3  28
BRANCH   1  39
ATOM     39  C   LIG d   1       3.971   2.808  -9.402  0.00  0.00     0.021 C 
ATOM     40  H   LIG d   1       4.690   2.752 -10.234  0.00  0.00     0.034 H 
ATOM     41  H   LIG d   1       4.273   3.610  -8.712  0.00  0.00     0.034 H 
ATOM     42  H   LIG d   1       2.968   3.024  -9.799  0.00  0.00     0.034 H 
ENDBRANCH   1  39
TORSDOF 9
ENDMDL
MODEL 4
REMARK VINA RESULT:      -6.1      2.606      3.176
REMARK  9 active torsions:
REMARK  status: ('A' for Active; 'I' for Inactive)
REMARK    1  A    between atoms: C_1  and  C_2 
REMARK    2  A    between atoms: C_4  and  C_17 
REMARK    3  A    between atoms: C_5  and  O_16 
REMARK    4  A    between atoms: C_6  and  C_8 
REMARK    5  A    between atoms: C_8  and  C_9 
REMARK    6  A    between atoms: C_9  and  C_10 
REMARK    7  A    between atoms: C_17  and  S_18 
REMARK    8  A    between atoms: S_18  and  C_19 
REMARK    9  A    between atoms: C_19  and  N_21 
ROOT
ATOM      1  C   LIG d   1       3.677   1.420  -9.135  0.00  0.00     0.180 A 
ATOM      2  C   LIG d   1       3.421   0.557 -10.185  0.00  0.00     0.013 A 
ATOM      3  C   LIG d   1       3.288  -0.797  -9.930  0.00  0.00     0.017 A 
ATOM      4  C   LIG d   1       3.422  -1.240  -8.618  0.00  0.00     0.188 A 
ATOM      5  C   LIG d   1       3.671  -0.314  -7.617  0.00  0.00     0.225 A 
ATOM      6  N   LIG d   1       3.792   0.968  -7.901  0.00  0.00    -0.209 N 
ATOM      7  H   LIG d   1       3.334   0.902 -11.120  0.00  0.00     0.068 H 
ATOM      8  H   LIG d   1       3.995   1.692  -7.098  0.00  0.00     0.453 HD
ENDROOT
BRANCH   5   9
ATOM      9  C   LIG d   1       3.819  -0.778  -6.191  0.00  0.00     0.040 C 
ATOM     10  H   LIG d   1       4.866  -0.659  -5.873  0.00  0.00     0.038 H 
ATOM     11  H   LIG d   1       3.532  -1.838  -6.119  0.00  0.00     0.038 H 
BRANCH   9  12
ATOM     12  C   LIG d   1       2.913   0.059  -5.285  0.00  0.00    -0.018 C 
ATOM     13  H   LIG d   1       2.857   1.087  -5.672  0.00  0.00     0.032 H 
ATOM     14  H   LIG d   1       1.905  -0.382  -5.268  0.00  0.00     0.032 H 
BRANCH  12  15
ATOM     15  C   LIG d   1       3.477   0.077  -3.888  0.00  0.00    -0.047 A 
ATOM     16  C   LIG d   1       3.667   1.279  -3.234  0.00  0.00    -0.059 A 
ATOM     17  C   LIG d   1       4.185   1.296  -1.953  0.00  0.00    -0.061 A 
ATOM     18  H   LIG d   1       3.409   2.206  -3.724  0.00  0.00     0.062 H 
ATOM     19  C   LIG d   1       4.514   0.108  -1.325  0.00  0.00    -0.062 A 
ATOM     20  H   LIG d   1       4.332   2.235  -1.442  0.00  0.00     0.062 H 
ATOM     21  C   LIG d   1       4.324  -1.095  -1.979  0.00  0.00    -0.061 A 
ATOM     22  H   LIG d   1       4.913   0.120  -0.323  0.00  0.00     0.062 H 
ATOM     23  C   LIG d   1       3.806  -1.111  -3.261  0.00  0.00    -0.059 A 
ATOM     24  H   LIG d   1       4.581  -2.023  -1.489  0.00  0.00     0.062 H 
ATOM     25  H   LIG d   1       3.658  -2.051  -3.772  0.00  0.00     0.062 H 
ENDBRANCH  12  15
ENDBRANCH   9  12
ENDBRANCH   5   9
BRANCH   4  26
ATOM     26  O   LIG d   1       3.309  -2.563  -8.322  0.00  0.00    -0.501 OA
ATOM     27  H   LIG d   1       4.190  -3.217  -8.387  0.00  0.00     0.292 HD
ENDBRANCH   4  26
BRANCH   3  28
ATOM     28  C   LIG d   1       3.004  -1.768 -11.048  0.00  0.00     0.034 C 
ATOM     29  H   LIG d   1       3.426  -2.751 -10.796  0.00  0.00     0.043 H 
ATOM     30  H   LIG d   1       3.461  -1.399 -11.978  0.00  0.00     0.043 H 
BRANCH  28  31
ATOM     31  S   LIG d   1       1.215  -1.920 -11.274  0.00  0.00    -0.036 SA
BRANCH  31  32
ATOM     32  C   LIG d   1       0.954  -3.519 -10.580  0.00  0.00     0.297 C 
ATOM     33  N   LIG d   1      -0.255  -3.917 -10.296  0.00  0.00    -0.236 N 
ATOM     34  H   LIG d   1      -0.418  -4.915  -9.863  0.00  0.00     0.445 HD
ATOM     35  H   LIG d   1      -1.112  -3.255 -10.489  0.00  0.00     0.445 HD
BRANCH  32  36
ATOM     36  N   LIG d   1       2.026  -4.347 -10.339  0.00  0.00    -0.300 N 
ATOM     37  H   LIG d   1       1.944  -5.150  -9.591  0.00  0.00     0.148 HD
ATOM     38  H   LIG d   1       2.966  -4.206 -10.893  0.00  0.00     0.148 HD
ENDBRANCH  32  36
ENDBRANCH  31  32
ENDBRANCH  28  31
ENDBRANCH   3  28
BRANCH   1  39
ATOM     39  C   LIG d   1       3.823   2.896  -9.402  0.00  0.00     0.021 C 
ATOM     40  H   LIG d   1       3.649   3.094 -10.470  0.00  0.00     0.034 H 
ATOM     41  H   LIG d   1       4.840   3.218  -9.131  0.00  0.00     0.034 H 
ATOM     42  H   LIG d   1       3.090   3.453  -8.801  0.00  0.00     0.034 H 
ENDBRANCH   1  39
TORSDOF 9
ENDMDL
MODEL 5
REMARK VINA RESULT:      -6.1      2.731      3.463
REMARK  9 active torsions:
REMARK  status: ('A' for Active; 'I' for Inactive)
REMARK    1  A    between atoms: C_1  and  C_2 
REMARK    2  A    between atoms: C_4  and  C_17 
REMARK    3  A    between atoms: C_5  and  O_16 
REMARK    4  A    between atoms: C_6  and  C_8 
REMARK    5  A    between atoms: C_8  and  C_9 
REMARK    6  A    between atoms: C_9  and  C_10 
REMARK    7  A    between atoms: C_17  and  S_18 
REMARK    8  A    between atoms: S_18  and  C_19 
REMARK    9  A    between atoms: C_19  and  N_21 
ROOT
ATOM      1  C   LIG d   1       2.792  -1.143  -8.747  0.00  0.00     0.180 A 
ATOM      2  C   LIG d   1       4.113  -1.546  -8.804  0.00  0.00     0.013 A 
ATOM      3  C   LIG d   1       4.991  -1.129  -7.819  0.00  0.00     0.017 A 
ATOM      4  C   LIG d   1       4.506  -0.309  -6.805  0.00  0.00     0.188 A 
ATOM      5  C   LIG d   1       3.167   0.049  -6.811  0.00  0.00     0.225 A 
ATOM      6  N   LIG d   1       2.363  -0.370  -7.769  0.00  0.00    -0.209 N 
ATOM      7  H   LIG d   1       4.437  -2.133  -9.547  0.00  0.00     0.068 H 
ATOM      8  H   LIG d   1       1.303  -0.074  -7.766  0.00  0.00     0.453 HD
ENDROOT
BRANCH   5   9
ATOM      9  C   LIG d   1       2.626   0.937  -5.720  0.00  0.00     0.040 C 
ATOM     10  H   LIG d   1       1.895   1.639  -6.146  0.00  0.00     0.038 H 
ATOM     11  H   LIG d   1       3.453   1.500  -5.262  0.00  0.00     0.038 H 
BRANCH   9  12
ATOM     12  C   LIG d   1       1.944   0.076  -4.653  0.00  0.00    -0.018 C 
ATOM     13  H   LIG d   1       1.065   0.608  -4.260  0.00  0.00     0.032 H 
ATOM     14  H   LIG d   1       1.627  -0.877  -5.100  0.00  0.00     0.032 H 
BRANCH  12  15
ATOM     15  C   LIG d   1       2.913  -0.193  -3.530  0.00  0.00    -0.047 A 
ATOM     16  C   LIG d   1       3.237  -1.493  -3.193  0.00  0.00    -0.059 A 
ATOM     17  C   LIG d   1       4.125  -1.740  -2.163  0.00  0.00    -0.061 A 
ATOM     18  H   LIG d   1       2.797  -2.317  -3.736  0.00  0.00     0.062 H 
ATOM     19  C   LIG d   1       4.689  -0.685  -1.470  0.00  0.00    -0.062 A 
ATOM     20  H   LIG d   1       4.378  -2.755  -1.900  0.00  0.00     0.062 H 
ATOM     21  C   LIG d   1       4.365   0.616  -1.806  0.00  0.00    -0.061 A 
ATOM     22  H   LIG d   1       5.387  -0.877  -0.669  0.00  0.00     0.062 H 
ATOM     23  C   LIG d   1       3.477   0.863  -2.837  0.00  0.00    -0.059 A 
ATOM     24  H   LIG d   1       4.806   1.440  -1.265  0.00  0.00     0.062 H 
ATOM     25  H   LIG d   1       3.223   1.879  -3.100  0.00  0.00     0.062 H 
ENDBRANCH  12  15
ENDBRANCH   9  12
ENDBRANCH   5   9
BRANCH   4  26
ATOM     26  O   LIG d   1       5.334   0.135  -5.821  0.00  0.00    -0.501 OA
ATOM     27  H   LIG d   1       5.906  -0.585  -5.218  0.00  0.00     0.292 HD
ENDBRANCH   4  26
BRANCH   3  28
ATOM     28  C   LIG d   1       6.438  -1.552  -7.843  0.00  0.00     0.034 C 
ATOM     29  H   LIG d   1       6.513  -2.581  -8.223  0.00  0.00     0.043 H 
ATOM     30  H   LIG d   1       6.851  -1.506  -6.825  0.00  0.00     0.043 H 
BRANCH  28  31
ATOM     31  S   LIG d   1       7.373  -0.441  -8.924  0.00  0.00    -0.036 SA
BRANCH  31  32
ATOM     32  C   LIG d   1       8.153   0.576  -7.715  0.00  0.00     0.297 C 
ATOM     33  N   LIG d   1       7.522   1.607  -7.225  0.00  0.00    -0.236 N 
ATOM     34  H   LIG d   1       8.009   2.242  -6.470  0.00  0.00     0.445 HD
ATOM     35  H   LIG d   1       6.504   1.843  -7.566  0.00  0.00     0.445 HD
BRANCH  32  36
ATOM     36  N   LIG d   1       9.427   0.281  -7.286  0.00  0.00    -0.300 N 
ATOM     37  H   LIG d   1      10.282   0.865  -7.660  0.00  0.00     0.148 HD
ATOM     38  H   LIG d   1       9.591  -0.538  -6.571  0.00  0.00     0.148 HD
ENDBRANCH  32  36
ENDBRANCH  31  32
ENDBRANCH  28  31
ENDBRANCH   3  28
BRANCH   1  39
ATOM     39  C   LIG d   1       1.829  -1.592  -9.816  0.00  0.00     0.021 C 
ATOM     40  H   LIG d   1       1.319  -0.716 -10.241  0.00  0.00     0.034 H 
ATOM     41  H   LIG d   1       1.084  -2.272  -9.375  0.00  0.00     0.034 H 
ATOM     42  H   LIG d   1       2.380  -2.117 -10.610  0.00  0.00     0.034 H 
ENDBRANCH   1  39
TORSDOF 9
ENDMDL
MODEL 6
REMARK VINA RESULT:      -6.1      2.305      3.922
REMARK  9 active torsions:
REMARK  status: ('A' for Active; 'I' for Inactive)
REMARK    1  A    between atoms: C_1  and  C_2 
REMARK    2  A    between atoms: C_4  and  C_17 
REMARK    3  A    between atoms: C_5  and  O_16 
REMARK    4  A    between atoms: C_6  and  C_8 
REMARK    5  A    between atoms: C_8  and  C_9 
REMARK    6  A    between atoms: C_9  and  C_10 
REMARK    7  A    between atoms: C_17  and  S_18 
REMARK    8  A    between atoms: S_18  and  C_19 
REMARK    9  A    between atoms: C_19  and  N_21 
ROOT
ATOM      1  C   LIG d   1       3.803  -2.093  -7.890  0.00  0.00     0.180 A 
ATOM      2  C   LIG d   1       3.571  -1.756  -9.210  0.00  0.00     0.013 A 
ATOM      3  C   LIG d   1       3.112  -0.486  -9.513  0.00  0.00     0.017 A 
ATOM      4  C   LIG d   1       2.896   0.407  -8.468  0.00  0.00     0.188 A 
ATOM      5  C   LIG d   1       3.158  -0.001  -7.169  0.00  0.00     0.225 A 
ATOM      6  N   LIG d   1       3.594  -1.222  -6.922  0.00  0.00    -0.209 N 
ATOM      7  H   LIG d   1       3.730  -2.419  -9.942  0.00  0.00     0.068 H 
ATOM      8  H   LIG d   1       3.793  -1.535  -5.887  0.00  0.00     0.453 HD
ENDROOT
BRANCH   5   9
ATOM      9  C   LIG d   1       2.929   0.953  -6.026  0.00  0.00     0.040 C 
ATOM     10  H   LIG d   1       2.385   1.838  -6.390  0.00  0.00     0.038 H 
ATOM     11  H   LIG d   1       3.898   1.264  -5.608  0.00  0.00     0.038 H 
BRANCH   9  12
ATOM     12  C   LIG d   1       2.104   0.259  -4.939  0.00  0.00    -0.018 C 
ATOM     13  H   LIG d   1       1.258   0.902  -4.655  0.00  0.00     0.032 H 
ATOM     14  H   LIG d   1       1.725  -0.699  -5.323  0.00  0.00     0.032 H 
BRANCH  12  15
ATOM     15  C   LIG d   1       2.973   0.009  -3.733  0.00  0.00    -0.047 A 
ATOM     16  C   LIG d   1       3.227  -1.286  -3.321  0.00  0.00    -0.059 A 
ATOM     17  C   LIG d   1       4.023  -1.516  -2.215  0.00  0.00    -0.061 A 
ATOM     18  H   LIG d   1       2.803  -2.118  -3.864  0.00  0.00     0.062 H 
ATOM     19  C   LIG d   1       4.565  -0.450  -1.520  0.00  0.00    -0.062 A 
ATOM     20  H   LIG d   1       4.221  -2.526  -1.893  0.00  0.00     0.062 H 
ATOM     21  C   LIG d   1       4.311   0.845  -1.932  0.00  0.00    -0.061 A 
ATOM     22  H   LIG d   1       5.191  -0.629  -0.659  0.00  0.00     0.062 H 
ATOM     23  C   LIG d   1       3.515   1.075  -3.039  0.00  0.00    -0.059 A 
ATOM     24  H   LIG d   1       4.735   1.677  -1.390  0.00  0.00     0.062 H 
ATOM     25  H   LIG d   1       3.316   2.086  -3.361  0.00  0.00     0.062 H 
ENDBRANCH  12  15
ENDBRANCH   9  12
ENDBRANCH   5   9
BRANCH   4  26
ATOM     26  O   LIG d   1       2.436   1.662  -8.717  0.00  0.00    -0.501 OA
ATOM     27  H   LIG d   1       1.770   1.844  -9.573  0.00  0.00     0.292 HD
ENDBRANCH   4  26
BRANCH   3  28
ATOM     28  C   LIG d   1       2.852  -0.079 -10.942  0.00  0.00     0.034 C 
ATOM     29  H   LIG d   1       3.713   0.487 -11.325  0.00  0.00     0.043 H 
ATOM     30  H   LIG d   1       1.950   0.550 -10.985  0.00  0.00     0.043 H 
BRANCH  28  31
ATOM     31  S   LIG d   1       2.605  -1.559 -11.954  0.00  0.00    -0.036 SA
BRANCH  31  32
ATOM     32  C   LIG d   1       0.908  -1.886 -11.608  0.00  0.00     0.297 C 
ATOM     33  N   LIG d   1      -0.016  -1.091 -12.070  0.00  0.00    -0.236 N 
ATOM     34  H   LIG d   1      -1.076  -1.295 -11.854  0.00  0.00     0.445 HD
ATOM     35  H   LIG d   1       0.263  -0.216 -12.675  0.00  0.00     0.445 HD
BRANCH  32  36
ATOM     36  N   LIG d   1       0.559  -2.981 -10.851  0.00  0.00    -0.300 N 
ATOM     37  H   LIG d   1       0.299  -3.930 -11.344  0.00  0.00     0.148 HD
ATOM     38  H   LIG d   1       0.538  -2.908  -9.754  0.00  0.00     0.148 HD
ENDBRANCH  32  36
ENDBRANCH  31  32
ENDBRANCH  28  31
ENDBRANCH   3  28
BRANCH   1  39
ATOM     39  C   LIG d   1       4.303  -3.474  -7.550  0.00  0.00     0.021 C 
ATOM     40  H   LIG d   1       3.752  -4.219  -8.143  0.00  0.00     0.034 H 
ATOM     41  H   LIG d   1       4.143  -3.668  -6.479  0.00  0.00     0.034 H 
ATOM     42  H   LIG d   1       5.376  -3.543  -7.780  0.00  0.00     0.034 H 
ENDBRANCH   1  39
TORSDOF 9
ENDMDL
MODEL 7
REMARK VINA RESULT:      -6.1      2.448      2.825
REMARK  9 active torsions:
REMARK  status: ('A' for Active; 'I' for Inactive)
REMARK    1  A    between atoms: C_1  and  C_2 
REMARK    2  A    between atoms: C_4  and  C_17 
REMARK    3  A    between atoms: C_5  and  O_16 
REMARK    4  A    between atoms: C_6  and  C_8 
REMARK    5  A    between atoms: C_8  and  C_9 
REMARK    6  A    between atoms: C_9  and  C_10 
REMARK    7  A    between atoms: C_17  and  S_18 
REMARK    8  A    between atoms: S_18  and  C_19 
REMARK    9  A    between atoms: C_19  and  N_21 
ROOT
ATOM      1  C   LIG d   1       4.011   1.516  -8.641  0.00  0.00     0.180 A 
ATOM      2  C   LIG d   1       4.913   0.534  -9.005  0.00  0.00     0.013 A 
ATOM      3  C   LIG d   1       4.927  -0.664  -8.312  0.00  0.00     0.017 A 
ATOM      4  C   LIG d   1       4.027  -0.832  -7.264  0.00  0.00     0.188 A 
ATOM      5  C   LIG d   1       3.147   0.196  -6.960  0.00  0.00     0.225 A 
ATOM      6  N   LIG d   1       3.167   1.323  -7.645  0.00  0.00    -0.209 N 
ATOM      7  H   LIG d   1       5.552   0.682  -9.760  0.00  0.00     0.068 H 
ATOM      8  H   LIG d   1       2.467   2.133  -7.392  0.00  0.00     0.453 HD
ENDROOT
BRANCH   5   9
ATOM      9  C   LIG d   1       2.168   0.029  -5.828  0.00  0.00     0.040 C 
ATOM     10  H   LIG d   1       2.263  -0.982  -5.405  0.00  0.00     0.038 H 
ATOM     11  H   LIG d   1       1.144   0.174  -6.204  0.00  0.00     0.038 H 
BRANCH   9  12
ATOM     12  C   LIG d   1       2.463   1.067  -4.742  0.00  0.00    -0.018 C 
ATOM     13  H   LIG d   1       3.082   1.872  -5.163  0.00  0.00     0.032 H 
ATOM     14  H   LIG d   1       1.517   1.488  -4.370  0.00  0.00     0.032 H 
BRANCH  12  15
ATOM     15  C   LIG d   1       3.200   0.407  -3.604  0.00  0.00    -0.047 A 
ATOM     16  C   LIG d   1       3.968   1.169  -2.744  0.00  0.00    -0.059 A 
ATOM     17  C   LIG d   1       4.644   0.564  -1.701  0.00  0.00    -0.061 A 
ATOM     18  H   LIG d   1       4.038   2.237  -2.886  0.00  0.00     0.062 H 
ATOM     19  C   LIG d   1       4.552  -0.804  -1.519  0.00  0.00    -0.062 A 
ATOM     20  H   LIG d   1       5.243   1.159  -1.029  0.00  0.00     0.062 H 
ATOM     21  C   LIG d   1       3.784  -1.566  -2.380  0.00  0.00    -0.061 A 
ATOM     22  H   LIG d   1       5.076  -1.276  -0.702  0.00  0.00     0.062 H 
ATOM     23  C   LIG d   1       3.108  -0.961  -3.423  0.00  0.00    -0.059 A 
ATOM     24  H   LIG d   1       3.713  -2.634  -2.238  0.00  0.00     0.062 H 
ATOM     25  H   LIG d   1       2.508  -1.556  -4.096  0.00  0.00     0.062 H 
ENDBRANCH  12  15
ENDBRANCH   9  12
ENDBRANCH   5   9
BRANCH   4  26
ATOM     26  O   LIG d   1       4.011  -1.988  -6.547  0.00  0.00    -0.501 OA
ATOM     27  H   LIG d   1       3.680  -2.923  -7.021  0.00  0.00     0.292 HD
ENDBRANCH   4  26
BRANCH   3  28
ATOM     28  C   LIG d   1       5.893  -1.761  -8.683  0.00  0.00     0.034 C 
ATOM     29  H   LIG d   1       5.852  -1.934  -9.768  0.00  0.00     0.043 H 
ATOM     30  H   LIG d   1       5.619  -2.685  -8.153  0.00  0.00     0.043 H 
BRANCH  28  31
ATOM     31  S   LIG d   1       7.570  -1.270  -8.214  0.00  0.00    -0.036 SA
BRANCH  31  32
ATOM     32  C   LIG d   1       7.545  -1.693  -6.504  0.00  0.00     0.297 C 
ATOM     33  N   LIG d   1       6.995  -2.810  -6.116  0.00  0.00    -0.236 N 
ATOM     34  H   LIG d   1       6.979  -3.073  -5.048  0.00  0.00     0.445 HD
ATOM     35  H   LIG d   1       6.546  -3.488  -6.856  0.00  0.00     0.445 HD
BRANCH  32  36
ATOM     36  N   LIG d   1       8.107  -0.844  -5.577  0.00  0.00    -0.300 N 
ATOM     37  H   LIG d   1       8.817  -0.068  -5.901  0.00  0.00     0.148 HD
ATOM     38  H   LIG d   1       7.848  -0.943  -4.512  0.00  0.00     0.148 HD
ENDBRANCH  32  36
ENDBRANCH  31  32
ENDBRANCH  28  31
ENDBRANCH   3  28
BRANCH   1  39
ATOM     39  C   LIG d   1       3.989   2.823  -9.390  0.00  0.00     0.021 C 
ATOM     40  H   LIG d   1       3.167   3.449  -9.011  0.00  0.00     0.034 H 
ATOM     41  H   LIG d   1       3.836   2.628 -10.462  0.00  0.00     0.034 H 
ATOM     42  H   LIG d   1       4.945   3.346  -9.244  0.00  0.00     0.034 H 
ENDBRANCH   1  39
TORSDOF 9
ENDMDL
MODEL 8
REMARK VINA RESULT:      -5.9      5.090      7.080
REMARK  9 active torsions:
REMARK  status: ('A' for Active; 'I' for Inactive)
REMARK    1  A    between atoms: C_1  and  C_2 
REMARK    2  A    between atoms: C_4  and  C_17 
REMARK    3  A    between atoms: C_5  and  O_16 
REMARK    4  A    between atoms: C_6  and  C_8 
REMARK    5  A    between atoms: C_8  and  C_9 
REMARK    6  A    between atoms: C_9  and  C_10 
REMARK    7  A    between atoms: C_17  and  S_18 
REMARK    8  A    between atoms: S_18  and  C_19 
REMARK    9  A    between atoms: C_19  and  N_21 
ROOT
ATOM      1  C   LIG d   1       7.367  -1.744  -3.773  0.00  0.00     0.180 A 
ATOM      2  C   LIG d   1       6.174  -1.646  -3.081  0.00  0.00     0.013 A 
ATOM      3  C   LIG d   1       5.619  -0.397  -2.862  0.00  0.00     0.017 A 
ATOM      4  C   LIG d   1       6.293   0.720  -3.346  0.00  0.00     0.188 A 
ATOM      5  C   LIG d   1       7.482   0.543  -4.037  0.00  0.00     0.225 A 
ATOM      6  N   LIG d   1       7.977  -0.666  -4.224  0.00  0.00    -0.209 N 
ATOM      7  H   LIG d   1       5.712  -2.465  -2.740  0.00  0.00     0.068 H 
ATOM      8  H   LIG d   1       8.924  -0.793  -4.770  0.00  0.00     0.453 HD
ENDROOT
BRANCH   5   9
ATOM      9  C   LIG d   1       8.223   1.742  -4.567  0.00  0.00     0.040 C 
ATOM     10  H   LIG d   1       7.520   2.576  -4.707  0.00  0.00     0.038 H 
ATOM     11  H   LIG d   1       8.689   1.489  -5.532  0.00  0.00     0.038 H 
BRANCH   9  12
ATOM     12  C   LIG d   1       9.309   2.153  -3.570  0.00  0.00    -0.018 C 
ATOM     13  H   LIG d   1       8.995   1.876  -2.552  0.00  0.00     0.032 H 
ATOM     14  H   LIG d   1      10.248   1.636  -3.817  0.00  0.00     0.032 H 
BRANCH  12  15
ATOM     15  C   LIG d   1       9.521   3.643  -3.643  0.00  0.00    -0.047 A 
ATOM     16  C   LIG d   1       9.163   4.337  -4.784  0.00  0.00    -0.059 A 
ATOM     17  C   LIG d   1       9.357   5.704  -4.851  0.00  0.00    -0.061 A 
ATOM     18  H   LIG d   1       8.731   3.811  -5.621  0.00  0.00     0.062 H 
ATOM     19  C   LIG d   1       9.910   6.377  -3.777  0.00  0.00    -0.062 A 
ATOM     20  H   LIG d   1       9.078   6.246  -5.741  0.00  0.00     0.062 H 
ATOM     21  C   LIG d   1      10.268   5.683  -2.636  0.00  0.00    -0.061 A 
ATOM     22  H   LIG d   1      10.057   7.445  -3.827  0.00  0.00     0.062 H 
ATOM     23  C   LIG d   1      10.073   4.316  -2.569  0.00  0.00    -0.059 A 
ATOM     24  H   LIG d   1      10.700   6.209  -1.797  0.00  0.00     0.062 H 
ATOM     25  H   LIG d   1      10.353   3.774  -1.678  0.00  0.00     0.062 H 
ENDBRANCH  12  15
ENDBRANCH   9  12
ENDBRANCH   5   9
BRANCH   4  26
ATOM     26  O   LIG d   1       5.792   1.968  -3.146  0.00  0.00    -0.501 OA
ATOM     27  H   LIG d   1       5.519   2.295  -2.132  0.00  0.00     0.292 HD
ENDBRANCH   4  26
BRANCH   3  28
ATOM     28  C   LIG d   1       4.317  -0.250  -2.116  0.00  0.00     0.034 C 
ATOM     29  H   LIG d   1       4.112   0.816  -1.943  0.00  0.00     0.043 H 
ATOM     30  H   LIG d   1       4.387  -0.772  -1.151  0.00  0.00     0.043 H 
BRANCH  28  31
ATOM     31  S   LIG d   1       2.977  -0.971  -3.096  0.00  0.00    -0.036 SA
BRANCH  31  32
ATOM     32  C   LIG d   1       3.046   0.068  -4.518  0.00  0.00     0.297 C 
ATOM     33  N   LIG d   1       2.909   1.358  -4.390  0.00  0.00    -0.236 N 
ATOM     34  H   LIG d   1       2.951   2.007  -5.278  0.00  0.00     0.445 HD
ATOM     35  H   LIG d   1       2.749   1.799  -3.396  0.00  0.00     0.445 HD
BRANCH  32  36
ATOM     36  N   LIG d   1       3.247  -0.483  -5.764  0.00  0.00    -0.300 N 
ATOM     37  H   LIG d   1       4.260  -0.769  -6.082  0.00  0.00     0.148 HD
ATOM     38  H   LIG d   1       2.393  -0.636  -6.441  0.00  0.00     0.148 HD
ENDBRANCH  32  36
ENDBRANCH  31  32
ENDBRANCH  28  31
ENDBRANCH   3  28
BRANCH   1  39
ATOM     39  C   LIG d   1       7.978  -3.100  -4.017  0.00  0.00     0.021 C 
ATOM     40  H   LIG d   1       7.815  -3.738  -3.136  0.00  0.00     0.034 H 
ATOM     41  H   LIG d   1       9.058  -2.989  -4.193  0.00  0.00     0.034 H 
ATOM     42  H   LIG d   1       7.508  -3.562  -4.897  0.00  0.00     0.034 H 
ENDBRANCH   1  39
TORSDOF 9
ENDMDL
MODEL 9
REMARK VINA RESULT:      -5.9      3.722      5.321
REMARK  9 active torsions:
REMARK  status: ('A' for Active; 'I' for Inactive)
REMARK    1  A    between atoms: C_1  and  C_2 
REMARK    2  A    between atoms: C_4  and  C_17 
REMARK    3  A    between atoms: C_5  and  O_16 
REMARK    4  A    between atoms: C_6  and  C_8 
REMARK    5  A    between atoms: C_8  and  C_9 
REMARK    6  A    between atoms: C_9  and  C_10 
REMARK    7  A    between atoms: C_17  and  S_18 
REMARK    8  A    between atoms: S_18  and  C_19 
REMARK    9  A    between atoms: C_19  and  N_21 
ROOT
ATOM      1  C   LIG d   1       5.642  -6.265  -5.677  0.00  0.00     0.180 A 
ATOM      2  C   LIG d   1       7.012  -6.310  -5.493  0.00  0.00     0.013 A 
ATOM      3  C   LIG d   1       7.679  -5.165  -5.093  0.00  0.00     0.017 A 
ATOM      4  C   LIG d   1       6.938  -4.003  -4.895  0.00  0.00     0.188 A 
ATOM      5  C   LIG d   1       5.567  -4.037  -5.093  0.00  0.00     0.225 A 
ATOM      6  N   LIG d   1       4.969  -5.149  -5.475  0.00  0.00    -0.209 N 
ATOM      7  H   LIG d   1       7.521  -7.157  -5.646  0.00  0.00     0.068 H 
ATOM      8  H   LIG d   1       3.881  -5.162  -5.634  0.00  0.00     0.453 HD
ENDROOT
BRANCH   5   9
ATOM      9  C   LIG d   1       4.751  -2.787  -4.883  0.00  0.00     0.040 C 
ATOM     10  H   LIG d   1       3.841  -2.835  -5.498  0.00  0.00     0.038 H 
ATOM     11  H   LIG d   1       5.345  -1.909  -5.174  0.00  0.00     0.038 H 
BRANCH   9  12
ATOM     12  C   LIG d   1       4.363  -2.674  -3.406  0.00  0.00    -0.018 C 
ATOM     13  H   LIG d   1       3.442  -3.247  -3.225  0.00  0.00     0.032 H 
ATOM     14  H   LIG d   1       5.175  -3.076  -2.782  0.00  0.00     0.032 H 
BRANCH  12  15
ATOM     15  C   LIG d   1       4.132  -1.226  -3.058  0.00  0.00    -0.047 A 
ATOM     16  C   LIG d   1       4.712  -0.686  -1.925  0.00  0.00    -0.059 A 
ATOM     17  C   LIG d   1       4.500   0.642  -1.606  0.00  0.00    -0.061 A 
ATOM     18  H   LIG d   1       5.332  -1.302  -1.291  0.00  0.00     0.062 H 
ATOM     19  C   LIG d   1       3.708   1.430  -2.419  0.00  0.00    -0.062 A 
ATOM     20  H   LIG d   1       4.953   1.063  -0.721  0.00  0.00     0.062 H 
ATOM     21  C   LIG d   1       3.128   0.891  -3.552  0.00  0.00    -0.061 A 
ATOM     22  H   LIG d   1       3.546   2.469  -2.173  0.00  0.00     0.062 H 
ATOM     23  C   LIG d   1       3.340  -0.437  -3.872  0.00  0.00    -0.059 A 
ATOM     24  H   LIG d   1       2.509   1.507  -4.188  0.00  0.00     0.062 H 
ATOM     25  H   LIG d   1       2.887  -0.859  -4.757  0.00  0.00     0.062 H 
ENDBRANCH  12  15
ENDBRANCH   9  12
ENDBRANCH   5   9
BRANCH   4  26
ATOM     26  O   LIG d   1       7.552  -2.851  -4.512  0.00  0.00    -0.501 OA
ATOM     27  H   LIG d   1       8.229  -2.851  -3.645  0.00  0.00     0.292 HD
ENDBRANCH   4  26
BRANCH   3  28
ATOM     28  C   LIG d   1       9.171  -5.176  -4.877  0.00  0.00     0.034 C 
ATOM     29  H   LIG d   1       9.511  -4.164  -4.612  0.00  0.00     0.043 H 
ATOM     30  H   LIG d   1       9.672  -5.501  -5.800  0.00  0.00     0.043 H 
BRANCH  28  31
ATOM     31  S   LIG d   1       9.577  -6.319  -3.534  0.00  0.00    -0.036 SA
BRANCH  31  32
ATOM     32  C   LIG d   1       9.674  -5.187  -2.187  0.00  0.00     0.297 C 
ATOM     33  N   LIG d   1       9.698  -5.633  -0.962  0.00  0.00    -0.236 N 
ATOM     34  H   LIG d   1       9.758  -4.926  -0.121  0.00  0.00     0.445 HD
ATOM     35  H   LIG d   1       9.657  -6.714  -0.769  0.00  0.00     0.445 HD
BRANCH  32  36
ATOM     36  N   LIG d   1       9.726  -3.833  -2.429  0.00  0.00    -0.300 N 
ATOM     37  H   LIG d   1       9.595  -3.122  -1.600  0.00  0.00     0.148 HD
ATOM     38  H   LIG d   1       9.897  -3.463  -3.451  0.00  0.00     0.148 HD
ENDBRANCH  32  36
ENDBRANCH  31  32
ENDBRANCH  28  31
ENDBRANCH   3  28
BRANCH   1  39
ATOM     39  C   LIG d   1       4.908  -7.507  -6.112  0.00  0.00     0.021 C 
ATOM     40  H   LIG d   1       3.824  -7.337  -6.036  0.00  0.00     0.034 H 
ATOM     41  H   LIG d   1       5.193  -8.348  -5.463  0.00  0.00     0.034 H 
ATOM     42  H   LIG d   1       5.170  -7.742  -7.154  0.00  0.00     0.034 H 
ENDBRANCH   1  39
TORSDOF 9
ENDMDL
MODEL 10
REMARK VINA RESULT:      -5.9      2.041      4.259
REMARK  9 active torsions:
REMARK  status: ('A' for Active; 'I' for Inactive)
REMARK    1  A    between atoms: C_1  and  C_2 
REMARK    2  A    between atoms: C_4  and  C_17 
REMARK    3  A    between atoms: C_5  and  O_16 
REMARK    4  A    between atoms: C_6  and  C_8 
REMARK    5  A    between atoms: C_8  and  C_9 
REMARK    6  A    between atoms: C_9  and  C_10 
REMARK    7  A    between atoms: C_17  and  S_18 
REMARK    8  A    between atoms: S_18  and  C_19 
REMARK    9  A    between atoms: C_19  and  N_21 
ROOT
ATOM      1  C   LIG d   1       4.048  -4.361  -7.203  0.00  0.00     0.180 A 
ATOM      2  C   LIG d   1       4.200  -3.368  -8.154  0.00  0.00     0.013 A 
ATOM      3  C   LIG d   1       4.733  -2.147  -7.777  0.00  0.00     0.017 A 
ATOM      4  C   LIG d   1       5.092  -1.965  -6.445  0.00  0.00     0.188 A 
ATOM      5  C   LIG d   1       4.916  -3.009  -5.551  0.00  0.00     0.225 A 
ATOM      6  N   LIG d   1       4.403  -4.157  -5.950  0.00  0.00    -0.209 N 
ATOM      7  H   LIG d   1       3.930  -3.525  -9.104  0.00  0.00     0.068 H 
ATOM      8  H   LIG d   1       4.264  -4.977  -5.229  0.00  0.00     0.453 HD
ENDROOT
BRANCH   5   9
ATOM      9  C   LIG d   1       5.299  -2.827  -4.105  0.00  0.00     0.040 C 
ATOM     10  H   LIG d   1       5.979  -1.966  -4.011  0.00  0.00     0.038 H 
ATOM     11  H   LIG d   1       5.804  -3.734  -3.742  0.00  0.00     0.038 H 
BRANCH   9  12
ATOM     12  C   LIG d   1       4.041  -2.575  -3.271  0.00  0.00    -0.018 C 
ATOM     13  H   LIG d   1       3.155  -2.897  -3.839  0.00  0.00     0.032 H 
ATOM     14  H   LIG d   1       4.102  -3.147  -2.334  0.00  0.00     0.032 H 
BRANCH  12  15
ATOM     15  C   LIG d   1       3.931  -1.105  -2.957  0.00  0.00    -0.047 A 
ATOM     16  C   LIG d   1       3.120  -0.292  -3.726  0.00  0.00    -0.059 A 
ATOM     17  C   LIG d   1       3.020   1.056  -3.438  0.00  0.00    -0.061 A 
ATOM     18  H   LIG d   1       2.564  -0.711  -4.551  0.00  0.00     0.062 H 
ATOM     19  C   LIG d   1       3.733   1.591  -2.381  0.00  0.00    -0.062 A 
ATOM     20  H   LIG d   1       2.387   1.691  -4.038  0.00  0.00     0.062 H 
ATOM     21  C   LIG d   1       4.544   0.778  -1.612  0.00  0.00    -0.061 A 
ATOM     22  H   LIG d   1       3.650   2.643  -2.152  0.00  0.00     0.062 H 
ATOM     23  C   LIG d   1       4.644  -0.570  -1.900  0.00  0.00    -0.059 A 
ATOM     24  H   LIG d   1       5.100   1.196  -0.785  0.00  0.00     0.062 H 
ATOM     25  H   LIG d   1       5.278  -1.206  -1.299  0.00  0.00     0.062 H 
ENDBRANCH  12  15
ENDBRANCH   9  12
ENDBRANCH   5   9
BRANCH   4  26
ATOM     26  O   LIG d   1       5.610  -0.779  -6.027  0.00  0.00    -0.501 OA
ATOM     27  H   LIG d   1       6.218  -0.172  -6.714  0.00  0.00     0.292 HD
ENDBRANCH   4  26
BRANCH   3  28
ATOM     28  C   LIG d   1       4.920  -1.043  -8.786  0.00  0.00     0.034 C 
ATOM     29  H   LIG d   1       5.259  -1.470  -9.740  0.00  0.00     0.043 H 
ATOM     30  H   LIG d   1       5.673  -0.331  -8.415  0.00  0.00     0.043 H 
BRANCH  28  31
ATOM     31  S   LIG d   1       3.348  -0.182  -9.035  0.00  0.00    -0.036 SA
BRANCH  31  32
ATOM     32  C   LIG d   1       3.820   1.454  -8.583  0.00  0.00     0.297 C 
ATOM     33  N   LIG d   1       2.923   2.296  -8.151  0.00  0.00    -0.236 N 
ATOM     34  H   LIG d   1       3.217   3.318  -7.869  0.00  0.00     0.445 HD
ATOM     35  H   LIG d   1       1.871   1.985  -8.069  0.00  0.00     0.445 HD
BRANCH  32  36
ATOM     36  N   LIG d   1       5.136   1.843  -8.685  0.00  0.00    -0.300 N 
ATOM     37  H   LIG d   1       5.501   2.314  -9.610  0.00  0.00     0.148 HD
ATOM     38  H   LIG d   1       5.824   1.683  -7.841  0.00  0.00     0.148 HD
ENDBRANCH  32  36
ENDBRANCH  31  32
ENDBRANCH  28  31
ENDBRANCH   3  28
BRANCH   1  39
ATOM     39  C   LIG d   1       3.468  -5.693  -7.604  0.00  0.00     0.021 C 
ATOM     40  H   LIG d   1       4.113  -6.501  -7.227  0.00  0.00     0.034 H 
ATOM     41  H   LIG d   1       3.409  -5.753  -8.701  0.00  0.00     0.034 H 
ATOM     42  H   LIG d   1       2.461  -5.799  -7.176  0.00  0.00     0.034 H 
ENDBRANCH   1  39
TORSDOF 9
ENDMDL
