MODEL 1
REMARK VINA RESULT:      -5.5      0.000      0.000
REMARK  15 active torsions:
REMARK  status: ('A' for Active; 'I' for Inactive)
REMARK    1  A    between atoms: C_1  and  C_2 
REMARK    2  A    between atoms: C_2  and  C_3 
REMARK    3  A    between atoms: C_2  and  O_4 
REMARK    4  A    between atoms: O_4  and  C_5 
REMARK    5  A    between atoms: C_5  and  C_7 
REMARK    6  A    between atoms: C_9  and  C_25 
REMARK    7  A    between atoms: C_11  and  C_19 
REMARK    8  A    between atoms: C_13  and  C_17 
REMARK    9  A    between atoms: C_13  and  O_18 
REMARK   10  A    between atoms: C_19  and  O_21 
REMARK   11  A    between atoms: O_21  and  C_22 
REMARK   12  A    between atoms: C_22  and  C_23 
REMARK   13  A    between atoms: C_22  and  C_24 
REMARK   14  A    between atoms: C_29  and  O_31 
REMARK   15  A    between atoms: O_31  and  C_32 
ROOT
ATOM      1  C   LIG d   1       7.108  -2.776  -3.824  0.00  0.00     0.122 C 
ATOM      2  H   LIG d   1       7.002  -2.787  -2.830  0.00  0.00     0.050 H 
ATOM      3  C   LIG d   1       5.801  -3.229  -4.486  0.00  0.00     0.020 C 
ATOM      4  H   LIG d   1       5.509  -4.200  -4.087  0.00  0.00     0.037 H 
ATOM      5  C   LIG d   1       6.009  -3.339  -5.998  0.00  0.00     0.093 C 
ATOM      6  H   LIG d   1       6.362  -2.382  -6.385  0.00  0.00     0.045 H 
ATOM      7  C   LIG d   1       7.045  -4.423  -6.301  0.00  0.00     0.083 C 
ATOM      8  C   LIG d   1       8.398  -4.016  -5.707  0.00  0.00     0.036 C 
ATOM      9  C   LIG d   1       8.211  -3.728  -4.229  0.00  0.00     0.150 C 
ATOM     10  O   LIG d   1       8.920  -4.244  -3.399  0.00  0.00    -0.296 OA
ATOM     11  H   LIG d   1       9.052  -4.762  -5.829  0.00  0.00     0.037 H 
ATOM     12  H   LIG d   1       8.766  -3.123  -6.213  0.00  0.00     0.037 H 
ENDROOT
BRANCH   3  13
ATOM     13  C   LIG d   1       4.718  -2.221  -4.200  0.00  0.00    -0.039 A 
ATOM     14  C   LIG d   1       4.385  -1.277  -5.152  0.00  0.00    -0.017 A 
ATOM     15  C   LIG d   1       3.384  -0.352  -4.889  0.00  0.00     0.120 A 
ATOM     16  H   LIG d   1       4.901  -1.260  -6.100  0.00  0.00     0.066 H 
ATOM     17  C   LIG d   1       2.727  -0.372  -3.668  0.00  0.00    -0.020 A 
ATOM     18  C   LIG d   1       3.067  -1.316  -2.717  0.00  0.00    -0.058 A 
ATOM     19  H   LIG d   1       1.951   0.349  -3.459  0.00  0.00     0.065 H 
ATOM     20  C   LIG d   1       4.062  -2.238  -2.983  0.00  0.00    -0.058 A 
ATOM     21  H   LIG d   1       2.557  -1.331  -1.766  0.00  0.00     0.062 H 
ATOM     22  H   LIG d   1       4.327  -2.975  -2.238  0.00  0.00     0.062 H 
BRANCH  15  23
ATOM     23  O   LIG d   1       3.051   0.576  -5.826  0.00  0.00    -0.495 OA
BRANCH  23  24
ATOM     24  C   LIG d   1       2.928   0.120  -7.175  0.00  0.00     0.079 C 
ATOM     25  H   LIG d   1       2.084  -0.566  -7.250  0.00  0.00     0.066 H 
ATOM     26  H   LIG d   1       2.762   0.974  -7.832  0.00  0.00     0.066 H 
ATOM     27  H   LIG d   1       3.842  -0.394  -7.470  0.00  0.00     0.066 H 
ENDBRANCH  23  24
ENDBRANCH  15  23
ENDBRANCH   3  13
BRANCH   1  28
ATOM     28  C   LIG d   1       7.449  -1.381  -4.279  0.00  0.00     0.318 C 
ATOM     29  O   LIG d   1       7.723  -1.174  -5.437  0.00  0.00    -0.250 OA
BRANCH  28  30
ATOM     30  O   LIG d   1       7.451  -0.370  -3.398  0.00  0.00    -0.461 OA
BRANCH  30  31
ATOM     31  C   LIG d   1       6.915   0.902  -3.851  0.00  0.00     0.098 C 
ATOM     32  H   LIG d   1       6.515   0.788  -4.859  0.00  0.00     0.073 H 
BRANCH  31  33
ATOM     33  C   LIG d   1       5.798   1.351  -2.907  0.00  0.00    -0.028 C 
ATOM     34  H   LIG d   1       4.842   1.312  -3.430  0.00  0.00     0.026 H 
ATOM     35  H   LIG d   1       5.766   0.689  -2.041  0.00  0.00     0.026 H 
ATOM     36  H   LIG d   1       5.990   2.372  -2.577  0.00  0.00     0.026 H 
ENDBRANCH  31  33
BRANCH  31  37
ATOM     37  C   LIG d   1       8.029   1.951  -3.859  0.00  0.00    -0.028 C 
ATOM     38  H   LIG d   1       8.994   1.455  -3.959  0.00  0.00     0.026 H 
ATOM     39  H   LIG d   1       7.881   2.630  -4.698  0.00  0.00     0.026 H 
ATOM     40  H   LIG d   1       8.004   2.514  -2.926  0.00  0.00     0.026 H 
ENDBRANCH  31  37
ENDBRANCH  30  31
ENDBRANCH  28  30
ENDBRANCH   1  28
BRANCH   5  41
ATOM     41  C   LIG d   1       4.703  -3.694  -6.659  0.00  0.00     0.314 C 
ATOM     42  O   LIG d   1       3.927  -4.437  -6.104  0.00  0.00    -0.250 OA
BRANCH  41  43
ATOM     43  O   LIG d   1       4.401  -3.185  -7.864  0.00  0.00    -0.462 OA
BRANCH  43  44
ATOM     44  C   LIG d   1       3.474  -3.944  -8.684  0.00  0.00     0.098 C 
ATOM     45  H   LIG d   1       2.793  -4.504  -8.043  0.00  0.00     0.073 H 
BRANCH  44  46
ATOM     46  C   LIG d   1       2.672  -2.986  -9.567  0.00  0.00    -0.028 C 
ATOM     47  H   LIG d   1       3.294  -2.129  -9.831  0.00  0.00     0.026 H 
ATOM     48  H   LIG d   1       2.363  -3.503 -10.476  0.00  0.00     0.026 H 
ATOM     49  H   LIG d   1       1.791  -2.643  -9.026  0.00  0.00     0.026 H 
ENDBRANCH  44  46
BRANCH  44  50
ATOM     50  C   LIG d   1       4.257  -4.918  -9.570  0.00  0.00    -0.028 C 
ATOM     51  H   LIG d   1       5.318  -4.674  -9.527  0.00  0.00     0.026 H 
ATOM     52  H   LIG d   1       4.102  -5.936  -9.214  0.00  0.00     0.026 H 
ATOM     53  H   LIG d   1       3.906  -4.835 -10.599  0.00  0.00     0.026 H 
ENDBRANCH  44  50
ENDBRANCH  43  44
ENDBRANCH  41  43
ENDBRANCH   5  41
BRANCH   7  54
ATOM     54  C   LIG d   1       6.593  -5.747  -5.681  0.00  0.00    -0.035 C 
ATOM     55  H   LIG d   1       5.589  -5.988  -6.031  0.00  0.00     0.026 H 
ATOM     56  H   LIG d   1       7.280  -6.539  -5.977  0.00  0.00     0.026 H 
ATOM     57  H   LIG d   1       6.587  -5.657  -4.596  0.00  0.00     0.026 H 
ENDBRANCH   7  54
BRANCH   7  58
ATOM     58  O   LIG d   1       7.173  -4.577  -7.716  0.00  0.00    -0.388 OA
ATOM     59  H   LIG d   1       7.373  -5.481  -7.996  0.00  0.00     0.210 HD
ENDBRANCH   7  58
TORSDOF 15
ENDMDL
MODEL 2
REMARK VINA RESULT:      -5.4      1.778      5.301
REMARK  15 active torsions:
REMARK  status: ('A' for Active; 'I' for Inactive)
REMARK    1  A    between atoms: C_1  and  C_2 
REMARK    2  A    between atoms: C_2  and  C_3 
REMARK    3  A    between atoms: C_2  and  O_4 
REMARK    4  A    between atoms: O_4  and  C_5 
REMARK    5  A    between atoms: C_5  and  C_7 
REMARK    6  A    between atoms: C_9  and  C_25 
REMARK    7  A    between atoms: C_11  and  C_19 
REMARK    8  A    between atoms: C_13  and  C_17 
REMARK    9  A    between atoms: C_13  and  O_18 
REMARK   10  A    between atoms: C_19  and  O_21 
REMARK   11  A    between atoms: O_21  and  C_22 
REMARK   12  A    between atoms: C_22  and  C_23 
REMARK   13  A    between atoms: C_22  and  C_24 
REMARK   14  A    between atoms: C_29  and  O_31 
REMARK   15  A    between atoms: O_31  and  C_32 
ROOT
ATOM      1  C   LIG d   1       6.071  -2.839  -6.973  0.00  0.00     0.122 C 
ATOM      2  H   LIG d   1       6.153  -2.851  -7.969  0.00  0.00     0.050 H 
ATOM      3  C   LIG d   1       6.242  -1.405  -6.460  0.00  0.00     0.020 C 
ATOM      4  H   LIG d   1       7.184  -0.997  -6.827  0.00  0.00     0.037 H 
ATOM      5  C   LIG d   1       6.249  -1.409  -4.930  0.00  0.00     0.093 C 
ATOM      6  H   LIG d   1       5.333  -1.875  -4.566  0.00  0.00     0.045 H 
ATOM      7  C   LIG d   1       7.457  -2.197  -4.419  0.00  0.00     0.083 C 
ATOM      8  C   LIG d   1       7.332  -3.661  -4.856  0.00  0.00     0.036 C 
ATOM      9  C   LIG d   1       7.151  -3.704  -6.361  0.00  0.00     0.150 C 
ATOM     10  O   LIG d   1       7.848  -4.406  -7.054  0.00  0.00    -0.296 OA
ATOM     11  H   LIG d   1       8.161  -4.156  -4.598  0.00  0.00     0.037 H 
ATOM     12  H   LIG d   1       6.470  -4.116  -4.368  0.00  0.00     0.037 H 
ENDROOT
BRANCH   3  13
ATOM     13  C   LIG d   1       5.100  -0.555  -6.954  0.00  0.00    -0.039 A 
ATOM     14  C   LIG d   1       5.237   0.174  -8.119  0.00  0.00    -0.017 A 
ATOM     15  C   LIG d   1       4.183   0.953  -8.577  0.00  0.00     0.120 A 
ATOM     16  H   LIG d   1       6.162   0.136  -8.676  0.00  0.00     0.066 H 
ATOM     17  C   LIG d   1       2.998   1.005  -7.857  0.00  0.00    -0.020 A 
ATOM     18  C   LIG d   1       2.868   0.277  -6.690  0.00  0.00    -0.058 A 
ATOM     19  H   LIG d   1       2.178   1.614  -8.209  0.00  0.00     0.065 H 
ATOM     20  C   LIG d   1       3.918  -0.501  -6.239  0.00  0.00    -0.058 A 
ATOM     21  H   LIG d   1       1.946   0.318  -6.129  0.00  0.00     0.062 H 
ATOM     22  H   LIG d   1       3.815  -1.069  -5.325  0.00  0.00     0.062 H 
BRANCH  15  23
ATOM     23  O   LIG d   1       4.314   1.669  -9.725  0.00  0.00    -0.495 OA
BRANCH  23  24
ATOM     24  C   LIG d   1       4.038   0.986 -10.950  0.00  0.00     0.079 C 
ATOM     25  H   LIG d   1       3.046   0.537 -10.899  0.00  0.00     0.066 H 
ATOM     26  H   LIG d   1       4.074   1.695 -11.777  0.00  0.00     0.066 H 
ATOM     27  H   LIG d   1       4.783   0.206 -11.107  0.00  0.00     0.066 H 
ENDBRANCH  23  24
ENDBRANCH  15  23
ENDBRANCH   3  13
BRANCH   1  28
ATOM     28  C   LIG d   1       4.716  -3.361  -6.572  0.00  0.00     0.318 C 
ATOM     29  O   LIG d   1       4.466  -3.562  -5.408  0.00  0.00    -0.250 OA
BRANCH  28  30
ATOM     30  O   LIG d   1       3.787  -3.605  -7.510  0.00  0.00    -0.461 OA
BRANCH  30  31
ATOM     31  C   LIG d   1       4.179  -3.406  -8.894  0.00  0.00     0.098 C 
ATOM     32  H   LIG d   1       5.148  -2.907  -8.929  0.00  0.00     0.073 H 
BRANCH  31  33
ATOM     33  C   LIG d   1       4.279  -4.762  -9.596  0.00  0.00    -0.028 C 
ATOM     34  H   LIG d   1       5.145  -4.765 -10.258  0.00  0.00     0.026 H 
ATOM     35  H   LIG d   1       4.388  -5.550  -8.850  0.00  0.00     0.026 H 
ATOM     36  H   LIG d   1       3.375  -4.936 -10.180  0.00  0.00     0.026 H 
ENDBRANCH  31  33
BRANCH  31  37
ATOM     37  C   LIG d   1       3.133  -2.542  -9.601  0.00  0.00    -0.028 C 
ATOM     38  H   LIG d   1       3.520  -1.529  -9.722  0.00  0.00     0.026 H 
ATOM     39  H   LIG d   1       2.915  -2.965 -10.581  0.00  0.00     0.026 H 
ATOM     40  H   LIG d   1       2.221  -2.515  -9.005  0.00  0.00     0.026 H 
ENDBRANCH  31  37
ENDBRANCH  30  31
ENDBRANCH  28  30
ENDBRANCH   1  28
BRANCH   5  41
ATOM     41  C   LIG d   1       6.325   0.008  -4.425  0.00  0.00     0.314 C 
ATOM     42  O   LIG d   1       6.807   0.872  -5.119  0.00  0.00    -0.250 OA
BRANCH  41  43
ATOM     43  O   LIG d   1       5.855   0.311  -3.204  0.00  0.00    -0.462 OA
BRANCH  43  44
ATOM     44  C   LIG d   1       4.454   0.026  -2.949  0.00  0.00     0.098 C 
ATOM     45  H   LIG d   1       3.975  -0.298  -3.873  0.00  0.00     0.073 H 
BRANCH  44  46
ATOM     46  C   LIG d   1       4.342  -1.080  -1.899  0.00  0.00    -0.028 C 
ATOM     47  H   LIG d   1       4.242  -2.045  -2.397  0.00  0.00     0.026 H 
ATOM     48  H   LIG d   1       5.238  -1.084  -1.278  0.00  0.00     0.026 H 
ATOM     49  H   LIG d   1       3.467  -0.901  -1.274  0.00  0.00     0.026 H 
ENDBRANCH  44  46
BRANCH  44  50
ATOM     50  C   LIG d   1       3.763   1.291  -2.432  0.00  0.00    -0.028 C 
ATOM     51  H   LIG d   1       2.939   1.012  -1.776  0.00  0.00     0.026 H 
ATOM     52  H   LIG d   1       4.480   1.896  -1.879  0.00  0.00     0.026 H 
ATOM     53  H   LIG d   1       3.378   1.865  -3.276  0.00  0.00     0.026 H 
ENDBRANCH  44  50
ENDBRANCH  43  44
ENDBRANCH  41  43
ENDBRANCH   5  41
BRANCH   7  54
ATOM     54  C   LIG d   1       8.739  -1.598  -5.002  0.00  0.00    -0.035 C 
ATOM     55  H   LIG d   1       9.594  -1.926  -4.411  0.00  0.00     0.026 H 
ATOM     56  H   LIG d   1       8.859  -1.933  -6.032  0.00  0.00     0.026 H 
ATOM     57  H   LIG d   1       8.676  -0.511  -4.978  0.00  0.00     0.026 H 
ENDBRANCH   7  54
BRANCH   7  58
ATOM     58  O   LIG d   1       7.503  -2.127  -2.993  0.00  0.00    -0.388 OA
ATOM     59  H   LIG d   1       7.158  -2.915  -2.550  0.00  0.00     0.210 HD
ENDBRANCH   7  58
TORSDOF 15
ENDMDL
MODEL 3
REMARK VINA RESULT:      -5.1      1.847      3.554
REMARK  15 active torsions:
REMARK  status: ('A' for Active; 'I' for Inactive)
REMARK    1  A    between atoms: C_1  and  C_2 
REMARK    2  A    between atoms: C_2  and  C_3 
REMARK    3  A    between atoms: C_2  and  O_4 
REMARK    4  A    between atoms: O_4  and  C_5 
REMARK    5  A    between atoms: C_5  and  C_7 
REMARK    6  A    between atoms: C_9  and  C_25 
REMARK    7  A    between atoms: C_11  and  C_19 
REMARK    8  A    between atoms: C_13  and  C_17 
REMARK    9  A    between atoms: C_13  and  O_18 
REMARK   10  A    between atoms: C_19  and  O_21 
REMARK   11  A    between atoms: O_21  and  C_22 
REMARK   12  A    between atoms: C_22  and  C_23 
REMARK   13  A    between atoms: C_22  and  C_24 
REMARK   14  A    between atoms: C_29  and  O_31 
REMARK   15  A    between atoms: O_31  and  C_32 
ROOT
ATOM      1  C   LIG d   1       6.074  -3.550  -4.974  0.00  0.00     0.122 C 
ATOM      2  H   LIG d   1       5.773  -4.102  -4.195  0.00  0.00     0.050 H 
ATOM      3  C   LIG d   1       5.026  -2.473  -5.277  0.00  0.00     0.020 C 
ATOM      4  H   LIG d   1       4.054  -2.943  -5.422  0.00  0.00     0.037 H 
ATOM      5  C   LIG d   1       5.425  -1.720  -6.547  0.00  0.00     0.093 C 
ATOM      6  H   LIG d   1       6.425  -1.304  -6.422  0.00  0.00     0.045 H 
ATOM      7  C   LIG d   1       5.418  -2.676  -7.741  0.00  0.00     0.083 C 
ATOM      8  C   LIG d   1       6.480  -3.761  -7.530  0.00  0.00     0.036 C 
ATOM      9  C   LIG d   1       6.230  -4.432  -6.193  0.00  0.00     0.150 C 
ATOM     10  O   LIG d   1       6.154  -5.633  -6.102  0.00  0.00    -0.296 OA
ATOM     11  H   LIG d   1       6.418  -4.435  -8.266  0.00  0.00     0.037 H 
ATOM     12  H   LIG d   1       7.472  -3.309  -7.536  0.00  0.00     0.037 H 
ENDROOT
BRANCH   3  13
ATOM     13  C   LIG d   1       4.950  -1.507  -4.122  0.00  0.00    -0.039 A 
ATOM     14  C   LIG d   1       5.661  -0.324  -4.165  0.00  0.00    -0.017 A 
ATOM     15  C   LIG d   1       5.587   0.567  -3.104  0.00  0.00     0.120 A 
ATOM     16  H   LIG d   1       6.272  -0.091  -5.025  0.00  0.00     0.066 H 
ATOM     17  C   LIG d   1       4.807   0.263  -1.998  0.00  0.00    -0.020 A 
ATOM     18  C   LIG d   1       4.101  -0.925  -1.959  0.00  0.00    -0.058 A 
ATOM     19  H   LIG d   1       4.751   0.953  -1.169  0.00  0.00     0.065 H 
ATOM     20  C   LIG d   1       4.173  -1.808  -3.019  0.00  0.00    -0.058 A 
ATOM     21  H   LIG d   1       3.494  -1.163  -1.098  0.00  0.00     0.062 H 
ATOM     22  H   LIG d   1       3.621  -2.737  -2.986  0.00  0.00     0.062 H 
BRANCH  15  23
ATOM     23  O   LIG d   1       6.283   1.735  -3.145  0.00  0.00    -0.495 OA
BRANCH  23  24
ATOM     24  C   LIG d   1       7.551   1.711  -3.804  0.00  0.00     0.079 C 
ATOM     25  H   LIG d   1       7.413   1.931  -4.863  0.00  0.00     0.066 H 
ATOM     26  H   LIG d   1       8.205   2.461  -3.360  0.00  0.00     0.066 H 
ATOM     27  H   LIG d   1       8.000   0.725  -3.693  0.00  0.00     0.066 H 
ENDBRANCH  23  24
ENDBRANCH  15  23
ENDBRANCH   3  13
BRANCH   1  28
ATOM     28  C   LIG d   1       7.392  -2.896  -4.649  0.00  0.00     0.318 C 
ATOM     29  O   LIG d   1       7.691  -2.679  -3.499  0.00  0.00    -0.250 OA
BRANCH  28  30
ATOM     30  O   LIG d   1       8.233  -2.554  -5.637  0.00  0.00    -0.461 OA
BRANCH  30  31
ATOM     31  C   LIG d   1       9.010  -1.341  -5.452  0.00  0.00     0.098 C 
ATOM     32  H   LIG d   1       8.701  -0.850  -4.530  0.00  0.00     0.073 H 
BRANCH  31  33
ATOM     33  C   LIG d   1      10.496  -1.696  -5.366  0.00  0.00    -0.028 C 
ATOM     34  H   LIG d   1      10.857  -1.506  -4.355  0.00  0.00     0.026 H 
ATOM     35  H   LIG d   1      10.632  -2.750  -5.609  0.00  0.00     0.026 H 
ATOM     36  H   LIG d   1      11.056  -1.085  -6.073  0.00  0.00     0.026 H 
ENDBRANCH  31  33
BRANCH  31  37
ATOM     37  C   LIG d   1       8.778  -0.401  -6.635  0.00  0.00    -0.028 C 
ATOM     38  H   LIG d   1       7.989  -0.805  -7.271  0.00  0.00     0.026 H 
ATOM     39  H   LIG d   1       8.478   0.580  -6.266  0.00  0.00     0.026 H 
ATOM     40  H   LIG d   1       9.698  -0.307  -7.212  0.00  0.00     0.026 H 
ENDBRANCH  31  37
ENDBRANCH  30  31
ENDBRANCH  28  30
ENDBRANCH   1  28
BRANCH   5  41
ATOM     41  C   LIG d   1       4.445  -0.602  -6.795  0.00  0.00     0.314 C 
ATOM     42  O   LIG d   1       3.283  -0.739  -6.494  0.00  0.00    -0.250 OA
BRANCH  41  43
ATOM     43  O   LIG d   1       4.865   0.547  -7.349  0.00  0.00    -0.462 OA
BRANCH  43  44
ATOM     44  C   LIG d   1       4.251   0.932  -8.608  0.00  0.00     0.098 C 
ATOM     45  H   LIG d   1       3.834   0.050  -9.094  0.00  0.00     0.073 H 
BRANCH  44  46
ATOM     46  C   LIG d   1       3.135   1.944  -8.341  0.00  0.00    -0.028 C 
ATOM     47  H   LIG d   1       3.554   2.829  -7.861  0.00  0.00     0.026 H 
ATOM     48  H   LIG d   1       2.671   2.229  -9.286  0.00  0.00     0.026 H 
ATOM     49  H   LIG d   1       2.385   1.496  -7.689  0.00  0.00     0.026 H 
ENDBRANCH  44  46
BRANCH  44  50
ATOM     50  C   LIG d   1       5.307   1.565  -9.517  0.00  0.00    -0.028 C 
ATOM     51  H   LIG d   1       6.276   1.540  -9.020  0.00  0.00     0.026 H 
ATOM     52  H   LIG d   1       5.362   1.009 -10.452  0.00  0.00     0.026 H 
ATOM     53  H   LIG d   1       5.032   2.600  -9.726  0.00  0.00     0.026 H 
ENDBRANCH  44  50
ENDBRANCH  43  44
ENDBRANCH  41  43
ENDBRANCH   5  41
BRANCH   7  54
ATOM     54  C   LIG d   1       4.040  -3.328  -7.864  0.00  0.00    -0.035 C 
ATOM     55  H   LIG d   1       3.784  -3.442  -8.917  0.00  0.00     0.026 H 
ATOM     56  H   LIG d   1       4.059  -4.308  -7.387  0.00  0.00     0.026 H 
ATOM     57  H   LIG d   1       3.295  -2.701  -7.375  0.00  0.00     0.026 H 
ENDBRANCH   7  54
BRANCH   7  58
ATOM     58  O   LIG d   1       5.710  -1.949  -8.936  0.00  0.00    -0.388 OA
ATOM     59  H   LIG d   1       4.952  -1.471  -9.300  0.00  0.00     0.210 HD
ENDBRANCH   7  58
TORSDOF 15
ENDMDL
MODEL 4
REMARK VINA RESULT:      -5.1      2.344      3.866
REMARK  15 active torsions:
REMARK  status: ('A' for Active; 'I' for Inactive)
REMARK    1  A    between atoms: C_1  and  C_2 
REMARK    2  A    between atoms: C_2  and  C_3 
REMARK    3  A    between atoms: C_2  and  O_4 
REMARK    4  A    between atoms: O_4  and  C_5 
REMARK    5  A    between atoms: C_5  and  C_7 
REMARK    6  A    between atoms: C_9  and  C_25 
REMARK    7  A    between atoms: C_11  and  C_19 
REMARK    8  A    between atoms: C_13  and  C_17 
REMARK    9  A    between atoms: C_13  and  O_18 
REMARK   10  A    between atoms: C_19  and  O_21 
REMARK   11  A    between atoms: O_21  and  C_22 
REMARK   12  A    between atoms: C_22  and  C_23 
REMARK   13  A    between atoms: C_22  and  C_24 
REMARK   14  A    between atoms: C_29  and  O_31 
REMARK   15  A    between atoms: O_31  and  C_32 
ROOT
ATOM      1  C   LIG d   1       4.551  -1.418  -5.846  0.00  0.00     0.122 C 
ATOM      2  H   LIG d   1       3.815  -0.966  -5.340  0.00  0.00     0.050 H 
ATOM      3  C   LIG d   1       4.175  -1.510  -7.329  0.00  0.00     0.020 C 
ATOM      4  H   LIG d   1       3.208  -2.002  -7.429  0.00  0.00     0.037 H 
ATOM      5  C   LIG d   1       5.239  -2.318  -8.073  0.00  0.00     0.093 C 
ATOM      6  H   LIG d   1       6.216  -1.858  -7.919  0.00  0.00     0.045 H 
ATOM      7  C   LIG d   1       5.265  -3.753  -7.545  0.00  0.00     0.083 C 
ATOM      8  C   LIG d   1       5.681  -3.745  -6.069  0.00  0.00     0.036 C 
ATOM      9  C   LIG d   1       4.753  -2.818  -5.309  0.00  0.00     0.150 C 
ATOM     10  O   LIG d   1       4.189  -3.183  -4.306  0.00  0.00    -0.296 OA
ATOM     11  H   LIG d   1       5.614  -4.672  -5.700  0.00  0.00     0.037 H 
ATOM     12  H   LIG d   1       6.709  -3.393  -5.981  0.00  0.00     0.037 H 
ENDROOT
BRANCH   3  13
ATOM     13  C   LIG d   1       4.096  -0.123  -7.914  0.00  0.00    -0.039 A 
ATOM     14  C   LIG d   1       5.231   0.477  -8.421  0.00  0.00    -0.017 A 
ATOM     15  C   LIG d   1       5.157   1.752  -8.964  0.00  0.00     0.120 A 
ATOM     16  H   LIG d   1       6.176  -0.046  -8.398  0.00  0.00     0.066 H 
ATOM     17  C   LIG d   1       3.944   2.424  -8.987  0.00  0.00    -0.020 A 
ATOM     18  C   LIG d   1       2.811   1.821  -8.474  0.00  0.00    -0.058 A 
ATOM     19  H   LIG d   1       3.884   3.418  -9.406  0.00  0.00     0.065 H 
ATOM     20  C   LIG d   1       2.888   0.549  -7.938  0.00  0.00    -0.058 A 
ATOM     21  H   LIG d   1       1.867   2.344  -8.491  0.00  0.00     0.062 H 
ATOM     22  H   LIG d   1       2.001   0.079  -7.536  0.00  0.00     0.062 H 
BRANCH  15  23
ATOM     23  O   LIG d   1       6.273   2.344  -9.468  0.00  0.00    -0.495 OA
BRANCH  23  24
ATOM     24  C   LIG d   1       7.531   1.880  -8.976  0.00  0.00     0.079 C 
ATOM     25  H   LIG d   1       7.988   1.221  -9.713  0.00  0.00     0.066 H 
ATOM     26  H   LIG d   1       8.186   2.733  -8.795  0.00  0.00     0.066 H 
ATOM     27  H   LIG d   1       7.379   1.336  -8.045  0.00  0.00     0.066 H 
ENDBRANCH  23  24
ENDBRANCH  15  23
ENDBRANCH   3  13
BRANCH   1  28
ATOM     28  C   LIG d   1       5.825  -0.628  -5.694  0.00  0.00     0.318 C 
ATOM     29  O   LIG d   1       6.860  -1.060  -6.142  0.00  0.00    -0.250 OA
BRANCH  28  30
ATOM     30  O   LIG d   1       5.809   0.555  -5.062  0.00  0.00    -0.461 OA
BRANCH  30  31
ATOM     31  C   LIG d   1       6.420   0.607  -3.744  0.00  0.00     0.098 C 
ATOM     32  H   LIG d   1       6.786  -0.383  -3.475  0.00  0.00     0.073 H 
BRANCH  31  33
ATOM     33  C   LIG d   1       7.588   1.595  -3.763  0.00  0.00    -0.028 C 
ATOM     34  H   LIG d   1       7.589   2.173  -2.838  0.00  0.00     0.026 H 
ATOM     35  H   LIG d   1       8.526   1.048  -3.850  0.00  0.00     0.026 H 
ATOM     36  H   LIG d   1       7.480   2.270  -4.612  0.00  0.00     0.026 H 
ENDBRANCH  31  33
BRANCH  31  37
ATOM     37  C   LIG d   1       5.381   1.064  -2.719  0.00  0.00    -0.028 C 
ATOM     38  H   LIG d   1       4.529   1.506  -3.236  0.00  0.00     0.026 H 
ATOM     39  H   LIG d   1       5.046   0.206  -2.136  0.00  0.00     0.026 H 
ATOM     40  H   LIG d   1       5.827   1.804  -2.054  0.00  0.00     0.026 H 
ENDBRANCH  31  37
ENDBRANCH  30  31
ENDBRANCH  28  30
ENDBRANCH   1  28
BRANCH   5  41
ATOM     41  C   LIG d   1       4.919  -2.331  -9.546  0.00  0.00     0.314 C 
ATOM     42  O   LIG d   1       5.811  -2.413 -10.357  0.00  0.00    -0.250 OA
BRANCH  41  43
ATOM     43  O   LIG d   1       3.643  -2.254  -9.955  0.00  0.00    -0.462 OA
BRANCH  43  44
ATOM     44  C   LIG d   1       3.419  -1.938 -11.355  0.00  0.00     0.098 C 
ATOM     45  H   LIG d   1       4.347  -2.070 -11.911  0.00  0.00     0.073 H 
BRANCH  44  46
ATOM     46  C   LIG d   1       2.347  -2.869 -11.922  0.00  0.00    -0.028 C 
ATOM     47  H   LIG d   1       2.742  -3.883 -11.985  0.00  0.00     0.026 H 
ATOM     48  H   LIG d   1       1.475  -2.859 -11.268  0.00  0.00     0.026 H 
ATOM     49  H   LIG d   1       2.058  -2.528 -12.917  0.00  0.00     0.026 H 
ENDBRANCH  44  46
BRANCH  44  50
ATOM     50  C   LIG d   1       2.952  -0.485 -11.481  0.00  0.00    -0.028 C 
ATOM     51  H   LIG d   1       3.481  -0.004 -12.303  0.00  0.00     0.026 H 
ATOM     52  H   LIG d   1       1.881  -0.464 -11.676  0.00  0.00     0.026 H 
ATOM     53  H   LIG d   1       3.163   0.046 -10.552  0.00  0.00     0.026 H 
ENDBRANCH  44  50
ENDBRANCH  43  44
ENDBRANCH  41  43
ENDBRANCH   5  41
BRANCH   7  54
ATOM     54  C   LIG d   1       3.871  -4.370  -7.678  0.00  0.00    -0.035 C 
ATOM     55  H   LIG d   1       3.832  -4.989  -8.575  0.00  0.00     0.026 H 
ATOM     56  H   LIG d   1       3.662  -4.986  -6.803  0.00  0.00     0.026 H 
ATOM     57  H   LIG d   1       3.128  -3.578  -7.752  0.00  0.00     0.026 H 
ENDBRANCH   7  54
BRANCH   7  58
ATOM     58  O   LIG d   1       6.202  -4.523  -8.300  0.00  0.00    -0.388 OA
ATOM     59  H   LIG d   1       5.915  -5.429  -8.476  0.00  0.00     0.210 HD
ENDBRANCH   7  58
TORSDOF 15
ENDMDL
MODEL 5
REMARK VINA RESULT:      -5.1      2.593      5.489
REMARK  15 active torsions:
REMARK  status: ('A' for Active; 'I' for Inactive)
REMARK    1  A    between atoms: C_1  and  C_2 
REMARK    2  A    between atoms: C_2  and  C_3 
REMARK    3  A    between atoms: C_2  and  O_4 
REMARK    4  A    between atoms: O_4  and  C_5 
REMARK    5  A    between atoms: C_5  and  C_7 
REMARK    6  A    between atoms: C_9  and  C_25 
REMARK    7  A    between atoms: C_11  and  C_19 
REMARK    8  A    between atoms: C_13  and  C_17 
REMARK    9  A    between atoms: C_13  and  O_18 
REMARK   10  A    between atoms: C_19  and  O_21 
REMARK   11  A    between atoms: O_21  and  C_22 
REMARK   12  A    between atoms: C_22  and  C_23 
REMARK   13  A    between atoms: C_22  and  C_24 
REMARK   14  A    between atoms: C_29  and  O_31 
REMARK   15  A    between atoms: O_31  and  C_32 
ROOT
ATOM      1  C   LIG d   1       6.820  -1.064  -7.128  0.00  0.00     0.122 C 
ATOM      2  H   LIG d   1       7.680  -0.985  -7.633  0.00  0.00     0.050 H 
ATOM      3  C   LIG d   1       7.115  -1.342  -5.649  0.00  0.00     0.020 C 
ATOM      4  H   LIG d   1       7.756  -2.220  -5.565  0.00  0.00     0.037 H 
ATOM      5  C   LIG d   1       5.802  -1.596  -4.908  0.00  0.00     0.093 C 
ATOM      6  H   LIG d   1       5.138  -0.742  -5.046  0.00  0.00     0.045 H 
ATOM      7  C   LIG d   1       5.130  -2.856  -5.458  0.00  0.00     0.083 C 
ATOM      8  C   LIG d   1       4.760  -2.635  -6.929  0.00  0.00     0.036 C 
ATOM      9  C   LIG d   1       6.007  -2.213  -7.684  0.00  0.00     0.150 C 
ATOM     10  O   LIG d   1       6.344  -2.776  -8.697  0.00  0.00    -0.296 OA
ATOM     11  H   LIG d   1       4.402  -3.485  -7.313  0.00  0.00     0.037 H 
ATOM     12  H   LIG d   1       4.003  -1.855  -7.003  0.00  0.00     0.037 H 
ENDROOT
BRANCH   3  13
ATOM     13  C   LIG d   1       7.812  -0.151  -5.044  0.00  0.00    -0.039 A 
ATOM     14  C   LIG d   1       9.185  -0.033  -5.141  0.00  0.00    -0.017 A 
ATOM     15  C   LIG d   1       9.826   1.067  -4.586  0.00  0.00     0.120 A 
ATOM     16  H   LIG d   1       9.759  -0.793  -5.650  0.00  0.00     0.066 H 
ATOM     17  C   LIG d   1       9.087   2.038  -3.928  0.00  0.00    -0.020 A 
ATOM     18  C   LIG d   1       7.715   1.912  -3.830  0.00  0.00    -0.058 A 
ATOM     19  H   LIG d   1       9.584   2.893  -3.492  0.00  0.00     0.065 H 
ATOM     20  C   LIG d   1       7.078   0.818  -4.386  0.00  0.00    -0.058 A 
ATOM     21  H   LIG d   1       7.139   2.668  -3.316  0.00  0.00     0.062 H 
ATOM     22  H   LIG d   1       6.005   0.721  -4.307  0.00  0.00     0.062 H 
BRANCH  15  23
ATOM     23  O   LIG d   1      11.177   1.188  -4.684  0.00  0.00    -0.495 OA
BRANCH  23  24
ATOM     24  C   LIG d   1      11.943  -0.016  -4.612  0.00  0.00     0.079 C 
ATOM     25  H   LIG d   1      11.533  -0.748  -5.308  0.00  0.00     0.066 H 
ATOM     26  H   LIG d   1      12.979   0.197  -4.877  0.00  0.00     0.066 H 
ATOM     27  H   LIG d   1      11.901  -0.413  -3.599  0.00  0.00     0.066 H 
ENDBRANCH  23  24
ENDBRANCH  15  23
ENDBRANCH   3  13
BRANCH   1  28
ATOM     28  C   LIG d   1       6.040   0.218  -7.255  0.00  0.00     0.318 C 
ATOM     29  O   LIG d   1       4.877   0.253  -6.929  0.00  0.00    -0.250 OA
BRANCH  28  30
ATOM     30  O   LIG d   1       6.636   1.321  -7.733  0.00  0.00    -0.461 OA
BRANCH  30  31
ATOM     31  C   LIG d   1       7.961   1.160  -8.306  0.00  0.00     0.098 C 
ATOM     32  H   LIG d   1       8.426   0.263  -7.896  0.00  0.00     0.073 H 
BRANCH  31  33
ATOM     33  C   LIG d   1       7.847   1.026  -9.825  0.00  0.00    -0.028 C 
ATOM     34  H   LIG d   1       7.087   0.282 -10.069  0.00  0.00     0.026 H 
ATOM     35  H   LIG d   1       7.565   1.988 -10.255  0.00  0.00     0.026 H 
ATOM     36  H   LIG d   1       8.806   0.712 -10.236  0.00  0.00     0.026 H 
ENDBRANCH  31  33
BRANCH  31  37
ATOM     37  C   LIG d   1       8.816   2.381  -7.964  0.00  0.00    -0.028 C 
ATOM     38  H   LIG d   1       8.444   3.249  -8.508  0.00  0.00     0.026 H 
ATOM     39  H   LIG d   1       8.762   2.574  -6.892  0.00  0.00     0.026 H 
ATOM     40  H   LIG d   1       9.851   2.191  -8.247  0.00  0.00     0.026 H 
ENDBRANCH  31  37
ENDBRANCH  30  31
ENDBRANCH  28  30
ENDBRANCH   1  28
BRANCH   5  41
ATOM     41  C   LIG d   1       6.083  -1.778  -3.439  0.00  0.00     0.314 C 
ATOM     42  O   LIG d   1       7.158  -2.193  -3.076  0.00  0.00    -0.250 OA
BRANCH  41  43
ATOM     43  O   LIG d   1       5.137  -1.480  -2.533  0.00  0.00    -0.462 OA
BRANCH  43  44
ATOM     44  C   LIG d   1       4.343  -0.290  -2.780  0.00  0.00     0.098 C 
ATOM     45  H   LIG d   1       4.613   0.134  -3.747  0.00  0.00     0.073 H 
BRANCH  44  46
ATOM     46  C   LIG d   1       2.858  -0.660  -2.782  0.00  0.00    -0.028 C 
ATOM     47  H   LIG d   1       2.279   0.161  -2.358  0.00  0.00     0.026 H 
ATOM     48  H   LIG d   1       2.531  -0.844  -3.806  0.00  0.00     0.026 H 
ATOM     49  H   LIG d   1       2.707  -1.559  -2.185  0.00  0.00     0.026 H 
ENDBRANCH  44  46
BRANCH  44  50
ATOM     50  C   LIG d   1       4.610   0.739  -1.679  0.00  0.00    -0.028 C 
ATOM     51  H   LIG d   1       4.206   0.374  -0.735  0.00  0.00     0.026 H 
ATOM     52  H   LIG d   1       5.683   0.895  -1.580  0.00  0.00     0.026 H 
ATOM     53  H   LIG d   1       4.129   1.683  -1.939  0.00  0.00     0.026 H 
ENDBRANCH  44  50
ENDBRANCH  43  44
ENDBRANCH  41  43
ENDBRANCH   5  41
BRANCH   7  54
ATOM     54  C   LIG d   1       6.095  -4.038  -5.346  0.00  0.00    -0.035 C 
ATOM     55  H   LIG d   1       6.588  -4.014  -4.374  0.00  0.00     0.026 H 
ATOM     56  H   LIG d   1       5.540  -4.970  -5.448  0.00  0.00     0.026 H 
ATOM     57  H   LIG d   1       6.844  -3.972  -6.134  0.00  0.00     0.026 H 
ENDBRANCH   7  54
BRANCH   7  58
ATOM     58  O   LIG d   1       3.947  -3.132  -4.706  0.00  0.00    -0.388 OA
ATOM     59  H   LIG d   1       3.848  -4.062  -4.458  0.00  0.00     0.210 HD
ENDBRANCH   7  58
TORSDOF 15
ENDMDL
MODEL 6
REMARK VINA RESULT:      -5.0      2.389      5.059
REMARK  15 active torsions:
REMARK  status: ('A' for Active; 'I' for Inactive)
REMARK    1  A    between atoms: C_1  and  C_2 
REMARK    2  A    between atoms: C_2  and  C_3 
REMARK    3  A    between atoms: C_2  and  O_4 
REMARK    4  A    between atoms: O_4  and  C_5 
REMARK    5  A    between atoms: C_5  and  C_7 
REMARK    6  A    between atoms: C_9  and  C_25 
REMARK    7  A    between atoms: C_11  and  C_19 
REMARK    8  A    between atoms: C_13  and  C_17 
REMARK    9  A    between atoms: C_13  and  O_18 
REMARK   10  A    between atoms: C_19  and  O_21 
REMARK   11  A    between atoms: O_21  and  C_22 
REMARK   12  A    between atoms: C_22  and  C_23 
REMARK   13  A    between atoms: C_22  and  C_24 
REMARK   14  A    between atoms: C_29  and  O_31 
REMARK   15  A    between atoms: O_31  and  C_32 
ROOT
ATOM      1  C   LIG d   1       7.160   0.263  -6.122  0.00  0.00     0.122 C 
ATOM      2  H   LIG d   1       6.883   1.038  -5.554  0.00  0.00     0.050 H 
ATOM      3  C   LIG d   1       7.604  -0.900  -5.228  0.00  0.00     0.020 C 
ATOM      4  H   LIG d   1       8.382  -0.557  -4.546  0.00  0.00     0.037 H 
ATOM      5  C   LIG d   1       8.152  -2.031  -6.100  0.00  0.00     0.093 C 
ATOM      6  H   LIG d   1       7.393  -2.330  -6.824  0.00  0.00     0.045 H 
ATOM      7  C   LIG d   1       9.402  -1.555  -6.842  0.00  0.00     0.083 C 
ATOM      8  C   LIG d   1       9.025  -0.417  -7.797  0.00  0.00     0.036 C 
ATOM      9  C   LIG d   1       8.321   0.667  -7.004  0.00  0.00     0.150 C 
ATOM     10  O   LIG d   1       8.675   1.820  -7.071  0.00  0.00    -0.296 OA
ATOM     11  H   LIG d   1       9.854  -0.048  -8.217  0.00  0.00     0.037 H 
ATOM     12  H   LIG d   1       8.362  -0.796  -8.574  0.00  0.00     0.037 H 
ENDROOT
BRANCH   3  13
ATOM     13  C   LIG d   1       6.426  -1.402  -4.435  0.00  0.00    -0.039 A 
ATOM     14  C   LIG d   1       5.981  -0.693  -3.336  0.00  0.00    -0.017 A 
ATOM     15  C   LIG d   1       4.893  -1.154  -2.608  0.00  0.00     0.120 A 
ATOM     16  H   LIG d   1       6.478   0.221  -3.045  0.00  0.00     0.066 H 
ATOM     17  C   LIG d   1       4.261  -2.331  -2.981  0.00  0.00    -0.020 A 
ATOM     18  C   LIG d   1       4.713  -3.039  -4.078  0.00  0.00    -0.058 A 
ATOM     19  H   LIG d   1       3.416  -2.694  -2.413  0.00  0.00     0.065 H 
ATOM     20  C   LIG d   1       5.794  -2.575  -4.803  0.00  0.00    -0.058 A 
ATOM     21  H   LIG d   1       4.221  -3.956  -4.368  0.00  0.00     0.062 H 
ATOM     22  H   LIG d   1       6.146  -3.131  -5.661  0.00  0.00     0.062 H 
BRANCH  15  23
ATOM     23  O   LIG d   1       4.451  -0.456  -1.528  0.00  0.00    -0.495 OA
BRANCH  23  24
ATOM     24  C   LIG d   1       4.493   0.970  -1.616  0.00  0.00     0.079 C 
ATOM     25  H   LIG d   1       4.639   1.265  -2.655  0.00  0.00     0.066 H 
ATOM     26  H   LIG d   1       3.554   1.384  -1.249  0.00  0.00     0.066 H 
ATOM     27  H   LIG d   1       5.318   1.346  -1.012  0.00  0.00     0.066 H 
ENDBRANCH  23  24
ENDBRANCH  15  23
ENDBRANCH   3  13
BRANCH   1  28
ATOM     28  C   LIG d   1       6.000  -0.173  -6.980  0.00  0.00     0.318 C 
ATOM     29  O   LIG d   1       6.123  -1.111  -7.730  0.00  0.00    -0.250 OA
BRANCH  28  30
ATOM     30  O   LIG d   1       4.831   0.483  -6.911  0.00  0.00    -0.461 OA
BRANCH  30  31
ATOM     31  C   LIG d   1       3.640  -0.313  -6.673  0.00  0.00     0.098 C 
ATOM     32  H   LIG d   1       3.924  -1.356  -6.530  0.00  0.00     0.073 H 
BRANCH  31  33
ATOM     33  C   LIG d   1       2.928   0.197  -5.419  0.00  0.00    -0.028 C 
ATOM     34  H   LIG d   1       2.837   1.283  -5.470  0.00  0.00     0.026 H 
ATOM     35  H   LIG d   1       1.935  -0.248  -5.357  0.00  0.00     0.026 H 
ATOM     36  H   LIG d   1       3.505  -0.077  -4.536  0.00  0.00     0.026 H 
ENDBRANCH  31  33
BRANCH  31  37
ATOM     37  C   LIG d   1       2.702  -0.199  -7.875  0.00  0.00    -0.028 C 
ATOM     38  H   LIG d   1       2.691  -1.144  -8.419  0.00  0.00     0.026 H 
ATOM     39  H   LIG d   1       1.694   0.031  -7.528  0.00  0.00     0.026 H 
ATOM     40  H   LIG d   1       3.050   0.596  -8.534  0.00  0.00     0.026 H 
ENDBRANCH  31  37
ENDBRANCH  30  31
ENDBRANCH  28  30
ENDBRANCH   1  28
BRANCH   5  41
ATOM     41  C   LIG d   1       8.504  -3.209  -5.229  0.00  0.00     0.314 C 
ATOM     42  O   LIG d   1       8.328  -4.334  -5.635  0.00  0.00    -0.250 OA
BRANCH  41  43
ATOM     43  O   LIG d   1       9.013  -3.009  -4.003  0.00  0.00    -0.462 OA
BRANCH  43  44
ATOM     44  C   LIG d   1       9.829  -4.074  -3.448  0.00  0.00     0.098 C 
ATOM     45  H   LIG d   1       9.648  -4.997  -3.999  0.00  0.00     0.073 H 
BRANCH  44  46
ATOM     46  C   LIG d   1      11.307  -3.694  -3.559  0.00  0.00    -0.028 C 
ATOM     47  H   LIG d   1      11.907  -4.598  -3.667  0.00  0.00     0.026 H 
ATOM     48  H   LIG d   1      11.453  -3.055  -4.430  0.00  0.00     0.026 H 
ATOM     49  H   LIG d   1      11.613  -3.159  -2.661  0.00  0.00     0.026 H 
ENDBRANCH  44  46
BRANCH  44  50
ATOM     50  C   LIG d   1       9.465  -4.280  -1.975  0.00  0.00    -0.028 C 
ATOM     51  H   LIG d   1      10.337  -4.646  -1.434  0.00  0.00     0.026 H 
ATOM     52  H   LIG d   1       9.142  -3.333  -1.545  0.00  0.00     0.026 H 
ATOM     53  H   LIG d   1       8.657  -5.008  -1.899  0.00  0.00     0.026 H 
ENDBRANCH  44  50
ENDBRANCH  43  44
ENDBRANCH  41  43
ENDBRANCH   5  41
BRANCH   7  54
ATOM     54  C   LIG d   1      10.435  -1.053  -5.831  0.00  0.00    -0.035 C 
ATOM     55  H   LIG d   1      11.080  -0.315  -6.307  0.00  0.00     0.026 H 
ATOM     56  H   LIG d   1       9.921  -0.594  -4.986  0.00  0.00     0.026 H 
ATOM     57  H   LIG d   1      11.037  -1.890  -5.480  0.00  0.00     0.026 H 
ENDBRANCH   7  54
BRANCH   7  58
ATOM     58  O   LIG d   1       9.955  -2.641  -7.589  0.00  0.00    -0.388 OA
ATOM     59  H   LIG d   1       9.773  -3.512  -7.210  0.00  0.00     0.210 HD
ENDBRANCH   7  58
TORSDOF 15
ENDMDL
MODEL 7
REMARK VINA RESULT:      -4.9      2.661      4.484
REMARK  15 active torsions:
REMARK  status: ('A' for Active; 'I' for Inactive)
REMARK    1  A    between atoms: C_1  and  C_2 
REMARK    2  A    between atoms: C_2  and  C_3 
REMARK    3  A    between atoms: C_2  and  O_4 
REMARK    4  A    between atoms: O_4  and  C_5 
REMARK    5  A    between atoms: C_5  and  C_7 
REMARK    6  A    between atoms: C_9  and  C_25 
REMARK    7  A    between atoms: C_11  and  C_19 
REMARK    8  A    between atoms: C_13  and  C_17 
REMARK    9  A    between atoms: C_13  and  O_18 
REMARK   10  A    between atoms: C_19  and  O_21 
REMARK   11  A    between atoms: O_21  and  C_22 
REMARK   12  A    between atoms: C_22  and  C_23 
REMARK   13  A    between atoms: C_22  and  C_24 
REMARK   14  A    between atoms: C_29  and  O_31 
REMARK   15  A    between atoms: O_31  and  C_32 
ROOT
ATOM      1  C   LIG d   1       6.146  -2.290  -5.024  0.00  0.00     0.122 C 
ATOM      2  H   LIG d   1       6.206  -3.286  -5.081  0.00  0.00     0.050 H 
ATOM      3  C   LIG d   1       6.413  -1.677  -6.403  0.00  0.00     0.020 C 
ATOM      4  H   LIG d   1       7.370  -2.036  -6.781  0.00  0.00     0.037 H 
ATOM      5  C   LIG d   1       6.452  -0.152  -6.283  0.00  0.00     0.093 C 
ATOM      6  H   LIG d   1       5.517   0.200  -5.845  0.00  0.00     0.045 H 
ATOM      7  C   LIG d   1       7.621   0.268  -5.390  0.00  0.00     0.083 C 
ATOM      8  C   LIG d   1       7.399  -0.272  -3.972  0.00  0.00     0.036 C 
ATOM      9  C   LIG d   1       7.184  -1.772  -4.053  0.00  0.00     0.150 C 
ATOM     10  O   LIG d   1       7.823  -2.532  -3.366  0.00  0.00    -0.296 OA
ATOM     11  H   LIG d   1       8.202  -0.073  -3.411  0.00  0.00     0.037 H 
ATOM     12  H   LIG d   1       6.522   0.203  -3.533  0.00  0.00     0.037 H 
ENDROOT
BRANCH   3  13
ATOM     13  C   LIG d   1       5.314  -2.078  -7.353  0.00  0.00    -0.039 A 
ATOM     14  C   LIG d   1       4.255  -1.223  -7.583  0.00  0.00    -0.017 A 
ATOM     15  C   LIG d   1       3.245  -1.591  -8.461  0.00  0.00     0.120 A 
ATOM     16  H   LIG d   1       4.213  -0.267  -7.082  0.00  0.00     0.066 H 
ATOM     17  C   LIG d   1       3.299  -2.822  -9.098  0.00  0.00    -0.020 A 
ATOM     18  C   LIG d   1       4.358  -3.676  -8.861  0.00  0.00    -0.058 A 
ATOM     19  H   LIG d   1       2.512  -3.113  -9.779  0.00  0.00     0.065 H 
ATOM     20  C   LIG d   1       5.365  -3.304  -7.989  0.00  0.00    -0.058 A 
ATOM     21  H   LIG d   1       4.400  -4.635  -9.357  0.00  0.00     0.062 H 
ATOM     22  H   LIG d   1       6.192  -3.974  -7.804  0.00  0.00     0.062 H 
BRANCH  15  23
ATOM     23  O   LIG d   1       2.203  -0.749  -8.692  0.00  0.00    -0.495 OA
BRANCH  23  24
ATOM     24  C   LIG d   1       2.523   0.601  -9.032  0.00  0.00     0.079 C 
ATOM     25  H   LIG d   1       2.817   0.652 -10.080  0.00  0.00     0.066 H 
ATOM     26  H   LIG d   1       1.650   1.233  -8.869  0.00  0.00     0.066 H 
ATOM     27  H   LIG d   1       3.345   0.948  -8.406  0.00  0.00     0.066 H 
ENDBRANCH  23  24
ENDBRANCH  15  23
ENDBRANCH   3  13
BRANCH   1  28
ATOM     28  C   LIG d   1       4.770  -1.895  -4.553  0.00  0.00     0.318 C 
ATOM     29  O   LIG d   1       3.936  -2.744  -4.346  0.00  0.00    -0.250 OA
BRANCH  28  30
ATOM     30  O   LIG d   1       4.471  -0.600  -4.365  0.00  0.00    -0.461 OA
BRANCH  30  31
ATOM     31  C   LIG d   1       3.164  -0.299  -3.807  0.00  0.00     0.098 C 
ATOM     32  H   LIG d   1       2.653  -1.229  -3.559  0.00  0.00     0.073 H 
BRANCH  31  33
ATOM     33  C   LIG d   1       3.333   0.542  -2.540  0.00  0.00    -0.028 C 
ATOM     34  H   LIG d   1       4.068   0.071  -1.886  0.00  0.00     0.026 H 
ATOM     35  H   LIG d   1       3.674   1.542  -2.809  0.00  0.00     0.026 H 
ATOM     36  H   LIG d   1       2.378   0.611  -2.020  0.00  0.00     0.026 H 
ENDBRANCH  31  33
BRANCH  31  37
ATOM     37  C   LIG d   1       2.340   0.482  -4.831  0.00  0.00    -0.028 C 
ATOM     38  H   LIG d   1       1.472  -0.108  -5.125  0.00  0.00     0.026 H 
ATOM     39  H   LIG d   1       2.007   1.421  -4.389  0.00  0.00     0.026 H 
ATOM     40  H   LIG d   1       2.953   0.690  -5.709  0.00  0.00     0.026 H 
ENDBRANCH  31  37
ENDBRANCH  30  31
ENDBRANCH  28  30
ENDBRANCH   1  28
BRANCH   5  41
ATOM     41  C   LIG d   1       6.624   0.454  -7.651  0.00  0.00     0.314 C 
ATOM     42  O   LIG d   1       6.136   1.531  -7.900  0.00  0.00    -0.250 OA
BRANCH  41  43
ATOM     43  O   LIG d   1       7.319  -0.203  -8.593  0.00  0.00    -0.462 OA
BRANCH  43  44
ATOM     44  C   LIG d   1       7.180   0.267  -9.960  0.00  0.00     0.098 C 
ATOM     45  H   LIG d   1       6.798   1.288  -9.958  0.00  0.00     0.073 H 
BRANCH  44  46
ATOM     46  C   LIG d   1       8.544   0.234 -10.652  0.00  0.00    -0.028 C 
ATOM     47  H   LIG d   1       8.826  -0.801 -10.850  0.00  0.00     0.026 H 
ATOM     48  H   LIG d   1       8.488   0.781 -11.593  0.00  0.00     0.026 H 
ATOM     49  H   LIG d   1       9.290   0.697 -10.006  0.00  0.00     0.026 H 
ENDBRANCH  44  46
BRANCH  44  50
ATOM     50  C   LIG d   1       6.204  -0.640 -10.715  0.00  0.00    -0.028 C 
ATOM     51  H   LIG d   1       6.752  -1.231 -11.449  0.00  0.00     0.026 H 
ATOM     52  H   LIG d   1       5.708  -1.305 -10.010  0.00  0.00     0.026 H 
ATOM     53  H   LIG d   1       5.459  -0.028 -11.224  0.00  0.00     0.026 H 
ENDBRANCH  44  50
ENDBRANCH  43  44
ENDBRANCH  41  43
ENDBRANCH   5  41
BRANCH   7  54
ATOM     54  C   LIG d   1       8.924  -0.301  -5.954  0.00  0.00    -0.035 C 
ATOM     55  H   LIG d   1       9.053   0.037  -6.982  0.00  0.00     0.026 H 
ATOM     56  H   LIG d   1       9.763   0.045  -5.350  0.00  0.00     0.026 H 
ATOM     57  H   LIG d   1       8.885  -1.390  -5.932  0.00  0.00     0.026 H 
ENDBRANCH   7  54
BRANCH   7  58
ATOM     58  O   LIG d   1       7.701   1.694  -5.349  0.00  0.00    -0.388 OA
ATOM     59  H   LIG d   1       7.833   2.055  -4.461  0.00  0.00     0.210 HD
ENDBRANCH   7  58
TORSDOF 15
ENDMDL
MODEL 8
REMARK VINA RESULT:      -4.9      2.280      4.398
REMARK  15 active torsions:
REMARK  status: ('A' for Active; 'I' for Inactive)
REMARK    1  A    between atoms: C_1  and  C_2 
REMARK    2  A    between atoms: C_2  and  C_3 
REMARK    3  A    between atoms: C_2  and  O_4 
REMARK    4  A    between atoms: O_4  and  C_5 
REMARK    5  A    between atoms: C_5  and  C_7 
REMARK    6  A    between atoms: C_9  and  C_25 
REMARK    7  A    between atoms: C_11  and  C_19 
REMARK    8  A    between atoms: C_13  and  C_17 
REMARK    9  A    between atoms: C_13  and  O_18 
REMARK   10  A    between atoms: C_19  and  O_21 
REMARK   11  A    between atoms: O_21  and  C_22 
REMARK   12  A    between atoms: C_22  and  C_23 
REMARK   13  A    between atoms: C_22  and  C_24 
REMARK   14  A    between atoms: C_29  and  O_31 
REMARK   15  A    between atoms: O_31  and  C_32 
ROOT
ATOM      1  C   LIG d   1       6.034  -3.277  -5.674  0.00  0.00     0.122 C 
ATOM      2  H   LIG d   1       5.746  -4.010  -6.290  0.00  0.00     0.050 H 
ATOM      3  C   LIG d   1       6.312  -2.004  -6.481  0.00  0.00     0.020 C 
ATOM      4  H   LIG d   1       7.033  -2.223  -7.268  0.00  0.00     0.037 H 
ATOM      5  C   LIG d   1       6.879  -0.928  -5.554  0.00  0.00     0.093 C 
ATOM      6  H   LIG d   1       6.184  -0.755  -4.732  0.00  0.00     0.045 H 
ATOM      7  C   LIG d   1       8.227  -1.384  -4.992  0.00  0.00     0.083 C 
ATOM      8  C   LIG d   1       8.021  -2.634  -4.129  0.00  0.00     0.036 C 
ATOM      9  C   LIG d   1       7.304  -3.683  -4.958  0.00  0.00     0.150 C 
ATOM     10  O   LIG d   1       7.732  -4.809  -5.047  0.00  0.00    -0.296 OA
ATOM     11  H   LIG d   1       8.910  -2.984  -3.833  0.00  0.00     0.037 H 
ATOM     12  H   LIG d   1       7.422  -2.381  -3.255  0.00  0.00     0.037 H 
ENDROOT
BRANCH   3  13
ATOM     13  C   LIG d   1       5.029  -1.510  -7.098  0.00  0.00    -0.039 A 
ATOM     14  C   LIG d   1       4.578  -2.057  -8.283  0.00  0.00    -0.017 A 
ATOM     15  C   LIG d   1       3.394  -1.605  -8.848  0.00  0.00     0.120 A 
ATOM     16  H   LIG d   1       5.145  -2.837  -8.769  0.00  0.00     0.066 H 
ATOM     17  C   LIG d   1       2.670  -0.598  -8.226  0.00  0.00    -0.020 A 
ATOM     18  C   LIG d   1       3.128  -0.052  -7.042  0.00  0.00    -0.058 A 
ATOM     19  H   LIG d   1       1.751  -0.242  -8.666  0.00  0.00     0.065 H 
ATOM     20  C   LIG d   1       4.306  -0.507  -6.480  0.00  0.00    -0.058 A 
ATOM     21  H   LIG d   1       2.566   0.733  -6.558  0.00  0.00     0.062 H 
ATOM     22  H   LIG d   1       4.662  -0.077  -5.554  0.00  0.00     0.062 H 
BRANCH  15  23
ATOM     23  O   LIG d   1       2.946  -2.144 -10.014  0.00  0.00    -0.495 OA
BRANCH  23  24
ATOM     24  C   LIG d   1       1.530  -2.228 -10.187  0.00  0.00     0.079 C 
ATOM     25  H   LIG d   1       1.239  -3.273 -10.298  0.00  0.00     0.066 H 
ATOM     26  H   LIG d   1       1.032  -1.803  -9.316  0.00  0.00     0.066 H 
ATOM     27  H   LIG d   1       1.239  -1.673 -11.079  0.00  0.00     0.066 H 
ENDBRANCH  23  24
ENDBRANCH  15  23
ENDBRANCH   3  13
BRANCH   1  28
ATOM     28  C   LIG d   1       4.947  -3.010  -4.666  0.00  0.00     0.318 C 
ATOM     29  O   LIG d   1       4.053  -3.808  -4.517  0.00  0.00    -0.250 OA
BRANCH  28  30
ATOM     30  O   LIG d   1       4.971  -1.884  -3.936  0.00  0.00    -0.461 OA
BRANCH  30  31
ATOM     31  C   LIG d   1       4.006  -1.778  -2.855  0.00  0.00     0.098 C 
ATOM     32  H   LIG d   1       3.650  -2.773  -2.587  0.00  0.00     0.073 H 
BRANCH  31  33
ATOM     33  C   LIG d   1       4.672  -1.131  -1.639  0.00  0.00    -0.028 C 
ATOM     34  H   LIG d   1       4.026  -0.344  -1.247  0.00  0.00     0.026 H 
ATOM     35  H   LIG d   1       4.835  -1.884  -0.869  0.00  0.00     0.026 H 
ATOM     36  H   LIG d   1       5.628  -0.699  -1.936  0.00  0.00     0.026 H 
ENDBRANCH  31  33
BRANCH  31  37
ATOM     37  C   LIG d   1       2.825  -0.918  -3.308  0.00  0.00    -0.028 C 
ATOM     38  H   LIG d   1       2.229  -1.473  -4.034  0.00  0.00     0.026 H 
ATOM     39  H   LIG d   1       2.206  -0.669  -2.447  0.00  0.00     0.026 H 
ATOM     40  H   LIG d   1       3.197  -0.002  -3.767  0.00  0.00     0.026 H 
ENDBRANCH  31  37
ENDBRANCH  30  31
ENDBRANCH  28  30
ENDBRANCH   1  28
BRANCH   5  41
ATOM     41  C   LIG d   1       7.066   0.352  -6.327  0.00  0.00     0.314 C 
ATOM     42  O   LIG d   1       7.106   1.410  -5.744  0.00  0.00    -0.250 OA
BRANCH  41  43
ATOM     43  O   LIG d   1       7.189   0.316  -7.664  0.00  0.00    -0.462 OA
BRANCH  43  44
ATOM     44  C   LIG d   1       7.132   1.587  -8.364  0.00  0.00     0.098 C 
ATOM     45  H   LIG d   1       7.257   2.402  -7.650  0.00  0.00     0.073 H 
BRANCH  44  46
ATOM     46  C   LIG d   1       8.249   1.645  -9.407  0.00  0.00    -0.028 C 
ATOM     47  H   LIG d   1       9.203   1.825  -8.909  0.00  0.00     0.026 H 
ATOM     48  H   LIG d   1       8.293   0.697  -9.944  0.00  0.00     0.026 H 
ATOM     49  H   LIG d   1       8.048   2.453 -10.111  0.00  0.00     0.026 H 
ENDBRANCH  44  46
BRANCH  44  50
ATOM     50  C   LIG d   1       5.776   1.724  -9.061  0.00  0.00    -0.028 C 
ATOM     51  H   LIG d   1       5.213   2.537  -8.603  0.00  0.00     0.026 H 
ATOM     52  H   LIG d   1       5.931   1.939 -10.118  0.00  0.00     0.026 H 
ATOM     53  H   LIG d   1       5.219   0.792  -8.958  0.00  0.00     0.026 H 
ENDBRANCH  44  50
ENDBRANCH  43  44
ENDBRANCH  41  43
ENDBRANCH   5  41
BRANCH   7  54
ATOM     54  C   LIG d   1       9.176  -1.712  -6.147  0.00  0.00    -0.035 C 
ATOM     55  H   LIG d   1       8.595  -1.991  -7.026  0.00  0.00     0.026 H 
ATOM     56  H   LIG d   1       9.783  -0.836  -6.376  0.00  0.00     0.026 H 
ATOM     57  H   LIG d   1       9.824  -2.540  -5.862  0.00  0.00     0.026 H 
ENDBRANCH   7  54
BRANCH   7  58
ATOM     58  O   LIG d   1       8.789  -0.341  -4.194  0.00  0.00    -0.388 OA
ATOM     59  H   LIG d   1       9.749  -0.399  -4.091  0.00  0.00     0.210 HD
ENDBRANCH   7  58
TORSDOF 15
ENDMDL
MODEL 9
REMARK VINA RESULT:      -4.9      2.949      5.098
REMARK  15 active torsions:
REMARK  status: ('A' for Active; 'I' for Inactive)
REMARK    1  A    between atoms: C_1  and  C_2 
REMARK    2  A    between atoms: C_2  and  C_3 
REMARK    3  A    between atoms: C_2  and  O_4 
REMARK    4  A    between atoms: O_4  and  C_5 
REMARK    5  A    between atoms: C_5  and  C_7 
REMARK    6  A    between atoms: C_9  and  C_25 
REMARK    7  A    between atoms: C_11  and  C_19 
REMARK    8  A    between atoms: C_13  and  C_17 
REMARK    9  A    between atoms: C_13  and  O_18 
REMARK   10  A    between atoms: C_19  and  O_21 
REMARK   11  A    between atoms: O_21  and  C_22 
REMARK   12  A    between atoms: C_22  and  C_23 
REMARK   13  A    between atoms: C_22  and  C_24 
REMARK   14  A    between atoms: C_29  and  O_31 
REMARK   15  A    between atoms: O_31  and  C_32 
ROOT
ATOM      1  C   LIG d   1       4.439  -1.581  -6.287  0.00  0.00     0.122 C 
ATOM      2  H   LIG d   1       3.787  -2.118  -6.823  0.00  0.00     0.050 H 
ATOM      3  C   LIG d   1       5.642  -1.209  -7.161  0.00  0.00     0.020 C 
ATOM      4  H   LIG d   1       6.070  -2.114  -7.594  0.00  0.00     0.037 H 
ATOM      5  C   LIG d   1       6.695  -0.506  -6.304  0.00  0.00     0.093 C 
ATOM      6  H   LIG d   1       6.247   0.364  -5.822  0.00  0.00     0.045 H 
ATOM      7  C   LIG d   1       7.219  -1.466  -5.234  0.00  0.00     0.083 C 
ATOM      8  C   LIG d   1       6.076  -1.847  -4.287  0.00  0.00     0.036 C 
ATOM      9  C   LIG d   1       4.928  -2.399  -5.112  0.00  0.00     0.150 C 
ATOM     10  O   LIG d   1       4.419  -3.460  -4.842  0.00  0.00    -0.296 OA
ATOM     11  H   LIG d   1       6.396  -2.541  -3.642  0.00  0.00     0.037 H 
ATOM     12  H   LIG d   1       5.745  -0.966  -3.739  0.00  0.00     0.037 H 
ENDROOT
BRANCH   3  13
ATOM     13  C   LIG d   1       5.195  -0.287  -8.265  0.00  0.00    -0.039 A 
ATOM     14  C   LIG d   1       4.593  -0.804  -9.396  0.00  0.00    -0.017 A 
ATOM     15  C   LIG d   1       4.177   0.046 -10.410  0.00  0.00     0.120 A 
ATOM     16  H   LIG d   1       4.444  -1.870  -9.489  0.00  0.00     0.066 H 
ATOM     17  C   LIG d   1       4.376   1.414 -10.291  0.00  0.00    -0.020 A 
ATOM     18  C   LIG d   1       4.982   1.926  -9.160  0.00  0.00    -0.058 A 
ATOM     19  H   LIG d   1       4.057   2.078 -11.081  0.00  0.00     0.065 H 
ATOM     20  C   LIG d   1       5.392   1.076  -8.149  0.00  0.00    -0.058 A 
ATOM     21  H   LIG d   1       5.138   2.991  -9.067  0.00  0.00     0.062 H 
ATOM     22  H   LIG d   1       5.867   1.480  -7.266  0.00  0.00     0.062 H 
BRANCH  15  23
ATOM     23  O   LIG d   1       3.581  -0.460 -11.522  0.00  0.00    -0.495 OA
BRANCH  23  24
ATOM     24  C   LIG d   1       4.340  -0.436 -12.733  0.00  0.00     0.079 C 
ATOM     25  H   LIG d   1       3.938   0.328 -13.398  0.00  0.00     0.066 H 
ATOM     26  H   LIG d   1       5.381  -0.207 -12.504  0.00  0.00     0.066 H 
ATOM     27  H   LIG d   1       4.280  -1.409 -13.219  0.00  0.00     0.066 H 
ENDBRANCH  23  24
ENDBRANCH  15  23
ENDBRANCH   3  13
BRANCH   1  28
ATOM     28  C   LIG d   1       3.769  -0.327  -5.788  0.00  0.00     0.318 C 
ATOM     29  O   LIG d   1       2.834   0.140  -6.394  0.00  0.00    -0.250 OA
BRANCH  28  30
ATOM     30  O   LIG d   1       4.213   0.272  -4.672  0.00  0.00    -0.461 OA
BRANCH  30  31
ATOM     31  C   LIG d   1       3.225   0.585  -3.654  0.00  0.00     0.098 C 
ATOM     32  H   LIG d   1       2.420   1.170  -4.098  0.00  0.00     0.073 H 
BRANCH  31  33
ATOM     33  C   LIG d   1       2.656  -0.714  -3.080  0.00  0.00    -0.028 C 
ATOM     34  H   LIG d   1       3.169  -1.565  -3.529  0.00  0.00     0.026 H 
ATOM     35  H   LIG d   1       2.802  -0.729  -2.000  0.00  0.00     0.026 H 
ATOM     36  H   LIG d   1       1.591  -0.774  -3.304  0.00  0.00     0.026 H 
ENDBRANCH  31  33
BRANCH  31  37
ATOM     37  C   LIG d   1       3.886   1.391  -2.534  0.00  0.00    -0.028 C 
ATOM     38  H   LIG d   1       4.771   1.895  -2.923  0.00  0.00     0.026 H 
ATOM     39  H   LIG d   1       3.182   2.134  -2.159  0.00  0.00     0.026 H 
ATOM     40  H   LIG d   1       4.174   0.721  -1.725  0.00  0.00     0.026 H 
ENDBRANCH  31  37
ENDBRANCH  30  31
ENDBRANCH  28  30
ENDBRANCH   1  28
BRANCH   5  41
ATOM     41  C   LIG d   1       7.837  -0.059  -7.179  0.00  0.00     0.314 C 
ATOM     42  O   LIG d   1       8.461   0.937  -6.897  0.00  0.00    -0.250 OA
BRANCH  41  43
ATOM     43  O   LIG d   1       8.161  -0.767  -8.273  0.00  0.00    -0.462 OA
BRANCH  43  44
ATOM     44  C   LIG d   1       8.921  -0.079  -9.301  0.00  0.00     0.098 C 
ATOM     45  H   LIG d   1       9.177   0.923  -8.956  0.00  0.00     0.073 H 
BRANCH  44  46
ATOM     46  C   LIG d   1      10.203  -0.860  -9.595  0.00  0.00    -0.028 C 
ATOM     47  H   LIG d   1      10.290  -1.026 -10.669  0.00  0.00     0.026 H 
ATOM     48  H   LIG d   1      11.064  -0.289  -9.245  0.00  0.00     0.026 H 
ATOM     49  H   LIG d   1      10.171  -1.820  -9.080  0.00  0.00     0.026 H 
ENDBRANCH  44  46
BRANCH  44  50
ATOM     50  C   LIG d   1       8.081   0.020 -10.577  0.00  0.00    -0.028 C 
ATOM     51  H   LIG d   1       7.517   0.952 -10.569  0.00  0.00     0.026 H 
ATOM     52  H   LIG d   1       8.737  -0.000 -11.446  0.00  0.00     0.026 H 
ATOM     53  H   LIG d   1       7.391  -0.823 -10.623  0.00  0.00     0.026 H 
ENDBRANCH  44  50
ENDBRANCH  43  44
ENDBRANCH  41  43
ENDBRANCH   5  41
BRANCH   7  54
ATOM     54  C   LIG d   1       7.768  -2.726  -5.906  0.00  0.00    -0.035 C 
ATOM     55  H   LIG d   1       7.137  -3.577  -5.653  0.00  0.00     0.026 H 
ATOM     56  H   LIG d   1       7.775  -2.587  -6.987  0.00  0.00     0.026 H 
ATOM     57  H   LIG d   1       8.784  -2.911  -5.557  0.00  0.00     0.026 H 
ENDBRANCH   7  54
BRANCH   7  58
ATOM     58  O   LIG d   1       8.260  -0.829  -4.491  0.00  0.00    -0.388 OA
ATOM     59  H   LIG d   1       8.669  -0.081  -4.949  0.00  0.00     0.210 HD
ENDBRANCH   7  58
TORSDOF 15
ENDMDL
MODEL 10
REMARK VINA RESULT:      -4.8      8.183     12.443
REMARK  15 active torsions:
REMARK  status: ('A' for Active; 'I' for Inactive)
REMARK    1  A    between atoms: C_1  and  C_2 
REMARK    2  A    between atoms: C_2  and  C_3 
REMARK    3  A    between atoms: C_2  and  O_4 
REMARK    4  A    between atoms: O_4  and  C_5 
REMARK    5  A    between atoms: C_5  and  C_7 
REMARK    6  A    between atoms: C_9  and  C_25 
REMARK    7  A    between atoms: C_11  and  C_19 
REMARK    8  A    between atoms: C_13  and  C_17 
REMARK    9  A    between atoms: C_13  and  O_18 
REMARK   10  A    between atoms: C_19  and  O_21 
REMARK   11  A    between atoms: O_21  and  C_22 
REMARK   12  A    between atoms: C_22  and  C_23 
REMARK   13  A    between atoms: C_22  and  C_24 
REMARK   14  A    between atoms: C_29  and  O_31 
REMARK   15  A    between atoms: O_31  and  C_32 
ROOT
ATOM      1  C   LIG d   1      10.829   8.622  -1.162  0.00  0.00     0.122 C 
ATOM      2  H   LIG d   1      11.660   8.429  -0.640  0.00  0.00     0.050 H 
ATOM      3  C   LIG d   1      11.161   8.672  -2.658  0.00  0.00     0.020 C 
ATOM      4  H   LIG d   1      11.963   9.390  -2.829  0.00  0.00     0.037 H 
ATOM      5  C   LIG d   1       9.918   9.100  -3.440  0.00  0.00     0.093 C 
ATOM      6  H   LIG d   1       9.098   8.416  -3.218  0.00  0.00     0.045 H 
ATOM      7  C   LIG d   1       9.516  10.521  -3.039  0.00  0.00     0.083 C 
ATOM      8  C   LIG d   1       9.123  10.540  -1.558  0.00  0.00     0.036 C 
ATOM      9  C   LIG d   1      10.267   9.964  -0.745  0.00  0.00     0.150 C 
ATOM     10  O   LIG d   1      10.718  10.556   0.205  0.00  0.00    -0.296 OA
ATOM     11  H   LIG d   1       8.945  11.482  -1.274  0.00  0.00     0.037 H 
ATOM     12  H   LIG d   1       8.226   9.940  -1.409  0.00  0.00     0.037 H 
ENDROOT
BRANCH   3  13
ATOM     13  C   LIG d   1      11.601   7.307  -3.121  0.00  0.00    -0.039 A 
ATOM     14  C   LIG d   1      10.658   6.343  -3.419  0.00  0.00    -0.017 A 
ATOM     15  C   LIG d   1      11.064   5.088  -3.850  0.00  0.00     0.120 A 
ATOM     16  H   LIG d   1       9.606   6.567  -3.321  0.00  0.00     0.066 H 
ATOM     17  C   LIG d   1      12.416   4.801  -3.970  0.00  0.00    -0.020 A 
ATOM     18  C   LIG d   1      13.355   5.768  -3.665  0.00  0.00    -0.058 A 
ATOM     19  H   LIG d   1      12.735   3.824  -4.300  0.00  0.00     0.065 H 
ATOM     20  C   LIG d   1      12.947   7.019  -3.241  0.00  0.00    -0.058 A 
ATOM     21  H   LIG d   1      14.408   5.546  -3.758  0.00  0.00     0.062 H 
ATOM     22  H   LIG d   1      13.684   7.774  -3.002  0.00  0.00     0.062 H 
BRANCH  15  23
ATOM     23  O   LIG d   1      10.138   4.137  -4.148  0.00  0.00    -0.495 OA
BRANCH  23  24
ATOM     24  C   LIG d   1       9.952   3.091  -3.193  0.00  0.00     0.079 C 
ATOM     25  H   LIG d   1       9.698   2.167  -3.713  0.00  0.00     0.066 H 
ATOM     26  H   LIG d   1      10.874   2.948  -2.628  0.00  0.00     0.066 H 
ATOM     27  H   LIG d   1       9.146   3.359  -2.512  0.00  0.00     0.066 H 
ENDBRANCH  23  24
ENDBRANCH  15  23
ENDBRANCH   3  13
BRANCH   1  28
ATOM     28  C   LIG d   1       9.810   7.543  -0.905  0.00  0.00     0.318 C 
ATOM     29  O   LIG d   1       8.646   7.737  -1.166  0.00  0.00    -0.250 OA
BRANCH  28  30
ATOM     30  O   LIG d   1      10.194   6.367  -0.386  0.00  0.00    -0.461 OA
BRANCH  30  31
ATOM     31  C   LIG d   1      11.342   6.383   0.504  0.00  0.00     0.098 C 
ATOM     32  H   LIG d   1      11.711   7.403   0.602  0.00  0.00     0.073 H 
BRANCH  31  33
ATOM     33  C   LIG d   1      10.928   5.856   1.879  0.00  0.00    -0.028 C 
ATOM     34  H   LIG d   1      11.784   5.379   2.359  0.00  0.00     0.026 H 
ATOM     35  H   LIG d   1      10.580   6.684   2.497  0.00  0.00     0.026 H 
ATOM     36  H   LIG d   1      10.126   5.127   1.763  0.00  0.00     0.026 H 
ENDBRANCH  31  33
BRANCH  31  37
ATOM     37  C   LIG d   1      12.446   5.493  -0.072  0.00  0.00    -0.028 C 
ATOM     38  H   LIG d   1      12.316   5.406  -1.150  0.00  0.00     0.026 H 
ATOM     39  H   LIG d   1      13.418   5.938   0.142  0.00  0.00     0.026 H 
ATOM     40  H   LIG d   1      12.390   4.504   0.383  0.00  0.00     0.026 H 
ENDBRANCH  31  37
ENDBRANCH  30  31
ENDBRANCH  28  30
ENDBRANCH   1  28
BRANCH   5  41
ATOM     41  C   LIG d   1      10.216   9.060  -4.916  0.00  0.00     0.314 C 
ATOM     42  O   LIG d   1      11.287   9.442  -5.327  0.00  0.00    -0.250 OA
BRANCH  41  43
ATOM     43  O   LIG d   1       9.292   8.601  -5.775  0.00  0.00    -0.462 OA
BRANCH  43  44
ATOM     44  C   LIG d   1       9.773   8.086  -7.045  0.00  0.00     0.098 C 
ATOM     45  H   LIG d   1      10.774   8.472  -7.238  0.00  0.00     0.073 H 
BRANCH  44  46
ATOM     46  C   LIG d   1       9.816   6.558  -6.993  0.00  0.00    -0.028 C 
ATOM     47  H   LIG d   1      10.778   6.234  -6.595  0.00  0.00     0.026 H 
ATOM     48  H   LIG d   1       9.016   6.195  -6.347  0.00  0.00     0.026 H 
ATOM     49  H   LIG d   1       9.683   6.156  -7.997  0.00  0.00     0.026 H 
ENDBRANCH  44  46
BRANCH  44  50
ATOM     50  C   LIG d   1       8.830   8.532  -8.166  0.00  0.00    -0.028 C 
ATOM     51  H   LIG d   1       8.016   7.814  -8.262  0.00  0.00     0.026 H 
ATOM     52  H   LIG d   1       8.423   9.514  -7.929  0.00  0.00     0.026 H 
ATOM     53  H   LIG d   1       9.382   8.584  -9.105  0.00  0.00     0.026 H 
ENDBRANCH  44  50
ENDBRANCH  43  44
ENDBRANCH  41  43
ENDBRANCH   5  41
BRANCH   7  54
ATOM     54  C   LIG d   1      10.696  11.467  -3.267  0.00  0.00    -0.035 C 
ATOM     55  H   LIG d   1      10.628  11.899  -4.265  0.00  0.00     0.026 H 
ATOM     56  H   LIG d   1      10.671  12.264  -2.524  0.00  0.00     0.026 H 
ATOM     57  H   LIG d   1      11.630  10.913  -3.174  0.00  0.00     0.026 H 
ENDBRANCH   7  54
BRANCH   7  58
ATOM     58  O   LIG d   1       8.405  10.943  -3.832  0.00  0.00    -0.388 OA
ATOM     59  H   LIG d   1       7.969  11.742  -3.504  0.00  0.00     0.210 HD
ENDBRANCH   7  58
TORSDOF 15
ENDMDL
