MODEL 1
REMARK VINA RESULT:      -7.4      0.000      0.000
REMARK  9 active torsions:
REMARK  status: ('A' for Active; 'I' for Inactive)
REMARK    1  A    between atoms: C_1  and  C_2 
REMARK    2  A    between atoms: C_12  and  C_13 
REMARK    3  A    between atoms: C_13  and  C_14 
REMARK    4  A    between atoms: C_14  and  C_15 
REMARK       I    between atoms: C_15  and  N_17 
REMARK       I    between atoms: N_17  and  CA_18 
REMARK    5  A    between atoms: CA_18  and  CB_20 
REMARK       I    between atoms: CA_18  and  C_23 
REMARK    6  A    between atoms: CB_20  and  CG1_21 
REMARK    7  A    between atoms: CB_20  and  CG2_22 
REMARK    8  A    between atoms: C_26  and  C_34 
REMARK    9  A    between atoms: C_27  and  C_28 
ROOT
ATOM      1  C   UNK d   0       5.415  -1.512  -3.365  0.00  0.00    -0.030 A 
ATOM      2  C   UNK d   0       6.675  -1.986  -3.943  0.00  0.00     0.022 A 
ATOM      3  C   UNK d   0       6.888  -3.346  -4.177  0.00  0.00    -0.040 A 
ATOM      4  C   UNK d   0       8.091  -3.760  -4.724  0.00  0.00     0.029 A 
ATOM      5  C   UNK d   0       9.092  -2.823  -5.044  0.00  0.00     0.139 A 
ATOM      6  C   UNK d   0       8.874  -1.473  -4.811  0.00  0.00     0.024 A 
ATOM      7  C   UNK d   0       7.676  -1.047  -4.264  0.00  0.00     0.143 A 
ATOM      8  O   UNK d   0       7.459   0.268  -4.033  0.00  0.00    -0.422 OA
ATOM      9  C   UNK d   0       6.307   0.706  -3.504  0.00  0.00     0.341 A 
ATOM     10  O   UNK d   0       6.157   1.899  -3.315  0.00  0.00    -0.245 OA
ATOM     11  C   UNK d   0       5.263  -0.180  -3.160  0.00  0.00     0.041 A 
ATOM     12  O   UNK d   0      10.137  -3.508  -5.554  0.00  0.00    -0.459 OA
ATOM     13  C   UNK d   0       9.884  -4.827  -5.588  0.00  0.00     0.111 A 
ATOM     14  C   UNK d   0       8.650  -5.074  -5.096  0.00  0.00     0.030 A 
ATOM     15  H   UNK d   0       6.123  -4.068  -3.932  0.00  0.00     0.063 H 
ATOM     16  H   UNK d   0       9.642  -0.753  -5.055  0.00  0.00     0.069 H 
ENDROOT
BRANCH  11  17
ATOM     17  C   UNK d   0       3.984   0.354  -2.568  0.00  0.00    -0.012 C 
ATOM     18  H   UNK d   0       3.323  -0.477  -2.321  0.00  0.00     0.032 H 
ATOM     19  H   UNK d   0       4.211   0.919  -1.663  0.00  0.00     0.032 H 
BRANCH  17  20
ATOM     20  C   UNK d   0       3.296   1.270  -3.582  0.00  0.00     0.028 C 
ATOM     21  H   UNK d   0       2.432   1.744  -3.115  0.00  0.00     0.036 H 
ATOM     22  H   UNK d   0       3.996   2.037  -3.912  0.00  0.00     0.036 H 
BRANCH  20  23
ATOM     23  C   UNK d   0       2.844   0.458  -4.768  0.00  0.00     0.214 C 
ATOM     24  O   UNK d   0       2.047  -0.443  -4.616  0.00  0.00    -0.276 OA
ATOM     25  N   VAL d   1       3.324   0.734  -5.996  0.00  0.00    -0.307 N 
ATOM     26  CA  VAL d   1       2.885  -0.056  -7.149  0.00  0.00     0.065 C 
ATOM     27  H   VAL d   1       3.962   1.455  -6.117  0.00  0.00     0.149 HD
ATOM     28  HA  VAL d   1       1.838  -0.336  -7.020  0.00  0.00     0.056 H 
ATOM     29  C   VAL d   1       3.727  -1.301  -7.256  0.00  0.00     0.062 C 
ATOM     30  O   VAL d   1       4.605  -1.507  -6.452  0.00  0.00    -0.548 OA
ATOM     31  OXT VAL d   1       3.503  -2.180  -8.245  0.00  0.00    -0.548 OA
BRANCH  26  32
ATOM     32  CB  VAL d   1       3.038   0.774  -8.425  0.00  0.00    -0.023 C 
ATOM     33  HB  VAL d   1       4.054   0.668  -8.807  0.00  0.00     0.032 H 
BRANCH  32  34
ATOM     34  CG1 VAL d   1       2.044   0.279  -9.478  0.00  0.00    -0.061 C 
ATOM     35 1HG1 VAL d   1       2.589  -0.078 -10.352  0.00  0.00     0.023 H 
ATOM     36 2HG1 VAL d   1       1.450  -0.535  -9.063  0.00  0.00     0.023 H 
ATOM     37 3HG1 VAL d   1       1.386   1.097  -9.768  0.00  0.00     0.023 H 
ENDBRANCH  32  34
BRANCH  32  38
ATOM     38  CG2 VAL d   1       2.760   2.246  -8.113  0.00  0.00    -0.061 C 
ATOM     39 1HG2 VAL d   1       1.797   2.335  -7.610  0.00  0.00     0.023 H 
ATOM     40 2HG2 VAL d   1       3.545   2.634  -7.465  0.00  0.00     0.023 H 
ATOM     41 3HG2 VAL d   1       2.741   2.816  -9.041  0.00  0.00     0.023 H 
ENDBRANCH  32  38
ENDBRANCH  26  32
ENDBRANCH  20  23
ENDBRANCH  17  20
ENDBRANCH  11  17
BRANCH   1  42
ATOM     42  C   UNK d   0       4.315  -2.480  -3.006  0.00  0.00    -0.039 C 
ATOM     43  H   UNK d   0       3.770  -2.760  -3.907  0.00  0.00     0.028 H 
ATOM     44  H   UNK d   0       4.750  -3.371  -2.552  0.00  0.00     0.028 H 
ATOM     45  H   UNK d   0       3.633  -2.009  -2.299  0.00  0.00     0.028 H 
ENDBRANCH   1  42
BRANCH  14  46
ATOM     46  C   UNK d   0       7.991  -6.396  -4.961  0.00  0.00    -0.014 A 
ATOM     47  C   UNK d   0       8.473  -7.326  -4.041  0.00  0.00    -0.054 A 
ATOM     48  C   UNK d   0       7.856  -8.555  -3.919  0.00  0.00    -0.061 A 
ATOM     49  H   UNK d   0       9.327  -7.087  -3.426  0.00  0.00     0.062 H 
ATOM     50  C   UNK d   0       6.761  -8.863  -4.706  0.00  0.00    -0.062 A 
ATOM     51  H   UNK d   0       8.228  -9.276  -3.207  0.00  0.00     0.062 H 
ATOM     52  C   UNK d   0       6.279  -7.944  -5.620  0.00  0.00    -0.061 A 
ATOM     53  H   UNK d   0       6.282  -9.826  -4.607  0.00  0.00     0.062 H 
ATOM     54  C   UNK d   0       6.884  -6.710  -5.748  0.00  0.00    -0.054 A 
ATOM     55  H   UNK d   0       5.424  -8.190  -6.232  0.00  0.00     0.062 H 
ATOM     56  H   UNK d   0       6.504  -5.991  -6.458  0.00  0.00     0.062 H 
ENDBRANCH  14  46
BRANCH  13  57
ATOM     57  C   UNK d   0      10.838  -5.876  -6.098  0.00  0.00    -0.006 C 
ATOM     58  H   UNK d   0      11.178  -5.604  -7.097  0.00  0.00     0.031 H 
ATOM     59  H   UNK d   0      11.695  -5.944  -5.428  0.00  0.00     0.031 H 
ATOM     60  H   UNK d   0      10.330  -6.840  -6.138  0.00  0.00     0.031 H 
ENDBRANCH  13  57
TORSDOF 11
ENDMDL
MODEL 2
REMARK VINA RESULT:      -7.3      7.445     11.480
REMARK  9 active torsions:
REMARK  status: ('A' for Active; 'I' for Inactive)
REMARK    1  A    between atoms: C_1  and  C_2 
REMARK    2  A    between atoms: C_12  and  C_13 
REMARK    3  A    between atoms: C_13  and  C_14 
REMARK    4  A    between atoms: C_14  and  C_15 
REMARK       I    between atoms: C_15  and  N_17 
REMARK       I    between atoms: N_17  and  CA_18 
REMARK    5  A    between atoms: CA_18  and  CB_20 
REMARK       I    between atoms: CA_18  and  C_23 
REMARK    6  A    between atoms: CB_20  and  CG1_21 
REMARK    7  A    between atoms: CB_20  and  CG2_22 
REMARK    8  A    between atoms: C_26  and  C_34 
REMARK    9  A    between atoms: C_27  and  C_28 
ROOT
ATOM      1  C   UNK d   0       9.650   4.983  -4.994  0.00  0.00    -0.030 A 
ATOM      2  C   UNK d   0       9.709   6.151  -5.878  0.00  0.00     0.022 A 
ATOM      3  C   UNK d   0       9.810   7.440  -5.353  0.00  0.00    -0.040 A 
ATOM      4  C   UNK d   0       9.863   8.523  -6.216  0.00  0.00     0.029 A 
ATOM      5  C   UNK d   0       9.816   8.329  -7.610  0.00  0.00     0.139 A 
ATOM      6  C   UNK d   0       9.716   7.045  -8.126  0.00  0.00     0.024 A 
ATOM      7  C   UNK d   0       9.662   5.956  -7.273  0.00  0.00     0.143 A 
ATOM      8  O   UNK d   0       9.563   4.703  -7.771  0.00  0.00    -0.422 OA
ATOM      9  C   UNK d   0       9.509   3.631  -6.965  0.00  0.00     0.341 A 
ATOM     10  O   UNK d   0       9.421   2.522  -7.460  0.00  0.00    -0.245 OA
ATOM     11  C   UNK d   0       9.552   3.754  -5.561  0.00  0.00     0.041 A 
ATOM     12  O   UNK d   0       9.885   9.546  -8.188  0.00  0.00    -0.459 OA
ATOM     13  C   UNK d   0       9.974  10.519  -7.265  0.00  0.00     0.111 A 
ATOM     14  C   UNK d   0       9.967   9.982  -6.025  0.00  0.00     0.030 A 
ATOM     15  H   UNK d   0       9.847   7.593  -4.284  0.00  0.00     0.063 H 
ATOM     16  H   UNK d   0       9.678   6.895  -9.195  0.00  0.00     0.069 H 
ENDROOT
BRANCH  11  17
ATOM     17  C   UNK d   0       9.488   2.524  -4.692  0.00  0.00    -0.012 C 
ATOM     18  H   UNK d   0       9.522   1.633  -5.320  0.00  0.00     0.032 H 
ATOM     19  H   UNK d   0      10.336   2.518  -4.008  0.00  0.00     0.032 H 
BRANCH  17  20
ATOM     20  C   UNK d   0       8.185   2.533  -3.890  0.00  0.00     0.028 C 
ATOM     21  H   UNK d   0       8.403   2.761  -2.846  0.00  0.00     0.036 H 
ATOM     22  H   UNK d   0       7.515   3.291  -4.295  0.00  0.00     0.036 H 
BRANCH  20  23
ATOM     23  C   UNK d   0       7.528   1.180  -3.982  0.00  0.00     0.214 C 
ATOM     24  O   UNK d   0       8.169   0.220  -4.353  0.00  0.00    -0.276 OA
ATOM     25  N   VAL d   1       6.230   1.037  -3.651  0.00  0.00    -0.307 N 
ATOM     26  CA  VAL d   1       5.591  -0.278  -3.740  0.00  0.00     0.065 C 
ATOM     27  H   VAL d   1       5.717   1.806  -3.353  0.00  0.00     0.149 HD
ATOM     28  HA  VAL d   1       6.313  -1.051  -3.473  0.00  0.00     0.056 H 
ATOM     29  C   VAL d   1       5.108  -0.508  -5.149  0.00  0.00     0.062 C 
ATOM     30  O   VAL d   1       5.280   0.341  -5.992  0.00  0.00    -0.548 OA
ATOM     31  OXT VAL d   1       4.488  -1.654  -5.468  0.00  0.00    -0.548 OA
BRANCH  26  32
ATOM     32  CB  VAL d   1       4.403  -0.335  -2.779  0.00  0.00    -0.023 C 
ATOM     33  HB  VAL d   1       3.474  -0.276  -3.346  0.00  0.00     0.032 H 
BRANCH  32  34
ATOM     34  CG1 VAL d   1       4.440  -1.652  -2.000  0.00  0.00    -0.061 C 
ATOM     35 1HG1 VAL d   1       4.317  -1.448  -0.936  0.00  0.00     0.023 H 
ATOM     36 2HG1 VAL d   1       3.633  -2.299  -2.340  0.00  0.00     0.023 H 
ATOM     37 3HG1 VAL d   1       5.397  -2.145  -2.167  0.00  0.00     0.023 H 
ENDBRANCH  32  34
BRANCH  32  38
ATOM     38  CG2 VAL d   1       4.480   0.839  -1.801  0.00  0.00    -0.061 C 
ATOM     39 1HG2 VAL d   1       4.396   0.467  -0.779  0.00  0.00     0.023 H 
ATOM     40 2HG2 VAL d   1       5.434   1.351  -1.923  0.00  0.00     0.023 H 
ATOM     41 3HG2 VAL d   1       3.666   1.534  -2.004  0.00  0.00     0.023 H 
ENDBRANCH  32  38
ENDBRANCH  26  32
ENDBRANCH  20  23
ENDBRANCH  17  20
ENDBRANCH  11  17
BRANCH   1  42
ATOM     42  C   UNK d   0       9.697   5.143  -3.495  0.00  0.00    -0.039 C 
ATOM     43  H   UNK d   0      10.674   5.525  -3.202  0.00  0.00     0.028 H 
ATOM     44  H   UNK d   0       8.923   5.844  -3.180  0.00  0.00     0.028 H 
ATOM     45  H   UNK d   0       9.526   4.176  -3.022  0.00  0.00     0.028 H 
ENDBRANCH   1  42
BRANCH  14  46
ATOM     46  C   UNK d   0      10.049  10.711  -4.736  0.00  0.00    -0.014 A 
ATOM     47  C   UNK d   0       8.905  11.282  -4.181  0.00  0.00    -0.054 A 
ATOM     48  C   UNK d   0       8.986  11.959  -2.982  0.00  0.00    -0.061 A 
ATOM     49  H   UNK d   0       7.956  11.195  -4.689  0.00  0.00     0.062 H 
ATOM     50  C   UNK d   0      10.201  12.070  -2.329  0.00  0.00    -0.062 A 
ATOM     51  H   UNK d   0       8.101  12.401  -2.551  0.00  0.00     0.062 H 
ATOM     52  C   UNK d   0      11.340  11.507  -2.874  0.00  0.00    -0.061 A 
ATOM     53  H   UNK d   0      10.260  12.602  -1.390  0.00  0.00     0.062 H 
ATOM     54  C   UNK d   0      11.270  10.823  -4.071  0.00  0.00    -0.054 A 
ATOM     55  H   UNK d   0      12.286  11.597  -2.361  0.00  0.00     0.062 H 
ATOM     56  H   UNK d   0      12.158  10.378  -4.494  0.00  0.00     0.062 H 
ENDBRANCH  14  46
BRANCH  13  57
ATOM     57  C   UNK d   0      10.067  11.991  -7.569  0.00  0.00    -0.006 C 
ATOM     58  H   UNK d   0       9.405  12.543  -6.903  0.00  0.00     0.031 H 
ATOM     59  H   UNK d   0      11.094  12.328  -7.423  0.00  0.00     0.031 H 
ATOM     60  H   UNK d   0       9.771  12.168  -8.604  0.00  0.00     0.031 H 
ENDBRANCH  13  57
TORSDOF 11
ENDMDL
MODEL 3
REMARK VINA RESULT:      -7.3      3.469      6.824
REMARK  9 active torsions:
REMARK  status: ('A' for Active; 'I' for Inactive)
REMARK    1  A    between atoms: C_1  and  C_2 
REMARK    2  A    between atoms: C_12  and  C_13 
REMARK    3  A    between atoms: C_13  and  C_14 
REMARK    4  A    between atoms: C_14  and  C_15 
REMARK       I    between atoms: C_15  and  N_17 
REMARK       I    between atoms: N_17  and  CA_18 
REMARK    5  A    between atoms: CA_18  and  CB_20 
REMARK       I    between atoms: CA_18  and  C_23 
REMARK    6  A    between atoms: CB_20  and  CG1_21 
REMARK    7  A    between atoms: CB_20  and  CG2_22 
REMARK    8  A    between atoms: C_26  and  C_34 
REMARK    9  A    between atoms: C_27  and  C_28 
ROOT
ATOM      1  C   UNK d   0       5.858   0.319  -3.270  0.00  0.00    -0.030 A 
ATOM      2  C   UNK d   0       7.200   0.477  -3.838  0.00  0.00     0.022 A 
ATOM      3  C   UNK d   0       7.869   1.699  -3.763  0.00  0.00    -0.040 A 
ATOM      4  C   UNK d   0       9.136   1.815  -4.310  0.00  0.00     0.029 A 
ATOM      5  C   UNK d   0       9.748   0.712  -4.936  0.00  0.00     0.139 A 
ATOM      6  C   UNK d   0       9.079  -0.502  -5.006  0.00  0.00     0.024 A 
ATOM      7  C   UNK d   0       7.812  -0.629  -4.463  0.00  0.00     0.143 A 
ATOM      8  O   UNK d   0       7.155  -1.808  -4.531  0.00  0.00    -0.422 OA
ATOM      9  C   UNK d   0       5.927  -1.957  -4.012  0.00  0.00     0.341 A 
ATOM     10  O   UNK d   0       5.375  -3.039  -4.097  0.00  0.00    -0.245 OA
ATOM     11  C   UNK d   0       5.257  -0.893  -3.372  0.00  0.00     0.041 A 
ATOM     12  O   UNK d   0      10.961   1.116  -5.368  0.00  0.00    -0.459 OA
ATOM     13  C   UNK d   0      11.180   2.406  -5.066  0.00  0.00     0.111 A 
ATOM     14  C   UNK d   0      10.111   2.917  -4.415  0.00  0.00     0.030 A 
ATOM     15  H   UNK d   0       7.402   2.548  -3.283  0.00  0.00     0.063 H 
ATOM     16  H   UNK d   0       9.547  -1.348  -5.487  0.00  0.00     0.069 H 
ENDROOT
BRANCH  11  17
ATOM     17  C   UNK d   0       3.877  -1.103  -2.803  0.00  0.00    -0.012 C 
ATOM     18  H   UNK d   0       3.872  -1.998  -2.181  0.00  0.00     0.032 H 
ATOM     19  H   UNK d   0       3.598  -0.239  -2.200  0.00  0.00     0.032 H 
BRANCH  17  20
ATOM     20  C   UNK d   0       2.874  -1.271  -3.947  0.00  0.00     0.028 C 
ATOM     21  H   UNK d   0       2.929  -2.290  -4.331  0.00  0.00     0.036 H 
ATOM     22  H   UNK d   0       1.867  -1.076  -3.579  0.00  0.00     0.036 H 
BRANCH  20  23
ATOM     23  C   UNK d   0       3.203  -0.300  -5.051  0.00  0.00     0.214 C 
ATOM     24  O   UNK d   0       2.857   0.859  -4.961  0.00  0.00    -0.276 OA
ATOM     25  N   VAL d   1       3.881  -0.718  -6.138  0.00  0.00    -0.307 N 
ATOM     26  CA  VAL d   1       4.200   0.227  -7.211  0.00  0.00     0.065 C 
ATOM     27  H   VAL d   1       4.158  -1.646  -6.209  0.00  0.00     0.149 HD
ATOM     28  HA  VAL d   1       4.405   1.208  -6.782  0.00  0.00     0.056 H 
ATOM     29  C   VAL d   1       3.031   0.326  -8.157  0.00  0.00     0.062 C 
ATOM     30  O   VAL d   1       2.034  -0.325  -7.955  0.00  0.00    -0.548 OA
ATOM     31  OXT VAL d   1       3.098   1.138  -9.223  0.00  0.00    -0.548 OA
BRANCH  26  32
ATOM     32  CB  VAL d   1       5.433  -0.264  -7.973  0.00  0.00    -0.023 C 
ATOM     33  HB  VAL d   1       5.255  -0.175  -9.046  0.00  0.00     0.032 H 
BRANCH  32  34
ATOM     34  CG1 VAL d   1       6.644   0.586  -7.586  0.00  0.00    -0.061 C 
ATOM     35 1HG1 VAL d   1       7.055   0.224  -6.643  0.00  0.00     0.023 H 
ATOM     36 2HG1 VAL d   1       7.403   0.515  -8.364  0.00  0.00     0.023 H 
ATOM     37 3HG1 VAL d   1       6.337   1.625  -7.472  0.00  0.00     0.023 H 
ENDBRANCH  32  34
BRANCH  32  38
ATOM     38  CG2 VAL d   1       5.702  -1.728  -7.620  0.00  0.00    -0.061 C 
ATOM     39 1HG2 VAL d   1       5.228  -2.373  -8.360  0.00  0.00     0.023 H 
ATOM     40 2HG2 VAL d   1       6.776  -1.909  -7.616  0.00  0.00     0.023 H 
ATOM     41 3HG2 VAL d   1       5.294  -1.944  -6.633  0.00  0.00     0.023 H 
ENDBRANCH  32  38
ENDBRANCH  26  32
ENDBRANCH  20  23
ENDBRANCH  17  20
ENDBRANCH  11  17
BRANCH   1  42
ATOM     42  C   UNK d   0       5.164   1.473  -2.591  0.00  0.00    -0.039 C 
ATOM     43  H   UNK d   0       5.164   1.313  -1.514  0.00  0.00     0.028 H 
ATOM     44  H   UNK d   0       5.691   2.399  -2.821  0.00  0.00     0.028 H 
ATOM     45  H   UNK d   0       4.137   1.540  -2.950  0.00  0.00     0.028 H 
ENDBRANCH   1  42
BRANCH  14  46
ATOM     46  C   UNK d   0       9.952   4.302  -3.909  0.00  0.00    -0.014 A 
ATOM     47  C   UNK d   0      10.259   4.601  -2.582  0.00  0.00    -0.054 A 
ATOM     48  C   UNK d   0      10.110   5.891  -2.115  0.00  0.00    -0.061 A 
ATOM     49  H   UNK d   0      10.612   3.824  -1.920  0.00  0.00     0.062 H 
ATOM     50  C   UNK d   0       9.659   6.887  -2.963  0.00  0.00    -0.062 A 
ATOM     51  H   UNK d   0      10.347   6.124  -1.088  0.00  0.00     0.062 H 
ATOM     52  C   UNK d   0       9.353   6.597  -4.280  0.00  0.00    -0.061 A 
ATOM     53  H   UNK d   0       9.544   7.896  -2.593  0.00  0.00     0.062 H 
ATOM     54  C   UNK d   0       9.503   5.311  -4.759  0.00  0.00    -0.054 A 
ATOM     55  H   UNK d   0       9.000   7.378  -4.936  0.00  0.00     0.062 H 
ATOM     56  H   UNK d   0       9.269   5.086  -5.788  0.00  0.00     0.062 H 
ENDBRANCH  14  46
BRANCH  13  57
ATOM     57  C   UNK d   0      12.433   3.172  -5.403  0.00  0.00    -0.006 C 
ATOM     58  H   UNK d   0      13.268   2.775  -4.827  0.00  0.00     0.031 H 
ATOM     59  H   UNK d   0      12.645   3.071  -6.468  0.00  0.00     0.031 H 
ATOM     60  H   UNK d   0      12.292   4.225  -5.159  0.00  0.00     0.031 H 
ENDBRANCH  13  57
TORSDOF 11
ENDMDL
MODEL 4
REMARK VINA RESULT:      -7.2      2.662      6.007
REMARK  9 active torsions:
REMARK  status: ('A' for Active; 'I' for Inactive)
REMARK    1  A    between atoms: C_1  and  C_2 
REMARK    2  A    between atoms: C_12  and  C_13 
REMARK    3  A    between atoms: C_13  and  C_14 
REMARK    4  A    between atoms: C_14  and  C_15 
REMARK       I    between atoms: C_15  and  N_17 
REMARK       I    between atoms: N_17  and  CA_18 
REMARK    5  A    between atoms: CA_18  and  CB_20 
REMARK       I    between atoms: CA_18  and  C_23 
REMARK    6  A    between atoms: CB_20  and  CG1_21 
REMARK    7  A    between atoms: CB_20  and  CG2_22 
REMARK    8  A    between atoms: C_26  and  C_34 
REMARK    9  A    between atoms: C_27  and  C_28 
ROOT
ATOM      1  C   UNK d   0       5.346  -4.800  -6.566  0.00  0.00    -0.030 A 
ATOM      2  C   UNK d   0       5.046  -6.226  -6.721  0.00  0.00     0.022 A 
ATOM      3  C   UNK d   0       5.400  -7.143  -5.730  0.00  0.00    -0.040 A 
ATOM      4  C   UNK d   0       5.103  -8.484  -5.908  0.00  0.00     0.029 A 
ATOM      5  C   UNK d   0       4.450  -8.923  -7.076  0.00  0.00     0.139 A 
ATOM      6  C   UNK d   0       4.099  -8.007  -8.057  0.00  0.00     0.024 A 
ATOM      7  C   UNK d   0       4.391  -6.664  -7.891  0.00  0.00     0.143 A 
ATOM      8  O   UNK d   0       4.054  -5.768  -8.845  0.00  0.00    -0.422 OA
ATOM      9  C   UNK d   0       4.326  -4.461  -8.706  0.00  0.00     0.341 A 
ATOM     10  O   UNK d   0       4.001  -3.692  -9.593  0.00  0.00    -0.245 OA
ATOM     11  C   UNK d   0       4.978  -3.955  -7.562  0.00  0.00     0.041 A 
ATOM     12  O   UNK d   0       4.295 -10.260  -6.972  0.00  0.00    -0.459 OA
ATOM     13  C   UNK d   0       4.802 -10.720  -5.817  0.00  0.00     0.111 A 
ATOM     14  C   UNK d   0       5.320  -9.699  -5.099  0.00  0.00     0.030 A 
ATOM     15  H   UNK d   0       5.901  -6.810  -4.833  0.00  0.00     0.063 H 
ATOM     16  H   UNK d   0       3.599  -8.343  -8.954  0.00  0.00     0.069 H 
ENDROOT
BRANCH  11  17
ATOM     17  C   UNK d   0       5.265  -2.480  -7.447  0.00  0.00    -0.012 C 
ATOM     18  H   UNK d   0       6.125  -2.327  -6.795  0.00  0.00     0.032 H 
ATOM     19  H   UNK d   0       5.481  -2.074  -8.435  0.00  0.00     0.032 H 
BRANCH  17  20
ATOM     20  C   UNK d   0       4.045  -1.767  -6.859  0.00  0.00     0.028 C 
ATOM     21  H   UNK d   0       3.435  -1.364  -7.668  0.00  0.00     0.036 H 
ATOM     22  H   UNK d   0       3.456  -2.476  -6.278  0.00  0.00     0.036 H 
BRANCH  20  23
ATOM     23  C   UNK d   0       4.502  -0.643  -5.966  0.00  0.00     0.214 C 
ATOM     24  O   UNK d   0       4.518   0.495  -6.385  0.00  0.00    -0.276 OA
ATOM     25  N   VAL d   1       4.892  -0.901  -4.702  0.00  0.00    -0.307 N 
ATOM     26  CA  VAL d   1       5.335   0.192  -3.834  0.00  0.00     0.065 C 
ATOM     27  H   VAL d   1       4.878  -1.812  -4.367  0.00  0.00     0.149 HD
ATOM     28  HA  VAL d   1       4.757   1.090  -4.056  0.00  0.00     0.056 H 
ATOM     29  C   VAL d   1       6.798   0.464  -4.076  0.00  0.00     0.062 C 
ATOM     30  O   VAL d   1       7.407  -0.189  -4.890  0.00  0.00    -0.548 OA
ATOM     31  OXT VAL d   1       7.424   1.431  -3.387  0.00  0.00    -0.548 OA
BRANCH  26  32
ATOM     32  CB  VAL d   1       5.125  -0.201  -2.370  0.00  0.00    -0.023 C 
ATOM     33  HB  VAL d   1       6.093  -0.376  -1.899  0.00  0.00     0.032 H 
BRANCH  32  34
ATOM     34  CG1 VAL d   1       4.400   0.930  -1.638  0.00  0.00    -0.061 C 
ATOM     35 1HG1 VAL d   1       3.779   0.510  -0.846  0.00  0.00     0.023 H 
ATOM     36 2HG1 VAL d   1       5.131   1.610  -1.203  0.00  0.00     0.023 H 
ATOM     37 3HG1 VAL d   1       3.771   1.474  -2.343  0.00  0.00     0.023 H 
ENDBRANCH  32  34
BRANCH  32  38
ATOM     38  CG2 VAL d   1       4.285  -1.477  -2.300  0.00  0.00    -0.061 C 
ATOM     39 1HG2 VAL d   1       4.783  -2.205  -1.658  0.00  0.00     0.023 H 
ATOM     40 2HG2 VAL d   1       3.303  -1.243  -1.889  0.00  0.00     0.023 H 
ATOM     41 3HG2 VAL d   1       4.171  -1.892  -3.300  0.00  0.00     0.023 H 
ENDBRANCH  32  38
ENDBRANCH  26  32
ENDBRANCH  20  23
ENDBRANCH  17  20
ENDBRANCH  11  17
BRANCH   1  42
ATOM     42  C   UNK d   0       6.044  -4.285  -5.333  0.00  0.00    -0.039 C 
ATOM     43  H   UNK d   0       7.016  -4.768  -5.238  0.00  0.00     0.028 H 
ATOM     44  H   UNK d   0       6.181  -3.207  -5.417  0.00  0.00     0.028 H 
ATOM     45  H   UNK d   0       5.439  -4.507  -4.454  0.00  0.00     0.028 H 
ENDBRANCH   1  42
BRANCH  14  46
ATOM     46  C   UNK d   0       5.972  -9.782  -3.770  0.00  0.00    -0.014 A 
ATOM     47  C   UNK d   0       5.309 -10.386  -2.702  0.00  0.00    -0.054 A 
ATOM     48  C   UNK d   0       5.920 -10.462  -1.468  0.00  0.00    -0.061 A 
ATOM     49  H   UNK d   0       4.319 -10.794  -2.841  0.00  0.00     0.062 H 
ATOM     50  C   UNK d   0       7.189  -9.941  -1.288  0.00  0.00    -0.062 A 
ATOM     51  H   UNK d   0       5.408 -10.930  -0.640  0.00  0.00     0.062 H 
ATOM     52  C   UNK d   0       7.852  -9.341  -2.343  0.00  0.00    -0.061 A 
ATOM     53  H   UNK d   0       7.664 -10.003  -0.320  0.00  0.00     0.062 H 
ATOM     54  C   UNK d   0       7.253  -9.264  -3.584  0.00  0.00    -0.054 A 
ATOM     55  H   UNK d   0       8.842  -8.935  -2.197  0.00  0.00     0.062 H 
ATOM     56  H   UNK d   0       7.773  -8.800  -4.409  0.00  0.00     0.062 H 
ENDBRANCH  14  46
BRANCH  13  57
ATOM     57  C   UNK d   0       4.794 -12.163  -5.385  0.00  0.00    -0.006 C 
ATOM     58  H   UNK d   0       4.852 -12.218  -4.298  0.00  0.00     0.031 H 
ATOM     59  H   UNK d   0       3.874 -12.640  -5.724  0.00  0.00     0.031 H 
ATOM     60  H   UNK d   0       5.651 -12.677  -5.820  0.00  0.00     0.031 H 
ENDBRANCH  13  57
TORSDOF 11
ENDMDL
MODEL 5
REMARK VINA RESULT:      -7.1      5.987      9.770
REMARK  9 active torsions:
REMARK  status: ('A' for Active; 'I' for Inactive)
REMARK    1  A    between atoms: C_1  and  C_2 
REMARK    2  A    between atoms: C_12  and  C_13 
REMARK    3  A    between atoms: C_13  and  C_14 
REMARK    4  A    between atoms: C_14  and  C_15 
REMARK       I    between atoms: C_15  and  N_17 
REMARK       I    between atoms: N_17  and  CA_18 
REMARK    5  A    between atoms: CA_18  and  CB_20 
REMARK       I    between atoms: CA_18  and  C_23 
REMARK    6  A    between atoms: CB_20  and  CG1_21 
REMARK    7  A    between atoms: CB_20  and  CG2_22 
REMARK    8  A    between atoms: C_26  and  C_34 
REMARK    9  A    between atoms: C_27  and  C_28 
ROOT
ATOM      1  C   UNK d   0       9.214   2.841  -5.289  0.00  0.00    -0.030 A 
ATOM      2  C   UNK d   0       9.583   4.232  -5.566  0.00  0.00     0.022 A 
ATOM      3  C   UNK d   0       9.885   5.112  -4.526  0.00  0.00    -0.040 A 
ATOM      4  C   UNK d   0      10.230   6.421  -4.823  0.00  0.00     0.029 A 
ATOM      5  C   UNK d   0      10.277   6.863  -6.159  0.00  0.00     0.139 A 
ATOM      6  C   UNK d   0       9.977   5.983  -7.189  0.00  0.00     0.024 A 
ATOM      7  C   UNK d   0       9.631   4.673  -6.904  0.00  0.00     0.143 A 
ATOM      8  O   UNK d   0       9.336   3.812  -7.904  0.00  0.00    -0.422 OA
ATOM      9  C   UNK d   0       8.998   2.538  -7.655  0.00  0.00     0.341 A 
ATOM     10  O   UNK d   0       8.742   1.799  -8.588  0.00  0.00    -0.245 OA
ATOM     11  C   UNK d   0       8.932   2.030  -6.340  0.00  0.00     0.041 A 
ATOM     12  O   UNK d   0      10.636   8.164  -6.140  0.00  0.00    -0.459 OA
ATOM     13  C   UNK d   0      10.827   8.598  -4.883  0.00  0.00     0.111 A 
ATOM     14  C   UNK d   0      10.599   7.594  -4.007  0.00  0.00     0.030 A 
ATOM     15  H   UNK d   0       9.850   4.777  -3.500  0.00  0.00     0.063 H 
ATOM     16  H   UNK d   0      10.011   6.322  -8.214  0.00  0.00     0.069 H 
ENDROOT
BRANCH  11  17
ATOM     17  C   UNK d   0       8.547   0.592  -6.104  0.00  0.00    -0.012 C 
ATOM     18  H   UNK d   0       9.052  -0.043  -6.831  0.00  0.00     0.032 H 
ATOM     19  H   UNK d   0       8.843   0.298  -5.097  0.00  0.00     0.032 H 
BRANCH  17  20
ATOM     20  C   UNK d   0       7.033   0.438  -6.255  0.00  0.00     0.028 C 
ATOM     21  H   UNK d   0       6.585   1.414  -6.447  0.00  0.00     0.036 H 
ATOM     22  H   UNK d   0       6.818  -0.230  -7.089  0.00  0.00     0.036 H 
BRANCH  20  23
ATOM     23  C   UNK d   0       6.456  -0.139  -4.988  0.00  0.00     0.214 C 
ATOM     24  O   UNK d   0       7.185  -0.676  -4.181  0.00  0.00    -0.276 OA
ATOM     25  N   VAL d   1       5.132  -0.057  -4.751  0.00  0.00    -0.307 N 
ATOM     26  CA  VAL d   1       4.572  -0.618  -3.519  0.00  0.00     0.065 C 
ATOM     27  H   VAL d   1       4.549   0.374  -5.397  0.00  0.00     0.149 HD
ATOM     28  HA  VAL d   1       5.284  -0.485  -2.703  0.00  0.00     0.056 H 
ATOM     29  C   VAL d   1       4.300  -2.087  -3.714  0.00  0.00     0.062 C 
ATOM     30  O   VAL d   1       4.549  -2.612  -4.774  0.00  0.00    -0.548 OA
ATOM     31  OXT VAL d   1       3.782  -2.813  -2.711  0.00  0.00    -0.548 OA
BRANCH  26  32
ATOM     32  CB  VAL d   1       3.266   0.102  -3.178  0.00  0.00    -0.023 C 
ATOM     33  HB  VAL d   1       2.661  -0.533  -2.530  0.00  0.00     0.032 H 
BRANCH  32  34
ATOM     34  CG1 VAL d   1       3.579   1.414  -2.457  0.00  0.00    -0.061 C 
ATOM     35 1HG1 VAL d   1       4.387   1.252  -1.743  0.00  0.00     0.023 H 
ATOM     36 2HG1 VAL d   1       3.884   2.165  -3.185  0.00  0.00     0.023 H 
ATOM     37 3HG1 VAL d   1       2.691   1.759  -1.929  0.00  0.00     0.023 H 
ENDBRANCH  32  34
BRANCH  32  38
ATOM     38  CG2 VAL d   1       2.495   0.398  -4.466  0.00  0.00    -0.061 C 
ATOM     39 1HG2 VAL d   1       1.624  -0.255  -4.527  0.00  0.00     0.023 H 
ATOM     40 2HG2 VAL d   1       2.170   1.437  -4.464  0.00  0.00     0.023 H 
ATOM     41 3HG2 VAL d   1       3.142   0.222  -5.325  0.00  0.00     0.023 H 
ENDBRANCH  32  38
ENDBRANCH  26  32
ENDBRANCH  20  23
ENDBRANCH  17  20
ENDBRANCH  11  17
BRANCH   1  42
ATOM     42  C   UNK d   0       9.151   2.324  -3.874  0.00  0.00    -0.039 C 
ATOM     43  H   UNK d   0      10.061   1.771  -3.648  0.00  0.00     0.028 H 
ATOM     44  H   UNK d   0       9.056   3.164  -3.184  0.00  0.00     0.028 H 
ATOM     45  H   UNK d   0       8.288   1.666  -3.766  0.00  0.00     0.028 H 
ENDBRANCH   1  42
BRANCH  14  46
ATOM     46  C   UNK d   0      10.701   7.659  -2.529  0.00  0.00    -0.014 A 
ATOM     47  C   UNK d   0       9.703   8.289  -1.786  0.00  0.00    -0.054 A 
ATOM     48  C   UNK d   0       9.802   8.346  -0.411  0.00  0.00    -0.061 A 
ATOM     49  H   UNK d   0       8.855   8.732  -2.286  0.00  0.00     0.062 H 
ATOM     50  C   UNK d   0      10.888   7.778   0.230  0.00  0.00    -0.062 A 
ATOM     51  H   UNK d   0       9.030   8.833   0.165  0.00  0.00     0.062 H 
ATOM     52  C   UNK d   0      11.881   7.152  -0.501  0.00  0.00    -0.061 A 
ATOM     53  H   UNK d   0      10.961   7.825   1.307  0.00  0.00     0.062 H 
ATOM     54  C   UNK d   0      11.790   7.084  -1.877  0.00  0.00    -0.054 A 
ATOM     55  H   UNK d   0      12.727   6.711   0.005  0.00  0.00     0.062 H 
ATOM     56  H   UNK d   0      12.563   6.590  -2.447  0.00  0.00     0.062 H 
ENDBRANCH  14  46
BRANCH  13  57
ATOM     57  C   UNK d   0      11.235   9.998  -4.506  0.00  0.00    -0.006 C 
ATOM     58  H   UNK d   0      12.247  10.190  -4.859  0.00  0.00     0.031 H 
ATOM     59  H   UNK d   0      10.549  10.712  -4.963  0.00  0.00     0.031 H 
ATOM     60  H   UNK d   0      11.202  10.106  -3.421  0.00  0.00     0.031 H 
ENDBRANCH  13  57
TORSDOF 11
ENDMDL
MODEL 6
REMARK VINA RESULT:      -7.1      4.218      6.791
REMARK  9 active torsions:
REMARK  status: ('A' for Active; 'I' for Inactive)
REMARK    1  A    between atoms: C_1  and  C_2 
REMARK    2  A    between atoms: C_12  and  C_13 
REMARK    3  A    between atoms: C_13  and  C_14 
REMARK    4  A    between atoms: C_14  and  C_15 
REMARK       I    between atoms: C_15  and  N_17 
REMARK       I    between atoms: N_17  and  CA_18 
REMARK    5  A    between atoms: CA_18  and  CB_20 
REMARK       I    between atoms: CA_18  and  C_23 
REMARK    6  A    between atoms: CB_20  and  CG1_21 
REMARK    7  A    between atoms: CB_20  and  CG2_22 
REMARK    8  A    between atoms: C_26  and  C_34 
REMARK    9  A    between atoms: C_27  and  C_28 
ROOT
ATOM      1  C   UNK d   0       9.355  -5.500  -3.143  0.00  0.00    -0.030 A 
ATOM      2  C   UNK d   0       9.370  -6.911  -2.748  0.00  0.00     0.022 A 
ATOM      3  C   UNK d   0      10.025  -7.321  -1.586  0.00  0.00    -0.040 A 
ATOM      4  C   UNK d   0      10.021  -8.663  -1.241  0.00  0.00     0.029 A 
ATOM      5  C   UNK d   0       9.363  -9.608  -2.053  0.00  0.00     0.139 A 
ATOM      6  C   UNK d   0       8.713  -9.194  -3.206  0.00  0.00     0.024 A 
ATOM      7  C   UNK d   0       8.711  -7.856  -3.561  0.00  0.00     0.143 A 
ATOM      8  O   UNK d   0       8.080  -7.448  -4.685  0.00  0.00    -0.422 OA
ATOM      9  C   UNK d   0       8.063  -6.157  -5.049  0.00  0.00     0.341 A 
ATOM     10  O   UNK d   0       7.481  -5.837  -6.070  0.00  0.00    -0.245 OA
ATOM     11  C   UNK d   0       8.702  -5.159  -4.283  0.00  0.00     0.041 A 
ATOM     12  O   UNK d   0       9.526 -10.817  -1.475  0.00  0.00    -0.459 OA
ATOM     13  C   UNK d   0      10.244 -10.723  -0.344  0.00  0.00     0.111 A 
ATOM     14  C   UNK d   0      10.592  -9.436  -0.121  0.00  0.00     0.030 A 
ATOM     15  H   UNK d   0      10.531  -6.600  -0.961  0.00  0.00     0.063 H 
ATOM     16  H   UNK d   0       8.209  -9.918  -3.830  0.00  0.00     0.069 H 
ENDROOT
BRANCH  11  17
ATOM     17  C   UNK d   0       8.659  -3.721  -4.729  0.00  0.00    -0.012 C 
ATOM     18  H   UNK d   0       9.676  -3.339  -4.824  0.00  0.00     0.032 H 
ATOM     19  H   UNK d   0       8.154  -3.654  -5.692  0.00  0.00     0.032 H 
BRANCH  17  20
ATOM     20  C   UNK d   0       7.897  -2.889  -3.695  0.00  0.00     0.028 C 
ATOM     21  H   UNK d   0       7.747  -3.481  -2.792  0.00  0.00     0.036 H 
ATOM     22  H   UNK d   0       8.472  -1.995  -3.452  0.00  0.00     0.036 H 
BRANCH  20  23
ATOM     23  C   UNK d   0       6.560  -2.486  -4.260  0.00  0.00     0.214 C 
ATOM     24  O   UNK d   0       6.058  -3.138  -5.152  0.00  0.00    -0.276 OA
ATOM     25  N   VAL d   1       5.920  -1.403  -3.775  0.00  0.00    -0.307 N 
ATOM     26  CA  VAL d   1       4.620  -1.013  -4.325  0.00  0.00     0.065 C 
ATOM     27  H   VAL d   1       6.322  -0.883  -3.062  0.00  0.00     0.149 HD
ATOM     28  HA  VAL d   1       4.056  -1.907  -4.595  0.00  0.00     0.056 H 
ATOM     29  C   VAL d   1       4.828  -0.162  -5.552  0.00  0.00     0.062 C 
ATOM     30  O   VAL d   1       5.948   0.092  -5.927  0.00  0.00    -0.548 OA
ATOM     31  OXT VAL d   1       3.770   0.314  -6.226  0.00  0.00    -0.548 OA
BRANCH  26  32
ATOM     32  CB  VAL d   1       3.841  -0.215  -3.278  0.00  0.00    -0.023 C 
ATOM     33  HB  VAL d   1       3.746   0.820  -3.607  0.00  0.00     0.032 H 
BRANCH  32  34
ATOM     34  CG1 VAL d   1       2.449  -0.824  -3.104  0.00  0.00    -0.061 C 
ATOM     35 1HG1 VAL d   1       2.315  -1.635  -3.821  0.00  0.00     0.023 H 
ATOM     36 2HG1 VAL d   1       2.346  -1.215  -2.092  0.00  0.00     0.023 H 
ATOM     37 3HG1 VAL d   1       1.694  -0.058  -3.276  0.00  0.00     0.023 H 
ENDBRANCH  32  34
BRANCH  32  38
ATOM     38  CG2 VAL d   1       4.588  -0.260  -1.943  0.00  0.00    -0.061 C 
ATOM     39 1HG2 VAL d   1       5.599  -0.636  -2.105  0.00  0.00     0.023 H 
ATOM     40 2HG2 VAL d   1       4.638   0.743  -1.521  0.00  0.00     0.023 H 
ATOM     41 3HG2 VAL d   1       4.061  -0.918  -1.254  0.00  0.00     0.023 H 
ENDBRANCH  32  38
ENDBRANCH  26  32
ENDBRANCH  20  23
ENDBRANCH  17  20
ENDBRANCH  11  17
BRANCH   1  42
ATOM     42  C   UNK d   0      10.046  -4.454  -2.305  0.00  0.00    -0.039 C 
ATOM     43  H   UNK d   0      10.702  -4.942  -1.585  0.00  0.00     0.028 H 
ATOM     44  H   UNK d   0      10.635  -3.802  -2.950  0.00  0.00     0.028 H 
ATOM     45  H   UNK d   0       9.299  -3.862  -1.775  0.00  0.00     0.028 H 
ENDBRANCH   1  42
BRANCH  14  46
ATOM     46  C   UNK d   0      11.383  -8.909   1.016  0.00  0.00    -0.014 A 
ATOM     47  C   UNK d   0      12.704  -8.506   0.823  0.00  0.00    -0.054 A 
ATOM     48  C   UNK d   0      13.436  -8.016   1.884  0.00  0.00    -0.061 A 
ATOM     49  H   UNK d   0      13.153  -8.579  -0.157  0.00  0.00     0.062 H 
ATOM     50  C   UNK d   0      12.861  -7.923   3.139  0.00  0.00    -0.062 A 
ATOM     51  H   UNK d   0      14.459  -7.704   1.736  0.00  0.00     0.062 H 
ATOM     52  C   UNK d   0      11.552  -8.321   3.338  0.00  0.00    -0.061 A 
ATOM     53  H   UNK d   0      13.439  -7.539   3.968  0.00  0.00     0.062 H 
ATOM     54  C   UNK d   0      10.808  -8.808   2.282  0.00  0.00    -0.054 A 
ATOM     55  H   UNK d   0      11.108  -8.246   4.320  0.00  0.00     0.062 H 
ATOM     56  H   UNK d   0       9.784  -9.113   2.436  0.00  0.00     0.062 H 
ENDBRANCH  14  46
BRANCH  13  57
ATOM     57  C   UNK d   0      10.608 -11.883   0.546  0.00  0.00    -0.006 C 
ATOM     58  H   UNK d   0       9.826 -12.030   1.290  0.00  0.00     0.031 H 
ATOM     59  H   UNK d   0      10.711 -12.785  -0.057  0.00  0.00     0.031 H 
ATOM     60  H   UNK d   0      11.553 -11.673   1.048  0.00  0.00     0.031 H 
ENDBRANCH  13  57
TORSDOF 11
ENDMDL
MODEL 7
REMARK VINA RESULT:      -7.0      2.220      4.506
REMARK  9 active torsions:
REMARK  status: ('A' for Active; 'I' for Inactive)
REMARK    1  A    between atoms: C_1  and  C_2 
REMARK    2  A    between atoms: C_12  and  C_13 
REMARK    3  A    between atoms: C_13  and  C_14 
REMARK    4  A    between atoms: C_14  and  C_15 
REMARK       I    between atoms: C_15  and  N_17 
REMARK       I    between atoms: N_17  and  CA_18 
REMARK    5  A    between atoms: CA_18  and  CB_20 
REMARK       I    between atoms: CA_18  and  C_23 
REMARK    6  A    between atoms: CB_20  and  CG1_21 
REMARK    7  A    between atoms: CB_20  and  CG2_22 
REMARK    8  A    between atoms: C_26  and  C_34 
REMARK    9  A    between atoms: C_27  and  C_28 
ROOT
ATOM      1  C   UNK d   0       8.021  -4.067  -5.366  0.00  0.00    -0.030 A 
ATOM      2  C   UNK d   0       8.854  -4.801  -4.410  0.00  0.00     0.022 A 
ATOM      3  C   UNK d   0       8.494  -6.080  -3.982  0.00  0.00    -0.040 A 
ATOM      4  C   UNK d   0       9.304  -6.747  -3.077  0.00  0.00     0.029 A 
ATOM      5  C   UNK d   0      10.481  -6.144  -2.591  0.00  0.00     0.139 A 
ATOM      6  C   UNK d   0      10.834  -4.873  -3.021  0.00  0.00     0.024 A 
ATOM      7  C   UNK d   0      10.032  -4.197  -3.925  0.00  0.00     0.143 A 
ATOM      8  O   UNK d   0      10.371  -2.958  -4.345  0.00  0.00    -0.422 OA
ATOM      9  C   UNK d   0       9.611  -2.282  -5.221  0.00  0.00     0.341 A 
ATOM     10  O   UNK d   0       9.958  -1.169  -5.570  0.00  0.00    -0.245 OA
ATOM     11  C   UNK d   0       8.421  -2.827  -5.746  0.00  0.00     0.041 A 
ATOM     12  O   UNK d   0      11.056  -7.016  -1.738  0.00  0.00    -0.459 OA
ATOM     13  C   UNK d   0      10.335  -8.145  -1.635  0.00  0.00     0.111 A 
ATOM     14  C   UNK d   0       9.240  -8.068  -2.424  0.00  0.00     0.030 A 
ATOM     15  H   UNK d   0       7.592  -6.546  -4.353  0.00  0.00     0.063 H 
ATOM     16  H   UNK d   0      11.736  -4.409  -2.648  0.00  0.00     0.069 H 
ENDROOT
BRANCH  11  17
ATOM     17  C   UNK d   0       7.596  -2.034  -6.727  0.00  0.00    -0.012 C 
ATOM     18  H   UNK d   0       8.227  -1.707  -7.553  0.00  0.00     0.032 H 
ATOM     19  H   UNK d   0       6.789  -2.659  -7.112  0.00  0.00     0.032 H 
BRANCH  17  20
ATOM     20  C   UNK d   0       7.003  -0.812  -6.024  0.00  0.00     0.028 C 
ATOM     21  H   UNK d   0       7.586  -0.588  -5.130  0.00  0.00     0.036 H 
ATOM     22  H   UNK d   0       7.030   0.044  -6.698  0.00  0.00     0.036 H 
BRANCH  20  23
ATOM     23  C   UNK d   0       5.576  -1.099  -5.633  0.00  0.00     0.214 C 
ATOM     24  O   UNK d   0       4.898  -1.837  -6.316  0.00  0.00    -0.276 OA
ATOM     25  N   VAL d   1       5.053  -0.536  -4.526  0.00  0.00    -0.307 N 
ATOM     26  CA  VAL d   1       3.666  -0.815  -4.147  0.00  0.00     0.065 C 
ATOM     27  H   VAL d   1       5.596   0.054  -3.979  0.00  0.00     0.149 HD
ATOM     28  HA  VAL d   1       3.419  -1.845  -4.407  0.00  0.00     0.056 H 
ATOM     29  C   VAL d   1       2.745   0.123  -4.883  0.00  0.00     0.062 C 
ATOM     30  O   VAL d   1       3.201   0.941  -5.647  0.00  0.00    -0.548 OA
ATOM     31  OXT VAL d   1       1.419   0.051  -4.691  0.00  0.00    -0.548 OA
BRANCH  26  32
ATOM     32  CB  VAL d   1       3.499  -0.615  -2.639  0.00  0.00    -0.023 C 
ATOM     33  HB  VAL d   1       2.452  -0.758  -2.368  0.00  0.00     0.032 H 
BRANCH  32  34
ATOM     34  CG1 VAL d   1       4.362  -1.633  -1.891  0.00  0.00    -0.061 C 
ATOM     35 1HG1 VAL d   1       3.734  -2.449  -1.533  0.00  0.00     0.023 H 
ATOM     36 2HG1 VAL d   1       5.122  -2.029  -2.563  0.00  0.00     0.023 H 
ATOM     37 3HG1 VAL d   1       4.844  -1.147  -1.043  0.00  0.00     0.023 H 
ENDBRANCH  32  34
BRANCH  32  38
ATOM     38  CG2 VAL d   1       3.936   0.801  -2.261  0.00  0.00    -0.061 C 
ATOM     39 1HG2 VAL d   1       3.120   1.498  -2.458  0.00  0.00     0.023 H 
ATOM     40 2HG2 VAL d   1       4.190   0.832  -1.202  0.00  0.00     0.023 H 
ATOM     41 3HG2 VAL d   1       4.806   1.083  -2.852  0.00  0.00     0.023 H 
ENDBRANCH  32  38
ENDBRANCH  26  32
ENDBRANCH  20  23
ENDBRANCH  17  20
ENDBRANCH  11  17
BRANCH   1  42
ATOM     42  C   UNK d   0       6.752  -4.673  -5.912  0.00  0.00    -0.039 C 
ATOM     43  H   UNK d   0       6.904  -5.738  -6.084  0.00  0.00     0.028 H 
ATOM     44  H   UNK d   0       5.944  -4.531  -5.195  0.00  0.00     0.028 H 
ATOM     45  H   UNK d   0       6.493  -4.185  -6.852  0.00  0.00     0.028 H 
ENDBRANCH   1  42
BRANCH  14  46
ATOM     46  C   UNK d   0       8.191  -9.101  -2.597  0.00  0.00    -0.014 A 
ATOM     47  C   UNK d   0       8.064  -9.772  -3.813  0.00  0.00    -0.054 A 
ATOM     48  C   UNK d   0       7.087 -10.733  -3.969  0.00  0.00    -0.061 A 
ATOM     49  H   UNK d   0       8.730  -9.540  -4.631  0.00  0.00     0.062 H 
ATOM     50  C   UNK d   0       6.234 -11.032  -2.921  0.00  0.00    -0.062 A 
ATOM     51  H   UNK d   0       6.987 -11.253  -4.910  0.00  0.00     0.062 H 
ATOM     52  C   UNK d   0       6.354 -10.370  -1.713  0.00  0.00    -0.061 A 
ATOM     53  H   UNK d   0       5.469 -11.785  -3.049  0.00  0.00     0.062 H 
ATOM     54  C   UNK d   0       7.332  -9.410  -1.544  0.00  0.00    -0.054 A 
ATOM     55  H   UNK d   0       5.685 -10.606  -0.899  0.00  0.00     0.062 H 
ATOM     56  H   UNK d   0       7.429  -8.897  -0.599  0.00  0.00     0.062 H 
ENDBRANCH  14  46
BRANCH  13  57
ATOM     57  C   UNK d   0      10.695  -9.323  -0.768  0.00  0.00    -0.006 C 
ATOM     58  H   UNK d   0      11.286  -8.983   0.081  0.00  0.00     0.031 H 
ATOM     59  H   UNK d   0       9.784  -9.802  -0.409  0.00  0.00     0.031 H 
ATOM     60  H   UNK d   0      11.276 -10.039  -1.351  0.00  0.00     0.031 H 
ENDBRANCH  13  57
TORSDOF 11
ENDMDL
MODEL 8
REMARK VINA RESULT:      -7.0      4.588      9.932
REMARK  9 active torsions:
REMARK  status: ('A' for Active; 'I' for Inactive)
REMARK    1  A    between atoms: C_1  and  C_2 
REMARK    2  A    between atoms: C_12  and  C_13 
REMARK    3  A    between atoms: C_13  and  C_14 
REMARK    4  A    between atoms: C_14  and  C_15 
REMARK       I    between atoms: C_15  and  N_17 
REMARK       I    between atoms: N_17  and  CA_18 
REMARK    5  A    between atoms: CA_18  and  CB_20 
REMARK       I    between atoms: CA_18  and  C_23 
REMARK    6  A    between atoms: CB_20  and  CG1_21 
REMARK    7  A    between atoms: CB_20  and  CG2_22 
REMARK    8  A    between atoms: C_26  and  C_34 
REMARK    9  A    between atoms: C_27  and  C_28 
ROOT
ATOM      1  C   UNK d   0       4.742  -4.888  -6.894  0.00  0.00    -0.030 A 
ATOM      2  C   UNK d   0       3.861  -4.566  -8.021  0.00  0.00     0.022 A 
ATOM      3  C   UNK d   0       3.672  -3.243  -8.424  0.00  0.00    -0.040 A 
ATOM      4  C   UNK d   0       2.832  -2.972  -9.492  0.00  0.00     0.029 A 
ATOM      5  C   UNK d   0       2.174  -4.019 -10.168  0.00  0.00     0.139 A 
ATOM      6  C   UNK d   0       2.368  -5.331  -9.763  0.00  0.00     0.024 A 
ATOM      7  C   UNK d   0       3.204  -5.614  -8.697  0.00  0.00     0.143 A 
ATOM      8  O   UNK d   0       3.395  -6.891  -8.297  0.00  0.00    -0.422 OA
ATOM      9  C   UNK d   0       4.200  -7.191  -7.267  0.00  0.00     0.341 A 
ATOM     10  O   UNK d   0       4.341  -8.357  -6.945  0.00  0.00    -0.245 OA
ATOM     11  C   UNK d   0       4.889  -6.192  -6.547  0.00  0.00     0.041 A 
ATOM     12  O   UNK d   0       1.435  -3.461 -11.149  0.00  0.00    -0.459 OA
ATOM     13  C   UNK d   0       1.567  -2.124 -11.158  0.00  0.00     0.111 A 
ATOM     14  C   UNK d   0       2.406  -1.735 -10.173  0.00  0.00     0.030 A 
ATOM     15  H   UNK d   0       4.174  -2.438  -7.908  0.00  0.00     0.063 H 
ATOM     16  H   UNK d   0       1.863  -6.135 -10.280  0.00  0.00     0.069 H 
ENDROOT
BRANCH  11  17
ATOM     17  C   UNK d   0       5.784  -6.572  -5.395  0.00  0.00    -0.012 C 
ATOM     18  H   UNK d   0       6.012  -5.685  -4.805  0.00  0.00     0.032 H 
ATOM     19  H   UNK d   0       5.277  -7.305  -4.768  0.00  0.00     0.032 H 
BRANCH  17  20
ATOM     20  C   UNK d   0       7.083  -7.173  -5.936  0.00  0.00     0.028 C 
ATOM     21  H   UNK d   0       7.007  -7.288  -7.018  0.00  0.00     0.036 H 
ATOM     22  H   UNK d   0       7.916  -6.512  -5.698  0.00  0.00     0.036 H 
BRANCH  20  23
ATOM     23  C   UNK d   0       7.315  -8.521  -5.303  0.00  0.00     0.214 C 
ATOM     24  O   UNK d   0       8.437  -8.978  -5.246  0.00  0.00    -0.276 OA
ATOM     25  N   VAL d   1       6.277  -9.217  -4.799  0.00  0.00    -0.307 N 
ATOM     26  CA  VAL d   1       6.503 -10.527  -4.184  0.00  0.00     0.065 C 
ATOM     27  H   VAL d   1       5.379  -8.851  -4.845  0.00  0.00     0.149 HD
ATOM     28  HA  VAL d   1       7.463 -10.525  -3.667  0.00  0.00     0.056 H 
ATOM     29  C   VAL d   1       6.511 -11.590  -5.253  0.00  0.00     0.062 C 
ATOM     30  O   VAL d   1       6.345 -11.284  -6.410  0.00  0.00    -0.548 OA
ATOM     31  OXT VAL d   1       6.703 -12.875  -4.919  0.00  0.00    -0.548 OA
BRANCH  26  32
ATOM     32  CB  VAL d   1       5.385 -10.821  -3.182  0.00  0.00    -0.023 C 
ATOM     33  HB  VAL d   1       5.131 -11.881  -3.222  0.00  0.00     0.032 H 
BRANCH  32  34
ATOM     34  CG1 VAL d   1       5.857 -10.463  -1.772  0.00  0.00    -0.061 C 
ATOM     35 1HG1 VAL d   1       6.011  -9.386  -1.702  0.00  0.00     0.023 H 
ATOM     36 2HG1 VAL d   1       5.103 -10.769  -1.047  0.00  0.00     0.023 H 
ATOM     37 3HG1 VAL d   1       6.793 -10.979  -1.561  0.00  0.00     0.023 H 
ENDBRANCH  32  34
BRANCH  32  38
ATOM     38  CG2 VAL d   1       4.152  -9.986  -3.535  0.00  0.00    -0.061 C 
ATOM     39 1HG2 VAL d   1       4.133  -9.087  -2.918  0.00  0.00     0.023 H 
ATOM     40 2HG2 VAL d   1       4.192  -9.704  -4.586  0.00  0.00     0.023 H 
ATOM     41 3HG2 VAL d   1       3.252 -10.573  -3.350  0.00  0.00     0.023 H 
ENDBRANCH  32  38
ENDBRANCH  26  32
ENDBRANCH  20  23
ENDBRANCH  17  20
ENDBRANCH  11  17
BRANCH   1  42
ATOM     42  C   UNK d   0       5.466  -3.801  -6.141  0.00  0.00    -0.039 C 
ATOM     43  H   UNK d   0       4.742  -3.182  -5.612  0.00  0.00     0.028 H 
ATOM     44  H   UNK d   0       6.153  -4.251  -5.424  0.00  0.00     0.028 H 
ATOM     45  H   UNK d   0       6.027  -3.184  -6.844  0.00  0.00     0.028 H 
ENDBRANCH   1  42
BRANCH  14  46
ATOM     46  C   UNK d   0       2.817  -0.348  -9.847  0.00  0.00    -0.014 A 
ATOM     47  C   UNK d   0       3.588   0.384 -10.749  0.00  0.00    -0.054 A 
ATOM     48  C   UNK d   0       3.967   1.674 -10.441  0.00  0.00    -0.061 A 
ATOM     49  H   UNK d   0       3.888  -0.058 -11.687  0.00  0.00     0.062 H 
ATOM     50  C   UNK d   0       3.581   2.242  -9.239  0.00  0.00    -0.062 A 
ATOM     51  H   UNK d   0       4.563   2.242 -11.138  0.00  0.00     0.062 H 
ATOM     52  C   UNK d   0       2.817   1.521  -8.340  0.00  0.00    -0.061 A 
ATOM     53  H   UNK d   0       3.881   3.253  -9.002  0.00  0.00     0.062 H 
ATOM     54  C   UNK d   0       2.428   0.231  -8.640  0.00  0.00    -0.054 A 
ATOM     55  H   UNK d   0       2.520   1.969  -7.404  0.00  0.00     0.062 H 
ATOM     56  H   UNK d   0       1.826  -0.329  -7.940  0.00  0.00     0.062 H 
ENDBRANCH  14  46
BRANCH  13  57
ATOM     57  C   UNK d   0       0.878  -1.196 -12.125  0.00  0.00    -0.006 C 
ATOM     58  H   UNK d   0       0.230  -1.772 -12.784  0.00  0.00     0.031 H 
ATOM     59  H   UNK d   0       0.282  -0.471 -11.570  0.00  0.00     0.031 H 
ATOM     60  H   UNK d   0       1.626  -0.671 -12.719  0.00  0.00     0.031 H 
ENDBRANCH  13  57
TORSDOF 11
ENDMDL
MODEL 9
REMARK VINA RESULT:      -6.9      6.834     10.121
REMARK  9 active torsions:
REMARK  status: ('A' for Active; 'I' for Inactive)
REMARK    1  A    between atoms: C_1  and  C_2 
REMARK    2  A    between atoms: C_12  and  C_13 
REMARK    3  A    between atoms: C_13  and  C_14 
REMARK    4  A    between atoms: C_14  and  C_15 
REMARK       I    between atoms: C_15  and  N_17 
REMARK       I    between atoms: N_17  and  CA_18 
REMARK    5  A    between atoms: CA_18  and  CB_20 
REMARK       I    between atoms: CA_18  and  C_23 
REMARK    6  A    between atoms: CB_20  and  CG1_21 
REMARK    7  A    between atoms: CB_20  and  CG2_22 
REMARK    8  A    between atoms: C_26  and  C_34 
REMARK    9  A    between atoms: C_27  and  C_28 
ROOT
ATOM      1  C   UNK d   0       9.669   3.843  -6.844  0.00  0.00    -0.030 A 
ATOM      2  C   UNK d   0       9.965   5.125  -7.490  0.00  0.00     0.022 A 
ATOM      3  C   UNK d   0       9.934   5.250  -8.880  0.00  0.00    -0.040 A 
ATOM      4  C   UNK d   0      10.219   6.476  -9.458  0.00  0.00     0.029 A 
ATOM      5  C   UNK d   0      10.539   7.588  -8.656  0.00  0.00     0.139 A 
ATOM      6  C   UNK d   0      10.568   7.459  -7.275  0.00  0.00     0.024 A 
ATOM      7  C   UNK d   0      10.284   6.239  -6.686  0.00  0.00     0.143 A 
ATOM      8  O   UNK d   0      10.313   6.106  -5.340  0.00  0.00    -0.422 OA
ATOM      9  C   UNK d   0      10.042   4.935  -4.745  0.00  0.00     0.341 A 
ATOM     10  O   UNK d   0      10.080   4.865  -3.530  0.00  0.00    -0.245 OA
ATOM     11  C   UNK d   0       9.715   3.781  -5.489  0.00  0.00     0.041 A 
ATOM     12  O   UNK d   0      10.766   8.629  -9.484  0.00  0.00    -0.459 OA
ATOM     13  C   UNK d   0      10.616   8.270 -10.770  0.00  0.00     0.111 A 
ATOM     14  C   UNK d   0      10.281   6.963 -10.850  0.00  0.00     0.030 A 
ATOM     15  H   UNK d   0       9.689   4.398  -9.498  0.00  0.00     0.063 H 
ATOM     16  H   UNK d   0      10.814   8.311  -6.659  0.00  0.00     0.069 H 
ENDROOT
BRANCH  11  17
ATOM     17  C   UNK d   0       9.418   2.485  -4.781  0.00  0.00    -0.012 C 
ATOM     18  H   UNK d   0       9.423   1.667  -5.502  0.00  0.00     0.032 H 
ATOM     19  H   UNK d   0      10.178   2.304  -4.021  0.00  0.00     0.032 H 
BRANCH  17  20
ATOM     20  C   UNK d   0       8.042   2.571  -4.116  0.00  0.00     0.028 C 
ATOM     21  H   UNK d   0       8.154   2.942  -3.097  0.00  0.00     0.036 H 
ATOM     22  H   UNK d   0       7.407   3.251  -4.683  0.00  0.00     0.036 H 
BRANCH  20  23
ATOM     23  C   UNK d   0       7.412   1.202  -4.086  0.00  0.00     0.214 C 
ATOM     24  O   UNK d   0       8.063   0.228  -4.400  0.00  0.00    -0.276 OA
ATOM     25  N   VAL d   1       6.126   1.060  -3.710  0.00  0.00    -0.307 N 
ATOM     26  CA  VAL d   1       5.513  -0.271  -3.681  0.00  0.00     0.065 C 
ATOM     27  H   VAL d   1       5.605   1.839  -3.459  0.00  0.00     0.149 HD
ATOM     28  HA  VAL d   1       6.258  -1.006  -3.375  0.00  0.00     0.056 H 
ATOM     29  C   VAL d   1       5.000  -0.618  -5.055  0.00  0.00     0.062 C 
ATOM     30  O   VAL d   1       5.132   0.166  -5.965  0.00  0.00    -0.548 OA
ATOM     31  OXT VAL d   1       4.396  -1.797  -5.268  0.00  0.00    -0.548 OA
BRANCH  26  32
ATOM     32  CB  VAL d   1       4.351  -0.276  -2.686  0.00  0.00    -0.023 C 
ATOM     33  HB  VAL d   1       3.409  -0.184  -3.228  0.00  0.00     0.032 H 
BRANCH  32  34
ATOM     34  CG1 VAL d   1       4.360  -1.588  -1.899  0.00  0.00    -0.061 C 
ATOM     35 1HG1 VAL d   1       5.361  -2.018  -1.922  0.00  0.00     0.023 H 
ATOM     36 2HG1 VAL d   1       4.071  -1.395  -0.867  0.00  0.00     0.023 H 
ATOM     37 3HG1 VAL d   1       3.655  -2.286  -2.349  0.00  0.00     0.023 H 
ENDBRANCH  32  34
BRANCH  32  38
ATOM     38  CG2 VAL d   1       4.501   0.900  -1.720  0.00  0.00    -0.061 C 
ATOM     39 1HG2 VAL d   1       4.997   0.562  -0.810  0.00  0.00     0.023 H 
ATOM     40 2HG2 VAL d   1       5.098   1.682  -2.189  0.00  0.00     0.023 H 
ATOM     41 3HG2 VAL d   1       3.516   1.294  -1.472  0.00  0.00     0.023 H 
ENDBRANCH  32  38
ENDBRANCH  26  32
ENDBRANCH  20  23
ENDBRANCH  17  20
ENDBRANCH  11  17
BRANCH   1  42
ATOM     42  C   UNK d   0       9.323   2.625  -7.663  0.00  0.00    -0.039 C 
ATOM     43  H   UNK d   0       9.373   1.738  -7.033  0.00  0.00     0.028 H 
ATOM     44  H   UNK d   0       8.314   2.731  -8.063  0.00  0.00     0.028 H 
ATOM     45  H   UNK d   0      10.031   2.528  -8.487  0.00  0.00     0.028 H 
ENDBRANCH   1  42
BRANCH  14  46
ATOM     46  C   UNK d   0      10.025   6.181 -12.083  0.00  0.00    -0.014 A 
ATOM     47  C   UNK d   0      10.917   5.185 -12.477  0.00  0.00    -0.054 A 
ATOM     48  C   UNK d   0      10.675   4.459 -13.625  0.00  0.00    -0.061 A 
ATOM     49  H   UNK d   0      11.798   4.983 -11.886  0.00  0.00     0.062 H 
ATOM     50  C   UNK d   0       9.547   4.717 -14.384  0.00  0.00    -0.062 A 
ATOM     51  H   UNK d   0      11.365   3.688 -13.932  0.00  0.00     0.062 H 
ATOM     52  C   UNK d   0       8.658   5.703 -13.998  0.00  0.00    -0.061 A 
ATOM     53  H   UNK d   0       9.361   4.147 -15.282  0.00  0.00     0.062 H 
ATOM     54  C   UNK d   0       8.887   6.433 -12.848  0.00  0.00    -0.054 A 
ATOM     55  H   UNK d   0       7.779   5.901 -14.594  0.00  0.00     0.062 H 
ATOM     56  H   UNK d   0       8.190   7.199 -12.545  0.00  0.00     0.062 H 
ENDBRANCH  14  46
BRANCH  13  57
ATOM     57  C   UNK d   0      10.797   9.189 -11.950  0.00  0.00    -0.006 C 
ATOM     58  H   UNK d   0      11.808   9.086 -12.341  0.00  0.00     0.031 H 
ATOM     59  H   UNK d   0      10.078   8.929 -12.727  0.00  0.00     0.031 H 
ATOM     60  H   UNK d   0      10.633  10.221 -11.635  0.00  0.00     0.031 H 
ENDBRANCH  13  57
TORSDOF 11
ENDMDL
MODEL 10
REMARK VINA RESULT:      -6.7      2.675      5.662
REMARK  9 active torsions:
REMARK  status: ('A' for Active; 'I' for Inactive)
REMARK    1  A    between atoms: C_1  and  C_2 
REMARK    2  A    between atoms: C_12  and  C_13 
REMARK    3  A    between atoms: C_13  and  C_14 
REMARK    4  A    between atoms: C_14  and  C_15 
REMARK       I    between atoms: C_15  and  N_17 
REMARK       I    between atoms: N_17  and  CA_18 
REMARK    5  A    between atoms: CA_18  and  CB_20 
REMARK       I    between atoms: CA_18  and  C_23 
REMARK    6  A    between atoms: CB_20  and  CG1_21 
REMARK    7  A    between atoms: CB_20  and  CG2_22 
REMARK    8  A    between atoms: C_26  and  C_34 
REMARK    9  A    between atoms: C_27  and  C_28 
ROOT
ATOM      1  C   UNK d   0       4.633  -3.276  -7.123  0.00  0.00    -0.030 A 
ATOM      2  C   UNK d   0       4.338  -4.624  -7.617  0.00  0.00     0.022 A 
ATOM      3  C   UNK d   0       4.795  -5.751  -6.932  0.00  0.00    -0.040 A 
ATOM      4  C   UNK d   0       4.500  -7.012  -7.426  0.00  0.00     0.029 A 
ATOM      5  C   UNK d   0       3.747  -7.159  -8.607  0.00  0.00     0.139 A 
ATOM      6  C   UNK d   0       3.295  -6.035  -9.283  0.00  0.00     0.024 A 
ATOM      7  C   UNK d   0       3.583  -4.770  -8.799  0.00  0.00     0.143 A 
ATOM      8  O   UNK d   0       3.147  -3.671  -9.454  0.00  0.00    -0.422 OA
ATOM      9  C   UNK d   0       3.413  -2.435  -9.005  0.00  0.00     0.341 A 
ATOM     10  O   UNK d   0       2.998  -1.476  -9.630  0.00  0.00    -0.245 OA
ATOM     11  C   UNK d   0       4.163  -2.217  -7.830  0.00  0.00     0.041 A 
ATOM     12  O   UNK d   0       3.619  -8.482  -8.841  0.00  0.00    -0.459 OA
ATOM     13  C   UNK d   0       4.238  -9.205  -7.893  0.00  0.00     0.111 A 
ATOM     14  C   UNK d   0       4.808  -8.385  -6.982  0.00  0.00     0.030 A 
ATOM     15  H   UNK d   0       5.373  -5.643  -6.026  0.00  0.00     0.063 H 
ATOM     16  H   UNK d   0       2.717  -6.146 -10.189  0.00  0.00     0.069 H 
ENDROOT
BRANCH  11  17
ATOM     17  C   UNK d   0       4.440  -0.812  -7.361  0.00  0.00    -0.012 C 
ATOM     18  H   UNK d   0       5.337  -0.806  -6.741  0.00  0.00     0.032 H 
ATOM     19  H   UNK d   0       4.591  -0.164  -8.224  0.00  0.00     0.032 H 
BRANCH  17  20
ATOM     20  C   UNK d   0       3.251  -0.303  -6.543  0.00  0.00     0.028 C 
ATOM     21  H   UNK d   0       3.019   0.720  -6.838  0.00  0.00     0.036 H 
ATOM     22  H   UNK d   0       2.386  -0.940  -6.726  0.00  0.00     0.036 H 
BRANCH  20  23
ATOM     23  C   UNK d   0       3.598  -0.337  -5.077  0.00  0.00     0.214 C 
ATOM     24  O   UNK d   0       2.804  -0.786  -4.278  0.00  0.00    -0.276 OA
ATOM     25  N   VAL d   1       4.789   0.131  -4.655  0.00  0.00    -0.307 N 
ATOM     26  CA  VAL d   1       5.125   0.098  -3.229  0.00  0.00     0.065 C 
ATOM     27  H   VAL d   1       5.424   0.490  -5.295  0.00  0.00     0.149 HD
ATOM     28  HA  VAL d   1       4.695  -0.796  -2.775  0.00  0.00     0.056 H 
ATOM     29  C   VAL d   1       4.566   1.323  -2.552  0.00  0.00     0.062 C 
ATOM     30  O   VAL d   1       3.950   2.140  -3.195  0.00  0.00    -0.548 OA
ATOM     31  OXT VAL d   1       4.753   1.507  -1.237  0.00  0.00    -0.548 OA
BRANCH  26  32
ATOM     32  CB  VAL d   1       6.646   0.073  -3.064  0.00  0.00    -0.023 C 
ATOM     33  HB  VAL d   1       6.898   0.198  -2.010  0.00  0.00     0.032 H 
BRANCH  32  34
ATOM     34  CG1 VAL d   1       7.191  -1.266  -3.563  0.00  0.00    -0.061 C 
ATOM     35 1HG1 VAL d   1       6.698  -1.533  -4.498  0.00  0.00     0.023 H 
ATOM     36 2HG1 VAL d   1       8.265  -1.183  -3.730  0.00  0.00     0.023 H 
ATOM     37 3HG1 VAL d   1       6.998  -2.037  -2.817  0.00  0.00     0.023 H 
ENDBRANCH  32  34
BRANCH  32  38
ATOM     38  CG2 VAL d   1       7.266   1.212  -3.876  0.00  0.00    -0.061 C 
ATOM     39 1HG2 VAL d   1       6.666   2.114  -3.755  0.00  0.00     0.023 H 
ATOM     40 2HG2 VAL d   1       8.279   1.400  -3.522  0.00  0.00     0.023 H 
ATOM     41 3HG2 VAL d   1       7.295   0.932  -4.929  0.00  0.00     0.023 H 
ENDBRANCH  32  38
ENDBRANCH  26  32
ENDBRANCH  20  23
ENDBRANCH  17  20
ENDBRANCH  11  17
BRANCH   1  42
ATOM     42  C   UNK d   0       5.436  -3.071  -5.864  0.00  0.00    -0.039 C 
ATOM     43  H   UNK d   0       4.864  -2.464  -5.163  0.00  0.00     0.028 H 
ATOM     44  H   UNK d   0       5.656  -4.038  -5.412  0.00  0.00     0.028 H 
ATOM     45  H   UNK d   0       6.370  -2.563  -6.108  0.00  0.00     0.028 H 
ENDBRANCH   1  42
BRANCH  14  46
ATOM     46  C   UNK d   0       5.582  -8.784  -5.782  0.00  0.00    -0.014 A 
ATOM     47  C   UNK d   0       4.941  -9.407  -4.712  0.00  0.00    -0.054 A 
ATOM     48  C   UNK d   0       5.665  -9.777  -3.598  0.00  0.00    -0.061 A 
ATOM     49  H   UNK d   0       3.879  -9.599  -4.755  0.00  0.00     0.062 H 
ATOM     50  C   UNK d   0       7.026  -9.532  -3.542  0.00  0.00    -0.062 A 
ATOM     51  H   UNK d   0       5.171 -10.259  -2.768  0.00  0.00     0.062 H 
ATOM     52  C   UNK d   0       7.667  -8.914  -4.600  0.00  0.00    -0.061 A 
ATOM     53  H   UNK d   0       7.589  -9.823  -2.667  0.00  0.00     0.062 H 
ATOM     54  C   UNK d   0       6.954  -8.544  -5.723  0.00  0.00    -0.054 A 
ATOM     55  H   UNK d   0       8.729  -8.725  -4.551  0.00  0.00     0.062 H 
ATOM     56  H   UNK d   0       7.456  -8.067  -6.551  0.00  0.00     0.062 H 
ENDBRANCH  14  46
BRANCH  13  57
ATOM     57  C   UNK d   0       4.289 -10.710  -7.852  0.00  0.00    -0.006 C 
ATOM     58  H   UNK d   0       5.247 -11.031  -7.443  0.00  0.00     0.031 H 
ATOM     59  H   UNK d   0       3.481 -11.085  -7.223  0.00  0.00     0.031 H 
ATOM     60  H   UNK d   0       4.176 -11.105  -8.862  0.00  0.00     0.031 H 
ENDBRANCH  13  57
TORSDOF 11
ENDMDL
