MODEL 1
REMARK VINA RESULT:      -5.8      0.000      0.000
REMARK  8 active torsions:
REMARK  status: ('A' for Active; 'I' for Inactive)
REMARK    1  A    between atoms: C_1  and  C_2 
REMARK    2  A    between atoms: C_2  and  C_3 
REMARK    3  A    between atoms: C_3  and  C_5 
REMARK    4  A    between atoms: C_3  and  O_6 
REMARK    5  A    between atoms: O_6  and  C_7 
REMARK    6  A    between atoms: C_7  and  C_9 
REMARK    7  A    between atoms: C_9  and  C_10 
REMARK    8  A    between atoms: C_9  and  C_14 
ROOT
ATOM      1  C   LIG d   1       3.693  -0.244  -7.077  0.00  0.00     0.100 C 
ATOM      2  H   LIG d   1       2.619  -0.203  -6.895  0.00  0.00     0.073 H 
ENDROOT
BRANCH   1   3
ATOM      3  C   LIG d   1       4.062   0.757  -8.174  0.00  0.00    -0.019 C 
ATOM      4  H   LIG d   1       4.210   0.226  -9.114  0.00  0.00     0.030 H 
ATOM      5  H   LIG d   1       4.981   1.273  -7.900  0.00  0.00     0.030 H 
BRANCH   3   6
ATOM      6  C   LIG d   1       2.932   1.776  -8.336  0.00  0.00    -0.062 C 
ATOM      7  H   LIG d   1       2.014   1.259  -8.616  0.00  0.00     0.023 H 
ATOM      8  H   LIG d   1       2.781   2.303  -7.394  0.00  0.00     0.023 H 
ATOM      9  H   LIG d   1       3.198   2.491  -9.114  0.00  0.00     0.023 H 
ENDBRANCH   3   6
ENDBRANCH   1   3
BRANCH   1  10
ATOM     10  C   LIG d   1       4.082  -1.655  -7.520  0.00  0.00    -0.028 C 
ATOM     11  H   LIG d   1       3.243  -2.118  -8.038  0.00  0.00     0.026 H 
ATOM     12  H   LIG d   1       4.938  -1.600  -8.193  0.00  0.00     0.026 H 
ATOM     13  H   LIG d   1       4.344  -2.250  -6.646  0.00  0.00     0.026 H 
ENDBRANCH   1  10
BRANCH   1  14
ATOM     14  O   LIG d   1       4.392   0.088  -5.875  0.00  0.00    -0.460 OA
BRANCH  14  15
ATOM     15  C   LIG d   1       3.680   0.093  -4.737  0.00  0.00     0.342 C 
ATOM     16  O   LIG d   1       2.489   0.295  -4.771  0.00  0.00    -0.249 OA
BRANCH  15  17
ATOM     17  C   LIG d   1       4.366  -0.150  -3.417  0.00  0.00     0.309 C 
ATOM     18 BR   LIG d   1       6.303  -0.323  -3.708  0.00  0.00    -0.054 Br
BRANCH  17  19
ATOM     19  C   LIG d   1       4.094   1.026  -2.477  0.00  0.00     0.424 C 
ATOM     20  F   LIG d   1       4.230   2.227  -3.181  0.00  0.00    -0.168 F 
ATOM     21  F   LIG d   1       2.792   0.926  -1.973  0.00  0.00    -0.168 F 
ATOM     22  F   LIG d   1       5.008   0.998  -1.418  0.00  0.00    -0.168 F 
ENDBRANCH  17  19
BRANCH  17  23
ATOM     23  C   LIG d   1       3.827  -1.438  -2.793  0.00  0.00     0.424 C 
ATOM     24  F   LIG d   1       4.395  -1.617  -1.527  0.00  0.00    -0.168 F 
ATOM     25  F   LIG d   1       2.436  -1.351  -2.672  0.00  0.00    -0.168 F 
ATOM     26  F   LIG d   1       4.157  -2.526  -3.610  0.00  0.00    -0.168 F 
ENDBRANCH  17  23
ENDBRANCH  15  17
ENDBRANCH  14  15
ENDBRANCH   1  14
TORSDOF 8
ENDMDL
MODEL 2
REMARK VINA RESULT:      -5.8      1.245      1.789
REMARK  8 active torsions:
REMARK  status: ('A' for Active; 'I' for Inactive)
REMARK    1  A    between atoms: C_1  and  C_2 
REMARK    2  A    between atoms: C_2  and  C_3 
REMARK    3  A    between atoms: C_3  and  C_5 
REMARK    4  A    between atoms: C_3  and  O_6 
REMARK    5  A    between atoms: O_6  and  C_7 
REMARK    6  A    between atoms: C_7  and  C_9 
REMARK    7  A    between atoms: C_9  and  C_10 
REMARK    8  A    between atoms: C_9  and  C_14 
ROOT
ATOM      1  C   LIG d   1       4.293  -0.389  -7.161  0.00  0.00     0.100 C 
ATOM      2  H   LIG d   1       4.285  -1.478  -7.212  0.00  0.00     0.073 H 
ENDROOT
BRANCH   1   3
ATOM      3  C   LIG d   1       2.891   0.146  -7.460  0.00  0.00    -0.019 C 
ATOM      4  H   LIG d   1       2.352   0.293  -6.523  0.00  0.00     0.030 H 
ATOM      5  H   LIG d   1       2.353  -0.572  -8.079  0.00  0.00     0.030 H 
BRANCH   3   6
ATOM      6  C   LIG d   1       3.001   1.480  -8.201  0.00  0.00    -0.062 C 
ATOM      7  H   LIG d   1       2.194   2.140  -7.882  0.00  0.00     0.023 H 
ATOM      8  H   LIG d   1       3.961   1.943  -7.976  0.00  0.00     0.023 H 
ATOM      9  H   LIG d   1       2.923   1.305  -9.274  0.00  0.00     0.023 H 
ENDBRANCH   3   6
ENDBRANCH   1   3
BRANCH   1  10
ATOM     10  C   LIG d   1       5.280   0.163  -8.192  0.00  0.00    -0.028 C 
ATOM     11  H   LIG d   1       5.550  -0.625  -8.895  0.00  0.00     0.026 H 
ATOM     12  H   LIG d   1       4.816   0.989  -8.732  0.00  0.00     0.026 H 
ATOM     13  H   LIG d   1       6.175   0.518  -7.683  0.00  0.00     0.026 H 
ENDBRANCH   1  10
BRANCH   1  14
ATOM     14  O   LIG d   1       4.692   0.023  -5.852  0.00  0.00    -0.460 OA
BRANCH  14  15
ATOM     15  C   LIG d   1       4.501  -0.853  -4.853  0.00  0.00     0.342 C 
ATOM     16  O   LIG d   1       4.368  -2.029  -5.097  0.00  0.00    -0.249 OA
BRANCH  15  17
ATOM     17  C   LIG d   1       4.451  -0.369  -3.426  0.00  0.00     0.309 C 
ATOM     18 BR   LIG d   1       5.838   0.996  -3.149  0.00  0.00    -0.054 Br
BRANCH  17  19
ATOM     19  C   LIG d   1       3.075   0.236  -3.141  0.00  0.00     0.424 C 
ATOM     20  F   LIG d   1       3.166   1.111  -2.053  0.00  0.00    -0.168 F 
ATOM     21  F   LIG d   1       2.633   0.939  -4.268  0.00  0.00    -0.168 F 
ATOM     22  F   LIG d   1       2.168  -0.787  -2.844  0.00  0.00    -0.168 F 
ENDBRANCH  17  19
BRANCH  17  23
ATOM     23  C   LIG d   1       4.697  -1.546  -2.480  0.00  0.00     0.424 C 
ATOM     24  F   LIG d   1       4.541  -1.121  -1.156  0.00  0.00    -0.168 F 
ATOM     25  F   LIG d   1       3.777  -2.564  -2.755  0.00  0.00    -0.168 F 
ATOM     26  F   LIG d   1       5.997  -2.028  -2.665  0.00  0.00    -0.168 F 
ENDBRANCH  17  23
ENDBRANCH  15  17
ENDBRANCH  14  15
ENDBRANCH   1  14
TORSDOF 8
ENDMDL
MODEL 3
REMARK VINA RESULT:      -5.8      2.741      3.991
REMARK  8 active torsions:
REMARK  status: ('A' for Active; 'I' for Inactive)
REMARK    1  A    between atoms: C_1  and  C_2 
REMARK    2  A    between atoms: C_2  and  C_3 
REMARK    3  A    between atoms: C_3  and  C_5 
REMARK    4  A    between atoms: C_3  and  O_6 
REMARK    5  A    between atoms: O_6  and  C_7 
REMARK    6  A    between atoms: C_7  and  C_9 
REMARK    7  A    between atoms: C_9  and  C_10 
REMARK    8  A    between atoms: C_9  and  C_14 
ROOT
ATOM      1  C   LIG d   1       7.745   0.728  -4.066  0.00  0.00     0.100 C 
ATOM      2  H   LIG d   1       7.848   0.115  -3.171  0.00  0.00     0.073 H 
ENDROOT
BRANCH   1   3
ATOM      3  C   LIG d   1       8.306  -0.030  -5.270  0.00  0.00    -0.019 C 
ATOM      4  H   LIG d   1       9.305   0.342  -5.500  0.00  0.00     0.030 H 
ATOM      5  H   LIG d   1       7.655   0.121  -6.130  0.00  0.00     0.030 H 
BRANCH   3   6
ATOM      6  C   LIG d   1       8.381  -1.523  -4.943  0.00  0.00    -0.062 C 
ATOM      7  H   LIG d   1       8.951  -2.036  -5.718  0.00  0.00     0.023 H 
ATOM      8  H   LIG d   1       8.871  -1.661  -3.980  0.00  0.00     0.023 H 
ATOM      9  H   LIG d   1       7.373  -1.936  -4.901  0.00  0.00     0.023 H 
ENDBRANCH   3   6
ENDBRANCH   1   3
BRANCH   1  10
ATOM     10  C   LIG d   1       8.517   2.036  -3.880  0.00  0.00    -0.028 C 
ATOM     11  H   LIG d   1       7.824   2.876  -3.919  0.00  0.00     0.026 H 
ATOM     12  H   LIG d   1       9.021   2.025  -2.914  0.00  0.00     0.026 H 
ATOM     13  H   LIG d   1       9.256   2.136  -4.675  0.00  0.00     0.026 H 
ENDBRANCH   1  10
BRANCH   1  14
ATOM     14  O   LIG d   1       6.363   1.018  -4.287  0.00  0.00    -0.460 OA
BRANCH  14  15
ATOM     15  C   LIG d   1       5.511   0.721  -3.293  0.00  0.00     0.342 C 
ATOM     16  O   LIG d   1       5.579   1.313  -2.242  0.00  0.00    -0.249 OA
BRANCH  15  17
ATOM     17  C   LIG d   1       4.469  -0.351  -3.488  0.00  0.00     0.309 C 
ATOM     18 BR   LIG d   1       4.540  -1.004  -5.342  0.00  0.00    -0.054 Br
BRANCH  17  19
ATOM     19  C   LIG d   1       4.746  -1.510  -2.528  0.00  0.00     0.424 C 
ATOM     20  F   LIG d   1       4.001  -2.628  -2.919  0.00  0.00    -0.168 F 
ATOM     21  F   LIG d   1       6.109  -1.825  -2.559  0.00  0.00    -0.168 F 
ATOM     22  F   LIG d   1       4.382  -1.137  -1.230  0.00  0.00    -0.168 F 
ENDBRANCH  17  19
BRANCH  17  23
ATOM     23  C   LIG d   1       3.082   0.228  -3.204  0.00  0.00     0.424 C 
ATOM     24  F   LIG d   1       3.141   1.044  -2.069  0.00  0.00    -0.168 F 
ATOM     25  F   LIG d   1       2.660   0.986  -4.302  0.00  0.00    -0.168 F 
ATOM     26  F   LIG d   1       2.178  -0.816  -2.981  0.00  0.00    -0.168 F 
ENDBRANCH  17  23
ENDBRANCH  15  17
ENDBRANCH  14  15
ENDBRANCH   1  14
TORSDOF 8
ENDMDL
MODEL 4
REMARK VINA RESULT:      -5.5      2.014      3.011
REMARK  8 active torsions:
REMARK  status: ('A' for Active; 'I' for Inactive)
REMARK    1  A    between atoms: C_1  and  C_2 
REMARK    2  A    between atoms: C_2  and  C_3 
REMARK    3  A    between atoms: C_3  and  C_5 
REMARK    4  A    between atoms: C_3  and  O_6 
REMARK    5  A    between atoms: O_6  and  C_7 
REMARK    6  A    between atoms: C_7  and  C_9 
REMARK    7  A    between atoms: C_9  and  C_10 
REMARK    8  A    between atoms: C_9  and  C_14 
ROOT
ATOM      1  C   LIG d   1       5.110  -2.439  -6.444  0.00  0.00     0.100 C 
ATOM      2  H   LIG d   1       5.772  -1.700  -6.895  0.00  0.00     0.073 H 
ENDROOT
BRANCH   1   3
ATOM      3  C   LIG d   1       5.945  -3.537  -5.784  0.00  0.00    -0.019 C 
ATOM      4  H   LIG d   1       6.440  -3.135  -4.900  0.00  0.00     0.030 H 
ATOM      5  H   LIG d   1       6.694  -3.897  -6.488  0.00  0.00     0.030 H 
BRANCH   3   6
ATOM      6  C   LIG d   1       5.032  -4.696  -5.374  0.00  0.00    -0.062 C 
ATOM      7  H   LIG d   1       5.386  -5.617  -5.838  0.00  0.00     0.023 H 
ATOM      8  H   LIG d   1       5.047  -4.804  -4.290  0.00  0.00     0.023 H 
ATOM      9  H   LIG d   1       4.015  -4.490  -5.706  0.00  0.00     0.023 H 
ENDBRANCH   3   6
ENDBRANCH   1   3
BRANCH   1  10
ATOM     10  C   LIG d   1       4.220  -3.054  -7.526  0.00  0.00    -0.028 C 
ATOM     11  H   LIG d   1       4.537  -2.695  -8.504  0.00  0.00     0.026 H 
ATOM     12  H   LIG d   1       4.306  -4.140  -7.492  0.00  0.00     0.026 H 
ATOM     13  H   LIG d   1       3.184  -2.766  -7.350  0.00  0.00     0.026 H 
ENDBRANCH   1  10
BRANCH   1  14
ATOM     14  O   LIG d   1       4.291  -1.805  -5.458  0.00  0.00    -0.460 OA
BRANCH  14  15
ATOM     15  C   LIG d   1       4.752  -0.662  -4.927  0.00  0.00     0.342 C 
ATOM     16  O   LIG d   1       5.368   0.119  -5.614  0.00  0.00    -0.249 OA
BRANCH  15  17
ATOM     17  C   LIG d   1       4.503  -0.352  -3.472  0.00  0.00     0.309 C 
ATOM     18 BR   LIG d   1       5.709   1.088  -2.893  0.00  0.00    -0.054 Br
BRANCH  17  19
ATOM     19  C   LIG d   1       3.051   0.092  -3.288  0.00  0.00     0.424 C 
ATOM     20  F   LIG d   1       2.593   0.691  -4.467  0.00  0.00    -0.168 F 
ATOM     21  F   LIG d   1       2.257  -1.021  -2.992  0.00  0.00    -0.168 F 
ATOM     22  F   LIG d   1       2.975   1.013  -2.237  0.00  0.00    -0.168 F 
ENDBRANCH  17  19
BRANCH  17  23
ATOM     23  C   LIG d   1       4.764  -1.605  -2.633  0.00  0.00     0.424 C 
ATOM     24  F   LIG d   1       3.910  -2.632  -3.049  0.00  0.00    -0.168 F 
ATOM     25  F   LIG d   1       6.094  -2.008  -2.799  0.00  0.00    -0.168 F 
ATOM     26  F   LIG d   1       4.527  -1.320  -1.284  0.00  0.00    -0.168 F 
ENDBRANCH  17  23
ENDBRANCH  15  17
ENDBRANCH  14  15
ENDBRANCH   1  14
TORSDOF 8
ENDMDL
MODEL 5
REMARK VINA RESULT:      -5.5      1.501      2.966
REMARK  8 active torsions:
REMARK  status: ('A' for Active; 'I' for Inactive)
REMARK    1  A    between atoms: C_1  and  C_2 
REMARK    2  A    between atoms: C_2  and  C_3 
REMARK    3  A    between atoms: C_3  and  C_5 
REMARK    4  A    between atoms: C_3  and  O_6 
REMARK    5  A    between atoms: O_6  and  C_7 
REMARK    6  A    between atoms: C_7  and  C_9 
REMARK    7  A    between atoms: C_9  and  C_10 
REMARK    8  A    between atoms: C_9  and  C_14 
ROOT
ATOM      1  C   LIG d   1       4.223  -0.270  -7.120  0.00  0.00     0.100 C 
ATOM      2  H   LIG d   1       4.324  -1.352  -7.033  0.00  0.00     0.073 H 
ENDROOT
BRANCH   1   3
ATOM      3  C   LIG d   1       2.822   0.071  -7.630  0.00  0.00    -0.019 C 
ATOM      4  H   LIG d   1       2.132   0.127  -6.787  0.00  0.00     0.030 H 
ATOM      5  H   LIG d   1       2.488  -0.702  -8.322  0.00  0.00     0.030 H 
BRANCH   3   6
ATOM      6  C   LIG d   1       2.856   1.421  -8.350  0.00  0.00    -0.062 C 
ATOM      7  H   LIG d   1       3.288   2.174  -7.691  0.00  0.00     0.023 H 
ATOM      8  H   LIG d   1       3.462   1.336  -9.252  0.00  0.00     0.023 H 
ATOM      9  H   LIG d   1       1.841   1.714  -8.620  0.00  0.00     0.023 H 
ENDBRANCH   3   6
ENDBRANCH   1   3
BRANCH   1  10
ATOM     10  C   LIG d   1       5.268   0.261  -8.103  0.00  0.00    -0.028 C 
ATOM     11  H   LIG d   1       5.899  -0.559  -8.442  0.00  0.00     0.026 H 
ATOM     12  H   LIG d   1       4.764   0.710  -8.960  0.00  0.00     0.026 H 
ATOM     13  H   LIG d   1       5.882   1.013  -7.608  0.00  0.00     0.026 H 
ENDBRANCH   1  10
BRANCH   1  14
ATOM     14  O   LIG d   1       4.424   0.331  -5.839  0.00  0.00    -0.460 OA
BRANCH  14  15
ATOM     15  C   LIG d   1       4.999  -0.428  -4.893  0.00  0.00     0.342 C 
ATOM     16  O   LIG d   1       6.053  -0.976  -5.116  0.00  0.00    -0.249 OA
BRANCH  15  17
ATOM     17  C   LIG d   1       4.330  -0.597  -3.553  0.00  0.00     0.309 C 
ATOM     18 BR   LIG d   1       2.387  -0.373  -3.758  0.00  0.00    -0.054 Br
BRANCH  17  19
ATOM     19  C   LIG d   1       4.628  -1.995  -3.008  0.00  0.00     0.424 C 
ATOM     20  F   LIG d   1       5.950  -2.047  -2.553  0.00  0.00    -0.168 F 
ATOM     21  F   LIG d   1       3.759  -2.276  -1.947  0.00  0.00    -0.168 F 
ATOM     22  F   LIG d   1       4.446  -2.940  -4.023  0.00  0.00    -0.168 F 
ENDBRANCH  17  19
BRANCH  17  23
ATOM     23  C   LIG d   1       4.865   0.455  -2.580  0.00  0.00     0.424 C 
ATOM     24  F   LIG d   1       4.553   0.080  -1.269  0.00  0.00    -0.168 F 
ATOM     25  F   LIG d   1       6.253   0.555  -2.719  0.00  0.00    -0.168 F 
ATOM     26  F   LIG d   1       4.276   1.693  -2.862  0.00  0.00    -0.168 F 
ENDBRANCH  17  23
ENDBRANCH  15  17
ENDBRANCH  14  15
ENDBRANCH   1  14
TORSDOF 8
ENDMDL
MODEL 6
REMARK VINA RESULT:      -5.4      2.277      3.650
REMARK  8 active torsions:
REMARK  status: ('A' for Active; 'I' for Inactive)
REMARK    1  A    between atoms: C_1  and  C_2 
REMARK    2  A    between atoms: C_2  and  C_3 
REMARK    3  A    between atoms: C_3  and  C_5 
REMARK    4  A    between atoms: C_3  and  O_6 
REMARK    5  A    between atoms: O_6  and  C_7 
REMARK    6  A    between atoms: C_7  and  C_9 
REMARK    7  A    between atoms: C_9  and  C_10 
REMARK    8  A    between atoms: C_9  and  C_14 
ROOT
ATOM      1  C   LIG d   1       6.622  -1.367  -5.835  0.00  0.00     0.100 C 
ATOM      2  H   LIG d   1       7.430  -1.649  -5.160  0.00  0.00     0.073 H 
ENDROOT
BRANCH   1   3
ATOM      3  C   LIG d   1       5.757  -2.593  -6.135  0.00  0.00    -0.019 C 
ATOM      4  H   LIG d   1       5.766  -2.790  -7.207  0.00  0.00     0.030 H 
ATOM      5  H   LIG d   1       4.735  -2.405  -5.808  0.00  0.00     0.030 H 
BRANCH   3   6
ATOM      6  C   LIG d   1       6.317  -3.806  -5.389  0.00  0.00    -0.062 C 
ATOM      7  H   LIG d   1       5.815  -4.710  -5.737  0.00  0.00     0.023 H 
ATOM      8  H   LIG d   1       7.387  -3.888  -5.579  0.00  0.00     0.023 H 
ATOM      9  H   LIG d   1       6.145  -3.685  -4.319  0.00  0.00     0.023 H 
ENDBRANCH   3   6
ENDBRANCH   1   3
BRANCH   1  10
ATOM     10  C   LIG d   1       7.211  -0.826  -7.139  0.00  0.00    -0.028 C 
ATOM     11  H   LIG d   1       7.367  -1.649  -7.836  0.00  0.00     0.026 H 
ATOM     12  H   LIG d   1       6.520  -0.105  -7.577  0.00  0.00     0.026 H 
ATOM     13  H   LIG d   1       8.163  -0.339  -6.932  0.00  0.00     0.026 H 
ENDBRANCH   1  10
BRANCH   1  14
ATOM     14  O   LIG d   1       5.819  -0.357  -5.220  0.00  0.00    -0.460 OA
BRANCH  14  15
ATOM     15  C   LIG d   1       5.614  -0.461  -3.898  0.00  0.00     0.342 C 
ATOM     16  O   LIG d   1       6.522  -0.789  -3.170  0.00  0.00    -0.249 OA
BRANCH  15  17
ATOM     17  C   LIG d   1       4.253  -0.170  -3.321  0.00  0.00     0.309 C 
ATOM     18 BR   LIG d   1       3.002   0.258  -4.776  0.00  0.00    -0.054 Br
BRANCH  17  19
ATOM     19  C   LIG d   1       3.749  -1.398  -2.560  0.00  0.00     0.424 C 
ATOM     20  F   LIG d   1       2.370  -1.286  -2.354  0.00  0.00    -0.168 F 
ATOM     21  F   LIG d   1       4.017  -2.551  -3.307  0.00  0.00    -0.168 F 
ATOM     22  F   LIG d   1       4.401  -1.481  -1.324  0.00  0.00    -0.168 F 
ENDBRANCH  17  19
BRANCH  17  23
ATOM     23  C   LIG d   1       4.349   1.020  -2.364  0.00  0.00     0.424 C 
ATOM     24  F   LIG d   1       4.774   0.575  -1.107  0.00  0.00    -0.168 F 
ATOM     25  F   LIG d   1       5.268   1.948  -2.866  0.00  0.00    -0.168 F 
ATOM     26  F   LIG d   1       3.093   1.624  -2.244  0.00  0.00    -0.168 F 
ENDBRANCH  17  23
ENDBRANCH  15  17
ENDBRANCH  14  15
ENDBRANCH   1  14
TORSDOF 8
ENDMDL
MODEL 7
REMARK VINA RESULT:      -5.4      1.637      2.901
REMARK  8 active torsions:
REMARK  status: ('A' for Active; 'I' for Inactive)
REMARK    1  A    between atoms: C_1  and  C_2 
REMARK    2  A    between atoms: C_2  and  C_3 
REMARK    3  A    between atoms: C_3  and  C_5 
REMARK    4  A    between atoms: C_3  and  O_6 
REMARK    5  A    between atoms: O_6  and  C_7 
REMARK    6  A    between atoms: C_7  and  C_9 
REMARK    7  A    between atoms: C_9  and  C_10 
REMARK    8  A    between atoms: C_9  and  C_14 
ROOT
ATOM      1  C   LIG d   1       3.856  -0.184  -6.863  0.00  0.00     0.100 C 
ATOM      2  H   LIG d   1       4.253   0.822  -6.733  0.00  0.00     0.073 H 
ENDROOT
BRANCH   1   3
ATOM      3  C   LIG d   1       4.907  -1.064  -7.542  0.00  0.00    -0.019 C 
ATOM      4  H   LIG d   1       5.888  -0.851  -7.116  0.00  0.00     0.030 H 
ATOM      5  H   LIG d   1       4.921  -0.853  -8.611  0.00  0.00     0.030 H 
BRANCH   3   6
ATOM      6  C   LIG d   1       4.562  -2.537  -7.317  0.00  0.00    -0.062 C 
ATOM      7  H   LIG d   1       4.480  -3.042  -8.280  0.00  0.00     0.023 H 
ATOM      8  H   LIG d   1       5.347  -3.008  -6.725  0.00  0.00     0.023 H 
ATOM      9  H   LIG d   1       3.613  -2.611  -6.787  0.00  0.00     0.023 H 
ENDBRANCH   3   6
ENDBRANCH   1   3
BRANCH   1  10
ATOM     10  C   LIG d   1       2.598  -0.128  -7.732  0.00  0.00    -0.028 C 
ATOM     11  H   LIG d   1       1.925  -0.938  -7.451  0.00  0.00     0.026 H 
ATOM     12  H   LIG d   1       2.097   0.829  -7.583  0.00  0.00     0.026 H 
ATOM     13  H   LIG d   1       2.876  -0.233  -8.780  0.00  0.00     0.026 H 
ENDBRANCH   1  10
BRANCH   1  14
ATOM     14  O   LIG d   1       3.527  -0.734  -5.585  0.00  0.00    -0.460 OA
BRANCH  14  15
ATOM     15  C   LIG d   1       3.651   0.076  -4.522  0.00  0.00     0.342 C 
ATOM     16  O   LIG d   1       3.100   1.152  -4.515  0.00  0.00    -0.249 OA
BRANCH  15  17
ATOM     17  C   LIG d   1       4.478  -0.355  -3.338  0.00  0.00     0.309 C 
ATOM     18 BR   LIG d   1       4.533   1.097  -2.014  0.00  0.00    -0.054 Br
BRANCH  17  19
ATOM     19  C   LIG d   1       3.852  -1.599  -2.705  0.00  0.00     0.424 C 
ATOM     20  F   LIG d   1       4.417  -1.816  -1.444  0.00  0.00    -0.168 F 
ATOM     21  F   LIG d   1       2.473  -1.409  -2.572  0.00  0.00    -0.168 F 
ATOM     22  F   LIG d   1       4.094  -2.709  -3.522  0.00  0.00    -0.168 F 
ENDBRANCH  17  19
BRANCH  17  23
ATOM     23  C   LIG d   1       5.900  -0.678  -3.800  0.00  0.00     0.424 C 
ATOM     24  F   LIG d   1       5.926  -1.953  -4.375  0.00  0.00    -0.168 F 
ATOM     25  F   LIG d   1       6.309   0.269  -4.746  0.00  0.00    -0.168 F 
ATOM     26  F   LIG d   1       6.767  -0.645  -2.702  0.00  0.00    -0.168 F 
ENDBRANCH  17  23
ENDBRANCH  15  17
ENDBRANCH  14  15
ENDBRANCH   1  14
TORSDOF 8
ENDMDL
MODEL 8
REMARK VINA RESULT:      -5.4      2.635      3.523
REMARK  8 active torsions:
REMARK  status: ('A' for Active; 'I' for Inactive)
REMARK    1  A    between atoms: C_1  and  C_2 
REMARK    2  A    between atoms: C_2  and  C_3 
REMARK    3  A    between atoms: C_3  and  C_5 
REMARK    4  A    between atoms: C_3  and  O_6 
REMARK    5  A    between atoms: O_6  and  C_7 
REMARK    6  A    between atoms: C_7  and  C_9 
REMARK    7  A    between atoms: C_9  and  C_10 
REMARK    8  A    between atoms: C_9  and  C_14 
ROOT
ATOM      1  C   LIG d   1       7.493   0.705  -4.658  0.00  0.00     0.100 C 
ATOM      2  H   LIG d   1       7.897  -0.205  -4.214  0.00  0.00     0.073 H 
ENDROOT
BRANCH   1   3
ATOM      3  C   LIG d   1       7.917   0.788  -6.125  0.00  0.00    -0.019 C 
ATOM      4  H   LIG d   1       7.035   0.712  -6.762  0.00  0.00     0.030 H 
ATOM      5  H   LIG d   1       8.601  -0.029  -6.352  0.00  0.00     0.030 H 
BRANCH   3   6
ATOM      6  C   LIG d   1       8.617   2.125  -6.380  0.00  0.00    -0.062 C 
ATOM      7  H   LIG d   1       9.321   2.325  -5.572  0.00  0.00     0.023 H 
ATOM      8  H   LIG d   1       9.153   2.080  -7.328  0.00  0.00     0.023 H 
ATOM      9  H   LIG d   1       7.874   2.921  -6.420  0.00  0.00     0.023 H 
ENDBRANCH   3   6
ENDBRANCH   1   3
BRANCH   1  10
ATOM     10  C   LIG d   1       8.029   1.923  -3.902  0.00  0.00    -0.028 C 
ATOM     11  H   LIG d   1       7.474   2.811  -4.203  0.00  0.00     0.026 H 
ATOM     12  H   LIG d   1       7.909   1.765  -2.829  0.00  0.00     0.026 H 
ATOM     13  H   LIG d   1       9.085   2.057  -4.133  0.00  0.00     0.026 H 
ENDBRANCH   1  10
BRANCH   1  14
ATOM     14  O   LIG d   1       6.066   0.683  -4.574  0.00  0.00    -0.460 OA
BRANCH  14  15
ATOM     15  C   LIG d   1       5.506  -0.397  -4.006  0.00  0.00     0.342 C 
ATOM     16  O   LIG d   1       6.071  -1.464  -4.050  0.00  0.00    -0.249 OA
BRANCH  15  17
ATOM     17  C   LIG d   1       4.171  -0.278  -3.316  0.00  0.00     0.309 C 
ATOM     18 BR   LIG d   1       3.753  -1.969  -2.404  0.00  0.00    -0.054 Br
BRANCH  17  19
ATOM     19  C   LIG d   1       4.228   0.855  -2.290  0.00  0.00     0.424 C 
ATOM     20  F   LIG d   1       2.929   1.288  -2.002  0.00  0.00    -0.168 F 
ATOM     21  F   LIG d   1       4.835   0.391  -1.118  0.00  0.00    -0.168 F 
ATOM     22  F   LIG d   1       4.971   1.920  -2.811  0.00  0.00    -0.168 F 
ENDBRANCH  17  19
BRANCH  17  23
ATOM     23  C   LIG d   1       3.087   0.024  -4.352  0.00  0.00     0.424 C 
ATOM     24  F   LIG d   1       2.929   1.409  -4.471  0.00  0.00    -0.168 F 
ATOM     25  F   LIG d   1       3.463  -0.510  -5.589  0.00  0.00    -0.168 F 
ATOM     26  F   LIG d   1       1.878  -0.549  -3.943  0.00  0.00    -0.168 F 
ENDBRANCH  17  23
ENDBRANCH  15  17
ENDBRANCH  14  15
ENDBRANCH   1  14
TORSDOF 8
ENDMDL
MODEL 9
REMARK VINA RESULT:      -5.3      1.600      2.388
REMARK  8 active torsions:
REMARK  status: ('A' for Active; 'I' for Inactive)
REMARK    1  A    between atoms: C_1  and  C_2 
REMARK    2  A    between atoms: C_2  and  C_3 
REMARK    3  A    between atoms: C_3  and  C_5 
REMARK    4  A    between atoms: C_3  and  O_6 
REMARK    5  A    between atoms: O_6  and  C_7 
REMARK    6  A    between atoms: C_7  and  C_9 
REMARK    7  A    between atoms: C_9  and  C_10 
REMARK    8  A    between atoms: C_9  and  C_14 
ROOT
ATOM      1  C   LIG d   1       3.999  -0.199  -7.010  0.00  0.00     0.100 C 
ATOM      2  H   LIG d   1       4.648   0.649  -6.797  0.00  0.00     0.073 H 
ENDROOT
BRANCH   1   3
ATOM      3  C   LIG d   1       4.792  -1.274  -7.756  0.00  0.00    -0.019 C 
ATOM      4  H   LIG d   1       4.536  -1.245  -8.815  0.00  0.00     0.030 H 
ATOM      5  H   LIG d   1       4.546  -2.254  -7.349  0.00  0.00     0.030 H 
BRANCH   3   6
ATOM      6  C   LIG d   1       6.290  -1.012  -7.585  0.00  0.00    -0.062 C 
ATOM      7  H   LIG d   1       6.436  -0.151  -6.932  0.00  0.00     0.023 H 
ATOM      8  H   LIG d   1       6.764  -1.889  -7.144  0.00  0.00     0.023 H 
ATOM      9  H   LIG d   1       6.736  -0.809  -8.559  0.00  0.00     0.023 H 
ENDBRANCH   3   6
ENDBRANCH   1   3
BRANCH   1  10
ATOM     10  C   LIG d   1       2.825   0.263  -7.876  0.00  0.00    -0.028 C 
ATOM     11  H   LIG d   1       1.903  -0.185  -7.508  0.00  0.00     0.026 H 
ATOM     12  H   LIG d   1       2.745   1.349  -7.829  0.00  0.00     0.026 H 
ATOM     13  H   LIG d   1       2.992  -0.045  -8.908  0.00  0.00     0.026 H 
ENDBRANCH   1  10
BRANCH   1  14
ATOM     14  O   LIG d   1       3.502  -0.738  -5.783  0.00  0.00    -0.460 OA
BRANCH  14  15
ATOM     15  C   LIG d   1       3.818  -0.081  -4.656  0.00  0.00     0.342 C 
ATOM     16  O   LIG d   1       3.440   1.055  -4.493  0.00  0.00    -0.249 OA
BRANCH  15  17
ATOM     17  C   LIG d   1       4.646  -0.760  -3.595  0.00  0.00     0.309 C 
ATOM     18 BR   LIG d   1       5.029  -2.608  -4.145  0.00  0.00    -0.054 Br
BRANCH  17  19
ATOM     19  C   LIG d   1       5.960   0.000  -3.410  0.00  0.00     0.424 C 
ATOM     20  F   LIG d   1       6.923  -0.857  -2.866  0.00  0.00    -0.168 F 
ATOM     21  F   LIG d   1       6.403   0.473  -4.650  0.00  0.00    -0.168 F 
ATOM     22  F   LIG d   1       5.755   1.081  -2.545  0.00  0.00    -0.168 F 
ENDBRANCH  17  19
BRANCH  17  23
ATOM     23  C   LIG d   1       3.871  -0.772  -2.275  0.00  0.00     0.424 C 
ATOM     24  F   LIG d   1       3.802   0.529  -1.764  0.00  0.00    -0.168 F 
ATOM     25  F   LIG d   1       2.577  -1.254  -2.498  0.00  0.00    -0.168 F 
ATOM     26  F   LIG d   1       4.527  -1.599  -1.357  0.00  0.00    -0.168 F 
ENDBRANCH  17  23
ENDBRANCH  15  17
ENDBRANCH  14  15
ENDBRANCH   1  14
TORSDOF 8
ENDMDL
