MODEL 1
REMARK VINA RESULT:      -7.1      0.000      0.000
REMARK  5 active torsions:
REMARK  status: ('A' for Active; 'I' for Inactive)
REMARK    1  A    between atoms: C_1  and  N_2 
REMARK    2  A    between atoms: C_9  and  O_26 
REMARK    3  A    between atoms: C_10  and  C_13 
REMARK    4  A    between atoms: C_16  and  C_19 
REMARK    5  A    between atoms: C_24  and  O_25 
ROOT
ATOM      1  N   LIG d   1       6.352  -0.457  -4.984  0.00  0.00    -0.310 N 
ATOM      2  C   LIG d   1       5.282  -0.732  -4.158  0.00  0.00     0.055 A 
ATOM      3  C   LIG d   1       5.494  -1.102  -2.832  0.00  0.00    -0.037 A 
ATOM      4  C   LIG d   1       4.419  -1.375  -2.015  0.00  0.00    -0.060 A 
ATOM      5  C   LIG d   1       3.120  -1.277  -2.496  0.00  0.00    -0.061 A 
ATOM      6  C   LIG d   1       2.888  -0.922  -3.793  0.00  0.00    -0.049 A 
ATOM      7  C   LIG d   1       3.965  -0.640  -4.643  0.00  0.00     0.041 A 
ATOM      8  C   LIG d   1       3.734  -0.250  -6.037  0.00  0.00     0.140 A 
ATOM      9  C   LIG d   1       4.839   0.018  -6.839  0.00  0.00     0.104 A 
ATOM     10  C   LIG d   1       6.179  -0.097  -6.266  0.00  0.00     0.264 A 
ATOM     11  O   LIG d   1       7.152   0.137  -6.962  0.00  0.00    -0.267 OA
ATOM     12  H   LIG d   1       6.500  -1.176  -2.446  0.00  0.00     0.064 H 
ATOM     13  H   LIG d   1       4.588  -1.661  -0.987  0.00  0.00     0.062 H 
ATOM     14  H   LIG d   1       2.289  -1.490  -1.841  0.00  0.00     0.062 H 
ATOM     15  H   LIG d   1       1.875  -0.852  -4.163  0.00  0.00     0.062 H 
ENDROOT
BRANCH   9  16
ATOM     16  C   LIG d   1       4.661   0.413  -8.246  0.00  0.00     0.077 A 
ATOM     17  C   LIG d   1       5.123  -0.387  -9.442  0.00  0.00     0.016 A 
ATOM     18  C   LIG d   1       4.693   0.468 -10.650  0.00  0.00     0.072 A 
ATOM     19  H   LIG d   1       6.207  -0.507  -9.426  0.00  0.00     0.035 H 
ATOM     20  H   LIG d   1       4.632  -1.360  -9.465  0.00  0.00     0.035 H 
ATOM     21  N   LIG d   1       4.046   1.637 -10.033  0.00  0.00    -0.261 N 
ATOM     22  H   LIG d   1       5.561   0.773 -11.233  0.00  0.00     0.057 H 
ATOM     23  N   LIG d   1       4.082   1.493  -8.648  0.00  0.00    -0.190 NA
ATOM     24  H   LIG d   1       3.654   2.384 -10.512  0.00  0.00     0.169 HD
BRANCH  18  25
ATOM     25  C   LIG d   1       3.716  -0.288 -11.513  0.00  0.00     0.016 A 
ATOM     26  C   LIG d   1       4.079  -0.677 -12.795  0.00  0.00     0.122 A 
ATOM     27  C   LIG d   1       3.178  -1.377 -13.586  0.00  0.00    -0.020 A 
ATOM     28  C   LIG d   1       1.921  -1.677 -13.099  0.00  0.00    -0.058 A 
ATOM     29  H   LIG d   1       3.460  -1.685 -14.582  0.00  0.00     0.065 H 
ATOM     30  C   LIG d   1       1.560  -1.284 -11.823  0.00  0.00    -0.061 A 
ATOM     31  H   LIG d   1       1.219  -2.218 -13.715  0.00  0.00     0.062 H 
ATOM     32  C   LIG d   1       2.456  -0.589 -11.032  0.00  0.00    -0.053 A 
ATOM     33  H   LIG d   1       0.576  -1.519 -11.445  0.00  0.00     0.062 H 
ATOM     34  H   LIG d   1       2.172  -0.284 -10.036  0.00  0.00     0.062 H 
BRANCH  26  35
ATOM     35  O   LIG d   1       5.314  -0.377 -13.273  0.00  0.00    -0.506 OA
ATOM     36  H   LIG d   1       5.599  -0.939 -14.007  0.00  0.00     0.292 HD
ENDBRANCH  26  35
ENDBRANCH  18  25
ENDBRANCH   9  16
BRANCH   8  37
ATOM     37  O   LIG d   1       2.479  -0.154  -6.531  0.00  0.00    -0.505 OA
ATOM     38  H   LIG d   1       1.982  -0.983  -6.510  0.00  0.00     0.292 HD
ENDBRANCH   8  37
BRANCH   1  39
ATOM     39  C   LIG d   1       7.712  -0.560  -4.448  0.00  0.00     0.015 C 
ATOM     40  H   LIG d   1       8.163  -1.494  -4.781  0.00  0.00     0.046 H 
ATOM     41  H   LIG d   1       8.308   0.279  -4.805  0.00  0.00     0.046 H 
ATOM     42  H   LIG d   1       7.676  -0.543  -3.358  0.00  0.00     0.046 H 
ENDBRANCH   1  39
TORSDOF 5
ENDMDL
MODEL 2
REMARK VINA RESULT:      -6.7      5.744      7.136
REMARK  5 active torsions:
REMARK  status: ('A' for Active; 'I' for Inactive)
REMARK    1  A    between atoms: C_1  and  N_2 
REMARK    2  A    between atoms: C_9  and  O_26 
REMARK    3  A    between atoms: C_10  and  C_13 
REMARK    4  A    between atoms: C_16  and  C_19 
REMARK    5  A    between atoms: C_24  and  O_25 
ROOT
ATOM      1  N   LIG d   1       6.999  -1.881  -4.468  0.00  0.00    -0.310 N 
ATOM      2  C   LIG d   1       5.927  -1.521  -3.677  0.00  0.00     0.055 A 
ATOM      3  C   LIG d   1       4.979  -2.471  -3.304  0.00  0.00    -0.037 A 
ATOM      4  C   LIG d   1       3.912  -2.103  -2.514  0.00  0.00    -0.060 A 
ATOM      5  C   LIG d   1       3.772  -0.793  -2.078  0.00  0.00    -0.061 A 
ATOM      6  C   LIG d   1       4.686   0.157  -2.436  0.00  0.00    -0.049 A 
ATOM      7  C   LIG d   1       5.778  -0.194  -3.238  0.00  0.00     0.041 A 
ATOM      8  C   LIG d   1       6.773   0.811  -3.627  0.00  0.00     0.140 A 
ATOM      9  C   LIG d   1       7.839   0.410  -4.425  0.00  0.00     0.104 A 
ATOM     10  C   LIG d   1       7.929  -0.988  -4.844  0.00  0.00     0.264 A 
ATOM     11  O   LIG d   1       8.860  -1.347  -5.543  0.00  0.00    -0.267 OA
ATOM     12  H   LIG d   1       5.081  -3.495  -3.634  0.00  0.00     0.064 H 
ATOM     13  H   LIG d   1       3.179  -2.843  -2.227  0.00  0.00     0.062 H 
ATOM     14  H   LIG d   1       2.932  -0.521  -1.456  0.00  0.00     0.062 H 
ATOM     15  H   LIG d   1       4.569   1.176  -2.097  0.00  0.00     0.062 H 
ENDROOT
BRANCH   9  16
ATOM     16  C   LIG d   1       8.864   1.381  -4.843  0.00  0.00     0.077 A 
ATOM     17  C   LIG d   1       8.757   2.303  -6.036  0.00  0.00     0.016 A 
ATOM     18  C   LIG d   1      10.081   3.092  -6.015  0.00  0.00     0.072 A 
ATOM     19  H   LIG d   1       8.670   1.728  -6.958  0.00  0.00     0.035 H 
ATOM     20  H   LIG d   1       7.907   2.976  -5.925  0.00  0.00     0.035 H 
ATOM     21  N   LIG d   1      10.787   2.552  -4.843  0.00  0.00    -0.261 N 
ATOM     22  H   LIG d   1      10.652   2.908  -6.925  0.00  0.00     0.057 H 
ATOM     23  N   LIG d   1       9.989   1.579  -4.245  0.00  0.00    -0.190 NA
ATOM     24  H   LIG d   1      11.663   2.830  -4.534  0.00  0.00     0.169 HD
BRANCH  18  25
ATOM     25  C   LIG d   1       9.817   4.567  -5.846  0.00  0.00     0.016 A 
ATOM     26  C   LIG d   1       9.943   5.423  -6.930  0.00  0.00     0.122 A 
ATOM     27  C   LIG d   1       9.696   6.780  -6.773  0.00  0.00    -0.020 A 
ATOM     28  C   LIG d   1       9.332   7.274  -5.535  0.00  0.00    -0.058 A 
ATOM     29  H   LIG d   1       9.788   7.447  -7.615  0.00  0.00     0.065 H 
ATOM     30  C   LIG d   1       9.213   6.419  -4.454  0.00  0.00    -0.061 A 
ATOM     31  H   LIG d   1       9.144   8.330  -5.411  0.00  0.00     0.062 H 
ATOM     32  C   LIG d   1       9.456   5.067  -4.610  0.00  0.00    -0.053 A 
ATOM     33  H   LIG d   1       8.930   6.809  -3.488  0.00  0.00     0.062 H 
ATOM     34  H   LIG d   1       9.361   4.401  -3.765  0.00  0.00     0.062 H 
BRANCH  26  35
ATOM     35  O   LIG d   1      10.304   4.934  -8.146  0.00  0.00    -0.506 OA
ATOM     36  H   LIG d   1      11.095   5.348  -8.517  0.00  0.00     0.292 HD
ENDBRANCH  26  35
ENDBRANCH  18  25
ENDBRANCH   9  16
BRANCH   8  37
ATOM     37  O   LIG d   1       6.656   2.096  -3.219  0.00  0.00    -0.505 OA
ATOM     38  H   LIG d   1       7.414   2.420  -2.715  0.00  0.00     0.292 HD
ENDBRANCH   8  37
BRANCH   1  39
ATOM     39  C   LIG d   1       7.125  -3.273  -4.909  0.00  0.00     0.015 C 
ATOM     40  H   LIG d   1       8.136  -3.446  -5.278  0.00  0.00     0.046 H 
ATOM     41  H   LIG d   1       6.925  -3.939  -4.070  0.00  0.00     0.046 H 
ATOM     42  H   LIG d   1       6.409  -3.468  -5.707  0.00  0.00     0.046 H 
ENDBRANCH   1  39
TORSDOF 5
ENDMDL
MODEL 3
REMARK VINA RESULT:      -6.6      5.643      7.351
REMARK  5 active torsions:
REMARK  status: ('A' for Active; 'I' for Inactive)
REMARK    1  A    between atoms: C_1  and  N_2 
REMARK    2  A    between atoms: C_9  and  O_26 
REMARK    3  A    between atoms: C_10  and  C_13 
REMARK    4  A    between atoms: C_16  and  C_19 
REMARK    5  A    between atoms: C_24  and  O_25 
ROOT
ATOM      1  N   LIG d   1       7.003  -0.199  -3.931  0.00  0.00    -0.310 N 
ATOM      2  C   LIG d   1       5.738  -0.085  -3.393  0.00  0.00     0.055 A 
ATOM      3  C   LIG d   1       5.322   1.115  -2.822  0.00  0.00    -0.037 A 
ATOM      4  C   LIG d   1       4.057   1.219  -2.287  0.00  0.00    -0.060 A 
ATOM      5  C   LIG d   1       3.184   0.140  -2.316  0.00  0.00    -0.061 A 
ATOM      6  C   LIG d   1       3.571  -1.049  -2.866  0.00  0.00    -0.049 A 
ATOM      7  C   LIG d   1       4.853  -1.178  -3.415  0.00  0.00     0.041 A 
ATOM      8  C   LIG d   1       5.284  -2.444  -4.015  0.00  0.00     0.140 A 
ATOM      9  C   LIG d   1       6.567  -2.520  -4.547  0.00  0.00     0.104 A 
ATOM     10  C   LIG d   1       7.432  -1.343  -4.489  0.00  0.00     0.264 A 
ATOM     11  O   LIG d   1       8.558  -1.402  -4.953  0.00  0.00    -0.267 OA
ATOM     12  H   LIG d   1       5.992   1.962  -2.798  0.00  0.00     0.064 H 
ATOM     13  H   LIG d   1       3.739   2.152  -1.845  0.00  0.00     0.062 H 
ATOM     14  H   LIG d   1       2.194   0.239  -1.897  0.00  0.00     0.062 H 
ATOM     15  H   LIG d   1       2.889  -1.886  -2.882  0.00  0.00     0.062 H 
ENDROOT
BRANCH   9  16
ATOM     16  C   LIG d   1       7.047  -3.769  -5.161  0.00  0.00     0.077 A 
ATOM     17  C   LIG d   1       8.028  -4.731  -4.529  0.00  0.00     0.016 A 
ATOM     18  C   LIG d   1       8.182  -5.848  -5.580  0.00  0.00     0.072 A 
ATOM     19  H   LIG d   1       8.985  -4.239  -4.351  0.00  0.00     0.035 H 
ATOM     20  H   LIG d   1       7.626  -5.131  -3.598  0.00  0.00     0.035 H 
ATOM     21  N   LIG d   1       7.296  -5.419  -6.673  0.00  0.00    -0.261 N 
ATOM     22  H   LIG d   1       9.213  -5.911  -5.924  0.00  0.00     0.057 H 
ATOM     23  N   LIG d   1       6.693  -4.214  -6.318  0.00  0.00    -0.190 NA
ATOM     24  H   LIG d   1       7.151  -5.899  -7.503  0.00  0.00     0.169 HD
BRANCH  18  25
ATOM     25  C   LIG d   1       7.731  -7.171  -5.015  0.00  0.00     0.016 A 
ATOM     26  C   LIG d   1       8.618  -7.956  -4.293  0.00  0.00     0.122 A 
ATOM     27  C   LIG d   1       8.199  -9.172  -3.772  0.00  0.00    -0.020 A 
ATOM     28  C   LIG d   1       6.902  -9.602  -3.980  0.00  0.00    -0.058 A 
ATOM     29  H   LIG d   1       8.886  -9.783  -3.205  0.00  0.00     0.065 H 
ATOM     30  C   LIG d   1       6.022  -8.820  -4.705  0.00  0.00    -0.061 A 
ATOM     31  H   LIG d   1       6.577 -10.549  -3.578  0.00  0.00     0.062 H 
ATOM     32  C   LIG d   1       6.436  -7.606  -5.223  0.00  0.00    -0.053 A 
ATOM     33  H   LIG d   1       5.009  -9.158  -4.868  0.00  0.00     0.062 H 
ATOM     34  H   LIG d   1       5.746  -6.997  -5.788  0.00  0.00     0.062 H 
BRANCH  26  35
ATOM     35  O   LIG d   1       9.894  -7.534  -4.092  0.00  0.00    -0.506 OA
ATOM     36  H   LIG d   1      10.366  -8.021  -3.404  0.00  0.00     0.292 HD
ENDBRANCH  26  35
ENDBRANCH  18  25
ENDBRANCH   9  16
BRANCH   8  37
ATOM     37  O   LIG d   1       4.454  -3.512  -4.051  0.00  0.00    -0.505 OA
ATOM     38  H   LIG d   1       4.859  -4.315  -4.405  0.00  0.00     0.292 HD
ENDBRANCH   8  37
BRANCH   1  39
ATOM     39  C   LIG d   1       7.902   0.958  -3.893  0.00  0.00     0.015 C 
ATOM     40  H   LIG d   1       7.563   1.705  -4.610  0.00  0.00     0.046 H 
ATOM     41  H   LIG d   1       7.897   1.388  -2.891  0.00  0.00     0.046 H 
ATOM     42  H   LIG d   1       8.913   0.642  -4.148  0.00  0.00     0.046 H 
ENDBRANCH   1  39
TORSDOF 5
ENDMDL
MODEL 4
REMARK VINA RESULT:      -6.6      2.075      2.326
REMARK  5 active torsions:
REMARK  status: ('A' for Active; 'I' for Inactive)
REMARK    1  A    between atoms: C_1  and  N_2 
REMARK    2  A    between atoms: C_9  and  O_26 
REMARK    3  A    between atoms: C_10  and  C_13 
REMARK    4  A    between atoms: C_16  and  C_19 
REMARK    5  A    between atoms: C_24  and  O_25 
ROOT
ATOM      1  N   LIG d   1       4.669  -2.191  -5.066  0.00  0.00    -0.310 N 
ATOM      2  C   LIG d   1       4.402  -1.301  -4.047  0.00  0.00     0.055 A 
ATOM      3  C   LIG d   1       4.772  -1.599  -2.738  0.00  0.00    -0.037 A 
ATOM      4  C   LIG d   1       4.501  -0.704  -1.726  0.00  0.00    -0.060 A 
ATOM      5  C   LIG d   1       3.868   0.501  -1.998  0.00  0.00    -0.061 A 
ATOM      6  C   LIG d   1       3.491   0.814  -3.272  0.00  0.00    -0.049 A 
ATOM      7  C   LIG d   1       3.755  -0.081  -4.316  0.00  0.00     0.041 A 
ATOM      8  C   LIG d   1       3.363   0.240  -5.692  0.00  0.00     0.140 A 
ATOM      9  C   LIG d   1       3.649  -0.684  -6.693  0.00  0.00     0.104 A 
ATOM     10  C   LIG d   1       4.325  -1.931  -6.338  0.00  0.00     0.264 A 
ATOM     11  O   LIG d   1       4.578  -2.745  -7.209  0.00  0.00    -0.267 OA
ATOM     12  H   LIG d   1       5.269  -2.532  -2.517  0.00  0.00     0.064 H 
ATOM     13  H   LIG d   1       4.790  -0.939  -0.713  0.00  0.00     0.062 H 
ATOM     14  H   LIG d   1       3.667   1.194  -1.194  0.00  0.00     0.062 H 
ATOM     15  H   LIG d   1       2.994   1.751  -3.476  0.00  0.00     0.062 H 
ENDROOT
BRANCH   9  16
ATOM     16  C   LIG d   1       3.276  -0.409  -8.090  0.00  0.00     0.077 A 
ATOM     17  C   LIG d   1       4.224   0.062  -9.170  0.00  0.00     0.016 A 
ATOM     18  C   LIG d   1       3.329   0.191 -10.418  0.00  0.00     0.072 A 
ATOM     19  H   LIG d   1       4.654   1.028  -8.906  0.00  0.00     0.035 H 
ATOM     20  H   LIG d   1       5.011  -0.674  -9.335  0.00  0.00     0.035 H 
ATOM     21  N   LIG d   1       1.999  -0.209  -9.934  0.00  0.00    -0.261 N 
ATOM     22  H   LIG d   1       3.314   1.221 -10.774  0.00  0.00     0.057 H 
ATOM     23  N   LIG d   1       2.091  -0.537  -8.583  0.00  0.00    -0.190 NA
ATOM     24  H   LIG d   1       1.190  -0.243 -10.468  0.00  0.00     0.169 HD
BRANCH  18  25
ATOM     25  C   LIG d   1       3.802  -0.738 -11.507  0.00  0.00     0.016 A 
ATOM     26  C   LIG d   1       3.806  -2.109 -11.296  0.00  0.00     0.122 A 
ATOM     27  C   LIG d   1       4.238  -2.962 -12.303  0.00  0.00    -0.020 A 
ATOM     28  C   LIG d   1       4.671  -2.443 -13.507  0.00  0.00    -0.058 A 
ATOM     29  H   LIG d   1       4.237  -4.030 -12.143  0.00  0.00     0.065 H 
ATOM     30  C   LIG d   1       4.672  -1.075 -13.712  0.00  0.00    -0.061 A 
ATOM     31  H   LIG d   1       5.011  -3.106 -14.289  0.00  0.00     0.062 H 
ATOM     32  C   LIG d   1       4.239  -0.224 -12.713  0.00  0.00    -0.053 A 
ATOM     33  H   LIG d   1       5.012  -0.672 -14.655  0.00  0.00     0.062 H 
ATOM     34  H   LIG d   1       4.239   0.844 -12.876  0.00  0.00     0.062 H 
BRANCH  26  35
ATOM     35  O   LIG d   1       3.382  -2.617 -10.109  0.00  0.00    -0.506 OA
ATOM     36  H   LIG d   1       4.050  -3.138  -9.644  0.00  0.00     0.292 HD
ENDBRANCH  26  35
ENDBRANCH  18  25
ENDBRANCH   9  16
BRANCH   8  37
ATOM     37  O   LIG d   1       2.740   1.405  -5.981  0.00  0.00    -0.505 OA
ATOM     38  H   LIG d   1       3.071   1.842  -6.777  0.00  0.00     0.292 HD
ENDBRANCH   8  37
BRANCH   1  39
ATOM     39  C   LIG d   1       5.344  -3.453  -4.753  0.00  0.00     0.015 C 
ATOM     40  H   LIG d   1       6.087  -3.283  -3.974  0.00  0.00     0.046 H 
ATOM     41  H   LIG d   1       4.612  -4.181  -4.404  0.00  0.00     0.046 H 
ATOM     42  H   LIG d   1       5.837  -3.834  -5.648  0.00  0.00     0.046 H 
ENDBRANCH   1  39
TORSDOF 5
ENDMDL
MODEL 5
REMARK VINA RESULT:      -6.6      5.703      8.622
REMARK  5 active torsions:
REMARK  status: ('A' for Active; 'I' for Inactive)
REMARK    1  A    between atoms: C_1  and  N_2 
REMARK    2  A    between atoms: C_9  and  O_26 
REMARK    3  A    between atoms: C_10  and  C_13 
REMARK    4  A    between atoms: C_16  and  C_19 
REMARK    5  A    between atoms: C_24  and  O_25 
ROOT
ATOM      1  N   LIG d   1       9.320  -7.070  -4.840  0.00  0.00    -0.310 N 
ATOM      2  C   LIG d   1       9.872  -7.421  -3.625  0.00  0.00     0.055 A 
ATOM      3  C   LIG d   1      10.373  -8.705  -3.425  0.00  0.00    -0.037 A 
ATOM      4  C   LIG d   1      10.923  -9.046  -2.209  0.00  0.00    -0.060 A 
ATOM      5  C   LIG d   1      10.990  -8.120  -1.177  0.00  0.00    -0.061 A 
ATOM      6  C   LIG d   1      10.500  -6.857  -1.348  0.00  0.00    -0.049 A 
ATOM      7  C   LIG d   1       9.937  -6.487  -2.575  0.00  0.00     0.041 A 
ATOM      8  C   LIG d   1       9.411  -5.134  -2.779  0.00  0.00     0.140 A 
ATOM      9  C   LIG d   1       8.861  -4.818  -4.017  0.00  0.00     0.104 A 
ATOM     10  C   LIG d   1       8.829  -5.840  -5.063  0.00  0.00     0.264 A 
ATOM     11  O   LIG d   1       8.349  -5.571  -6.150  0.00  0.00    -0.267 OA
ATOM     12  H   LIG d   1      10.330  -9.432  -4.223  0.00  0.00     0.064 H 
ATOM     13  H   LIG d   1      11.311 -10.042  -2.058  0.00  0.00     0.062 H 
ATOM     14  H   LIG d   1      11.428  -8.401  -0.231  0.00  0.00     0.062 H 
ATOM     15  H   LIG d   1      10.552  -6.142  -0.539  0.00  0.00     0.062 H 
ENDROOT
BRANCH   9  16
ATOM     16  C   LIG d   1       8.320  -3.473  -4.272  0.00  0.00     0.077 A 
ATOM     17  C   LIG d   1       6.864  -3.151  -4.520  0.00  0.00     0.016 A 
ATOM     18  C   LIG d   1       6.852  -1.624  -4.725  0.00  0.00     0.072 A 
ATOM     19  H   LIG d   1       6.507  -3.660  -5.415  0.00  0.00     0.035 H 
ATOM     20  H   LIG d   1       6.259  -3.428  -3.657  0.00  0.00     0.035 H 
ATOM     21  N   LIG d   1       8.265  -1.243  -4.577  0.00  0.00    -0.261 N 
ATOM     22  H   LIG d   1       6.490  -1.374  -5.722  0.00  0.00     0.057 H 
ATOM     23  N   LIG d   1       9.015  -2.388  -4.313  0.00  0.00    -0.190 NA
ATOM     24  H   LIG d   1       8.617  -0.342  -4.647  0.00  0.00     0.169 HD
BRANCH  18  25
ATOM     25  C   LIG d   1       6.005  -0.954  -3.672  0.00  0.00     0.016 A 
ATOM     26  C   LIG d   1       6.039   0.425  -3.529  0.00  0.00     0.122 A 
ATOM     27  C   LIG d   1       5.255   1.039  -2.561  0.00  0.00    -0.020 A 
ATOM     28  C   LIG d   1       4.452   0.274  -1.738  0.00  0.00    -0.058 A 
ATOM     29  H   LIG d   1       5.276   2.112  -2.451  0.00  0.00     0.065 H 
ATOM     30  C   LIG d   1       4.425  -1.102  -1.880  0.00  0.00    -0.061 A 
ATOM     31  H   LIG d   1       3.845   0.750  -0.983  0.00  0.00     0.062 H 
ATOM     32  C   LIG d   1       5.202  -1.715  -2.845  0.00  0.00    -0.053 A 
ATOM     33  H   LIG d   1       3.796  -1.697  -1.234  0.00  0.00     0.062 H 
ATOM     34  H   LIG d   1       5.179  -2.789  -2.954  0.00  0.00     0.062 H 
BRANCH  26  35
ATOM     35  O   LIG d   1       6.833   1.175  -4.337  0.00  0.00    -0.506 OA
ATOM     36  H   LIG d   1       6.561   1.176  -5.265  0.00  0.00     0.292 HD
ENDBRANCH  26  35
ENDBRANCH  18  25
ENDBRANCH   9  16
BRANCH   8  37
ATOM     37  O   LIG d   1       9.460  -4.215  -1.787  0.00  0.00    -0.505 OA
ATOM     38  H   LIG d   1       9.856  -3.373  -2.049  0.00  0.00     0.292 HD
ENDBRANCH   8  37
BRANCH   1  39
ATOM     39  C   LIG d   1       9.267  -8.066  -5.914  0.00  0.00     0.015 C 
ATOM     40  H   LIG d   1       9.771  -8.976  -5.589  0.00  0.00     0.046 H 
ATOM     41  H   LIG d   1       8.227  -8.290  -6.151  0.00  0.00     0.046 H 
ATOM     42  H   LIG d   1       9.766  -7.671  -6.799  0.00  0.00     0.046 H 
ENDBRANCH   1  39
TORSDOF 5
ENDMDL
MODEL 6
REMARK VINA RESULT:      -6.5      2.264      7.676
REMARK  5 active torsions:
REMARK  status: ('A' for Active; 'I' for Inactive)
REMARK    1  A    between atoms: C_1  and  N_2 
REMARK    2  A    between atoms: C_9  and  O_26 
REMARK    3  A    between atoms: C_10  and  C_13 
REMARK    4  A    between atoms: C_16  and  C_19 
REMARK    5  A    between atoms: C_24  and  O_25 
ROOT
ATOM      1  N   LIG d   1       3.049  -0.693 -10.774  0.00  0.00    -0.310 N 
ATOM      2  C   LIG d   1       4.392  -0.649 -11.088  0.00  0.00     0.055 A 
ATOM      3  C   LIG d   1       4.827  -0.999 -12.364  0.00  0.00    -0.037 A 
ATOM      4  C   LIG d   1       6.170  -0.952 -12.669  0.00  0.00    -0.060 A 
ATOM      5  C   LIG d   1       7.099  -0.551 -11.718  0.00  0.00    -0.061 A 
ATOM      6  C   LIG d   1       6.696  -0.209 -10.459  0.00  0.00    -0.049 A 
ATOM      7  C   LIG d   1       5.337  -0.250 -10.126  0.00  0.00     0.041 A 
ATOM      8  C   LIG d   1       4.886   0.120  -8.781  0.00  0.00     0.140 A 
ATOM      9  C   LIG d   1       3.524   0.063  -8.502  0.00  0.00     0.104 A 
ATOM     10  C   LIG d   1       2.600  -0.361  -9.553  0.00  0.00     0.264 A 
ATOM     11  O   LIG d   1       1.405  -0.414  -9.316  0.00  0.00    -0.267 OA
ATOM     12  H   LIG d   1       4.112  -1.307 -13.113  0.00  0.00     0.064 H 
ATOM     13  H   LIG d   1       6.503  -1.224 -13.659  0.00  0.00     0.062 H 
ATOM     14  H   LIG d   1       8.147  -0.516 -11.974  0.00  0.00     0.062 H 
ATOM     15  H   LIG d   1       7.425   0.097  -9.722  0.00  0.00     0.062 H 
ENDROOT
BRANCH   9  16
ATOM     16  C   LIG d   1       3.021   0.424  -7.167  0.00  0.00     0.077 A 
ATOM     17  C   LIG d   1       2.622  -0.559  -6.089  0.00  0.00     0.016 A 
ATOM     18  C   LIG d   1       2.175   0.337  -4.917  0.00  0.00     0.072 A 
ATOM     19  H   LIG d   1       1.796  -1.184  -6.429  0.00  0.00     0.035 H 
ATOM     20  H   LIG d   1       3.473  -1.175  -5.800  0.00  0.00     0.035 H 
ATOM     21  N   LIG d   1       2.361   1.701  -5.434  0.00  0.00    -0.261 N 
ATOM     22  H   LIG d   1       1.128   0.158  -4.675  0.00  0.00     0.057 H 
ATOM     23  N   LIG d   1       2.856   1.628  -6.734  0.00  0.00    -0.190 NA
ATOM     24  H   LIG d   1       2.174   2.520  -4.948  0.00  0.00     0.169 HD
BRANCH  18  25
ATOM     25  C   LIG d   1       3.045   0.101  -3.709  0.00  0.00     0.016 A 
ATOM     26  C   LIG d   1       3.652   1.174  -3.071  0.00  0.00     0.122 A 
ATOM     27  C   LIG d   1       4.450   0.954  -1.956  0.00  0.00    -0.020 A 
ATOM     28  C   LIG d   1       4.644  -0.332  -1.490  0.00  0.00    -0.058 A 
ATOM     29  H   LIG d   1       4.919   1.786  -1.455  0.00  0.00     0.065 H 
ATOM     30  C   LIG d   1       4.042  -1.400  -2.132  0.00  0.00    -0.061 A 
ATOM     31  H   LIG d   1       5.267  -0.504  -0.626  0.00  0.00     0.062 H 
ATOM     32  C   LIG d   1       3.244  -1.183  -3.240  0.00  0.00    -0.053 A 
ATOM     33  H   LIG d   1       4.196  -2.404  -1.766  0.00  0.00     0.062 H 
ATOM     34  H   LIG d   1       2.775  -2.018  -3.739  0.00  0.00     0.062 H 
BRANCH  26  35
ATOM     35  O   LIG d   1       3.463   2.437  -3.533  0.00  0.00    -0.506 OA
ATOM     36  H   LIG d   1       2.544   2.736  -3.497  0.00  0.00     0.292 HD
ENDBRANCH  26  35
ENDBRANCH  18  25
ENDBRANCH   9  16
BRANCH   8  37
ATOM     37  O   LIG d   1       5.772   0.508  -7.835  0.00  0.00    -0.505 OA
ATOM     38  H   LIG d   1       5.680   1.431  -7.564  0.00  0.00     0.292 HD
ENDBRANCH   8  37
BRANCH   1  39
ATOM     39  C   LIG d   1       2.090  -1.113 -11.799  0.00  0.00     0.015 C 
ATOM     40  H   LIG d   1       1.412  -0.289 -12.021  0.00  0.00     0.046 H 
ATOM     41  H   LIG d   1       2.627  -1.396 -12.704  0.00  0.00     0.046 H 
ATOM     42  H   LIG d   1       1.518  -1.965 -11.434  0.00  0.00     0.046 H 
ENDBRANCH   1  39
TORSDOF 5
ENDMDL
MODEL 7
REMARK VINA RESULT:      -6.3      5.003      7.750
REMARK  5 active torsions:
REMARK  status: ('A' for Active; 'I' for Inactive)
REMARK    1  A    between atoms: C_1  and  N_2 
REMARK    2  A    between atoms: C_9  and  O_26 
REMARK    3  A    between atoms: C_10  and  C_13 
REMARK    4  A    between atoms: C_16  and  C_19 
REMARK    5  A    between atoms: C_24  and  O_25 
ROOT
ATOM      1  N   LIG d   1       9.649  -5.632  -4.623  0.00  0.00    -0.310 N 
ATOM      2  C   LIG d   1      10.793  -4.911  -4.348  0.00  0.00     0.055 A 
ATOM      3  C   LIG d   1      12.003  -5.567  -4.136  0.00  0.00    -0.037 A 
ATOM      4  C   LIG d   1      13.140  -4.839  -3.862  0.00  0.00    -0.060 A 
ATOM      5  C   LIG d   1      13.097  -3.453  -3.800  0.00  0.00    -0.061 A 
ATOM      6  C   LIG d   1      11.921  -2.788  -3.999  0.00  0.00    -0.049 A 
ATOM      7  C   LIG d   1      10.752  -3.507  -4.279  0.00  0.00     0.041 A 
ATOM      8  C   LIG d   1       9.482  -2.810  -4.500  0.00  0.00     0.140 A 
ATOM      9  C   LIG d   1       8.350  -3.571  -4.775  0.00  0.00     0.104 A 
ATOM     10  C   LIG d   1       8.468  -5.027  -4.832  0.00  0.00     0.264 A 
ATOM     11  O   LIG d   1       7.481  -5.701  -5.072  0.00  0.00    -0.267 OA
ATOM     12  H   LIG d   1      12.049  -6.645  -4.187  0.00  0.00     0.064 H 
ATOM     13  H   LIG d   1      14.077  -5.352  -3.699  0.00  0.00     0.062 H 
ATOM     14  H   LIG d   1      13.998  -2.897  -3.588  0.00  0.00     0.062 H 
ATOM     15  H   LIG d   1      11.893  -1.710  -3.945  0.00  0.00     0.062 H 
ENDROOT
BRANCH   9  16
ATOM     16  C   LIG d   1       7.051  -2.918  -5.005  0.00  0.00     0.077 A 
ATOM     17  C   LIG d   1       5.859  -2.996  -4.078  0.00  0.00     0.016 A 
ATOM     18  C   LIG d   1       4.782  -2.150  -4.786  0.00  0.00     0.072 A 
ATOM     19  H   LIG d   1       5.524  -4.029  -3.971  0.00  0.00     0.035 H 
ATOM     20  H   LIG d   1       6.103  -2.572  -3.105  0.00  0.00     0.035 H 
ATOM     21  N   LIG d   1       5.454  -1.689  -6.011  0.00  0.00    -0.261 N 
ATOM     22  H   LIG d   1       3.914  -2.761  -5.031  0.00  0.00     0.057 H 
ATOM     23  N   LIG d   1       6.755  -2.189  -6.027  0.00  0.00    -0.190 NA
ATOM     24  H   LIG d   1       5.059  -1.126  -6.694  0.00  0.00     0.169 HD
BRANCH  18  25
ATOM     25  C   LIG d   1       4.379  -0.979  -3.926  0.00  0.00     0.016 A 
ATOM     26  C   LIG d   1       3.471  -0.046  -4.406  0.00  0.00     0.122 A 
ATOM     27  C   LIG d   1       3.098   1.028  -3.611  0.00  0.00    -0.020 A 
ATOM     28  C   LIG d   1       3.638   1.171  -2.347  0.00  0.00    -0.058 A 
ATOM     29  H   LIG d   1       2.388   1.753  -3.980  0.00  0.00     0.065 H 
ATOM     30  C   LIG d   1       4.548   0.242  -1.874  0.00  0.00    -0.061 A 
ATOM     31  H   LIG d   1       3.352   2.008  -1.730  0.00  0.00     0.062 H 
ATOM     32  C   LIG d   1       4.918  -0.831  -2.663  0.00  0.00    -0.053 A 
ATOM     33  H   LIG d   1       4.969   0.356  -0.886  0.00  0.00     0.062 H 
ATOM     34  H   LIG d   1       5.627  -1.555  -2.291  0.00  0.00     0.062 H 
BRANCH  26  35
ATOM     35  O   LIG d   1       2.943  -0.187  -5.651  0.00  0.00    -0.506 OA
ATOM     36  H   LIG d   1       2.572   0.628  -6.015  0.00  0.00     0.292 HD
ENDBRANCH  26  35
ENDBRANCH  18  25
ENDBRANCH   9  16
BRANCH   8  37
ATOM     37  O   LIG d   1       9.412  -1.460  -4.440  0.00  0.00    -0.505 OA
ATOM     38  H   LIG d   1       9.013  -1.122  -3.628  0.00  0.00     0.292 HD
ENDBRANCH   8  37
BRANCH   1  39
ATOM     39  C   LIG d   1       9.725  -7.093  -4.689  0.00  0.00     0.015 C 
ATOM     40  H   LIG d   1       8.808  -7.485  -5.127  0.00  0.00     0.046 H 
ATOM     41  H   LIG d   1      10.576  -7.386  -5.305  0.00  0.00     0.046 H 
ATOM     42  H   LIG d   1       9.849  -7.497  -3.684  0.00  0.00     0.046 H 
ENDBRANCH   1  39
TORSDOF 5
ENDMDL
MODEL 8
REMARK VINA RESULT:      -6.2      4.929      7.938
REMARK  5 active torsions:
REMARK  status: ('A' for Active; 'I' for Inactive)
REMARK    1  A    between atoms: C_1  and  N_2 
REMARK    2  A    between atoms: C_9  and  O_26 
REMARK    3  A    between atoms: C_10  and  C_13 
REMARK    4  A    between atoms: C_16  and  C_19 
REMARK    5  A    between atoms: C_24  and  O_25 
ROOT
ATOM      1  N   LIG d   1      12.198   1.808  -5.199  0.00  0.00    -0.310 N 
ATOM      2  C   LIG d   1      12.347   2.811  -4.263  0.00  0.00     0.055 A 
ATOM      3  C   LIG d   1      13.603   3.362  -4.017  0.00  0.00    -0.037 A 
ATOM      4  C   LIG d   1      13.742   4.363  -3.081  0.00  0.00    -0.060 A 
ATOM      5  C   LIG d   1      12.641   4.837  -2.381  0.00  0.00    -0.061 A 
ATOM      6  C   LIG d   1      11.401   4.309  -2.601  0.00  0.00    -0.049 A 
ATOM      7  C   LIG d   1      11.235   3.290  -3.548  0.00  0.00     0.041 A 
ATOM      8  C   LIG d   1       9.911   2.716  -3.802  0.00  0.00     0.140 A 
ATOM      9  C   LIG d   1       9.800   1.706  -4.752  0.00  0.00     0.104 A 
ATOM     10  C   LIG d   1      11.000   1.258  -5.458  0.00  0.00     0.264 A 
ATOM     11  O   LIG d   1      10.912   0.374  -6.292  0.00  0.00    -0.267 OA
ATOM     12  H   LIG d   1      14.466   3.003  -4.560  0.00  0.00     0.064 H 
ATOM     13  H   LIG d   1      14.718   4.787  -2.894  0.00  0.00     0.062 H 
ATOM     14  H   LIG d   1      12.767   5.625  -1.654  0.00  0.00     0.062 H 
ATOM     15  H   LIG d   1      10.549   4.679  -2.050  0.00  0.00     0.062 H 
ENDROOT
BRANCH   9  16
ATOM     16  C   LIG d   1       8.493   1.096  -5.044  0.00  0.00     0.077 A 
ATOM     17  C   LIG d   1       7.857  -0.025  -4.254  0.00  0.00     0.016 A 
ATOM     18  C   LIG d   1       6.519  -0.276  -4.976  0.00  0.00     0.072 A 
ATOM     19  H   LIG d   1       8.482  -0.918  -4.286  0.00  0.00     0.035 H 
ATOM     20  H   LIG d   1       7.686   0.283  -3.222  0.00  0.00     0.035 H 
ATOM     21  N   LIG d   1       6.530   0.702  -6.074  0.00  0.00    -0.261 N 
ATOM     22  H   LIG d   1       6.479  -1.292  -5.368  0.00  0.00     0.057 H 
ATOM     23  N   LIG d   1       7.711   1.439  -6.010  0.00  0.00    -0.190 NA
ATOM     24  H   LIG d   1       5.828   0.820  -6.733  0.00  0.00     0.169 HD
BRANCH  18  25
ATOM     25  C   LIG d   1       5.359  -0.022  -4.046  0.00  0.00     0.016 A 
ATOM     26  C   LIG d   1       4.082  -0.432  -4.402  0.00  0.00     0.122 A 
ATOM     27  C   LIG d   1       3.017  -0.200  -3.542  0.00  0.00    -0.020 A 
ATOM     28  C   LIG d   1       3.231   0.446  -2.339  0.00  0.00    -0.058 A 
ATOM     29  H   LIG d   1       2.024  -0.522  -3.814  0.00  0.00     0.065 H 
ATOM     30  C   LIG d   1       4.504   0.858  -1.990  0.00  0.00    -0.061 A 
ATOM     31  H   LIG d   1       2.402   0.630  -1.672  0.00  0.00     0.062 H 
ATOM     32  C   LIG d   1       5.567   0.625  -2.843  0.00  0.00    -0.053 A 
ATOM     33  H   LIG d   1       4.667   1.363  -1.050  0.00  0.00     0.062 H 
ATOM     34  H   LIG d   1       6.560   0.948  -2.568  0.00  0.00     0.062 H 
BRANCH  26  35
ATOM     35  O   LIG d   1       3.875  -1.063  -5.587  0.00  0.00    -0.506 OA
ATOM     36  H   LIG d   1       3.267  -0.599  -6.179  0.00  0.00     0.292 HD
ENDBRANCH  26  35
ENDBRANCH  18  25
ENDBRANCH   9  16
BRANCH   8  37
ATOM     37  O   LIG d   1       8.823   3.157  -3.129  0.00  0.00    -0.505 OA
ATOM     38  H   LIG d   1       9.029   3.608  -2.300  0.00  0.00     0.292 HD
ENDBRANCH   8  37
BRANCH   1  39
ATOM     39  C   LIG d   1      13.376   1.331  -5.928  0.00  0.00     0.015 C 
ATOM     40  H   LIG d   1      13.101   0.472  -6.539  0.00  0.00     0.046 H 
ATOM     41  H   LIG d   1      13.754   2.128  -6.569  0.00  0.00     0.046 H 
ATOM     42  H   LIG d   1      14.150   1.039  -5.217  0.00  0.00     0.046 H 
ENDBRANCH   1  39
TORSDOF 5
ENDMDL
MODEL 9
REMARK VINA RESULT:      -6.2      5.119      7.566
REMARK  5 active torsions:
REMARK  status: ('A' for Active; 'I' for Inactive)
REMARK    1  A    between atoms: C_1  and  N_2 
REMARK    2  A    between atoms: C_9  and  O_26 
REMARK    3  A    between atoms: C_10  and  C_13 
REMARK    4  A    between atoms: C_16  and  C_19 
REMARK    5  A    between atoms: C_24  and  O_25 
ROOT
ATOM      1  N   LIG d   1       7.865  -5.729  -5.007  0.00  0.00    -0.310 N 
ATOM      2  C   LIG d   1       7.289  -6.938  -5.338  0.00  0.00     0.055 A 
ATOM      3  C   LIG d   1       8.059  -8.098  -5.370  0.00  0.00    -0.037 A 
ATOM      4  C   LIG d   1       7.475  -9.301  -5.701  0.00  0.00    -0.060 A 
ATOM      5  C   LIG d   1       6.120  -9.373  -5.997  0.00  0.00    -0.061 A 
ATOM      6  C   LIG d   1       5.346  -8.248  -5.978  0.00  0.00    -0.049 A 
ATOM      7  C   LIG d   1       5.918  -7.015  -5.644  0.00  0.00     0.041 A 
ATOM      8  C   LIG d   1       5.102  -5.797  -5.612  0.00  0.00     0.140 A 
ATOM      9  C   LIG d   1       5.719  -4.597  -5.275  0.00  0.00     0.104 A 
ATOM     10  C   LIG d   1       7.149  -4.593  -4.967  0.00  0.00     0.264 A 
ATOM     11  O   LIG d   1       7.696  -3.546  -4.671  0.00  0.00    -0.267 OA
ATOM     12  H   LIG d   1       9.113  -8.054  -5.137  0.00  0.00     0.064 H 
ATOM     13  H   LIG d   1       8.075 -10.198  -5.725  0.00  0.00     0.062 H 
ATOM     14  H   LIG d   1       5.677 -10.325  -6.251  0.00  0.00     0.062 H 
ATOM     15  H   LIG d   1       4.294  -8.311  -6.214  0.00  0.00     0.062 H 
ENDROOT
BRANCH   9  16
ATOM     16  C   LIG d   1       4.943  -3.347  -5.228  0.00  0.00     0.077 A 
ATOM     17  C   LIG d   1       3.972  -2.963  -4.135  0.00  0.00     0.016 A 
ATOM     18  C   LIG d   1       3.447  -1.582  -4.573  0.00  0.00     0.072 A 
ATOM     19  H   LIG d   1       3.156  -3.682  -4.078  0.00  0.00     0.035 H 
ATOM     20  H   LIG d   1       4.486  -2.892  -3.176  0.00  0.00     0.035 H 
ATOM     21  N   LIG d   1       4.154  -1.328  -5.838  0.00  0.00    -0.261 N 
ATOM     22  H   LIG d   1       2.370  -1.615  -4.735  0.00  0.00     0.057 H 
ATOM     23  N   LIG d   1       4.990  -2.409  -6.112  0.00  0.00    -0.190 NA
ATOM     24  H   LIG d   1       4.057  -0.537  -6.390  0.00  0.00     0.169 HD
BRANCH  18  25
ATOM     25  C   LIG d   1       3.795  -0.532  -3.548  0.00  0.00     0.016 A 
ATOM     26  C   LIG d   1       3.398   0.783  -3.740  0.00  0.00     0.122 A 
ATOM     27  C   LIG d   1       3.717   1.747  -2.793  0.00  0.00    -0.020 A 
ATOM     28  C   LIG d   1       4.435   1.394  -1.666  0.00  0.00    -0.058 A 
ATOM     29  H   LIG d   1       3.405   2.770  -2.937  0.00  0.00     0.065 H 
ATOM     30  C   LIG d   1       4.834   0.083  -1.481  0.00  0.00    -0.061 A 
ATOM     31  H   LIG d   1       4.686   2.144  -0.931  0.00  0.00     0.062 H 
ATOM     32  C   LIG d   1       4.515  -0.879  -2.421  0.00  0.00    -0.053 A 
ATOM     33  H   LIG d   1       5.396  -0.189  -0.600  0.00  0.00     0.062 H 
ATOM     34  H   LIG d   1       4.827  -1.902  -2.274  0.00  0.00     0.062 H 
BRANCH  26  35
ATOM     35  O   LIG d   1       2.695   1.128  -4.851  0.00  0.00    -0.506 OA
ATOM     36  H   LIG d   1       2.010   0.492  -5.095  0.00  0.00     0.292 HD
ENDBRANCH  26  35
ENDBRANCH  18  25
ENDBRANCH   9  16
BRANCH   8  37
ATOM     37  O   LIG d   1       3.781  -5.841  -5.902  0.00  0.00    -0.505 OA
ATOM     38  H   LIG d   1       3.447  -6.729  -6.086  0.00  0.00     0.292 HD
ENDBRANCH   8  37
BRANCH   1  39
ATOM     39  C   LIG d   1       9.295  -5.682  -4.692  0.00  0.00     0.015 C 
ATOM     40  H   LIG d   1       9.644  -4.651  -4.741  0.00  0.00     0.046 H 
ATOM     41  H   LIG d   1       9.459  -6.075  -3.689  0.00  0.00     0.046 H 
ATOM     42  H   LIG d   1       9.846  -6.286  -5.414  0.00  0.00     0.046 H 
ENDBRANCH   1  39
TORSDOF 5
ENDMDL
