MODEL 1
REMARK VINA RESULT:      -6.2      0.000      0.000
REMARK  5 active torsions:
REMARK  status: ('A' for Active; 'I' for Inactive)
REMARK    1  A    between atoms: C_4  and  C_7 
REMARK    2  A    between atoms: C_8  and  C_22 
REMARK    3  A    between atoms: C_11  and  N_21 
REMARK    4  A    between atoms: C_12  and  C_19 
REMARK    5  A    between atoms: C_14  and  C_17 
ROOT
ATOM      1  C   LIG d   1       4.149  -1.420  -8.020  0.00  0.00     0.098 A 
ATOM      2  C   LIG d   1       3.674  -2.425  -8.896  0.00  0.00     0.098 A 
ATOM      3  N   LIG d   1       3.789  -3.700  -8.571  0.00  0.00    -0.241 NA
ATOM      4  C   LIG d   1       4.363  -4.042  -7.415  0.00  0.00     0.112 A 
ATOM      5  C   LIG d   1       4.490  -5.403  -7.046  0.00  0.00     0.063 A 
ATOM      6  C   LIG d   1       5.087  -5.753  -5.828  0.00  0.00     0.038 A 
ATOM      7  C   LIG d   1       5.562  -4.774  -4.947  0.00  0.00    -0.037 A 
ATOM      8  C   LIG d   1       5.453  -3.427  -5.267  0.00  0.00     0.042 A 
ATOM      9  C   LIG d   1       4.832  -3.036  -6.538  0.00  0.00     0.102 A 
ATOM     10  N   LIG d   1       4.712  -1.751  -6.870  0.00  0.00    -0.242 NA
ATOM     11  H   LIG d   1       6.018  -5.068  -4.014  0.00  0.00     0.063 H 
ENDROOT
BRANCH   1  12
ATOM     12  C   LIG d   1       4.015   0.007  -8.393  0.00  0.00     0.003 A 
ATOM     13  C   LIG d   1       5.058   0.659  -9.051  0.00  0.00    -0.052 A 
ATOM     14  C   LIG d   1       4.927   1.988  -9.397  0.00  0.00    -0.061 A 
ATOM     15  H   LIG d   1       5.966   0.125  -9.289  0.00  0.00     0.062 H 
ATOM     16  C   LIG d   1       3.765   2.675  -9.093  0.00  0.00    -0.062 A 
ATOM     17  H   LIG d   1       5.734   2.495  -9.907  0.00  0.00     0.062 H 
ATOM     18  C   LIG d   1       2.728   2.033  -8.439  0.00  0.00    -0.061 A 
ATOM     19  H   LIG d   1       3.668   3.715  -9.365  0.00  0.00     0.062 H 
ATOM     20  C   LIG d   1       2.843   0.703  -8.094  0.00  0.00    -0.052 A 
ATOM     21  H   LIG d   1       1.823   2.574  -8.204  0.00  0.00     0.062 H 
ATOM     22  H   LIG d   1       2.031   0.202  -7.588  0.00  0.00     0.062 H 
ENDBRANCH   1  12
BRANCH   2  23
ATOM     23  C   LIG d   1       3.044  -2.047 -10.183  0.00  0.00     0.003 A 
ATOM     24  C   LIG d   1       3.822  -1.919 -11.333  0.00  0.00    -0.052 A 
ATOM     25  C   LIG d   1       3.230  -1.566 -12.528  0.00  0.00    -0.061 A 
ATOM     26  H   LIG d   1       4.886  -2.096 -11.288  0.00  0.00     0.062 H 
ATOM     27  C   LIG d   1       1.867  -1.337 -12.586  0.00  0.00    -0.062 A 
ATOM     28  H   LIG d   1       3.831  -1.467 -13.419  0.00  0.00     0.062 H 
ATOM     29  C   LIG d   1       1.089  -1.462 -11.448  0.00  0.00    -0.061 A 
ATOM     30  H   LIG d   1       1.407  -1.061 -13.524  0.00  0.00     0.062 H 
ATOM     31  C   LIG d   1       1.669  -1.821 -10.249  0.00  0.00    -0.052 A 
ATOM     32  H   LIG d   1       0.025  -1.283 -11.501  0.00  0.00     0.062 H 
ATOM     33  H   LIG d   1       1.061  -1.922  -9.362  0.00  0.00     0.062 H 
ENDBRANCH   2  23
BRANCH   8  34
ATOM     34  C   LIG d   1       5.951  -2.407  -4.344  0.00  0.00     0.152 C 
ATOM     35  O   LIG d   1       5.322  -2.136  -3.341  0.00  0.00    -0.296 OA
ATOM     36  H   LIG d   1       6.878  -1.894  -4.554  0.00  0.00     0.108 H 
ENDBRANCH   8  34
BRANCH   5  37
ATOM     37  N   LIG d   1       4.032  -6.385  -7.891  0.00  0.00    -0.356 N 
ATOM     38  H   LIG d   1       4.439  -7.266  -7.877  0.00  0.00     0.142 HD
ATOM     39  H   LIG d   1       3.299  -6.200  -8.497  0.00  0.00     0.142 HD
ENDBRANCH   5  37
BRANCH   6  40
ATOM     40  C   LIG d   1       5.214  -7.169  -5.467  0.00  0.00     0.152 C 
ATOM     41  O   LIG d   1       4.222  -7.863  -5.376  0.00  0.00    -0.296 OA
ATOM     42  H   LIG d   1       6.189  -7.594  -5.284  0.00  0.00     0.108 H 
ENDBRANCH   6  40
TORSDOF 5
ENDMDL
MODEL 2
REMARK VINA RESULT:      -6.2      3.300      6.826
REMARK  5 active torsions:
REMARK  status: ('A' for Active; 'I' for Inactive)
REMARK    1  A    between atoms: C_4  and  C_7 
REMARK    2  A    between atoms: C_8  and  C_22 
REMARK    3  A    between atoms: C_11  and  N_21 
REMARK    4  A    between atoms: C_12  and  C_19 
REMARK    5  A    between atoms: C_14  and  C_17 
ROOT
ATOM      1  C   LIG d   1       5.004  -0.975  -6.041  0.00  0.00     0.098 A 
ATOM      2  C   LIG d   1       5.982  -1.821  -6.616  0.00  0.00     0.098 A 
ATOM      3  N   LIG d   1       6.147  -1.851  -7.926  0.00  0.00    -0.241 NA
ATOM      4  C   LIG d   1       5.384  -1.087  -8.710  0.00  0.00     0.112 A 
ATOM      5  C   LIG d   1       5.551  -1.102 -10.117  0.00  0.00     0.063 A 
ATOM      6  C   LIG d   1       4.752  -0.291 -10.933  0.00  0.00     0.038 A 
ATOM      7  C   LIG d   1       3.780   0.553 -10.383  0.00  0.00    -0.037 A 
ATOM      8  C   LIG d   1       3.586   0.603  -9.009  0.00  0.00     0.042 A 
ATOM      9  C   LIG d   1       4.411  -0.237  -8.134  0.00  0.00     0.102 A 
ATOM     10  N   LIG d   1       4.249  -0.209  -6.812  0.00  0.00    -0.242 NA
ATOM     11  H   LIG d   1       3.175   1.168 -11.033  0.00  0.00     0.063 H 
ENDROOT
BRANCH   1  12
ATOM     12  C   LIG d   1       4.825  -0.946  -4.571  0.00  0.00     0.003 A 
ATOM     13  C   LIG d   1       5.329   0.121  -3.826  0.00  0.00    -0.052 A 
ATOM     14  C   LIG d   1       5.159   0.143  -2.457  0.00  0.00    -0.061 A 
ATOM     15  H   LIG d   1       5.849   0.928  -4.319  0.00  0.00     0.062 H 
ATOM     16  C   LIG d   1       4.493  -0.890  -1.822  0.00  0.00    -0.062 A 
ATOM     17  H   LIG d   1       5.548   0.969  -1.878  0.00  0.00     0.062 H 
ATOM     18  C   LIG d   1       3.993  -1.951  -2.556  0.00  0.00    -0.061 A 
ATOM     19  H   LIG d   1       4.363  -0.869  -0.750  0.00  0.00     0.062 H 
ATOM     20  C   LIG d   1       4.150  -1.982  -3.926  0.00  0.00    -0.052 A 
ATOM     21  H   LIG d   1       3.473  -2.755  -2.056  0.00  0.00     0.062 H 
ATOM     22  H   LIG d   1       3.755  -2.809  -4.498  0.00  0.00     0.062 H 
ENDBRANCH   1  12
BRANCH   2  23
ATOM     23  C   LIG d   1       6.824  -2.675  -5.746  0.00  0.00     0.003 A 
ATOM     24  C   LIG d   1       6.603  -4.050  -5.690  0.00  0.00    -0.052 A 
ATOM     25  C   LIG d   1       7.390  -4.841  -4.878  0.00  0.00    -0.061 A 
ATOM     26  H   LIG d   1       5.818  -4.497  -6.282  0.00  0.00     0.062 H 
ATOM     27  C   LIG d   1       8.396  -4.270  -4.119  0.00  0.00    -0.062 A 
ATOM     28  H   LIG d   1       7.221  -5.906  -4.834  0.00  0.00     0.062 H 
ATOM     29  C   LIG d   1       8.619  -2.906  -4.169  0.00  0.00    -0.061 A 
ATOM     30  H   LIG d   1       9.010  -4.893  -3.484  0.00  0.00     0.062 H 
ATOM     31  C   LIG d   1       7.844  -2.106  -4.983  0.00  0.00    -0.052 A 
ATOM     32  H   LIG d   1       9.407  -2.466  -3.575  0.00  0.00     0.062 H 
ATOM     33  H   LIG d   1       8.021  -1.042  -5.025  0.00  0.00     0.062 H 
ENDBRANCH   2  23
BRANCH   8  34
ATOM     34  C   LIG d   1       2.568   1.487  -8.439  0.00  0.00     0.152 C 
ATOM     35  O   LIG d   1       2.891   2.556  -7.962  0.00  0.00    -0.296 OA
ATOM     36  H   LIG d   1       1.530   1.188  -8.442  0.00  0.00     0.108 H 
ENDBRANCH   8  34
BRANCH   5  37
ATOM     37  N   LIG d   1       6.498  -1.921 -10.684  0.00  0.00    -0.356 N 
ATOM     38  H   LIG d   1       7.344  -1.550 -10.983  0.00  0.00     0.142 HD
ATOM     39  H   LIG d   1       6.324  -2.869 -10.781  0.00  0.00     0.142 HD
ENDBRANCH   5  37
BRANCH   6  40
ATOM     40  C   LIG d   1       4.937  -0.326 -12.387  0.00  0.00     0.152 C 
ATOM     41  O   LIG d   1       4.585  -1.300 -13.020  0.00  0.00    -0.296 OA
ATOM     42  H   LIG d   1       5.386   0.515 -12.895  0.00  0.00     0.108 H 
ENDBRANCH   6  40
TORSDOF 5
ENDMDL
MODEL 3
REMARK VINA RESULT:      -6.2      5.514      7.754
REMARK  5 active torsions:
REMARK  status: ('A' for Active; 'I' for Inactive)
REMARK    1  A    between atoms: C_4  and  C_7 
REMARK    2  A    between atoms: C_8  and  C_22 
REMARK    3  A    between atoms: C_11  and  N_21 
REMARK    4  A    between atoms: C_12  and  C_19 
REMARK    5  A    between atoms: C_14  and  C_17 
ROOT
ATOM      1  C   LIG d   1       8.542   1.846  -4.006  0.00  0.00     0.098 A 
ATOM      2  C   LIG d   1       9.150   0.807  -4.751  0.00  0.00     0.098 A 
ATOM      3  N   LIG d   1       8.534  -0.351  -4.902  0.00  0.00    -0.241 NA
ATOM      4  C   LIG d   1       7.337  -0.546  -4.344  0.00  0.00     0.112 A 
ATOM      5  C   LIG d   1       6.659  -1.779  -4.500  0.00  0.00     0.063 A 
ATOM      6  C   LIG d   1       5.399  -1.972  -3.918  0.00  0.00     0.038 A 
ATOM      7  C   LIG d   1       4.781  -0.957  -3.178  0.00  0.00    -0.037 A 
ATOM      8  C   LIG d   1       5.408   0.270  -3.004  0.00  0.00     0.042 A 
ATOM      9  C   LIG d   1       6.728   0.495  -3.605  0.00  0.00     0.102 A 
ATOM     10  N   LIG d   1       7.352   1.663  -3.456  0.00  0.00    -0.242 NA
ATOM     11  H   LIG d   1       3.810  -1.130  -2.738  0.00  0.00     0.063 H 
ENDROOT
BRANCH   1  12
ATOM     12  C   LIG d   1       9.240   3.142  -3.842  0.00  0.00     0.003 A 
ATOM     13  C   LIG d   1      10.095   3.344  -2.758  0.00  0.00    -0.052 A 
ATOM     14  C   LIG d   1      10.743   4.553  -2.611  0.00  0.00    -0.061 A 
ATOM     15  H   LIG d   1      10.250   2.556  -2.036  0.00  0.00     0.062 H 
ATOM     16  C   LIG d   1      10.546   5.564  -3.535  0.00  0.00    -0.062 A 
ATOM     17  H   LIG d   1      11.406   4.711  -1.773  0.00  0.00     0.062 H 
ATOM     18  C   LIG d   1       9.698   5.369  -4.611  0.00  0.00    -0.061 A 
ATOM     19  H   LIG d   1      11.056   6.509  -3.415  0.00  0.00     0.062 H 
ATOM     20  C   LIG d   1       9.049   4.163  -4.773  0.00  0.00    -0.052 A 
ATOM     21  H   LIG d   1       9.549   6.162  -5.329  0.00  0.00     0.062 H 
ATOM     22  H   LIG d   1       8.392   4.011  -5.616  0.00  0.00     0.062 H 
ENDBRANCH   1  12
BRANCH   2  23
ATOM     23  C   LIG d   1      10.482   1.020  -5.364  0.00  0.00     0.003 A 
ATOM     24  C   LIG d   1      11.639   0.715  -4.648  0.00  0.00    -0.052 A 
ATOM     25  C   LIG d   1      12.877   0.916  -5.224  0.00  0.00    -0.061 A 
ATOM     26  H   LIG d   1      11.567   0.323  -3.644  0.00  0.00     0.062 H 
ATOM     27  C   LIG d   1      12.971   1.419  -6.509  0.00  0.00    -0.062 A 
ATOM     28  H   LIG d   1      13.774   0.679  -4.671  0.00  0.00     0.062 H 
ATOM     29  C   LIG d   1      11.826   1.724  -7.224  0.00  0.00    -0.061 A 
ATOM     30  H   LIG d   1      13.942   1.574  -6.956  0.00  0.00     0.062 H 
ATOM     31  C   LIG d   1      10.583   1.521  -6.662  0.00  0.00    -0.052 A 
ATOM     32  H   LIG d   1      11.906   2.116  -8.228  0.00  0.00     0.062 H 
ATOM     33  H   LIG d   1       9.690   1.755  -7.222  0.00  0.00     0.062 H 
ENDBRANCH   2  23
BRANCH   8  34
ATOM     34  C   LIG d   1       4.758   1.328  -2.231  0.00  0.00     0.152 C 
ATOM     35  O   LIG d   1       3.580   1.238  -1.948  0.00  0.00    -0.296 OA
ATOM     36  H   LIG d   1       5.326   2.189  -1.910  0.00  0.00     0.108 H 
ENDBRANCH   8  34
BRANCH   5  37
ATOM     37  N   LIG d   1       7.242  -2.793  -5.221  0.00  0.00    -0.356 N 
ATOM     38  H   LIG d   1       7.952  -3.323  -4.826  0.00  0.00     0.142 HD
ATOM     39  H   LIG d   1       6.941  -2.981  -6.123  0.00  0.00     0.142 HD
ENDBRANCH   5  37
BRANCH   6  40
ATOM     40  C   LIG d   1       4.716  -3.259  -4.087  0.00  0.00     0.152 C 
ATOM     41  O   LIG d   1       4.351  -3.612  -5.189  0.00  0.00    -0.296 OA
ATOM     42  H   LIG d   1       4.538  -3.893  -3.230  0.00  0.00     0.108 H 
ENDBRANCH   6  40
TORSDOF 5
ENDMDL
MODEL 4
REMARK VINA RESULT:      -6.1      5.854      8.371
REMARK  5 active torsions:
REMARK  status: ('A' for Active; 'I' for Inactive)
REMARK    1  A    between atoms: C_4  and  C_7 
REMARK    2  A    between atoms: C_8  and  C_22 
REMARK    3  A    between atoms: C_11  and  N_21 
REMARK    4  A    between atoms: C_12  and  C_19 
REMARK    5  A    between atoms: C_14  and  C_17 
ROOT
ATOM      1  C   LIG d   1       9.202   0.665  -4.729  0.00  0.00     0.098 A 
ATOM      2  C   LIG d   1       8.563   1.706  -4.014  0.00  0.00     0.098 A 
ATOM      3  N   LIG d   1       7.386   1.501  -3.451  0.00  0.00    -0.241 NA
ATOM      4  C   LIG d   1       6.794   0.310  -3.562  0.00  0.00     0.112 A 
ATOM      5  C   LIG d   1       5.535   0.070  -2.960  0.00  0.00     0.063 A 
ATOM      6  C   LIG d   1       4.924  -1.186  -3.075  0.00  0.00     0.038 A 
ATOM      7  C   LIG d   1       5.540  -2.229  -3.777  0.00  0.00    -0.037 A 
ATOM      8  C   LIG d   1       6.777  -2.039  -4.378  0.00  0.00     0.042 A 
ATOM      9  C   LIG d   1       7.437  -0.732  -4.271  0.00  0.00     0.102 A 
ATOM     10  N   LIG d   1       8.624  -0.521  -4.837  0.00  0.00    -0.242 NA
ATOM     11  H   LIG d   1       5.049  -3.188  -3.852  0.00  0.00     0.063 H 
ENDROOT
BRANCH   1  12
ATOM     12  C   LIG d   1      10.522   0.903  -5.357  0.00  0.00     0.003 A 
ATOM     13  C   LIG d   1      11.693   0.657  -4.638  0.00  0.00    -0.052 A 
ATOM     14  C   LIG d   1      12.919   0.880  -5.229  0.00  0.00    -0.061 A 
ATOM     15  H   LIG d   1      11.639   0.292  -3.624  0.00  0.00     0.062 H 
ATOM     16  C   LIG d   1      12.991   1.348  -6.529  0.00  0.00    -0.062 A 
ATOM     17  H   LIG d   1      13.827   0.689  -4.674  0.00  0.00     0.062 H 
ATOM     18  C   LIG d   1      11.833   1.595  -7.245  0.00  0.00    -0.061 A 
ATOM     19  H   LIG d   1      13.954   1.521  -6.986  0.00  0.00     0.062 H 
ATOM     20  C   LIG d   1      10.600   1.370  -6.669  0.00  0.00    -0.052 A 
ATOM     21  H   LIG d   1      11.895   1.960  -8.260  0.00  0.00     0.062 H 
ATOM     22  H   LIG d   1       9.698   1.559  -7.231  0.00  0.00     0.062 H 
ENDBRANCH   1  12
BRANCH   2  23
ATOM     23  C   LIG d   1       9.216   3.031  -3.897  0.00  0.00     0.003 A 
ATOM     24  C   LIG d   1      10.057   3.303  -2.818  0.00  0.00    -0.052 A 
ATOM     25  C   LIG d   1      10.662   4.539  -2.713  0.00  0.00    -0.061 A 
ATOM     26  H   LIG d   1      10.234   2.549  -2.066  0.00  0.00     0.062 H 
ATOM     27  C   LIG d   1      10.436   5.507  -3.675  0.00  0.00    -0.062 A 
ATOM     28  H   LIG d   1      11.314   4.751  -1.879  0.00  0.00     0.062 H 
ATOM     29  C   LIG d   1       9.602   5.242  -4.747  0.00  0.00    -0.061 A 
ATOM     30  H   LIG d   1      10.912   6.472  -3.590  0.00  0.00     0.062 H 
ATOM     31  C   LIG d   1       8.996   4.009  -4.867  0.00  0.00    -0.052 A 
ATOM     32  H   LIG d   1       9.430   6.002  -5.496  0.00  0.00     0.062 H 
ATOM     33  H   LIG d   1       8.349   3.802  -5.706  0.00  0.00     0.062 H 
ENDBRANCH   2  23
BRANCH   8  34
ATOM     34  C   LIG d   1       7.418  -3.131  -5.111  0.00  0.00     0.152 C 
ATOM     35  O   LIG d   1       7.884  -4.075  -4.507  0.00  0.00    -0.296 OA
ATOM     36  H   LIG d   1       7.476  -3.098  -6.189  0.00  0.00     0.108 H 
ENDBRANCH   8  34
BRANCH   5  37
ATOM     37  N   LIG d   1       4.907   1.075  -2.264  0.00  0.00    -0.356 N 
ATOM     38  H   LIG d   1       4.641   1.889  -2.722  0.00  0.00     0.142 HD
ATOM     39  H   LIG d   1       4.726   0.970  -1.318  0.00  0.00     0.142 HD
ENDBRANCH   5  37
BRANCH   6  40
ATOM     40  C   LIG d   1       3.617  -1.412  -2.448  0.00  0.00     0.152 C 
ATOM     41  O   LIG d   1       2.627  -0.877  -2.901  0.00  0.00    -0.296 OA
ATOM     42  H   LIG d   1       3.537  -2.055  -1.585  0.00  0.00     0.108 H 
ENDBRANCH   6  40
TORSDOF 5
ENDMDL
MODEL 5
REMARK VINA RESULT:      -6.0      4.516      7.788
REMARK  5 active torsions:
REMARK  status: ('A' for Active; 'I' for Inactive)
REMARK    1  A    between atoms: C_4  and  C_7 
REMARK    2  A    between atoms: C_8  and  C_22 
REMARK    3  A    between atoms: C_11  and  N_21 
REMARK    4  A    between atoms: C_12  and  C_19 
REMARK    5  A    between atoms: C_14  and  C_17 
ROOT
ATOM      1  C   LIG d   1       6.197   0.282  -6.630  0.00  0.00     0.098 A 
ATOM      2  C   LIG d   1       6.287   0.318  -5.217  0.00  0.00     0.098 A 
ATOM      3  N   LIG d   1       7.222   1.042  -4.628  0.00  0.00    -0.241 NA
ATOM      4  C   LIG d   1       8.089   1.737  -5.368  0.00  0.00     0.112 A 
ATOM      5  C   LIG d   1       9.094   2.524  -4.754  0.00  0.00     0.063 A 
ATOM      6  C   LIG d   1       9.995   3.256  -5.537  0.00  0.00     0.038 A 
ATOM      7  C   LIG d   1       9.922   3.235  -6.935  0.00  0.00    -0.037 A 
ATOM      8  C   LIG d   1       8.949   2.481  -7.579  0.00  0.00     0.042 A 
ATOM      9  C   LIG d   1       7.994   1.705  -6.779  0.00  0.00     0.102 A 
ATOM     10  N   LIG d   1       7.049   0.974  -7.369  0.00  0.00    -0.242 NA
ATOM     11  H   LIG d   1      10.629   3.807  -7.518  0.00  0.00     0.063 H 
ENDROOT
BRANCH   1  12
ATOM     12  C   LIG d   1       5.146  -0.532  -7.281  0.00  0.00     0.003 A 
ATOM     13  C   LIG d   1       5.389  -1.870  -7.591  0.00  0.00    -0.052 A 
ATOM     14  C   LIG d   1       4.405  -2.624  -8.198  0.00  0.00    -0.061 A 
ATOM     15  H   LIG d   1       6.345  -2.315  -7.357  0.00  0.00     0.062 H 
ATOM     16  C   LIG d   1       3.181  -2.056  -8.499  0.00  0.00    -0.062 A 
ATOM     17  H   LIG d   1       4.592  -3.661  -8.438  0.00  0.00     0.062 H 
ATOM     18  C   LIG d   1       2.934  -0.729  -8.195  0.00  0.00    -0.061 A 
ATOM     19  H   LIG d   1       2.414  -2.650  -8.974  0.00  0.00     0.062 H 
ATOM     20  C   LIG d   1       3.906   0.034  -7.583  0.00  0.00    -0.052 A 
ATOM     21  H   LIG d   1       1.976  -0.291  -8.432  0.00  0.00     0.062 H 
ATOM     22  H   LIG d   1       3.711   1.068  -7.341  0.00  0.00     0.062 H 
ENDBRANCH   1  12
BRANCH   2  23
ATOM     23  C   LIG d   1       5.329  -0.459  -4.396  0.00  0.00     0.003 A 
ATOM     24  C   LIG d   1       4.142   0.129  -3.962  0.00  0.00    -0.052 A 
ATOM     25  C   LIG d   1       3.253  -0.600  -3.198  0.00  0.00    -0.061 A 
ATOM     26  H   LIG d   1       3.917   1.152  -4.225  0.00  0.00     0.062 H 
ATOM     27  C   LIG d   1       3.540  -1.910  -2.860  0.00  0.00    -0.062 A 
ATOM     28  H   LIG d   1       2.333  -0.146  -2.862  0.00  0.00     0.062 H 
ATOM     29  C   LIG d   1       4.717  -2.498  -3.287  0.00  0.00    -0.061 A 
ATOM     30  H   LIG d   1       2.841  -2.476  -2.262  0.00  0.00     0.062 H 
ATOM     31  C   LIG d   1       5.610  -1.783  -4.057  0.00  0.00    -0.052 A 
ATOM     32  H   LIG d   1       4.935  -3.522  -3.021  0.00  0.00     0.062 H 
ATOM     33  H   LIG d   1       6.527  -2.244  -4.394  0.00  0.00     0.062 H 
ENDBRANCH   2  23
BRANCH   8  34
ATOM     34  C   LIG d   1       8.877   2.462  -9.040  0.00  0.00     0.152 C 
ATOM     35  O   LIG d   1       8.453   3.429  -9.639  0.00  0.00    -0.296 OA
ATOM     36  H   LIG d   1       9.200   1.587  -9.585  0.00  0.00     0.108 H 
ENDBRANCH   8  34
BRANCH   5  37
ATOM     37  N   LIG d   1       9.188   2.564  -3.384  0.00  0.00    -0.356 N 
ATOM     38  H   LIG d   1       8.543   3.072  -2.867  0.00  0.00     0.142 HD
ATOM     39  H   LIG d   1       9.897   2.081  -2.933  0.00  0.00     0.142 HD
ENDBRANCH   5  37
BRANCH   6  40
ATOM     40  C   LIG d   1      11.032   4.060  -4.882  0.00  0.00     0.152 C 
ATOM     41  O   LIG d   1      10.722   5.040  -4.236  0.00  0.00    -0.296 OA
ATOM     42  H   LIG d   1      12.071   3.780  -4.974  0.00  0.00     0.108 H 
ENDBRANCH   6  40
TORSDOF 5
ENDMDL
MODEL 6
REMARK VINA RESULT:      -6.0      3.887      6.349
REMARK  5 active torsions:
REMARK  status: ('A' for Active; 'I' for Inactive)
REMARK    1  A    between atoms: C_4  and  C_7 
REMARK    2  A    between atoms: C_8  and  C_22 
REMARK    3  A    between atoms: C_11  and  N_21 
REMARK    4  A    between atoms: C_12  and  C_19 
REMARK    5  A    between atoms: C_14  and  C_17 
ROOT
ATOM      1  C   LIG d   1       6.756  -1.945  -5.473  0.00  0.00     0.098 A 
ATOM      2  C   LIG d   1       6.821  -1.806  -4.065  0.00  0.00     0.098 A 
ATOM      3  N   LIG d   1       7.690  -2.513  -3.367  0.00  0.00    -0.241 NA
ATOM      4  C   LIG d   1       8.505  -3.368  -3.989  0.00  0.00     0.112 A 
ATOM      5  C   LIG d   1       9.448  -4.131  -3.257  0.00  0.00     0.063 A 
ATOM      6  C   LIG d   1      10.304  -5.020  -3.919  0.00  0.00     0.038 A 
ATOM      7  C   LIG d   1      10.256  -5.172  -5.309  0.00  0.00    -0.037 A 
ATOM      8  C   LIG d   1       9.351  -4.440  -6.067  0.00  0.00     0.042 A 
ATOM      9  C   LIG d   1       8.443  -3.502  -5.396  0.00  0.00     0.102 A 
ATOM     10  N   LIG d   1       7.565  -2.785  -6.097  0.00  0.00    -0.242 NA
ATOM     11  H   LIG d   1      10.926  -5.864  -5.797  0.00  0.00     0.063 H 
ENDROOT
BRANCH   1  12
ATOM     12  C   LIG d   1       5.779  -1.147  -6.248  0.00  0.00     0.003 A 
ATOM     13  C   LIG d   1       4.413  -1.411  -6.135  0.00  0.00    -0.052 A 
ATOM     14  C   LIG d   1       3.508  -0.664  -6.860  0.00  0.00    -0.061 A 
ATOM     15  H   LIG d   1       4.067  -2.199  -5.483  0.00  0.00     0.062 H 
ATOM     16  C   LIG d   1       3.950   0.345  -7.696  0.00  0.00    -0.062 A 
ATOM     17  H   LIG d   1       2.450  -0.867  -6.773  0.00  0.00     0.062 H 
ATOM     18  C   LIG d   1       5.303   0.611  -7.813  0.00  0.00    -0.061 A 
ATOM     19  H   LIG d   1       3.237   0.927  -8.261  0.00  0.00     0.062 H 
ATOM     20  C   LIG d   1       6.219  -0.125  -7.089  0.00  0.00    -0.052 A 
ATOM     21  H   LIG d   1       5.643   1.400  -8.467  0.00  0.00     0.062 H 
ATOM     22  H   LIG d   1       7.274   0.087  -7.177  0.00  0.00     0.062 H 
ENDBRANCH   1  12
BRANCH   2  23
ATOM     23  C   LIG d   1       5.912  -0.862  -3.373  0.00  0.00     0.003 A 
ATOM     24  C   LIG d   1       6.156   0.509  -3.425  0.00  0.00    -0.052 A 
ATOM     25  C   LIG d   1       5.306   1.384  -2.778  0.00  0.00    -0.061 A 
ATOM     26  H   LIG d   1       7.008   0.888  -3.970  0.00  0.00     0.062 H 
ATOM     27  C   LIG d   1       4.214   0.901  -2.079  0.00  0.00    -0.062 A 
ATOM     28  H   LIG d   1       5.493   2.446  -2.818  0.00  0.00     0.062 H 
ATOM     29  C   LIG d   1       3.968  -0.460  -2.024  0.00  0.00    -0.061 A 
ATOM     30  H   LIG d   1       3.552   1.589  -1.575  0.00  0.00     0.062 H 
ATOM     31  C   LIG d   1       4.807  -1.343  -2.671  0.00  0.00    -0.052 A 
ATOM     32  H   LIG d   1       3.114  -0.831  -1.477  0.00  0.00     0.062 H 
ATOM     33  H   LIG d   1       4.611  -2.404  -2.632  0.00  0.00     0.062 H 
ENDBRANCH   2  23
BRANCH   8  34
ATOM     34  C   LIG d   1       9.304  -4.601  -7.520  0.00  0.00     0.152 C 
ATOM     35  O   LIG d   1       8.554  -5.416  -8.017  0.00  0.00    -0.296 OA
ATOM     36  H   LIG d   1       9.936  -3.994  -8.152  0.00  0.00     0.108 H 
ENDBRANCH   8  34
BRANCH   5  37
ATOM     37  N   LIG d   1       9.517  -4.002  -1.891  0.00  0.00    -0.356 N 
ATOM     38  H   LIG d   1       9.291  -4.754  -1.320  0.00  0.00     0.142 HD
ATOM     39  H   LIG d   1       9.797  -3.162  -1.497  0.00  0.00     0.142 HD
ENDBRANCH   5  37
BRANCH   6  40
ATOM     40  C   LIG d   1      11.269  -5.805  -3.142  0.00  0.00     0.152 C 
ATOM     41  O   LIG d   1      10.882  -6.536  -2.254  0.00  0.00    -0.296 OA
ATOM     42  H   LIG d   1      12.325  -5.733  -3.360  0.00  0.00     0.108 H 
ENDBRANCH   6  40
TORSDOF 5
ENDMDL
MODEL 7
REMARK VINA RESULT:      -6.0      3.730      5.532
REMARK  5 active torsions:
REMARK  status: ('A' for Active; 'I' for Inactive)
REMARK    1  A    between atoms: C_4  and  C_7 
REMARK    2  A    between atoms: C_8  and  C_22 
REMARK    3  A    between atoms: C_11  and  N_21 
REMARK    4  A    between atoms: C_12  and  C_19 
REMARK    5  A    between atoms: C_14  and  C_17 
ROOT
ATOM      1  C   LIG d   1       6.898  -1.972  -4.141  0.00  0.00     0.098 A 
ATOM      2  C   LIG d   1       6.768  -2.088  -5.545  0.00  0.00     0.098 A 
ATOM      3  N   LIG d   1       7.501  -2.961  -6.212  0.00  0.00    -0.241 NA
ATOM      4  C   LIG d   1       8.375  -3.731  -5.559  0.00  0.00     0.112 A 
ATOM      5  C   LIG d   1       9.166  -4.676  -6.257  0.00  0.00     0.063 A 
ATOM      6  C   LIG d   1      10.075  -5.486  -5.563  0.00  0.00     0.038 A 
ATOM      7  C   LIG d   1      10.219  -5.387  -4.174  0.00  0.00    -0.037 A 
ATOM      8  C   LIG d   1       9.459  -4.477  -3.451  0.00  0.00     0.042 A 
ATOM      9  C   LIG d   1       8.500  -3.618  -4.155  0.00  0.00     0.102 A 
ATOM     10  N   LIG d   1       7.757  -2.737  -3.486  0.00  0.00    -0.242 NA
ATOM     11  H   LIG d   1      10.927  -6.022  -3.662  0.00  0.00     0.063 H 
ENDROOT
BRANCH   1  12
ATOM     12  C   LIG d   1       6.071  -0.991  -3.401  0.00  0.00     0.003 A 
ATOM     13  C   LIG d   1       4.996  -1.427  -2.625  0.00  0.00    -0.052 A 
ATOM     14  C   LIG d   1       4.230  -0.509  -1.938  0.00  0.00    -0.061 A 
ATOM     15  H   LIG d   1       4.766  -2.480  -2.562  0.00  0.00     0.062 H 
ATOM     16  C   LIG d   1       4.523   0.840  -2.017  0.00  0.00    -0.062 A 
ATOM     17  H   LIG d   1       3.397  -0.844  -1.335  0.00  0.00     0.062 H 
ATOM     18  C   LIG d   1       5.587   1.278  -2.786  0.00  0.00    -0.061 A 
ATOM     19  H   LIG d   1       3.920   1.555  -1.477  0.00  0.00     0.062 H 
ATOM     20  C   LIG d   1       6.366   0.370  -3.473  0.00  0.00    -0.052 A 
ATOM     21  H   LIG d   1       5.812   2.333  -2.844  0.00  0.00     0.062 H 
ATOM     22  H   LIG d   1       7.198   0.713  -4.069  0.00  0.00     0.062 H 
ENDBRANCH   1  12
BRANCH   2  23
ATOM     23  C   LIG d   1       5.803  -1.228  -6.271  0.00  0.00     0.003 A 
ATOM     24  C   LIG d   1       4.432  -1.425  -6.111  0.00  0.00    -0.052 A 
ATOM     25  C   LIG d   1       3.538  -0.621  -6.789  0.00  0.00    -0.061 A 
ATOM     26  H   LIG d   1       4.070  -2.204  -5.456  0.00  0.00     0.062 H 
ATOM     27  C   LIG d   1       4.001   0.377  -7.628  0.00  0.00    -0.062 A 
ATOM     28  H   LIG d   1       2.476  -0.772  -6.665  0.00  0.00     0.062 H 
ATOM     29  C   LIG d   1       5.360   0.576  -7.791  0.00  0.00    -0.061 A 
ATOM     30  H   LIG d   1       3.298   1.004  -8.156  0.00  0.00     0.062 H 
ATOM     31  C   LIG d   1       6.263  -0.216  -7.114  0.00  0.00    -0.052 A 
ATOM     32  H   LIG d   1       5.715   1.357  -8.447  0.00  0.00     0.062 H 
ATOM     33  H   LIG d   1       7.324  -0.058  -7.238  0.00  0.00     0.062 H 
ENDBRANCH   2  23
BRANCH   8  34
ATOM     34  C   LIG d   1       9.613  -4.377  -1.999  0.00  0.00     0.152 C 
ATOM     35  O   LIG d   1       9.616  -5.382  -1.318  0.00  0.00    -0.296 OA
ATOM     36  H   LIG d   1       9.723  -3.409  -1.533  0.00  0.00     0.108 H 
ENDBRANCH   8  34
BRANCH   5  37
ATOM     37  N   LIG d   1       9.045  -4.795  -7.620  0.00  0.00    -0.356 N 
ATOM     38  H   LIG d   1       8.174  -4.709  -8.040  0.00  0.00     0.142 HD
ATOM     39  H   LIG d   1       9.830  -4.961  -8.164  0.00  0.00     0.142 HD
ENDBRANCH   5  37
BRANCH   6  40
ATOM     40  C   LIG d   1      10.889  -6.455  -6.305  0.00  0.00     0.152 C 
ATOM     41  O   LIG d   1      10.361  -7.413  -6.832  0.00  0.00    -0.296 OA
ATOM     42  H   LIG d   1      11.957  -6.316  -6.382  0.00  0.00     0.108 H 
ENDBRANCH   6  40
TORSDOF 5
ENDMDL
MODEL 8
REMARK VINA RESULT:      -6.0      2.746      6.397
REMARK  5 active torsions:
REMARK  status: ('A' for Active; 'I' for Inactive)
REMARK    1  A    between atoms: C_4  and  C_7 
REMARK    2  A    between atoms: C_8  and  C_22 
REMARK    3  A    between atoms: C_11  and  N_21 
REMARK    4  A    between atoms: C_12  and  C_19 
REMARK    5  A    between atoms: C_14  and  C_17 
ROOT
ATOM      1  C   LIG d   1       4.564  -2.053  -6.713  0.00  0.00     0.098 A 
ATOM      2  C   LIG d   1       4.389  -3.305  -7.351  0.00  0.00     0.098 A 
ATOM      3  N   LIG d   1       3.664  -3.395  -8.451  0.00  0.00    -0.241 NA
ATOM      4  C   LIG d   1       3.088  -2.304  -8.959  0.00  0.00     0.112 A 
ATOM      5  C   LIG d   1       2.311  -2.380 -10.141  0.00  0.00     0.063 A 
ATOM      6  C   LIG d   1       1.716  -1.229 -10.672  0.00  0.00     0.038 A 
ATOM      7  C   LIG d   1       1.878   0.018 -10.057  0.00  0.00    -0.037 A 
ATOM      8  C   LIG d   1       2.635   0.140  -8.900  0.00  0.00     0.042 A 
ATOM      9  C   LIG d   1       3.269  -1.052  -8.324  0.00  0.00     0.102 A 
ATOM     10  N   LIG d   1       4.002  -0.966  -7.215  0.00  0.00    -0.242 NA
ATOM     11  H   LIG d   1       1.409   0.892 -10.485  0.00  0.00     0.063 H 
ENDROOT
BRANCH   1  12
ATOM     12  C   LIG d   1       5.380  -1.961  -5.481  0.00  0.00     0.003 A 
ATOM     13  C   LIG d   1       4.776  -2.101  -4.230  0.00  0.00    -0.052 A 
ATOM     14  C   LIG d   1       5.541  -2.015  -3.086  0.00  0.00    -0.061 A 
ATOM     15  H   LIG d   1       3.713  -2.277  -4.159  0.00  0.00     0.062 H 
ATOM     16  C   LIG d   1       6.903  -1.790  -3.174  0.00  0.00    -0.062 A 
ATOM     17  H   LIG d   1       5.075  -2.124  -2.116  0.00  0.00     0.062 H 
ATOM     18  C   LIG d   1       7.506  -1.649  -4.411  0.00  0.00    -0.061 A 
ATOM     19  H   LIG d   1       7.497  -1.723  -2.275  0.00  0.00     0.062 H 
ATOM     20  C   LIG d   1       6.754  -1.740  -5.564  0.00  0.00    -0.052 A 
ATOM     21  H   LIG d   1       8.570  -1.474  -4.475  0.00  0.00     0.062 H 
ATOM     22  H   LIG d   1       7.228  -1.634  -6.529  0.00  0.00     0.062 H 
ENDBRANCH   1  12
BRANCH   2  23
ATOM     23  C   LIG d   1       5.022  -4.518  -6.783  0.00  0.00     0.003 A 
ATOM     24  C   LIG d   1       4.298  -5.353  -5.932  0.00  0.00    -0.052 A 
ATOM     25  C   LIG d   1       4.893  -6.481  -5.406  0.00  0.00    -0.061 A 
ATOM     26  H   LIG d   1       3.274  -5.117  -5.686  0.00  0.00     0.062 H 
ATOM     27  C   LIG d   1       6.206  -6.784  -5.720  0.00  0.00    -0.062 A 
ATOM     28  H   LIG d   1       4.333  -7.129  -4.748  0.00  0.00     0.062 H 
ATOM     29  C   LIG d   1       6.930  -5.959  -6.562  0.00  0.00    -0.061 A 
ATOM     30  H   LIG d   1       6.668  -7.669  -5.306  0.00  0.00     0.062 H 
ATOM     31  C   LIG d   1       6.344  -4.832  -7.100  0.00  0.00    -0.052 A 
ATOM     32  H   LIG d   1       7.954  -6.202  -6.805  0.00  0.00     0.062 H 
ATOM     33  H   LIG d   1       6.908  -4.191  -7.761  0.00  0.00     0.062 H 
ENDBRANCH   2  23
BRANCH   8  34
ATOM     34  C   LIG d   1       2.802   1.446  -8.260  0.00  0.00     0.152 C 
ATOM     35  O   LIG d   1       3.749   2.148  -8.551  0.00  0.00    -0.296 OA
ATOM     36  H   LIG d   1       2.083   1.785  -7.529  0.00  0.00     0.108 H 
ENDBRANCH   8  34
BRANCH   5  37
ATOM     37  N   LIG d   1       2.136  -3.591 -10.766  0.00  0.00    -0.356 N 
ATOM     38  H   LIG d   1       1.260  -4.010 -10.777  0.00  0.00     0.142 HD
ATOM     39  H   LIG d   1       2.886  -4.026 -11.199  0.00  0.00     0.142 HD
ENDBRANCH   5  37
BRANCH   6  40
ATOM     40  C   LIG d   1       0.911  -1.330 -11.894  0.00  0.00     0.152 C 
ATOM     41  O   LIG d   1       1.416  -1.735 -12.920  0.00  0.00    -0.296 OA
ATOM     42  H   LIG d   1      -0.130  -1.046 -11.880  0.00  0.00     0.108 H 
ENDBRANCH   6  40
TORSDOF 5
ENDMDL
MODEL 9
REMARK VINA RESULT:      -5.8     10.777     14.159
REMARK  5 active torsions:
REMARK  status: ('A' for Active; 'I' for Inactive)
REMARK    1  A    between atoms: C_4  and  C_7 
REMARK    2  A    between atoms: C_8  and  C_22 
REMARK    3  A    between atoms: C_11  and  N_21 
REMARK    4  A    between atoms: C_12  and  C_19 
REMARK    5  A    between atoms: C_14  and  C_17 
ROOT
ATOM      1  C   LIG d   1      10.239   8.836  -3.993  0.00  0.00     0.098 A 
ATOM      2  C   LIG d   1       9.768   9.867  -4.841  0.00  0.00     0.098 A 
ATOM      3  N   LIG d   1       9.425   9.597  -6.088  0.00  0.00    -0.241 NA
ATOM      4  C   LIG d   1       9.530   8.350  -6.551  0.00  0.00     0.112 A 
ATOM      5  C   LIG d   1       9.161   8.041  -7.883  0.00  0.00     0.063 A 
ATOM      6  C   LIG d   1       9.267   6.727  -8.360  0.00  0.00     0.038 A 
ATOM      7  C   LIG d   1       9.730   5.694  -7.536  0.00  0.00    -0.037 A 
ATOM      8  C   LIG d   1      10.097   5.952  -6.222  0.00  0.00     0.042 A 
ATOM      9  C   LIG d   1       9.995   7.320  -5.700  0.00  0.00     0.102 A 
ATOM     10  N   LIG d   1      10.339   7.596  -4.443  0.00  0.00    -0.242 NA
ATOM     11  H   LIG d   1       9.804   4.690  -7.926  0.00  0.00     0.063 H 
ENDROOT
BRANCH   1  12
ATOM     12  C   LIG d   1      10.621   9.148  -2.596  0.00  0.00     0.003 A 
ATOM     13  C   LIG d   1       9.708   8.945  -1.560  0.00  0.00    -0.052 A 
ATOM     14  C   LIG d   1      10.070   9.236  -0.261  0.00  0.00    -0.061 A 
ATOM     15  H   LIG d   1       8.722   8.561  -1.774  0.00  0.00     0.062 H 
ATOM     16  C   LIG d   1      11.333   9.728   0.016  0.00  0.00    -0.062 A 
ATOM     17  H   LIG d   1       9.365   9.079   0.543  0.00  0.00     0.062 H 
ATOM     18  C   LIG d   1      12.241   9.932  -1.008  0.00  0.00    -0.061 A 
ATOM     19  H   LIG d   1      11.611   9.955   1.035  0.00  0.00     0.062 H 
ATOM     20  C   LIG d   1      11.895   9.639  -2.310  0.00  0.00    -0.052 A 
ATOM     21  H   LIG d   1      13.226  10.317  -0.786  0.00  0.00     0.062 H 
ATOM     22  H   LIG d   1      12.606   9.795  -3.108  0.00  0.00     0.062 H 
ENDBRANCH   1  12
BRANCH   2  23
ATOM     23  C   LIG d   1       9.658  11.253  -4.329  0.00  0.00     0.003 A 
ATOM     24  C   LIG d   1      10.677  12.172  -4.574  0.00  0.00    -0.052 A 
ATOM     25  C   LIG d   1      10.570  13.462  -4.095  0.00  0.00    -0.061 A 
ATOM     26  H   LIG d   1      11.549  11.877  -5.138  0.00  0.00     0.062 H 
ATOM     27  C   LIG d   1       9.454  13.842  -3.371  0.00  0.00    -0.062 A 
ATOM     28  H   LIG d   1      11.358  14.175  -4.284  0.00  0.00     0.062 H 
ATOM     29  C   LIG d   1       8.440  12.934  -3.124  0.00  0.00    -0.061 A 
ATOM     30  H   LIG d   1       9.374  14.853  -2.998  0.00  0.00     0.062 H 
ATOM     31  C   LIG d   1       8.533  11.644  -3.604  0.00  0.00    -0.052 A 
ATOM     32  H   LIG d   1       7.571  13.238  -2.559  0.00  0.00     0.062 H 
ATOM     33  H   LIG d   1       7.739  10.937  -3.415  0.00  0.00     0.062 H 
ENDBRANCH   2  23
BRANCH   8  34
ATOM     34  C   LIG d   1      10.581   4.869  -5.365  0.00  0.00     0.152 C 
ATOM     35  O   LIG d   1       9.789   4.168  -4.768  0.00  0.00    -0.296 OA
ATOM     36  H   LIG d   1      11.642   4.694  -5.262  0.00  0.00     0.108 H 
ENDBRANCH   8  34
BRANCH   5  37
ATOM     37  N   LIG d   1       8.703   9.035  -8.713  0.00  0.00    -0.356 N 
ATOM     38  H   LIG d   1       8.432   8.823  -9.621  0.00  0.00     0.142 HD
ATOM     39  H   LIG d   1       8.645   9.947  -8.392  0.00  0.00     0.142 HD
ENDBRANCH   5  37
BRANCH   6  40
ATOM     40  C   LIG d   1       8.885   6.429  -9.744  0.00  0.00     0.152 C 
ATOM     41  O   LIG d   1       7.993   5.639  -9.970  0.00  0.00    -0.296 OA
ATOM     42  H   LIG d   1       9.398   6.914 -10.562  0.00  0.00     0.108 H 
ENDBRANCH   6  40
TORSDOF 5
ENDMDL
MODEL 10
REMARK VINA RESULT:      -5.8      2.674      4.736
REMARK  5 active torsions:
REMARK  status: ('A' for Active; 'I' for Inactive)
REMARK    1  A    between atoms: C_4  and  C_7 
REMARK    2  A    between atoms: C_8  and  C_22 
REMARK    3  A    between atoms: C_11  and  N_21 
REMARK    4  A    between atoms: C_12  and  C_19 
REMARK    5  A    between atoms: C_14  and  C_17 
ROOT
ATOM      1  C   LIG d   1       5.496  -1.978  -7.716  0.00  0.00     0.098 A 
ATOM      2  C   LIG d   1       4.348  -1.150  -7.683  0.00  0.00     0.098 A 
ATOM      3  N   LIG d   1       3.971  -0.579  -6.554  0.00  0.00    -0.241 NA
ATOM      4  C   LIG d   1       4.671  -0.790  -5.437  0.00  0.00     0.112 A 
ATOM      5  C   LIG d   1       4.286  -0.182  -4.217  0.00  0.00     0.063 A 
ATOM      6  C   LIG d   1       5.031  -0.402  -3.051  0.00  0.00     0.038 A 
ATOM      7  C   LIG d   1       6.169  -1.216  -3.062  0.00  0.00    -0.037 A 
ATOM      8  C   LIG d   1       6.585  -1.828  -4.237  0.00  0.00     0.042 A 
ATOM      9  C   LIG d   1       5.822  -1.613  -5.472  0.00  0.00     0.102 A 
ATOM     10  N   LIG d   1       6.198  -2.186  -6.614  0.00  0.00    -0.242 NA
ATOM     11  H   LIG d   1       6.726  -1.372  -2.150  0.00  0.00     0.063 H 
ENDROOT
BRANCH   1  12
ATOM     12  C   LIG d   1       5.911  -2.614  -8.987  0.00  0.00     0.003 A 
ATOM     13  C   LIG d   1       6.856  -1.992  -9.804  0.00  0.00    -0.052 A 
ATOM     14  C   LIG d   1       7.240  -2.589 -10.987  0.00  0.00    -0.061 A 
ATOM     15  H   LIG d   1       7.286  -1.046  -9.511  0.00  0.00     0.062 H 
ATOM     16  C   LIG d   1       6.690  -3.800 -11.365  0.00  0.00    -0.062 A 
ATOM     17  H   LIG d   1       7.972  -2.109 -11.620  0.00  0.00     0.062 H 
ATOM     18  C   LIG d   1       5.752  -4.421 -10.559  0.00  0.00    -0.061 A 
ATOM     19  H   LIG d   1       6.994  -4.264 -12.292  0.00  0.00     0.062 H 
ATOM     20  C   LIG d   1       5.364  -3.838  -9.371  0.00  0.00    -0.052 A 
ATOM     21  H   LIG d   1       5.326  -5.367 -10.859  0.00  0.00     0.062 H 
ATOM     22  H   LIG d   1       4.635  -4.326  -8.741  0.00  0.00     0.062 H 
ENDBRANCH   1  12
BRANCH   2  23
ATOM     23  C   LIG d   1       3.567  -0.922  -8.921  0.00  0.00     0.003 A 
ATOM     24  C   LIG d   1       2.444  -1.702  -9.195  0.00  0.00    -0.052 A 
ATOM     25  C   LIG d   1       1.720  -1.486 -10.349  0.00  0.00    -0.061 A 
ATOM     26  H   LIG d   1       2.141  -2.475  -8.504  0.00  0.00     0.062 H 
ATOM     27  C   LIG d   1       2.108  -0.497 -11.236  0.00  0.00    -0.062 A 
ATOM     28  H   LIG d   1       0.850  -2.089 -10.561  0.00  0.00     0.062 H 
ATOM     29  C   LIG d   1       3.221   0.280 -10.971  0.00  0.00    -0.061 A 
ATOM     30  H   LIG d   1       1.538  -0.331 -12.138  0.00  0.00     0.062 H 
ATOM     31  C   LIG d   1       3.949   0.078  -9.816  0.00  0.00    -0.052 A 
ATOM     32  H   LIG d   1       3.518   1.051 -11.666  0.00  0.00     0.062 H 
ATOM     33  H   LIG d   1       4.816   0.687  -9.608  0.00  0.00     0.062 H 
ENDBRANCH   2  23
BRANCH   8  34
ATOM     34  C   LIG d   1       7.776  -2.679  -4.245  0.00  0.00     0.152 C 
ATOM     35  O   LIG d   1       7.660  -3.886  -4.173  0.00  0.00    -0.296 OA
ATOM     36  H   LIG d   1       8.758  -2.234  -4.314  0.00  0.00     0.108 H 
ENDBRANCH   8  34
BRANCH   5  37
ATOM     37  N   LIG d   1       3.173   0.624  -4.177  0.00  0.00    -0.356 N 
ATOM     38  H   LIG d   1       2.319   0.286  -4.489  0.00  0.00     0.142 HD
ATOM     39  H   LIG d   1       3.241   1.527  -3.832  0.00  0.00     0.142 HD
ENDBRANCH   5  37
BRANCH   6  40
ATOM     40  C   LIG d   1       4.611   0.233  -1.797  0.00  0.00     0.152 C 
ATOM     41  O   LIG d   1       4.820   1.415  -1.616  0.00  0.00    -0.296 OA
ATOM     42  H   LIG d   1       4.117  -0.351  -1.035  0.00  0.00     0.108 H 
ENDBRANCH   6  40
TORSDOF 5
ENDMDL
