MODEL 1
REMARK VINA RESULT:      -5.7      0.000      0.000
REMARK  10 active torsions:
REMARK  status: ('A' for Active; 'I' for Inactive)
REMARK    1  A    between atoms: C_1  and  C_2 
REMARK    2  A    between atoms: C_3  and  C_9 
REMARK    3  A    between atoms: C_4  and  C_8 
REMARK    4  A    between atoms: N_5  and  C_7 
REMARK    5  A    between atoms: C_9  and  C_10 
REMARK    6  A    between atoms: C_10  and  C_11 
REMARK       I    between atoms: C_11  and  N_13 
REMARK    7  A    between atoms: N_13  and  C_14 
REMARK    8  A    between atoms: C_17  and  O_23 
REMARK    9  A    between atoms: O_23  and  C_24 
REMARK   10  A    between atoms: N_26  and  C_29 
ROOT
ATOM      1  C   LIG d   1       9.605   7.884  -5.485  0.00  0.00     0.084 A 
ATOM      2  C   LIG d   1       9.665   9.254  -5.721  0.00  0.00    -0.006 A 
ATOM      3  C   LIG d   1       9.896   9.724  -6.996  0.00  0.00     0.048 A 
ATOM      4  C   LIG d   1      10.062   8.825  -8.045  0.00  0.00     0.174 A 
ATOM      5  C   LIG d   1      10.001   7.457  -7.816  0.00  0.00     0.210 A 
ATOM      6  C   LIG d   1       9.773   6.984  -6.529  0.00  0.00     0.191 A 
ATOM      7  O   LIG d   1       9.758   5.618  -6.562  0.00  0.00    -0.451 OA
ATOM      8  C   LIG d   1       9.573   5.269  -7.947  0.00  0.00     0.234 C 
ATOM      9  O   LIG d   1      10.130   6.390  -8.659  0.00  0.00    -0.449 OA
ATOM     10  C   LIG d   1       9.979  11.197  -7.298  0.00  0.00    -0.002 C 
ATOM     11  N   LIG d   1       9.384  11.979  -6.208  0.00  0.00     0.237 N 
ATOM     12  C   LIG d   1       9.978  11.588  -4.919  0.00  0.00    -0.028 C 
ATOM     13  C   LIG d   1       9.472  10.192  -4.556  0.00  0.00     0.015 C 
ATOM     14  H   LIG d   1      10.105   4.331  -8.163  0.00  0.00     0.117 H 
ATOM     15  H   LIG d   1       8.501   5.137  -8.151  0.00  0.00     0.117 H 
ATOM     16  H   LIG d   1      11.033  11.489  -7.413  0.00  0.00     0.087 H 
ATOM     17  H   LIG d   1       9.435  11.412  -8.230  0.00  0.00     0.087 H 
ATOM     18  H   LIG d   1      11.074  11.579  -5.008  0.00  0.00     0.082 H 
ATOM     19  H   LIG d   1       9.679  12.309  -4.145  0.00  0.00     0.082 H 
ATOM     20  H   LIG d   1       8.403  10.249  -4.303  0.00  0.00     0.037 H 
ATOM     21  H   LIG d   1      10.034   9.818  -3.688  0.00  0.00     0.037 H 
ATOM     22  H   LIG d   1       8.307  11.764  -6.177  0.00  0.00     0.203 HD
ENDROOT
BRANCH   1  23
ATOM     23  N   LIG d   1       9.374   7.410  -4.185  0.00  0.00    -0.282 N 
ATOM     24  C   LIG d   1      10.412   7.039  -3.408  0.00  0.00     0.218 C 
ATOM     25  O   LIG d   1      11.549   7.197  -3.799  0.00  0.00    -0.276 OA
ATOM     26  H   LIG d   1       8.346   7.340  -3.800  0.00  0.00     0.155 HD
BRANCH  24  27
ATOM     27  C   LIG d   1      10.159   6.428  -2.054  0.00  0.00     0.028 C 
ATOM     28  H   LIG d   1      11.120   6.196  -1.571  0.00  0.00     0.036 H 
ATOM     29  H   LIG d   1       9.577   5.501  -2.173  0.00  0.00     0.036 H 
BRANCH  27  30
ATOM     30  C   LIG d   1       9.376   7.416  -1.187  0.00  0.00    -0.016 C 
ATOM     31  H   LIG d   1       8.576   6.881  -0.654  0.00  0.00     0.032 H 
ATOM     32  H   LIG d   1       8.934   8.193  -1.826  0.00  0.00     0.032 H 
BRANCH  30  33
ATOM     33  C   LIG d   1      10.306   8.053  -0.188  0.00  0.00    -0.004 A 
ATOM     34  C   LIG d   1      11.043   7.384   0.795  0.00  0.00     0.063 A 
ATOM     35  N   LIG d   1      11.734   8.272   1.463  0.00  0.00    -0.176 NA
ATOM     36  N   LIG d   1      11.450   9.537   0.933  0.00  0.00    -0.271 N 
ATOM     37  C   LIG d   1      10.572   9.376  -0.080  0.00  0.00     0.039 A 
BRANCH  34  38
ATOM     38  C   LIG d   1      11.043   5.898   1.040  0.00  0.00    -0.020 C 
ATOM     39  H   LIG d   1      12.036   5.487   0.808  0.00  0.00     0.029 H 
ATOM     40  H   LIG d   1      10.290   5.420   0.396  0.00  0.00     0.029 H 
ATOM     41  H   LIG d   1      10.802   5.700   2.095  0.00  0.00     0.029 H 
ENDBRANCH  34  38
BRANCH  36  42
ATOM     42  C   LIG d   1      12.008  10.810   1.395  0.00  0.00     0.030 C 
ATOM     43  H   LIG d   1      12.632  10.637   2.284  0.00  0.00     0.047 H 
ATOM     44  H   LIG d   1      11.189  11.499   1.650  0.00  0.00     0.047 H 
ATOM     45  H   LIG d   1      12.624  11.252   0.597  0.00  0.00     0.047 H 
ENDBRANCH  36  42
BRANCH  37  46
ATOM     46  C   LIG d   1       9.993  10.472  -0.936  0.00  0.00    -0.022 C 
ATOM     47  H   LIG d   1       9.655  10.050  -1.893  0.00  0.00     0.029 H 
ATOM     48  H   LIG d   1      10.761  11.237  -1.123  0.00  0.00     0.029 H 
ATOM     49  H   LIG d   1       9.138  10.930  -0.415  0.00  0.00     0.029 H 
ENDBRANCH  37  46
ENDBRANCH  30  33
ENDBRANCH  27  30
ENDBRANCH  24  27
ENDBRANCH   1  23
BRANCH   4  50
ATOM     50  O   LIG d   1      10.286   9.290  -9.303  0.00  0.00    -0.491 OA
BRANCH  50  51
ATOM     51  C   LIG d   1      11.628   9.225  -9.790  0.00  0.00     0.079 C 
ATOM     52  H   LIG d   1      12.211  10.059  -9.373  0.00  0.00     0.066 H 
ATOM     53  H   LIG d   1      11.623   9.292 -10.888  0.00  0.00     0.066 H 
ATOM     54  H   LIG d   1      12.084   8.272  -9.484  0.00  0.00     0.066 H 
ENDBRANCH  50  51
ENDBRANCH   4  50
BRANCH  11  55
ATOM     55  C   LIG d   1       9.544  13.419  -6.446  0.00  0.00    -0.043 C 
ATOM     56  H   LIG d   1       9.222  13.976  -5.554  0.00  0.00     0.078 H 
ATOM     57  H   LIG d   1       8.929  13.720  -7.307  0.00  0.00     0.078 H 
ATOM     58  H   LIG d   1      10.601  13.642  -6.656  0.00  0.00     0.078 H 
ENDBRANCH  11  55
TORSDOF 10
ENDMDL
MODEL 2
REMARK VINA RESULT:      -5.7      9.832     12.340
REMARK  10 active torsions:
REMARK  status: ('A' for Active; 'I' for Inactive)
REMARK    1  A    between atoms: C_1  and  C_2 
REMARK    2  A    between atoms: C_3  and  C_9 
REMARK    3  A    between atoms: C_4  and  C_8 
REMARK    4  A    between atoms: N_5  and  C_7 
REMARK    5  A    between atoms: C_9  and  C_10 
REMARK    6  A    between atoms: C_10  and  C_11 
REMARK       I    between atoms: C_11  and  N_13 
REMARK    7  A    between atoms: N_13  and  C_14 
REMARK    8  A    between atoms: C_17  and  O_23 
REMARK    9  A    between atoms: O_23  and  C_24 
REMARK   10  A    between atoms: N_26  and  C_29 
ROOT
ATOM      1  C   LIG d   1       3.399  -0.494  -8.102  0.00  0.00     0.084 A 
ATOM      2  C   LIG d   1       3.878  -1.695  -8.616  0.00  0.00    -0.006 A 
ATOM      3  C   LIG d   1       4.469  -1.724  -9.860  0.00  0.00     0.048 A 
ATOM      4  C   LIG d   1       4.590  -0.550 -10.597  0.00  0.00     0.174 A 
ATOM      5  C   LIG d   1       4.116   0.652 -10.088  0.00  0.00     0.210 A 
ATOM      6  C   LIG d   1       3.516   0.680  -8.834  0.00  0.00     0.191 A 
ATOM      7  O   LIG d   1       3.137   1.963  -8.561  0.00  0.00    -0.451 OA
ATOM      8  C   LIG d   1       3.876   2.788  -9.481  0.00  0.00     0.234 C 
ATOM      9  O   LIG d   1       4.114   1.917 -10.603  0.00  0.00    -0.449 OA
ATOM     10  C   LIG d   1       4.993  -3.002 -10.462  0.00  0.00    -0.002 C 
ATOM     11  N   LIG d   1       5.164  -4.025  -9.426  0.00  0.00     0.237 N 
ATOM     12  C   LIG d   1       3.920  -4.182  -8.655  0.00  0.00    -0.028 C 
ATOM     13  C   LIG d   1       3.732  -2.942  -7.780  0.00  0.00     0.015 C 
ATOM     14  H   LIG d   1       3.271   3.665  -9.756  0.00  0.00     0.117 H 
ATOM     15  H   LIG d   1       4.810   3.121  -9.007  0.00  0.00     0.117 H 
ATOM     16  H   LIG d   1       4.280  -3.372 -11.215  0.00  0.00     0.087 H 
ATOM     17  H   LIG d   1       5.965  -2.811 -10.941  0.00  0.00     0.087 H 
ATOM     18  H   LIG d   1       3.071  -4.286  -9.346  0.00  0.00     0.082 H 
ATOM     19  H   LIG d   1       3.991  -5.079  -8.023  0.00  0.00     0.082 H 
ATOM     20  H   LIG d   1       4.492  -2.942  -6.985  0.00  0.00     0.037 H 
ATOM     21  H   LIG d   1       2.729  -2.966  -7.330  0.00  0.00     0.037 H 
ATOM     22  H   LIG d   1       5.960  -3.695  -8.743  0.00  0.00     0.203 HD
ENDROOT
BRANCH   1  23
ATOM     23  N   LIG d   1       2.795  -0.469  -6.835  0.00  0.00    -0.282 N 
ATOM     24  C   LIG d   1       3.505  -0.078  -5.758  0.00  0.00     0.218 C 
ATOM     25  O   LIG d   1       4.637   0.333  -5.894  0.00  0.00    -0.276 OA
ATOM     26  H   LIG d   1       1.742  -0.768  -6.723  0.00  0.00     0.155 HD
BRANCH  24  27
ATOM     27  C   LIG d   1       2.891  -0.154  -4.384  0.00  0.00     0.028 C 
ATOM     28  H   LIG d   1       1.795  -0.092  -4.467  0.00  0.00     0.036 H 
ATOM     29  H   LIG d   1       3.258   0.683  -3.771  0.00  0.00     0.036 H 
BRANCH  27  30
ATOM     30  C   LIG d   1       3.279  -1.479  -3.724  0.00  0.00    -0.016 C 
ATOM     31  H   LIG d   1       2.975  -2.313  -4.373  0.00  0.00     0.032 H 
ATOM     32  H   LIG d   1       2.771  -1.567  -2.753  0.00  0.00     0.032 H 
BRANCH  30  33
ATOM     33  C   LIG d   1       4.770  -1.519  -3.519  0.00  0.00    -0.004 A 
ATOM     34  C   LIG d   1       5.532  -0.577  -2.820  0.00  0.00     0.063 A 
ATOM     35  N   LIG d   1       6.784  -0.956  -2.855  0.00  0.00    -0.176 NA
ATOM     36  N   LIG d   1       6.861  -2.147  -3.588  0.00  0.00    -0.271 N 
ATOM     37  C   LIG d   1       5.612  -2.473  -3.983  0.00  0.00     0.039 A 
BRANCH  34  38
ATOM     38  C   LIG d   1       5.001   0.658  -2.140  0.00  0.00    -0.020 C 
ATOM     39  H   LIG d   1       5.603   1.529  -2.438  0.00  0.00     0.029 H 
ATOM     40  H   LIG d   1       5.056   0.529  -1.050  0.00  0.00     0.029 H 
ATOM     41  H   LIG d   1       3.953   0.819  -2.438  0.00  0.00     0.029 H 
ENDBRANCH  34  38
BRANCH  36  42
ATOM     42  C   LIG d   1       8.080  -2.906  -3.873  0.00  0.00     0.030 C 
ATOM     43  H   LIG d   1       7.825  -3.963  -4.038  0.00  0.00     0.047 H 
ATOM     44  H   LIG d   1       8.772  -2.824  -3.022  0.00  0.00     0.047 H 
ATOM     45  H   LIG d   1       8.562  -2.501  -4.777  0.00  0.00     0.047 H 
ENDBRANCH  36  42
BRANCH  37  46
ATOM     46  C   LIG d   1       5.225  -3.680  -4.797  0.00  0.00    -0.022 C 
ATOM     47  H   LIG d   1       4.833  -4.462  -4.130  0.00  0.00     0.029 H 
ATOM     48  H   LIG d   1       6.108  -4.062  -5.330  0.00  0.00     0.029 H 
ATOM     49  H   LIG d   1       4.449  -3.398  -5.525  0.00  0.00     0.029 H 
ENDBRANCH  37  46
ENDBRANCH  30  33
ENDBRANCH  27  30
ENDBRANCH  24  27
ENDBRANCH   1  23
BRANCH   4  50
ATOM     50  O   LIG d   1       5.176  -0.580 -11.824  0.00  0.00    -0.491 OA
BRANCH  50  51
ATOM     51  C   LIG d   1       4.311  -0.502 -12.959  0.00  0.00     0.079 C 
ATOM     52  H   LIG d   1       3.985  -1.514 -13.242  0.00  0.00     0.066 H 
ATOM     53  H   LIG d   1       4.851  -0.042 -13.800  0.00  0.00     0.066 H 
ATOM     54  H   LIG d   1       3.432   0.109 -12.709  0.00  0.00     0.066 H 
ENDBRANCH  50  51
ENDBRANCH   4  50
BRANCH  11  55
ATOM     55  C   LIG d   1       5.584  -5.304 -10.013  0.00  0.00    -0.043 C 
ATOM     56  H   LIG d   1       4.789  -6.051  -9.871  0.00  0.00     0.078 H 
ATOM     57  H   LIG d   1       6.504  -5.650  -9.519  0.00  0.00     0.078 H 
ATOM     58  H   LIG d   1       5.773  -5.170 -11.088  0.00  0.00     0.078 H 
ENDBRANCH  11  55
TORSDOF 10
ENDMDL
MODEL 3
REMARK VINA RESULT:      -5.6      1.848      3.507
REMARK  10 active torsions:
REMARK  status: ('A' for Active; 'I' for Inactive)
REMARK    1  A    between atoms: C_1  and  C_2 
REMARK    2  A    between atoms: C_3  and  C_9 
REMARK    3  A    between atoms: C_4  and  C_8 
REMARK    4  A    between atoms: N_5  and  C_7 
REMARK    5  A    between atoms: C_9  and  C_10 
REMARK    6  A    between atoms: C_10  and  C_11 
REMARK       I    between atoms: C_11  and  N_13 
REMARK    7  A    between atoms: N_13  and  C_14 
REMARK    8  A    between atoms: C_17  and  O_23 
REMARK    9  A    between atoms: O_23  and  C_24 
REMARK   10  A    between atoms: N_26  and  C_29 
ROOT
ATOM      1  C   LIG d   1       9.656   9.022  -5.322  0.00  0.00     0.084 A 
ATOM      2  C   LIG d   1      10.066   8.544  -6.563  0.00  0.00    -0.006 A 
ATOM      3  C   LIG d   1      10.291   9.424  -7.599  0.00  0.00     0.048 A 
ATOM      4  C   LIG d   1      10.112  10.789  -7.399  0.00  0.00     0.174 A 
ATOM      5  C   LIG d   1       9.704  11.272  -6.163  0.00  0.00     0.210 A 
ATOM      6  C   LIG d   1       9.474  10.384  -5.119  0.00  0.00     0.191 A 
ATOM      7  O   LIG d   1       9.086  11.094  -4.019  0.00  0.00    -0.451 OA
ATOM      8  C   LIG d   1       9.475  12.455  -4.283  0.00  0.00     0.234 C 
ATOM      9  O   LIG d   1       9.462  12.541  -5.720  0.00  0.00    -0.449 OA
ATOM     10  C   LIG d   1      10.726   8.952  -8.962  0.00  0.00    -0.002 C 
ATOM     11  N   LIG d   1      11.257   7.587  -8.888  0.00  0.00     0.237 N 
ATOM     12  C   LIG d   1      10.290   6.701  -8.218  0.00  0.00    -0.028 C 
ATOM     13  C   LIG d   1      10.255   7.057  -6.732  0.00  0.00     0.015 C 
ATOM     14  H   LIG d   1       8.751  13.141  -3.817  0.00  0.00     0.117 H 
ATOM     15  H   LIG d   1      10.475  12.638  -3.864  0.00  0.00     0.117 H 
ATOM     16  H   LIG d   1       9.865   8.965  -9.647  0.00  0.00     0.087 H 
ATOM     17  H   LIG d   1      11.511   9.620  -9.348  0.00  0.00     0.087 H 
ATOM     18  H   LIG d   1       9.294   6.843  -8.662  0.00  0.00     0.082 H 
ATOM     19  H   LIG d   1      10.603   5.655  -8.346  0.00  0.00     0.082 H 
ATOM     20  H   LIG d   1      11.202   6.752  -6.264  0.00  0.00     0.037 H 
ATOM     21  H   LIG d   1       9.420   6.525  -6.252  0.00  0.00     0.037 H 
ATOM     22  H   LIG d   1      12.182   7.608  -8.294  0.00  0.00     0.203 HD
ENDROOT
BRANCH   1  23
ATOM     23  N   LIG d   1       9.424   8.123  -4.269  0.00  0.00    -0.282 N 
ATOM     24  C   LIG d   1      10.391   7.887  -3.360  0.00  0.00     0.218 C 
ATOM     25  O   LIG d   1      11.428   8.515  -3.400  0.00  0.00    -0.276 OA
ATOM     26  H   LIG d   1       8.454   7.610  -4.187  0.00  0.00     0.155 HD
BRANCH  24  27
ATOM     27  C   LIG d   1      10.184   6.842  -2.294  0.00  0.00     0.028 C 
ATOM     28  H   LIG d   1      11.160   6.498  -1.922  0.00  0.00     0.036 H 
ATOM     29  H   LIG d   1       9.633   5.989  -2.718  0.00  0.00     0.036 H 
BRANCH  27  30
ATOM     30  C   LIG d   1       9.382   7.445  -1.138  0.00  0.00    -0.016 C 
ATOM     31  H   LIG d   1       8.767   6.661  -0.672  0.00  0.00     0.032 H 
ATOM     32  H   LIG d   1       8.729   8.242  -1.522  0.00  0.00     0.032 H 
BRANCH  30  33
ATOM     33  C   LIG d   1      10.328   8.017  -0.115  0.00  0.00    -0.004 A 
ATOM     34  C   LIG d   1      11.100   7.285   0.793  0.00  0.00     0.063 A 
ATOM     35  N   LIG d   1      11.794   8.128   1.512  0.00  0.00    -0.176 NA
ATOM     36  N   LIG d   1      11.478   9.426   1.092  0.00  0.00    -0.271 N 
ATOM     37  C   LIG d   1      10.577   9.331   0.091  0.00  0.00     0.039 A 
BRANCH  34  38
ATOM     38  C   LIG d   1      11.129   5.784   0.918  0.00  0.00    -0.020 C 
ATOM     39  H   LIG d   1      11.270   5.505   1.972  0.00  0.00     0.029 H 
ATOM     40  H   LIG d   1      11.958   5.382   0.318  0.00  0.00     0.029 H 
ATOM     41  H   LIG d   1      10.177   5.367   0.554  0.00  0.00     0.029 H 
ENDBRANCH  34  38
BRANCH  36  42
ATOM     42  C   LIG d   1      12.029  10.668   1.640  0.00  0.00     0.030 C 
ATOM     43  H   LIG d   1      12.835  11.032   0.986  0.00  0.00     0.047 H 
ATOM     44  H   LIG d   1      12.430  10.479   2.646  0.00  0.00     0.047 H 
ATOM     45  H   LIG d   1      11.235  11.428   1.698  0.00  0.00     0.047 H 
ENDBRANCH  36  42
BRANCH  37  46
ATOM     46  C   LIG d   1       9.958  10.482  -0.660  0.00  0.00    -0.022 C 
ATOM     47  H   LIG d   1       9.149  10.919  -0.059  0.00  0.00     0.029 H 
ATOM     48  H   LIG d   1       9.551  10.120  -1.615  0.00  0.00     0.029 H 
ATOM     49  H   LIG d   1      10.726  11.247  -0.854  0.00  0.00     0.029 H 
ENDBRANCH  37  46
ENDBRANCH  30  33
ENDBRANCH  27  30
ENDBRANCH  24  27
ENDBRANCH   1  23
BRANCH   4  50
ATOM     50  O   LIG d   1      10.337  11.656  -8.422  0.00  0.00    -0.491 OA
BRANCH  50  51
ATOM     51  C   LIG d   1      11.557  12.398  -8.389  0.00  0.00     0.079 C 
ATOM     52  H   LIG d   1      12.067  12.311  -9.360  0.00  0.00     0.066 H 
ATOM     53  H   LIG d   1      12.207  12.000  -7.595  0.00  0.00     0.066 H 
ATOM     54  H   LIG d   1      11.337  13.457  -8.185  0.00  0.00     0.066 H 
ENDBRANCH  50  51
ENDBRANCH   4  50
BRANCH  11  55
ATOM     55  C   LIG d   1      11.597   7.081 -10.224  0.00  0.00    -0.043 C 
ATOM     56  H   LIG d   1      10.678   6.770 -10.743  0.00  0.00     0.078 H 
ATOM     57  H   LIG d   1      12.274   6.219 -10.129  0.00  0.00     0.078 H 
ATOM     58  H   LIG d   1      12.094   7.875 -10.801  0.00  0.00     0.078 H 
ENDBRANCH  11  55
TORSDOF 10
ENDMDL
MODEL 4
REMARK VINA RESULT:      -5.6      2.710      7.601
REMARK  10 active torsions:
REMARK  status: ('A' for Active; 'I' for Inactive)
REMARK    1  A    between atoms: C_1  and  C_2 
REMARK    2  A    between atoms: C_3  and  C_9 
REMARK    3  A    between atoms: C_4  and  C_8 
REMARK    4  A    between atoms: N_5  and  C_7 
REMARK    5  A    between atoms: C_9  and  C_10 
REMARK    6  A    between atoms: C_10  and  C_11 
REMARK       I    between atoms: C_11  and  N_13 
REMARK    7  A    between atoms: N_13  and  C_14 
REMARK    8  A    between atoms: C_17  and  O_23 
REMARK    9  A    between atoms: O_23  and  C_24 
REMARK   10  A    between atoms: N_26  and  C_29 
ROOT
ATOM      1  C   LIG d   1       9.933   8.166  -1.346  0.00  0.00     0.084 A 
ATOM      2  C   LIG d   1      10.143   9.541  -1.392  0.00  0.00    -0.006 A 
ATOM      3  C   LIG d   1      10.770  10.176  -0.342  0.00  0.00     0.048 A 
ATOM      4  C   LIG d   1      11.196   9.439   0.758  0.00  0.00     0.174 A 
ATOM      5  C   LIG d   1      10.991   8.066   0.809  0.00  0.00     0.210 A 
ATOM      6  C   LIG d   1      10.355   7.426  -0.249  0.00  0.00     0.191 A 
ATOM      7  O   LIG d   1      10.272   6.093   0.035  0.00  0.00    -0.451 OA
ATOM      8  C   LIG d   1      11.226   5.863   1.089  0.00  0.00     0.234 C 
ATOM      9  O   LIG d   1      11.309   7.137   1.757  0.00  0.00    -0.449 OA
ATOM     10  C   LIG d   1      11.010  11.663  -0.342  0.00  0.00    -0.002 C 
ATOM     11  N   LIG d   1      10.888  12.203  -1.701  0.00  0.00     0.237 N 
ATOM     12  C   LIG d   1       9.606  11.794  -2.297  0.00  0.00    -0.028 C 
ATOM     13  C   LIG d   1       9.670  10.299  -2.607  0.00  0.00     0.015 C 
ATOM     14  H   LIG d   1      10.856   5.068   1.752  0.00  0.00     0.117 H 
ATOM     15  H   LIG d   1      12.188   5.558   0.652  0.00  0.00     0.117 H 
ATOM     16  H   LIG d   1      10.268  12.155   0.305  0.00  0.00     0.087 H 
ATOM     17  H   LIG d   1      12.022  11.872   0.036  0.00  0.00     0.087 H 
ATOM     18  H   LIG d   1       8.791  11.996  -1.588  0.00  0.00     0.082 H 
ATOM     19  H   LIG d   1       9.436  12.362  -3.224  0.00  0.00     0.082 H 
ATOM     20  H   LIG d   1      10.370  10.130  -3.439  0.00  0.00     0.037 H 
ATOM     21  H   LIG d   1       8.669   9.944  -2.893  0.00  0.00     0.037 H 
ATOM     22  H   LIG d   1      11.706  11.791  -2.310  0.00  0.00     0.203 HD
ENDROOT
BRANCH   1  23
ATOM     23  N   LIG d   1       9.290   7.522  -2.415  0.00  0.00    -0.282 N 
ATOM     24  C   LIG d   1      10.020   6.946  -3.391  0.00  0.00     0.218 C 
ATOM     25  O   LIG d   1      11.229   6.907  -3.302  0.00  0.00    -0.276 OA
ATOM     26  H   LIG d   1       8.191   7.488  -2.456  0.00  0.00     0.155 HD
BRANCH  24  27
ATOM     27  C   LIG d   1       9.334   6.350  -4.593  0.00  0.00     0.028 C 
ATOM     28  H   LIG d   1       8.577   7.054  -4.970  0.00  0.00     0.036 H 
ATOM     29  H   LIG d   1       8.845   5.407  -4.306  0.00  0.00     0.036 H 
BRANCH  27  30
ATOM     30  C   LIG d   1      10.367   6.078  -5.688  0.00  0.00    -0.016 C 
ATOM     31  H   LIG d   1      10.585   5.000  -5.727  0.00  0.00     0.032 H 
ATOM     32  H   LIG d   1      11.292   6.630  -5.465  0.00  0.00     0.032 H 
BRANCH  30  33
ATOM     33  C   LIG d   1       9.820   6.528  -7.018  0.00  0.00    -0.004 A 
ATOM     34  C   LIG d   1       9.446   7.833  -7.356  0.00  0.00     0.063 A 
ATOM     35  N   LIG d   1       9.025   7.829  -8.594  0.00  0.00    -0.176 NA
ATOM     36  N   LIG d   1       9.107   6.519  -9.081  0.00  0.00    -0.271 N 
ATOM     37  C   LIG d   1       9.600   5.739  -8.095  0.00  0.00     0.039 A 
BRANCH  34  38
ATOM     38  C   LIG d   1       9.520   9.035  -6.451  0.00  0.00    -0.020 C 
ATOM     39  H   LIG d   1       9.329   9.947  -7.034  0.00  0.00     0.029 H 
ATOM     40  H   LIG d   1      10.520   9.091  -5.997  0.00  0.00     0.029 H 
ATOM     41  H   LIG d   1       8.762   8.943  -5.657  0.00  0.00     0.029 H 
ENDBRANCH  34  38
BRANCH  36  42
ATOM     42  C   LIG d   1       8.728   6.073 -10.424  0.00  0.00     0.030 C 
ATOM     43  H   LIG d   1       9.180   5.090 -10.626  0.00  0.00     0.047 H 
ATOM     44  H   LIG d   1       9.085   6.800 -11.167  0.00  0.00     0.047 H 
ATOM     45  H   LIG d   1       7.632   5.991 -10.488  0.00  0.00     0.047 H 
ENDBRANCH  36  42
BRANCH  37  46
ATOM     46  C   LIG d   1       9.856   4.257  -8.179  0.00  0.00    -0.022 C 
ATOM     47  H   LIG d   1      10.645   3.980  -7.466  0.00  0.00     0.029 H 
ATOM     48  H   LIG d   1      10.176   3.997  -9.199  0.00  0.00     0.029 H 
ATOM     49  H   LIG d   1       8.932   3.711  -7.935  0.00  0.00     0.029 H 
ENDBRANCH  37  46
ENDBRANCH  30  33
ENDBRANCH  27  30
ENDBRANCH  24  27
ENDBRANCH   1  23
BRANCH   4  50
ATOM     50  O   LIG d   1      11.818  10.067   1.792  0.00  0.00    -0.491 OA
BRANCH  50  51
ATOM     51  C   LIG d   1      13.239   9.942   1.869  0.00  0.00     0.079 C 
ATOM     52  H   LIG d   1      13.655   9.851   0.855  0.00  0.00     0.066 H 
ATOM     53  H   LIG d   1      13.497   9.047   2.454  0.00  0.00     0.066 H 
ATOM     54  H   LIG d   1      13.659  10.833   2.358  0.00  0.00     0.066 H 
ENDBRANCH  50  51
ENDBRANCH   4  50
BRANCH  11  55
ATOM     55  C   LIG d   1      11.027  13.665  -1.701  0.00  0.00    -0.043 C 
ATOM     56  H   LIG d   1      10.233  14.108  -1.082  0.00  0.00     0.078 H 
ATOM     57  H   LIG d   1      10.942  14.041  -2.731  0.00  0.00     0.078 H 
ATOM     58  H   LIG d   1      12.009  13.941  -1.290  0.00  0.00     0.078 H 
ENDBRANCH  11  55
TORSDOF 10
ENDMDL
MODEL 5
REMARK VINA RESULT:      -5.6      6.328      9.342
REMARK  10 active torsions:
REMARK  status: ('A' for Active; 'I' for Inactive)
REMARK    1  A    between atoms: C_1  and  C_2 
REMARK    2  A    between atoms: C_3  and  C_9 
REMARK    3  A    between atoms: C_4  and  C_8 
REMARK    4  A    between atoms: N_5  and  C_7 
REMARK    5  A    between atoms: C_9  and  C_10 
REMARK    6  A    between atoms: C_10  and  C_11 
REMARK       I    between atoms: C_11  and  N_13 
REMARK    7  A    between atoms: N_13  and  C_14 
REMARK    8  A    between atoms: C_17  and  O_23 
REMARK    9  A    between atoms: O_23  and  C_24 
REMARK   10  A    between atoms: N_26  and  C_29 
ROOT
ATOM      1  C   LIG d   1       8.156   1.781  -5.245  0.00  0.00     0.084 A 
ATOM      2  C   LIG d   1       9.350   2.382  -4.855  0.00  0.00    -0.006 A 
ATOM      3  C   LIG d   1      10.212   2.881  -5.807  0.00  0.00     0.048 A 
ATOM      4  C   LIG d   1       9.882   2.789  -7.156  0.00  0.00     0.174 A 
ATOM      5  C   LIG d   1       8.692   2.193  -7.551  0.00  0.00     0.210 A 
ATOM      6  C   LIG d   1       7.825   1.685  -6.591  0.00  0.00     0.191 A 
ATOM      7  O   LIG d   1       6.736   1.155  -7.222  0.00  0.00    -0.451 OA
ATOM      8  C   LIG d   1       6.755   1.708  -8.552  0.00  0.00     0.234 C 
ATOM      9  O   LIG d   1       8.150   1.983  -8.786  0.00  0.00    -0.449 OA
ATOM     10  C   LIG d   1      11.519   3.530  -5.433  0.00  0.00    -0.002 C 
ATOM     11  N   LIG d   1      11.516   3.912  -4.017  0.00  0.00     0.237 N 
ATOM     12  C   LIG d   1      11.149   2.758  -3.180  0.00  0.00    -0.028 C 
ATOM     13  C   LIG d   1       9.662   2.466  -3.382  0.00  0.00     0.015 C 
ATOM     14  H   LIG d   1       6.350   0.972  -9.262  0.00  0.00     0.117 H 
ATOM     15  H   LIG d   1       6.141   2.619  -8.579  0.00  0.00     0.117 H 
ATOM     16  H   LIG d   1      12.343   2.824  -5.612  0.00  0.00     0.087 H 
ATOM     17  H   LIG d   1      11.670   4.431  -6.047  0.00  0.00     0.087 H 
ATOM     18  H   LIG d   1      11.747   1.885  -3.477  0.00  0.00     0.082 H 
ATOM     19  H   LIG d   1      11.344   2.996  -2.124  0.00  0.00     0.082 H 
ATOM     20  H   LIG d   1       9.069   3.273  -2.927  0.00  0.00     0.037 H 
ATOM     21  H   LIG d   1       9.412   1.510  -2.899  0.00  0.00     0.037 H 
ATOM     22  H   LIG d   1      10.765   4.702  -3.875  0.00  0.00     0.203 HD
ENDROOT
BRANCH   1  23
ATOM     23  N   LIG d   1       7.282   1.270  -4.273  0.00  0.00    -0.282 N 
ATOM     24  C   LIG d   1       7.275  -0.050  -4.001  0.00  0.00     0.218 C 
ATOM     25  O   LIG d   1       8.082  -0.784  -4.532  0.00  0.00    -0.276 OA
ATOM     26  H   LIG d   1       6.603   1.947  -3.734  0.00  0.00     0.155 HD
BRANCH  24  27
ATOM     27  C   LIG d   1       6.263  -0.615  -3.038  0.00  0.00     0.028 C 
ATOM     28  H   LIG d   1       5.679   0.206  -2.596  0.00  0.00     0.036 H 
ATOM     29  H   LIG d   1       6.784  -1.165  -2.240  0.00  0.00     0.036 H 
BRANCH  27  30
ATOM     30  C   LIG d   1       5.324  -1.565  -3.784  0.00  0.00    -0.016 C 
ATOM     31  H   LIG d   1       4.753  -2.162  -3.057  0.00  0.00     0.032 H 
ATOM     32  H   LIG d   1       5.914  -2.235  -4.426  0.00  0.00     0.032 H 
BRANCH  30  33
ATOM     33  C   LIG d   1       4.371  -0.765  -4.634  0.00  0.00    -0.004 A 
ATOM     34  C   LIG d   1       3.476   0.207  -4.176  0.00  0.00     0.063 A 
ATOM     35  N   LIG d   1       2.825   0.681  -5.206  0.00  0.00    -0.176 NA
ATOM     36  N   LIG d   1       3.277   0.018  -6.353  0.00  0.00    -0.271 N 
ATOM     37  C   LIG d   1       4.227  -0.864  -5.976  0.00  0.00     0.039 A 
BRANCH  34  38
ATOM     38  C   LIG d   1       3.296   0.636  -2.742  0.00  0.00    -0.020 C 
ATOM     39  H   LIG d   1       2.225   0.658  -2.497  0.00  0.00     0.029 H 
ATOM     40  H   LIG d   1       3.726   1.639  -2.603  0.00  0.00     0.029 H 
ATOM     41  H   LIG d   1       3.808  -0.078  -2.079  0.00  0.00     0.029 H 
ENDBRANCH  34  38
BRANCH  36  42
ATOM     42  C   LIG d   1       2.805   0.242  -7.722  0.00  0.00     0.030 C 
ATOM     43  H   LIG d   1       3.594  -0.041  -8.434  0.00  0.00     0.047 H 
ATOM     44  H   LIG d   1       2.556   1.305  -7.855  0.00  0.00     0.047 H 
ATOM     45  H   LIG d   1       1.909  -0.370  -7.906  0.00  0.00     0.047 H 
ENDBRANCH  36  42
BRANCH  37  46
ATOM     46  C   LIG d   1       4.989  -1.792  -6.886  0.00  0.00    -0.022 C 
ATOM     47  H   LIG d   1       5.876  -1.275  -7.278  0.00  0.00     0.029 H 
ATOM     48  H   LIG d   1       4.343  -2.098  -7.722  0.00  0.00     0.029 H 
ATOM     49  H   LIG d   1       5.303  -2.683  -6.321  0.00  0.00     0.029 H 
ENDBRANCH  37  46
ENDBRANCH  30  33
ENDBRANCH  27  30
ENDBRANCH  24  27
ENDBRANCH   1  23
BRANCH   4  50
ATOM     50  O   LIG d   1      10.733   3.285  -8.094  0.00  0.00    -0.491 OA
BRANCH  50  51
ATOM     51  C   LIG d   1      10.384   4.536  -8.690  0.00  0.00     0.079 C 
ATOM     52  H   LIG d   1       9.308   4.719  -8.558  0.00  0.00     0.066 H 
ATOM     53  H   LIG d   1      10.623   4.509  -9.764  0.00  0.00     0.066 H 
ATOM     54  H   LIG d   1      10.955   5.344  -8.208  0.00  0.00     0.066 H 
ENDBRANCH  50  51
ENDBRANCH   4  50
BRANCH  11  55
ATOM     55  C   LIG d   1      12.819   4.460  -3.617  0.00  0.00    -0.043 C 
ATOM     56  H   LIG d   1      13.126   4.014  -2.660  0.00  0.00     0.078 H 
ATOM     57  H   LIG d   1      12.739   5.551  -3.505  0.00  0.00     0.078 H 
ATOM     58  H   LIG d   1      13.568   4.225  -4.388  0.00  0.00     0.078 H 
ENDBRANCH  11  55
TORSDOF 10
ENDMDL
MODEL 6
REMARK VINA RESULT:      -5.5     11.285     14.427
REMARK  10 active torsions:
REMARK  status: ('A' for Active; 'I' for Inactive)
REMARK    1  A    between atoms: C_1  and  C_2 
REMARK    2  A    between atoms: C_3  and  C_9 
REMARK    3  A    between atoms: C_4  and  C_8 
REMARK    4  A    between atoms: N_5  and  C_7 
REMARK    5  A    between atoms: C_9  and  C_10 
REMARK    6  A    between atoms: C_10  and  C_11 
REMARK       I    between atoms: C_11  and  N_13 
REMARK    7  A    between atoms: N_13  and  C_14 
REMARK    8  A    between atoms: C_17  and  O_23 
REMARK    9  A    between atoms: O_23  and  C_24 
REMARK   10  A    between atoms: N_26  and  C_29 
ROOT
ATOM      1  C   LIG d   1       4.020  -4.819  -6.912  0.00  0.00     0.084 A 
ATOM      2  C   LIG d   1       4.514  -6.113  -6.779  0.00  0.00    -0.006 A 
ATOM      3  C   LIG d   1       4.710  -6.893  -7.898  0.00  0.00     0.048 A 
ATOM      4  C   LIG d   1       4.419  -6.381  -9.159  0.00  0.00     0.174 A 
ATOM      5  C   LIG d   1       3.928  -5.089  -9.298  0.00  0.00     0.210 A 
ATOM      6  C   LIG d   1       3.727  -4.304  -8.168  0.00  0.00     0.191 A 
ATOM      7  O   LIG d   1       3.243  -3.089  -8.562  0.00  0.00    -0.451 OA
ATOM      8  C   LIG d   1       3.536  -2.995  -9.969  0.00  0.00     0.234 C 
ATOM      9  O   LIG d   1       3.572  -4.369 -10.402  0.00  0.00    -0.449 OA
ATOM     10  C   LIG d   1       5.232  -8.303  -7.803  0.00  0.00    -0.002 C 
ATOM     11  N   LIG d   1       5.863  -8.530  -6.498  0.00  0.00     0.237 N 
ATOM     12  C   LIG d   1       4.941  -8.148  -5.415  0.00  0.00    -0.028 C 
ATOM     13  C   LIG d   1       4.822  -6.625  -5.394  0.00  0.00     0.015 C 
ATOM     14  H   LIG d   1       2.745  -2.420 -10.472  0.00  0.00     0.117 H 
ATOM     15  H   LIG d   1       4.502  -2.489 -10.109  0.00  0.00     0.117 H 
ATOM     16  H   LIG d   1       4.399  -9.012  -7.926  0.00  0.00     0.087 H 
ATOM     17  H   LIG d   1       5.977  -8.473  -8.594  0.00  0.00     0.087 H 
ATOM     18  H   LIG d   1       3.955  -8.600  -5.596  0.00  0.00     0.082 H 
ATOM     19  H   LIG d   1       5.338  -8.507  -4.454  0.00  0.00     0.082 H 
ATOM     20  H   LIG d   1       5.771  -6.191  -5.046  0.00  0.00     0.037 H 
ATOM     21  H   LIG d   1       4.013  -6.334  -4.708  0.00  0.00     0.037 H 
ATOM     22  H   LIG d   1       6.760  -7.898  -6.434  0.00  0.00     0.203 HD
ENDROOT
BRANCH   1  23
ATOM     23  N   LIG d   1       3.818  -4.028  -5.770  0.00  0.00    -0.282 N 
ATOM     24  C   LIG d   1       4.763  -3.146  -5.386  0.00  0.00     0.218 C 
ATOM     25  O   LIG d   1       5.746  -2.972  -6.073  0.00  0.00    -0.276 OA
ATOM     26  H   LIG d   1       2.889  -4.129  -5.189  0.00  0.00     0.155 HD
BRANCH  24  27
ATOM     27  C   LIG d   1       4.595  -2.375  -4.101  0.00  0.00     0.028 C 
ATOM     28  H   LIG d   1       3.957  -2.947  -3.411  0.00  0.00     0.036 H 
ATOM     29  H   LIG d   1       4.125  -1.404  -4.315  0.00  0.00     0.036 H 
BRANCH  27  30
ATOM     30  C   LIG d   1       5.966  -2.149  -3.460  0.00  0.00    -0.016 C 
ATOM     31  H   LIG d   1       6.730  -2.704  -4.025  0.00  0.00     0.032 H 
ATOM     32  H   LIG d   1       5.948  -2.506  -2.421  0.00  0.00     0.032 H 
BRANCH  30  33
ATOM     33  C   LIG d   1       6.294  -0.679  -3.482  0.00  0.00    -0.004 A 
ATOM     34  C   LIG d   1       5.621   0.326  -2.780  0.00  0.00     0.063 A 
ATOM     35  N   LIG d   1       6.197   1.469  -3.049  0.00  0.00    -0.176 NA
ATOM     36  N   LIG d   1       7.251   1.229  -3.940  0.00  0.00    -0.271 N 
ATOM     37  C   LIG d   1       7.291  -0.097  -4.190  0.00  0.00     0.039 A 
BRANCH  34  38
ATOM     38  C   LIG d   1       4.437   0.125  -1.870  0.00  0.00    -0.020 C 
ATOM     39  H   LIG d   1       3.983   1.099  -1.638  0.00  0.00     0.029 H 
ATOM     40  H   LIG d   1       4.770  -0.355  -0.938  0.00  0.00     0.029 H 
ATOM     41  H   LIG d   1       3.695  -0.516  -2.369  0.00  0.00     0.029 H 
ENDBRANCH  34  38
BRANCH  36  42
ATOM     42  C   LIG d   1       8.152   2.239  -4.501  0.00  0.00     0.030 C 
ATOM     43  H   LIG d   1       8.511   2.898  -3.697  0.00  0.00     0.047 H 
ATOM     44  H   LIG d   1       7.613   2.836  -5.251  0.00  0.00     0.047 H 
ATOM     45  H   LIG d   1       9.011   1.741  -4.976  0.00  0.00     0.047 H 
ENDBRANCH  36  42
BRANCH  37  46
ATOM     46  C   LIG d   1       8.268  -0.801  -5.094  0.00  0.00    -0.022 C 
ATOM     47  H   LIG d   1       8.887  -0.057  -5.615  0.00  0.00     0.029 H 
ATOM     48  H   LIG d   1       7.717  -1.401  -5.833  0.00  0.00     0.029 H 
ATOM     49  H   LIG d   1       8.913  -1.461  -4.494  0.00  0.00     0.029 H 
ENDBRANCH  37  46
ENDBRANCH  30  33
ENDBRANCH  27  30
ENDBRANCH  24  27
ENDBRANCH   1  23
BRANCH   4  50
ATOM     50  O   LIG d   1       4.615  -7.151 -10.262  0.00  0.00    -0.491 OA
BRANCH  50  51
ATOM     51  C   LIG d   1       5.771  -6.869 -11.054  0.00  0.00     0.079 C 
ATOM     52  H   LIG d   1       6.191  -5.896 -10.758  0.00  0.00     0.066 H 
ATOM     53  H   LIG d   1       5.488  -6.838 -12.117  0.00  0.00     0.066 H 
ATOM     54  H   LIG d   1       6.524  -7.655 -10.897  0.00  0.00     0.066 H 
ENDBRANCH  50  51
ENDBRANCH   4  50
BRANCH  11  55
ATOM     55  C   LIG d   1       6.292  -9.927  -6.357  0.00  0.00    -0.043 C 
ATOM     56  H   LIG d   1       5.466 -10.595  -6.644  0.00  0.00     0.078 H 
ATOM     57  H   LIG d   1       6.572 -10.121  -5.311  0.00  0.00     0.078 H 
ATOM     58  H   LIG d   1       7.158 -10.113  -7.009  0.00  0.00     0.078 H 
ENDBRANCH  11  55
TORSDOF 10
ENDMDL
MODEL 7
REMARK VINA RESULT:      -5.4      4.220      7.423
REMARK  10 active torsions:
REMARK  status: ('A' for Active; 'I' for Inactive)
REMARK    1  A    between atoms: C_1  and  C_2 
REMARK    2  A    between atoms: C_3  and  C_9 
REMARK    3  A    between atoms: C_4  and  C_8 
REMARK    4  A    between atoms: N_5  and  C_7 
REMARK    5  A    between atoms: C_9  and  C_10 
REMARK    6  A    between atoms: C_10  and  C_11 
REMARK       I    between atoms: C_11  and  N_13 
REMARK    7  A    between atoms: N_13  and  C_14 
REMARK    8  A    between atoms: C_17  and  O_23 
REMARK    9  A    between atoms: O_23  and  C_24 
REMARK   10  A    between atoms: N_26  and  C_29 
ROOT
ATOM      1  C   LIG d   1       9.906   6.283  -2.393  0.00  0.00     0.084 A 
ATOM      2  C   LIG d   1       9.918   7.191  -3.447  0.00  0.00    -0.006 A 
ATOM      3  C   LIG d   1      10.272   8.504  -3.221  0.00  0.00     0.048 A 
ATOM      4  C   LIG d   1      10.621   8.916  -1.939  0.00  0.00     0.174 A 
ATOM      5  C   LIG d   1      10.612   8.014  -0.883  0.00  0.00     0.210 A 
ATOM      6  C   LIG d   1      10.252   6.691  -1.111  0.00  0.00     0.191 A 
ATOM      7  O   LIG d   1      10.320   6.010   0.071  0.00  0.00    -0.451 OA
ATOM      8  C   LIG d   1      11.118   6.833   0.944  0.00  0.00     0.234 C 
ATOM      9  O   LIG d   1      10.908   8.166   0.442  0.00  0.00    -0.449 OA
ATOM     10  C   LIG d   1      10.290   9.524  -4.329  0.00  0.00    -0.002 C 
ATOM     11  N   LIG d   1      10.308   8.861  -5.637  0.00  0.00     0.237 N 
ATOM     12  C   LIG d   1       9.210   7.885  -5.728  0.00  0.00    -0.028 C 
ATOM     13  C   LIG d   1       9.540   6.699  -4.822  0.00  0.00     0.015 C 
ATOM     14  H   LIG d   1      10.767   6.717   1.980  0.00  0.00     0.117 H 
ATOM     15  H   LIG d   1      12.171   6.524   0.877  0.00  0.00     0.117 H 
ATOM     16  H   LIG d   1       9.391  10.156  -4.261  0.00  0.00     0.087 H 
ATOM     17  H   LIG d   1      11.187  10.153  -4.234  0.00  0.00     0.087 H 
ATOM     18  H   LIG d   1       8.272   8.357  -5.403  0.00  0.00     0.082 H 
ATOM     19  H   LIG d   1       9.109   7.545  -6.769  0.00  0.00     0.082 H 
ATOM     20  H   LIG d   1      10.380   6.135  -5.254  0.00  0.00     0.037 H 
ATOM     21  H   LIG d   1       8.659   6.045  -4.747  0.00  0.00     0.037 H 
ATOM     22  H   LIG d   1      11.263   8.326  -5.740  0.00  0.00     0.203 HD
ENDROOT
BRANCH   1  23
ATOM     23  N   LIG d   1       9.542   4.948  -2.626  0.00  0.00    -0.282 N 
ATOM     24  C   LIG d   1      10.495   4.002  -2.751  0.00  0.00     0.218 C 
ATOM     25  O   LIG d   1      11.660   4.288  -2.576  0.00  0.00    -0.276 OA
ATOM     26  H   LIG d   1       8.480   4.674  -2.706  0.00  0.00     0.155 HD
BRANCH  24  27
ATOM     27  C   LIG d   1      10.111   2.589  -3.109  0.00  0.00     0.028 C 
ATOM     28  H   LIG d   1       9.853   2.036  -2.193  0.00  0.00     0.036 H 
ATOM     29  H   LIG d   1      10.958   2.095  -3.608  0.00  0.00     0.036 H 
BRANCH  27  30
ATOM     30  C   LIG d   1       8.905   2.611  -4.049  0.00  0.00    -0.016 C 
ATOM     31  H   LIG d   1       9.167   3.155  -4.969  0.00  0.00     0.032 H 
ATOM     32  H   LIG d   1       8.063   3.115  -3.553  0.00  0.00     0.032 H 
BRANCH  30  33
ATOM     33  C   LIG d   1       8.512   1.199  -4.396  0.00  0.00    -0.004 A 
ATOM     34  C   LIG d   1       9.261   0.300  -5.163  0.00  0.00     0.063 A 
ATOM     35  N   LIG d   1       8.596  -0.824  -5.241  0.00  0.00    -0.176 NA
ATOM     36  N   LIG d   1       7.397  -0.674  -4.533  0.00  0.00    -0.271 N 
ATOM     37  C   LIG d   1       7.370   0.576  -4.022  0.00  0.00     0.039 A 
BRANCH  34  38
ATOM     38  C   LIG d   1      10.603   0.579  -5.789  0.00  0.00    -0.020 C 
ATOM     39  H   LIG d   1      11.319  -0.196  -5.483  0.00  0.00     0.029 H 
ATOM     40  H   LIG d   1      10.964   1.564  -5.459  0.00  0.00     0.029 H 
ATOM     41  H   LIG d   1      10.504   0.573  -6.886  0.00  0.00     0.029 H 
ENDBRANCH  34  38
BRANCH  36  42
ATOM     42  C   LIG d   1       6.357  -1.692  -4.373  0.00  0.00     0.030 C 
ATOM     43  H   LIG d   1       6.823  -2.657  -4.127  0.00  0.00     0.047 H 
ATOM     44  H   LIG d   1       5.790  -1.788  -5.311  0.00  0.00     0.047 H 
ATOM     45  H   LIG d   1       5.675  -1.397  -3.561  0.00  0.00     0.047 H 
ENDBRANCH  36  42
BRANCH  37  46
ATOM     46  C   LIG d   1       6.265   1.171  -3.189  0.00  0.00    -0.022 C 
ATOM     47  H   LIG d   1       6.551   2.183  -2.869  0.00  0.00     0.029 H 
ATOM     48  H   LIG d   1       6.094   0.542  -2.303  0.00  0.00     0.029 H 
ATOM     49  H   LIG d   1       5.342   1.222  -3.786  0.00  0.00     0.029 H 
ENDBRANCH  37  46
ENDBRANCH  30  33
ENDBRANCH  27  30
ENDBRANCH  24  27
ENDBRANCH   1  23
BRANCH   4  50
ATOM     50  O   LIG d   1      10.972  10.211  -1.718  0.00  0.00    -0.491 OA
BRANCH  50  51
ATOM     51  C   LIG d   1       9.999  11.050  -1.093  0.00  0.00     0.079 C 
ATOM     52  H   LIG d   1      10.259  12.105  -1.265  0.00  0.00     0.066 H 
ATOM     53  H   LIG d   1       9.981  10.848  -0.012  0.00  0.00     0.066 H 
ATOM     54  H   LIG d   1       9.007  10.844  -1.521  0.00  0.00     0.066 H 
ENDBRANCH  50  51
ENDBRANCH   4  50
BRANCH  11  55
ATOM     55  C   LIG d   1      10.231   9.844  -6.726  0.00  0.00    -0.043 C 
ATOM     56  H   LIG d   1       9.202  10.227  -6.802  0.00  0.00     0.078 H 
ATOM     57  H   LIG d   1      10.513   9.364  -7.675  0.00  0.00     0.078 H 
ATOM     58  H   LIG d   1      10.918  10.677  -6.518  0.00  0.00     0.078 H 
ENDBRANCH  11  55
TORSDOF 10
ENDMDL
MODEL 8
REMARK VINA RESULT:      -5.4      3.242      7.481
REMARK  10 active torsions:
REMARK  status: ('A' for Active; 'I' for Inactive)
REMARK    1  A    between atoms: C_1  and  C_2 
REMARK    2  A    between atoms: C_3  and  C_9 
REMARK    3  A    between atoms: C_4  and  C_8 
REMARK    4  A    between atoms: N_5  and  C_7 
REMARK    5  A    between atoms: C_9  and  C_10 
REMARK    6  A    between atoms: C_10  and  C_11 
REMARK       I    between atoms: C_11  and  N_13 
REMARK    7  A    between atoms: N_13  and  C_14 
REMARK    8  A    between atoms: C_17  and  O_23 
REMARK    9  A    between atoms: O_23  and  C_24 
REMARK   10  A    between atoms: N_26  and  C_29 
ROOT
ATOM      1  C   LIG d   1       9.965   8.126  -1.365  0.00  0.00     0.084 A 
ATOM      2  C   LIG d   1      10.167   9.502  -1.413  0.00  0.00    -0.006 A 
ATOM      3  C   LIG d   1      10.776  10.145  -0.357  0.00  0.00     0.048 A 
ATOM      4  C   LIG d   1      11.193   9.415   0.751  0.00  0.00     0.174 A 
ATOM      5  C   LIG d   1      10.996   8.041   0.803  0.00  0.00     0.210 A 
ATOM      6  C   LIG d   1      10.378   7.393  -0.260  0.00  0.00     0.191 A 
ATOM      7  O   LIG d   1      10.300   6.060   0.027  0.00  0.00    -0.451 OA
ATOM      8  C   LIG d   1      11.242   5.840   1.094  0.00  0.00     0.234 C 
ATOM      9  O   LIG d   1      11.308   7.116   1.759  0.00  0.00    -0.449 OA
ATOM     10  C   LIG d   1      11.007  11.634  -0.359  0.00  0.00    -0.002 C 
ATOM     11  N   LIG d   1      10.899  12.168  -1.721  0.00  0.00     0.237 N 
ATOM     12  C   LIG d   1       9.627  11.749  -2.333  0.00  0.00    -0.028 C 
ATOM     13  C   LIG d   1       9.705  10.253  -2.636  0.00  0.00     0.015 C 
ATOM     14  H   LIG d   1      10.869   5.044   1.755  0.00  0.00     0.117 H 
ATOM     15  H   LIG d   1      12.212   5.540   0.671  0.00  0.00     0.117 H 
ATOM     16  H   LIG d   1      10.254  12.123   0.277  0.00  0.00     0.087 H 
ATOM     17  H   LIG d   1      12.012  11.851   0.031  0.00  0.00     0.087 H 
ATOM     18  H   LIG d   1       8.801  11.948  -1.635  0.00  0.00     0.082 H 
ATOM     19  H   LIG d   1       9.465  12.313  -3.263  0.00  0.00     0.082 H 
ATOM     20  H   LIG d   1      10.417  10.087  -3.459  0.00  0.00     0.037 H 
ATOM     21  H   LIG d   1       8.710   9.892  -2.934  0.00  0.00     0.037 H 
ATOM     22  H   LIG d   1      11.727  11.760  -2.318  0.00  0.00     0.203 HD
ENDROOT
BRANCH   1  23
ATOM     23  N   LIG d   1       9.341   7.475  -2.440  0.00  0.00    -0.282 N 
ATOM     24  C   LIG d   1      10.087   6.854  -3.376  0.00  0.00     0.218 C 
ATOM     25  O   LIG d   1      11.290   6.784  -3.245  0.00  0.00    -0.276 OA
ATOM     26  H   LIG d   1       8.243   7.471  -2.518  0.00  0.00     0.155 HD
BRANCH  24  27
ATOM     27  C   LIG d   1       9.424   6.249  -4.587  0.00  0.00     0.028 C 
ATOM     28  H   LIG d   1       9.098   7.050  -5.266  0.00  0.00     0.036 H 
ATOM     29  H   LIG d   1       8.550   5.660  -4.271  0.00  0.00     0.036 H 
BRANCH  27  30
ATOM     30  C   LIG d   1      10.418   5.338  -5.311  0.00  0.00    -0.016 C 
ATOM     31  H   LIG d   1      11.248   5.090  -4.632  0.00  0.00     0.032 H 
ATOM     32  H   LIG d   1      10.812   5.857  -6.197  0.00  0.00     0.032 H 
BRANCH  30  33
ATOM     33  C   LIG d   1       9.722   4.072  -5.737  0.00  0.00    -0.004 A 
ATOM     34  C   LIG d   1       9.310   3.035  -4.894  0.00  0.00     0.063 A 
ATOM     35  N   LIG d   1       8.742   2.113  -5.628  0.00  0.00    -0.176 NA
ATOM     36  N   LIG d   1       8.784   2.530  -6.964  0.00  0.00    -0.271 N 
ATOM     37  C   LIG d   1       9.389   3.736  -7.005  0.00  0.00     0.039 A 
BRANCH  34  38
ATOM     38  C   LIG d   1       9.487   2.990  -3.398  0.00  0.00    -0.020 C 
ATOM     39  H   LIG d   1       8.725   2.331  -2.958  0.00  0.00     0.029 H 
ATOM     40  H   LIG d   1       9.377   4.004  -2.986  0.00  0.00     0.029 H 
ATOM     41  H   LIG d   1      10.489   2.603  -3.159  0.00  0.00     0.029 H 
ENDBRANCH  34  38
BRANCH  36  42
ATOM     42  C   LIG d   1       8.262   1.788  -8.115  0.00  0.00     0.030 C 
ATOM     43  H   LIG d   1       8.305   2.424  -9.011  0.00  0.00     0.047 H 
ATOM     44  H   LIG d   1       7.219   1.497  -7.922  0.00  0.00     0.047 H 
ATOM     45  H   LIG d   1       8.870   0.886  -8.277  0.00  0.00     0.047 H 
ENDBRANCH  36  42
BRANCH  37  46
ATOM     46  C   LIG d   1       9.649   4.558  -8.240  0.00  0.00    -0.022 C 
ATOM     47  H   LIG d   1      10.502   5.227  -8.063  0.00  0.00     0.029 H 
ATOM     48  H   LIG d   1       8.757   5.156  -8.478  0.00  0.00     0.029 H 
ATOM     49  H   LIG d   1       9.877   3.889  -9.084  0.00  0.00     0.029 H 
ENDBRANCH  37  46
ENDBRANCH  30  33
ENDBRANCH  27  30
ENDBRANCH  24  27
ENDBRANCH   1  23
BRANCH   4  50
ATOM     50  O   LIG d   1      11.797  10.050   1.791  0.00  0.00    -0.491 OA
BRANCH  50  51
ATOM     51  C   LIG d   1      13.218   9.937   1.885  0.00  0.00     0.079 C 
ATOM     52  H   LIG d   1      13.479   9.277   2.725  0.00  0.00     0.066 H 
ATOM     53  H   LIG d   1      13.655  10.933   2.050  0.00  0.00     0.066 H 
ATOM     54  H   LIG d   1      13.615   9.514   0.950  0.00  0.00     0.066 H 
ENDBRANCH  50  51
ENDBRANCH   4  50
BRANCH  11  55
ATOM     55  C   LIG d   1      11.028  13.631  -1.724  0.00  0.00    -0.043 C 
ATOM     56  H   LIG d   1      11.395  13.965  -2.706  0.00  0.00     0.078 H 
ATOM     57  H   LIG d   1      11.738  13.939  -0.943  0.00  0.00     0.078 H 
ATOM     58  H   LIG d   1      10.046  14.086  -1.526  0.00  0.00     0.078 H 
ENDBRANCH  11  55
TORSDOF 10
ENDMDL
MODEL 9
REMARK VINA RESULT:      -5.3      9.270     11.819
REMARK  10 active torsions:
REMARK  status: ('A' for Active; 'I' for Inactive)
REMARK    1  A    between atoms: C_1  and  C_2 
REMARK    2  A    between atoms: C_3  and  C_9 
REMARK    3  A    between atoms: C_4  and  C_8 
REMARK    4  A    between atoms: N_5  and  C_7 
REMARK    5  A    between atoms: C_9  and  C_10 
REMARK    6  A    between atoms: C_10  and  C_11 
REMARK       I    between atoms: C_11  and  N_13 
REMARK    7  A    between atoms: N_13  and  C_14 
REMARK    8  A    between atoms: C_17  and  O_23 
REMARK    9  A    between atoms: O_23  and  C_24 
REMARK   10  A    between atoms: N_26  and  C_29 
ROOT
ATOM      1  C   LIG d   1       3.875   0.638  -8.591  0.00  0.00     0.084 A 
ATOM      2  C   LIG d   1       3.132  -0.014  -9.571  0.00  0.00    -0.006 A 
ATOM      3  C   LIG d   1       3.710  -0.320 -10.783  0.00  0.00     0.048 A 
ATOM      4  C   LIG d   1       5.039   0.020 -11.021  0.00  0.00     0.174 A 
ATOM      5  C   LIG d   1       5.786   0.668 -10.047  0.00  0.00     0.210 A 
ATOM      6  C   LIG d   1       5.200   0.980  -8.825  0.00  0.00     0.191 A 
ATOM      7  O   LIG d   1       6.128   1.609  -8.044  0.00  0.00    -0.451 OA
ATOM      8  C   LIG d   1       7.402   1.314  -8.647  0.00  0.00     0.234 C 
ATOM      9  O   LIG d   1       7.081   1.100 -10.035  0.00  0.00    -0.449 OA
ATOM     10  C   LIG d   1       2.944  -1.015 -11.878  0.00  0.00    -0.002 C 
ATOM     11  N   LIG d   1       1.741  -1.654 -11.335  0.00  0.00     0.237 N 
ATOM     12  C   LIG d   1       0.951  -0.680 -10.563  0.00  0.00    -0.028 C 
ATOM     13  C   LIG d   1       1.698  -0.369  -9.267  0.00  0.00     0.015 C 
ATOM     14  H   LIG d   1       8.083   2.166  -8.503  0.00  0.00     0.117 H 
ATOM     15  H   LIG d   1       7.832   0.418  -8.176  0.00  0.00     0.117 H 
ATOM     16  H   LIG d   1       2.645  -0.280 -12.640  0.00  0.00     0.087 H 
ATOM     17  H   LIG d   1       3.580  -1.784 -12.340  0.00  0.00     0.087 H 
ATOM     18  H   LIG d   1       0.824   0.239 -11.154  0.00  0.00     0.082 H 
ATOM     19  H   LIG d   1      -0.036  -1.108 -10.334  0.00  0.00     0.082 H 
ATOM     20  H   LIG d   1       1.670  -1.252  -8.611  0.00  0.00     0.037 H 
ATOM     21  H   LIG d   1       1.210   0.478  -8.762  0.00  0.00     0.037 H 
ATOM     22  H   LIG d   1       2.054  -2.464 -10.660  0.00  0.00     0.203 HD
ENDROOT
BRANCH   1  23
ATOM     23  N   LIG d   1       3.281   0.951  -7.358  0.00  0.00    -0.282 N 
ATOM     24  C   LIG d   1       3.279   0.043  -6.361  0.00  0.00     0.218 C 
ATOM     25  O   LIG d   1       3.865  -1.010  -6.499  0.00  0.00    -0.276 OA
ATOM     26  H   LIG d   1       2.817   1.937  -7.206  0.00  0.00     0.155 HD
BRANCH  24  27
ATOM     27  C   LIG d   1       2.548   0.337  -5.077  0.00  0.00     0.028 C 
ATOM     28  H   LIG d   1       1.472   0.438  -5.281  0.00  0.00     0.036 H 
ATOM     29  H   LIG d   1       2.927   1.276  -4.646  0.00  0.00     0.036 H 
BRANCH  27  30
ATOM     30  C   LIG d   1       2.775  -0.808  -4.088  0.00  0.00    -0.016 C 
ATOM     31  H   LIG d   1       2.544  -1.766  -4.577  0.00  0.00     0.032 H 
ATOM     32  H   LIG d   1       2.118  -0.675  -3.216  0.00  0.00     0.032 H 
BRANCH  30  33
ATOM     33  C   LIG d   1       4.213  -0.807  -3.639  0.00  0.00    -0.004 A 
ATOM     34  C   LIG d   1       4.884   0.255  -3.024  0.00  0.00     0.063 A 
ATOM     35  N   LIG d   1       6.112  -0.123  -2.781  0.00  0.00    -0.176 NA
ATOM     36  N   LIG d   1       6.267  -1.435  -3.245  0.00  0.00    -0.271 N 
ATOM     37  C   LIG d   1       5.086  -1.834  -3.766  0.00  0.00     0.039 A 
BRANCH  34  38
ATOM     38  C   LIG d   1       4.291   1.600  -2.694  0.00  0.00    -0.020 C 
ATOM     39  H   LIG d   1       3.451   1.808  -3.373  0.00  0.00     0.029 H 
ATOM     40  H   LIG d   1       5.059   2.378  -2.812  0.00  0.00     0.029 H 
ATOM     41  H   LIG d   1       3.929   1.597  -1.655  0.00  0.00     0.029 H 
ENDBRANCH  34  38
BRANCH  36  42
ATOM     42  C   LIG d   1       7.491  -2.236  -3.175  0.00  0.00     0.030 C 
ATOM     43  H   LIG d   1       7.247  -3.296  -3.336  0.00  0.00     0.047 H 
ATOM     44  H   LIG d   1       7.955  -2.113  -2.185  0.00  0.00     0.047 H 
ATOM     45  H   LIG d   1       8.194  -1.900  -3.954  0.00  0.00     0.047 H 
ENDBRANCH  36  42
BRANCH  37  46
ATOM     46  C   LIG d   1       4.795  -3.178  -4.380  0.00  0.00    -0.022 C 
ATOM     47  H   LIG d   1       5.378  -3.293  -5.305  0.00  0.00     0.029 H 
ATOM     48  H   LIG d   1       3.722  -3.251  -4.611  0.00  0.00     0.029 H 
ATOM     49  H   LIG d   1       5.072  -3.973  -3.670  0.00  0.00     0.029 H 
ENDBRANCH  37  46
ENDBRANCH  30  33
ENDBRANCH  27  30
ENDBRANCH  24  27
ENDBRANCH   1  23
BRANCH   4  50
ATOM     50  O   LIG d   1       5.609  -0.285 -12.218  0.00  0.00    -0.491 OA
BRANCH  50  51
ATOM     51  C   LIG d   1       6.515  -1.391 -12.243  0.00  0.00     0.079 C 
ATOM     52  H   LIG d   1       6.567  -1.846 -11.243  0.00  0.00     0.066 H 
ATOM     53  H   LIG d   1       7.514  -1.039 -12.539  0.00  0.00     0.066 H 
ATOM     54  H   LIG d   1       6.160  -2.138 -12.968  0.00  0.00     0.066 H 
ENDBRANCH  50  51
ENDBRANCH   4  50
BRANCH  11  55
ATOM     55  C   LIG d   1       0.935  -2.255 -12.406  0.00  0.00    -0.043 C 
ATOM     56  H   LIG d   1      -0.001  -2.650 -11.983  0.00  0.00     0.078 H 
ATOM     57  H   LIG d   1       1.499  -3.074 -12.875  0.00  0.00     0.078 H 
ATOM     58  H   LIG d   1       0.701  -1.490 -13.162  0.00  0.00     0.078 H 
ENDBRANCH  11  55
TORSDOF 10
ENDMDL
MODEL 10
REMARK VINA RESULT:      -5.3      2.154      4.681
REMARK  10 active torsions:
REMARK  status: ('A' for Active; 'I' for Inactive)
REMARK    1  A    between atoms: C_1  and  C_2 
REMARK    2  A    between atoms: C_3  and  C_9 
REMARK    3  A    between atoms: C_4  and  C_8 
REMARK    4  A    between atoms: N_5  and  C_7 
REMARK    5  A    between atoms: C_9  and  C_10 
REMARK    6  A    between atoms: C_10  and  C_11 
REMARK       I    between atoms: C_11  and  N_13 
REMARK    7  A    between atoms: N_13  and  C_14 
REMARK    8  A    between atoms: C_17  and  O_23 
REMARK    9  A    between atoms: O_23  and  C_24 
REMARK   10  A    between atoms: N_26  and  C_29 
ROOT
ATOM      1  C   LIG d   1       9.508   7.246  -5.717  0.00  0.00     0.084 A 
ATOM      2  C   LIG d   1       9.736   5.966  -5.222  0.00  0.00    -0.006 A 
ATOM      3  C   LIG d   1       9.921   4.914  -6.092  0.00  0.00     0.048 A 
ATOM      4  C   LIG d   1       9.885   5.137  -7.465  0.00  0.00     0.174 A 
ATOM      5  C   LIG d   1       9.660   6.413  -7.966  0.00  0.00     0.210 A 
ATOM      6  C   LIG d   1       9.470   7.473  -7.087  0.00  0.00     0.191 A 
ATOM      7  O   LIG d   1       9.269   8.611  -7.814  0.00  0.00    -0.451 OA
ATOM      8  C   LIG d   1       9.744   8.310  -9.140  0.00  0.00     0.234 C 
ATOM      9  O   LIG d   1       9.580   6.883  -9.245  0.00  0.00    -0.449 OA
ATOM     10  C   LIG d   1      10.161   3.509  -5.603  0.00  0.00    -0.002 C 
ATOM     11  N   LIG d   1      10.575   3.520  -4.196  0.00  0.00     0.237 N 
ATOM     12  C   LIG d   1       9.614   4.289  -3.389  0.00  0.00    -0.028 C 
ATOM     13  C   LIG d   1       9.774   5.771  -3.727  0.00  0.00     0.015 C 
ATOM     14  H   LIG d   1       9.139   8.855  -9.880  0.00  0.00     0.117 H 
ATOM     15  H   LIG d   1      10.796   8.617  -9.230  0.00  0.00     0.117 H 
ATOM     16  H   LIG d   1       9.234   2.924  -5.698  0.00  0.00     0.087 H 
ATOM     17  H   LIG d   1      10.953   3.041  -6.205  0.00  0.00     0.087 H 
ATOM     18  H   LIG d   1       8.591   3.959  -3.622  0.00  0.00     0.082 H 
ATOM     19  H   LIG d   1       9.818   4.124  -2.321  0.00  0.00     0.082 H 
ATOM     20  H   LIG d   1      10.737   6.131  -3.334  0.00  0.00     0.037 H 
ATOM     21  H   LIG d   1       8.954   6.339  -3.263  0.00  0.00     0.037 H 
ATOM     22  H   LIG d   1      11.558   4.007  -4.129  0.00  0.00     0.203 HD
ENDROOT
BRANCH   1  23
ATOM     23  N   LIG d   1       9.316   8.315  -4.828  0.00  0.00    -0.282 N 
ATOM     24  C   LIG d   1      10.357   9.100  -4.484  0.00  0.00     0.218 C 
ATOM     25  O   LIG d   1      11.439   8.937  -5.008  0.00  0.00    -0.276 OA
ATOM     26  H   LIG d   1       8.317   8.511  -4.412  0.00  0.00     0.155 HD
BRANCH  24  27
ATOM     27  C   LIG d   1      10.176  10.178  -3.447  0.00  0.00     0.028 C 
ATOM     28  H   LIG d   1       9.175  10.093  -3.000  0.00  0.00     0.036 H 
ATOM     29  H   LIG d   1      10.281  11.165  -3.922  0.00  0.00     0.036 H 
BRANCH  27  30
ATOM     30  C   LIG d   1      11.238  10.021  -2.356  0.00  0.00    -0.016 C 
ATOM     31  H   LIG d   1      11.208  10.894  -1.688  0.00  0.00     0.032 H 
ATOM     32  H   LIG d   1      12.232   9.949  -2.821  0.00  0.00     0.032 H 
BRANCH  30  33
ATOM     33  C   LIG d   1      10.961   8.771  -1.563  0.00  0.00    -0.004 A 
ATOM     34  C   LIG d   1       9.814   8.513  -0.804  0.00  0.00     0.063 A 
ATOM     35  N   LIG d   1       9.937   7.327  -0.267  0.00  0.00    -0.176 NA
ATOM     36  N   LIG d   1      11.171   6.794  -0.659  0.00  0.00    -0.271 N 
ATOM     37  C   LIG d   1      11.781   7.699  -1.455  0.00  0.00     0.039 A 
BRANCH  34  38
ATOM     38  C   LIG d   1       8.640   9.442  -0.637  0.00  0.00    -0.020 C 
ATOM     39  H   LIG d   1       8.693   9.929   0.348  0.00  0.00     0.029 H 
ATOM     40  H   LIG d   1       7.705   8.868  -0.712  0.00  0.00     0.029 H 
ATOM     41  H   LIG d   1       8.664  10.209  -1.426  0.00  0.00     0.029 H 
ENDBRANCH  34  38
BRANCH  36  42
ATOM     42  C   LIG d   1      11.707   5.486  -0.274  0.00  0.00     0.030 C 
ATOM     43  H   LIG d   1      12.244   5.576   0.681  0.00  0.00     0.047 H 
ATOM     44  H   LIG d   1      12.399   5.130  -1.051  0.00  0.00     0.047 H 
ATOM     45  H   LIG d   1      10.880   4.769  -0.163  0.00  0.00     0.047 H 
ENDBRANCH  36  42
BRANCH  37  46
ATOM     46  C   LIG d   1      13.131   7.543  -2.105  0.00  0.00    -0.022 C 
ATOM     47  H   LIG d   1      13.554   6.563  -1.842  0.00  0.00     0.029 H 
ATOM     48  H   LIG d   1      13.802   8.339  -1.751  0.00  0.00     0.029 H 
ATOM     49  H   LIG d   1      13.022   7.614  -3.198  0.00  0.00     0.029 H 
ENDBRANCH  37  46
ENDBRANCH  30  33
ENDBRANCH  27  30
ENDBRANCH  24  27
ENDBRANCH   1  23
BRANCH   4  50
ATOM     50  O   LIG d   1      10.071   4.098  -8.323  0.00  0.00    -0.491 OA
BRANCH  50  51
ATOM     51  C   LIG d   1       8.908   3.564  -8.959  0.00  0.00     0.079 C 
ATOM     52  H   LIG d   1       8.127   3.386  -8.205  0.00  0.00     0.066 H 
ATOM     53  H   LIG d   1       9.164   2.616  -9.454  0.00  0.00     0.066 H 
ATOM     54  H   LIG d   1       8.538   4.281  -9.707  0.00  0.00     0.066 H 
ENDBRANCH  50  51
ENDBRANCH   4  50
BRANCH  11  55
ATOM     55  C   LIG d   1      10.720   2.153  -3.679  0.00  0.00    -0.043 C 
ATOM     56  H   LIG d   1      10.572   2.155  -2.590  0.00  0.00     0.078 H 
ATOM     57  H   LIG d   1      11.727   1.778  -3.912  0.00  0.00     0.078 H 
ATOM     58  H   LIG d   1       9.969   1.501  -4.150  0.00  0.00     0.078 H 
ENDBRANCH  11  55
TORSDOF 10
ENDMDL
