MODEL 1
REMARK VINA RESULT:      -6.5      0.000      0.000
REMARK  2 active torsions:
REMARK  status: ('A' for Active; 'I' for Inactive)
REMARK    1  A    between atoms: C_4  and  C_8 
REMARK    2  A    between atoms: C_15  and  O_19 
ROOT
ATOM      1  C   LIG d   1       5.586  -2.201  -4.613  0.00  0.00    -0.005 C 
ATOM      2  C   LIG d   1       6.666  -3.008  -4.460  0.00  0.00     0.176 A 
ATOM      3  C   LIG d   1       6.987  -4.194  -5.267  0.00  0.00     0.232 A 
ATOM      4  O   LIG d   1       6.353  -4.656  -6.199  0.00  0.00    -0.283 OA
ATOM      5  C   LIG d   1       8.249  -4.700  -4.695  0.00  0.00     0.068 A 
ATOM      6  C   LIG d   1       9.069  -5.786  -5.005  0.00  0.00    -0.044 A 
ATOM      7  C   LIG d   1      10.209  -6.005  -4.285  0.00  0.00    -0.019 A 
ATOM      8  C   LIG d   1      10.547  -5.155  -3.235  0.00  0.00     0.120 A 
ATOM      9  C   LIG d   1       9.742  -4.073  -2.916  0.00  0.00     0.023 A 
ATOM     10  C   LIG d   1       8.582  -3.833  -3.643  0.00  0.00     0.143 A 
ATOM     11  O   LIG d   1       7.645  -2.865  -3.535  0.00  0.00    -0.451 OA
ATOM     12  H   LIG d   1       4.864  -2.409  -5.389  0.00  0.00     0.066 H 
ATOM     13  H   LIG d   1       8.806  -6.449  -5.816  0.00  0.00     0.063 H 
ATOM     14  H   LIG d   1      10.847  -6.843  -4.526  0.00  0.00     0.065 H 
ATOM     15  H   LIG d   1      10.015  -3.417  -2.103  0.00  0.00     0.069 H 
ENDROOT
BRANCH   1  16
ATOM     16  C   LIG d   1       5.400  -1.046  -3.726  0.00  0.00     0.015 A 
ATOM     17  C   LIG d   1       4.548  -1.139  -2.617  0.00  0.00     0.050 A 
ATOM     18  C   LIG d   1       4.380  -0.048  -1.789  0.00  0.00    -0.043 A 
ATOM     19 CL   LIG d   1       3.710  -2.622  -2.285  0.00  0.00    -0.083 Cl
ATOM     20  C   LIG d   1       5.047   1.136  -2.052  0.00  0.00    -0.059 A 
ATOM     21  H   LIG d   1       3.724  -0.117  -0.934  0.00  0.00     0.063 H 
ATOM     22  C   LIG d   1       5.890   1.237  -3.146  0.00  0.00    -0.043 A 
ATOM     23  H   LIG d   1       4.910   1.986  -1.400  0.00  0.00     0.062 H 
ATOM     24  C   LIG d   1       6.076   0.155  -3.982  0.00  0.00     0.050 A 
ATOM     25  H   LIG d   1       6.407   2.165  -3.343  0.00  0.00     0.063 H 
ATOM     26 CL   LIG d   1       7.138   0.282  -5.347  0.00  0.00    -0.083 Cl
ENDBRANCH   1  16
BRANCH   8  27
ATOM     27  O   LIG d   1      11.678  -5.384  -2.521  0.00  0.00    -0.507 OA
ATOM     28  H   LIG d   1      12.399  -5.770  -3.037  0.00  0.00     0.292 HD
ENDBRANCH   8  27
TORSDOF 2
ENDMDL
MODEL 2
REMARK VINA RESULT:      -6.5      0.020      2.030
REMARK  2 active torsions:
REMARK  status: ('A' for Active; 'I' for Inactive)
REMARK    1  A    between atoms: C_4  and  C_8 
REMARK    2  A    between atoms: C_15  and  O_19 
ROOT
ATOM      1  C   LIG d   1       5.576  -2.208  -4.595  0.00  0.00    -0.005 C 
ATOM      2  C   LIG d   1       6.661  -3.010  -4.447  0.00  0.00     0.176 A 
ATOM      3  C   LIG d   1       6.980  -4.200  -5.249  0.00  0.00     0.232 A 
ATOM      4  O   LIG d   1       6.339  -4.670  -6.173  0.00  0.00    -0.283 OA
ATOM      5  C   LIG d   1       8.249  -4.696  -4.686  0.00  0.00     0.068 A 
ATOM      6  C   LIG d   1       9.071  -5.780  -4.997  0.00  0.00    -0.044 A 
ATOM      7  C   LIG d   1      10.218  -5.990  -4.286  0.00  0.00    -0.019 A 
ATOM      8  C   LIG d   1      10.563  -5.132  -3.244  0.00  0.00     0.120 A 
ATOM      9  C   LIG d   1       9.755  -4.052  -2.925  0.00  0.00     0.023 A 
ATOM     10  C   LIG d   1       8.588  -3.821  -3.642  0.00  0.00     0.143 A 
ATOM     11  O   LIG d   1       7.648  -2.857  -3.532  0.00  0.00    -0.451 OA
ATOM     12  H   LIG d   1       4.848  -2.424  -5.363  0.00  0.00     0.066 H 
ATOM     13  H   LIG d   1       8.804  -6.450  -5.801  0.00  0.00     0.063 H 
ATOM     14  H   LIG d   1      10.858  -6.826  -4.528  0.00  0.00     0.065 H 
ATOM     15  H   LIG d   1      10.033  -3.389  -2.119  0.00  0.00     0.069 H 
ENDROOT
BRANCH   1  16
ATOM     16  C   LIG d   1       5.392  -1.048  -3.714  0.00  0.00     0.015 A 
ATOM     17  C   LIG d   1       6.066   0.152  -3.978  0.00  0.00     0.050 A 
ATOM     18  C   LIG d   1       5.886   1.236  -3.144  0.00  0.00    -0.043 A 
ATOM     19 CL   LIG d   1       7.121   0.273  -5.350  0.00  0.00    -0.083 Cl
ATOM     20  C   LIG d   1       5.046   1.141  -2.048  0.00  0.00    -0.059 A 
ATOM     21  H   LIG d   1       6.405   2.162  -3.345  0.00  0.00     0.063 H 
ATOM     22  C   LIG d   1       4.376  -0.041  -1.780  0.00  0.00    -0.043 A 
ATOM     23  H   LIG d   1       4.910   1.994  -1.400  0.00  0.00     0.062 H 
ATOM     24  C   LIG d   1       4.538  -1.134  -2.606  0.00  0.00     0.050 A 
ATOM     25  H   LIG d   1       3.721  -0.105  -0.923  0.00  0.00     0.063 H 
ATOM     26 CL   LIG d   1       3.692  -2.611  -2.271  0.00  0.00    -0.083 Cl
ENDBRANCH   1  16
BRANCH   8  27
ATOM     27  O   LIG d   1      11.701  -5.351  -2.539  0.00  0.00    -0.507 OA
ATOM     28  H   LIG d   1      12.042  -6.253  -2.613  0.00  0.00     0.292 HD
ENDBRANCH   8  27
TORSDOF 2
ENDMDL
MODEL 3
REMARK VINA RESULT:      -6.4      4.943      7.388
REMARK  2 active torsions:
REMARK  status: ('A' for Active; 'I' for Inactive)
REMARK    1  A    between atoms: C_4  and  C_8 
REMARK    2  A    between atoms: C_15  and  O_19 
ROOT
ATOM      1  C   LIG d   1       4.920  -0.005  -6.133  0.00  0.00    -0.005 C 
ATOM      2  C   LIG d   1       4.304  -0.190  -7.328  0.00  0.00     0.176 A 
ATOM      3  C   LIG d   1       4.702   0.402  -8.613  0.00  0.00     0.232 A 
ATOM      4  O   LIG d   1       5.639   1.150  -8.831  0.00  0.00    -0.283 OA
ATOM      5  C   LIG d   1       3.715  -0.113  -9.580  0.00  0.00     0.068 A 
ATOM      6  C   LIG d   1       3.538   0.070 -10.952  0.00  0.00    -0.044 A 
ATOM      7  C   LIG d   1       2.510  -0.558 -11.596  0.00  0.00    -0.019 A 
ATOM      8  C   LIG d   1       1.631  -1.370 -10.883  0.00  0.00     0.120 A 
ATOM      9  C   LIG d   1       1.795  -1.561  -9.520  0.00  0.00     0.023 A 
ATOM     10  C   LIG d   1       2.839  -0.934  -8.852  0.00  0.00     0.143 A 
ATOM     11  O   LIG d   1       3.209  -0.956  -7.553  0.00  0.00    -0.451 OA
ATOM     12  H   LIG d   1       5.791   0.629  -6.069  0.00  0.00     0.066 H 
ATOM     13  H   LIG d   1       4.216   0.703 -11.506  0.00  0.00     0.063 H 
ATOM     14  H   LIG d   1       2.374  -0.421 -12.658  0.00  0.00     0.065 H 
ATOM     15  H   LIG d   1       1.111  -2.196  -8.977  0.00  0.00     0.069 H 
ENDROOT
BRANCH   1  16
ATOM     16  C   LIG d   1       4.403  -0.668  -4.929  0.00  0.00     0.015 A 
ATOM     17  C   LIG d   1       5.015  -1.833  -4.448  0.00  0.00     0.050 A 
ATOM     18  C   LIG d   1       4.523  -2.448  -3.315  0.00  0.00    -0.043 A 
ATOM     19 CL   LIG d   1       6.389  -2.499  -5.273  0.00  0.00    -0.083 Cl
ATOM     20  C   LIG d   1       3.427  -1.919  -2.656  0.00  0.00    -0.059 A 
ATOM     21  H   LIG d   1       4.992  -3.346  -2.943  0.00  0.00     0.063 H 
ATOM     22  C   LIG d   1       2.815  -0.769  -3.124  0.00  0.00    -0.043 A 
ATOM     23  H   LIG d   1       3.047  -2.406  -1.770  0.00  0.00     0.062 H 
ATOM     24  C   LIG d   1       3.298  -0.136  -4.252  0.00  0.00     0.050 A 
ATOM     25  H   LIG d   1       1.962  -0.363  -2.602  0.00  0.00     0.063 H 
ATOM     26 CL   LIG d   1       2.535   1.310  -4.832  0.00  0.00    -0.083 Cl
ENDBRANCH   1  16
BRANCH   8  27
ATOM     27  O   LIG d   1       0.608  -1.985 -11.529  0.00  0.00    -0.507 OA
ATOM     28  H   LIG d   1      -0.025  -1.376 -11.934  0.00  0.00     0.292 HD
ENDBRANCH   8  27
TORSDOF 2
ENDMDL
MODEL 4
REMARK VINA RESULT:      -6.4      4.945      7.356
REMARK  2 active torsions:
REMARK  status: ('A' for Active; 'I' for Inactive)
REMARK    1  A    between atoms: C_4  and  C_8 
REMARK    2  A    between atoms: C_15  and  O_19 
ROOT
ATOM      1  C   LIG d   1       4.923  -0.009  -6.137  0.00  0.00    -0.005 C 
ATOM      2  C   LIG d   1       4.306  -0.193  -7.331  0.00  0.00     0.176 A 
ATOM      3  C   LIG d   1       4.705   0.398  -8.617  0.00  0.00     0.232 A 
ATOM      4  O   LIG d   1       5.644   1.144  -8.836  0.00  0.00    -0.283 OA
ATOM      5  C   LIG d   1       3.717  -0.116  -9.583  0.00  0.00     0.068 A 
ATOM      6  C   LIG d   1       3.539   0.067 -10.955  0.00  0.00    -0.044 A 
ATOM      7  C   LIG d   1       2.509  -0.559 -11.598  0.00  0.00    -0.019 A 
ATOM      8  C   LIG d   1       1.629  -1.369 -10.884  0.00  0.00     0.120 A 
ATOM      9  C   LIG d   1       1.793  -1.559  -9.521  0.00  0.00     0.023 A 
ATOM     10  C   LIG d   1       2.839  -0.934  -8.854  0.00  0.00     0.143 A 
ATOM     11  O   LIG d   1       3.210  -0.957  -7.555  0.00  0.00    -0.451 OA
ATOM     12  H   LIG d   1       5.796   0.624  -6.074  0.00  0.00     0.066 H 
ATOM     13  H   LIG d   1       4.218   0.698 -11.510  0.00  0.00     0.063 H 
ATOM     14  H   LIG d   1       2.373  -0.422 -12.660  0.00  0.00     0.065 H 
ATOM     15  H   LIG d   1       1.108  -2.192  -8.978  0.00  0.00     0.069 H 
ENDROOT
BRANCH   1  16
ATOM     16  C   LIG d   1       4.406  -0.670  -4.932  0.00  0.00     0.015 A 
ATOM     17  C   LIG d   1       3.299  -0.139  -4.257  0.00  0.00     0.050 A 
ATOM     18  C   LIG d   1       2.820  -0.767  -3.126  0.00  0.00    -0.043 A 
ATOM     19 CL   LIG d   1       2.532   1.303  -4.843  0.00  0.00    -0.083 Cl
ATOM     20  C   LIG d   1       3.430  -1.917  -2.657  0.00  0.00    -0.059 A 
ATOM     21  H   LIG d   1       1.967  -0.360  -2.604  0.00  0.00     0.063 H 
ATOM     22  C   LIG d   1       4.525  -2.449  -3.317  0.00  0.00    -0.043 A 
ATOM     23  H   LIG d   1       3.050  -2.404  -1.771  0.00  0.00     0.062 H 
ATOM     24  C   LIG d   1       5.014  -1.838  -4.454  0.00  0.00     0.050 A 
ATOM     25  H   LIG d   1       4.994  -3.347  -2.944  0.00  0.00     0.063 H 
ATOM     26 CL   LIG d   1       6.382  -2.510  -5.284  0.00  0.00    -0.083 Cl
ENDBRANCH   1  16
BRANCH   8  27
ATOM     27  O   LIG d   1       0.604  -1.982 -11.530  0.00  0.00    -0.507 OA
ATOM     28  H   LIG d   1       0.103  -2.597 -10.977  0.00  0.00     0.292 HD
ENDBRANCH   8  27
TORSDOF 2
ENDMDL
MODEL 5
REMARK VINA RESULT:      -6.4      4.308      6.402
REMARK  2 active torsions:
REMARK  status: ('A' for Active; 'I' for Inactive)
REMARK    1  A    between atoms: C_4  and  C_8 
REMARK    2  A    between atoms: C_15  and  O_19 
ROOT
ATOM      1  C   LIG d   1       4.312  -1.409  -7.629  0.00  0.00    -0.005 C 
ATOM      2  C   LIG d   1       4.368  -1.223  -6.286  0.00  0.00     0.176 A 
ATOM      3  C   LIG d   1       4.395  -2.279  -5.262  0.00  0.00     0.232 A 
ATOM      4  O   LIG d   1       4.374  -3.485  -5.435  0.00  0.00    -0.283 OA
ATOM      5  C   LIG d   1       4.456  -1.551  -3.982  0.00  0.00     0.068 A 
ATOM      6  C   LIG d   1       4.504  -1.965  -2.650  0.00  0.00    -0.044 A 
ATOM      7  C   LIG d   1       4.561  -1.037  -1.650  0.00  0.00    -0.019 A 
ATOM      8  C   LIG d   1       4.560   0.322  -1.956  0.00  0.00     0.120 A 
ATOM      9  C   LIG d   1       4.513   0.747  -3.274  0.00  0.00     0.023 A 
ATOM     10  C   LIG d   1       4.459  -0.185  -4.303  0.00  0.00     0.143 A 
ATOM     11  O   LIG d   1       4.408  -0.031  -5.645  0.00  0.00    -0.451 OA
ATOM     12  H   LIG d   1       4.284  -2.409  -8.034  0.00  0.00     0.066 H 
ATOM     13  H   LIG d   1       4.500  -3.018  -2.410  0.00  0.00     0.063 H 
ATOM     14  H   LIG d   1       4.603  -1.356  -0.619  0.00  0.00     0.065 H 
ATOM     15  H   LIG d   1       4.517   1.803  -3.501  0.00  0.00     0.069 H 
ENDROOT
BRANCH   1  16
ATOM     16  C   LIG d   1       4.291  -0.250  -8.531  0.00  0.00     0.015 A 
ATOM     17  C   LIG d   1       5.437   0.541  -8.690  0.00  0.00     0.050 A 
ATOM     18  C   LIG d   1       5.408   1.627  -9.540  0.00  0.00    -0.043 A 
ATOM     19 CL   LIG d   1       6.889   0.153  -7.822  0.00  0.00    -0.083 Cl
ATOM     20  C   LIG d   1       4.251   1.938 -10.233  0.00  0.00    -0.059 A 
ATOM     21  H   LIG d   1       6.289   2.238  -9.664  0.00  0.00     0.063 H 
ATOM     22  C   LIG d   1       3.114   1.163 -10.082  0.00  0.00    -0.043 A 
ATOM     23  H   LIG d   1       4.235   2.790 -10.897  0.00  0.00     0.062 H 
ATOM     24  C   LIG d   1       3.126   0.069  -9.241  0.00  0.00     0.050 A 
ATOM     25  H   LIG d   1       2.216   1.413 -10.627  0.00  0.00     0.063 H 
ATOM     26 CL   LIG d   1       1.702  -0.906  -9.059  0.00  0.00    -0.083 Cl
ENDBRANCH   1  16
BRANCH   8  27
ATOM     27  O   LIG d   1       4.611   1.237  -0.956  0.00  0.00    -0.507 OA
ATOM     28  H   LIG d   1       3.869   1.187  -0.338  0.00  0.00     0.292 HD
ENDBRANCH   8  27
TORSDOF 2
ENDMDL
MODEL 6
REMARK VINA RESULT:      -6.4      4.312      6.232
REMARK  2 active torsions:
REMARK  status: ('A' for Active; 'I' for Inactive)
REMARK    1  A    between atoms: C_4  and  C_8 
REMARK    2  A    between atoms: C_15  and  O_19 
ROOT
ATOM      1  C   LIG d   1       4.383  -1.697  -7.675  0.00  0.00    -0.005 C 
ATOM      2  C   LIG d   1       4.408  -1.447  -6.341  0.00  0.00     0.176 A 
ATOM      3  C   LIG d   1       4.386  -2.451  -5.267  0.00  0.00     0.232 A 
ATOM      4  O   LIG d   1       4.341  -3.664  -5.382  0.00  0.00    -0.283 OA
ATOM      5  C   LIG d   1       4.430  -1.663  -4.023  0.00  0.00     0.068 A 
ATOM      6  C   LIG d   1       4.434  -2.012  -2.672  0.00  0.00    -0.044 A 
ATOM      7  C   LIG d   1       4.487  -1.037  -1.716  0.00  0.00    -0.019 A 
ATOM      8  C   LIG d   1       4.525   0.304  -2.088  0.00  0.00     0.120 A 
ATOM      9  C   LIG d   1       4.521   0.666  -3.425  0.00  0.00     0.023 A 
ATOM     10  C   LIG d   1       4.473  -0.314  -4.410  0.00  0.00     0.143 A 
ATOM     11  O   LIG d   1       4.460  -0.226  -5.758  0.00  0.00    -0.451 OA
ATOM     12  H   LIG d   1       4.343  -2.715  -8.031  0.00  0.00     0.066 H 
ATOM     13  H   LIG d   1       4.399  -3.052  -2.381  0.00  0.00     0.063 H 
ATOM     14  H   LIG d   1       4.494  -1.307  -0.670  0.00  0.00     0.065 H 
ATOM     15  H   LIG d   1       4.555   1.709  -3.703  0.00  0.00     0.069 H 
ENDROOT
BRANCH   1  16
ATOM     16  C   LIG d   1       4.412  -0.583  -8.632  0.00  0.00     0.015 A 
ATOM     17  C   LIG d   1       3.244  -0.201  -9.304  0.00  0.00     0.050 A 
ATOM     18  C   LIG d   1       3.281   0.846 -10.201  0.00  0.00    -0.043 A 
ATOM     19 CL   LIG d   1       1.755  -1.042  -9.008  0.00  0.00    -0.083 Cl
ATOM     20  C   LIG d   1       4.468   1.518 -10.440  0.00  0.00    -0.059 A 
ATOM     21  H   LIG d   1       2.382   1.142 -10.721  0.00  0.00     0.063 H 
ATOM     22  C   LIG d   1       5.627   1.147  -9.780  0.00  0.00    -0.043 A 
ATOM     23  H   LIG d   1       4.489   2.337 -11.143  0.00  0.00     0.062 H 
ATOM     24  C   LIG d   1       5.608   0.105  -8.874  0.00  0.00     0.050 A 
ATOM     25  H   LIG d   1       6.548   1.677  -9.972  0.00  0.00     0.063 H 
ATOM     26 CL   LIG d   1       7.061  -0.352  -8.043  0.00  0.00    -0.083 Cl
ENDBRANCH   1  16
BRANCH   8  27
ATOM     27  O   LIG d   1       4.571   1.267  -1.132  0.00  0.00    -0.507 OA
ATOM     28  H   LIG d   1       4.697   2.161  -1.479  0.00  0.00     0.292 HD
ENDBRANCH   8  27
TORSDOF 2
ENDMDL
MODEL 7
REMARK VINA RESULT:      -6.3      4.885      6.524
REMARK  2 active torsions:
REMARK  status: ('A' for Active; 'I' for Inactive)
REMARK    1  A    between atoms: C_4  and  C_8 
REMARK    2  A    between atoms: C_15  and  O_19 
ROOT
ATOM      1  C   LIG d   1       2.630   0.179  -7.846  0.00  0.00    -0.005 C 
ATOM      2  C   LIG d   1       3.474  -0.120  -6.826  0.00  0.00     0.176 A 
ATOM      3  C   LIG d   1       3.150  -0.091  -5.392  0.00  0.00     0.232 A 
ATOM      4  O   LIG d   1       2.086   0.201  -4.874  0.00  0.00    -0.283 OA
ATOM      5  C   LIG d   1       4.400  -0.495  -4.723  0.00  0.00     0.068 A 
ATOM      6  C   LIG d   1       4.753  -0.663  -3.383  0.00  0.00    -0.044 A 
ATOM      7  C   LIG d   1       6.019  -1.062  -3.058  0.00  0.00    -0.019 A 
ATOM      8  C   LIG d   1       6.960  -1.289  -4.059  0.00  0.00     0.120 A 
ATOM      9  C   LIG d   1       6.622  -1.125  -5.394  0.00  0.00     0.023 A 
ATOM     10  C   LIG d   1       5.338  -0.726  -5.741  0.00  0.00     0.143 A 
ATOM     11  O   LIG d   1       4.768  -0.500  -6.945  0.00  0.00    -0.451 OA
ATOM     12  H   LIG d   1       1.612   0.471  -7.635  0.00  0.00     0.066 H 
ATOM     13  H   LIG d   1       4.027  -0.483  -2.604  0.00  0.00     0.063 H 
ATOM     14  H   LIG d   1       6.293  -1.196  -2.022  0.00  0.00     0.065 H 
ATOM     15  H   LIG d   1       7.358  -1.308  -6.163  0.00  0.00     0.069 H 
ENDROOT
BRANCH   1  16
ATOM     16  C   LIG d   1       3.099   0.104  -9.235  0.00  0.00     0.015 A 
ATOM     17  C   LIG d   1       3.064  -1.114  -9.927  0.00  0.00     0.050 A 
ATOM     18  C   LIG d   1       3.507  -1.174 -11.232  0.00  0.00    -0.043 A 
ATOM     19 CL   LIG d   1       2.463  -2.542  -9.144  0.00  0.00    -0.083 Cl
ATOM     20  C   LIG d   1       3.987  -0.037 -11.858  0.00  0.00    -0.059 A 
ATOM     21  H   LIG d   1       3.482  -2.112 -11.767  0.00  0.00     0.063 H 
ATOM     22  C   LIG d   1       4.026   1.171 -11.182  0.00  0.00    -0.043 A 
ATOM     23  H   LIG d   1       4.332  -0.092 -12.880  0.00  0.00     0.062 H 
ATOM     24  C   LIG d   1       3.581   1.252  -9.878  0.00  0.00     0.050 A 
ATOM     25  H   LIG d   1       4.401   2.053 -11.679  0.00  0.00     0.063 H 
ATOM     26 CL   LIG d   1       3.624   2.769  -9.037  0.00  0.00    -0.083 Cl
ENDBRANCH   1  16
BRANCH   8  27
ATOM     27  O   LIG d   1       8.216  -1.678  -3.727  0.00  0.00    -0.507 OA
ATOM     28  H   LIG d   1       8.474  -1.448  -2.824  0.00  0.00     0.292 HD
ENDBRANCH   8  27
TORSDOF 2
ENDMDL
MODEL 8
REMARK VINA RESULT:      -6.3      4.848      6.689
REMARK  2 active torsions:
REMARK  status: ('A' for Active; 'I' for Inactive)
REMARK    1  A    between atoms: C_4  and  C_8 
REMARK    2  A    between atoms: C_15  and  O_19 
ROOT
ATOM      1  C   LIG d   1       2.655   0.179  -7.822  0.00  0.00    -0.005 C 
ATOM      2  C   LIG d   1       3.485  -0.144  -6.798  0.00  0.00     0.176 A 
ATOM      3  C   LIG d   1       3.155  -0.107  -5.366  0.00  0.00     0.232 A 
ATOM      4  O   LIG d   1       2.098   0.216  -4.852  0.00  0.00    -0.283 OA
ATOM      5  C   LIG d   1       4.389  -0.547  -4.691  0.00  0.00     0.068 A 
ATOM      6  C   LIG d   1       4.732  -0.726  -3.350  0.00  0.00    -0.044 A 
ATOM      7  C   LIG d   1       5.984  -1.162  -3.019  0.00  0.00    -0.019 A 
ATOM      8  C   LIG d   1       6.922  -1.416  -4.016  0.00  0.00     0.120 A 
ATOM      9  C   LIG d   1       6.596  -1.242  -5.351  0.00  0.00     0.023 A 
ATOM     10  C   LIG d   1       5.325  -0.805  -5.705  0.00  0.00     0.143 A 
ATOM     11  O   LIG d   1       4.768  -0.562  -6.912  0.00  0.00    -0.451 OA
ATOM     12  H   LIG d   1       1.644   0.501  -7.615  0.00  0.00     0.066 H 
ATOM     13  H   LIG d   1       4.007  -0.525  -2.574  0.00  0.00     0.063 H 
ATOM     14  H   LIG d   1       6.248  -1.305  -1.982  0.00  0.00     0.065 H 
ATOM     15  H   LIG d   1       7.329  -1.446  -6.118  0.00  0.00     0.069 H 
ENDROOT
BRANCH   1  16
ATOM     16  C   LIG d   1       3.128   0.091  -9.209  0.00  0.00     0.015 A 
ATOM     17  C   LIG d   1       3.597   1.235  -9.868  0.00  0.00     0.050 A 
ATOM     18  C   LIG d   1       4.041   1.141 -11.171  0.00  0.00    -0.043 A 
ATOM     19 CL   LIG d   1       3.621   2.764  -9.047  0.00  0.00    -0.083 Cl
ATOM     20  C   LIG d   1       4.021  -0.077 -11.828  0.00  0.00    -0.059 A 
ATOM     21  H   LIG d   1       4.402   2.022 -11.682  0.00  0.00     0.063 H 
ATOM     22  C   LIG d   1       3.560  -1.213 -11.184  0.00  0.00    -0.043 A 
ATOM     23  H   LIG d   1       4.370  -0.142 -12.848  0.00  0.00     0.062 H 
ATOM     24  C   LIG d   1       3.118  -1.140  -9.879  0.00  0.00     0.050 A 
ATOM     25  H   LIG d   1       3.550  -2.159 -11.705  0.00  0.00     0.063 H 
ATOM     26 CL   LIG d   1       2.547  -2.566  -9.072  0.00  0.00    -0.083 Cl
ENDBRANCH   1  16
BRANCH   8  27
ATOM     27  O   LIG d   1       8.165  -1.842  -3.678  0.00  0.00    -0.507 OA
ATOM     28  H   LIG d   1       8.857  -1.567  -4.295  0.00  0.00     0.292 HD
ENDBRANCH   8  27
TORSDOF 2
ENDMDL
MODEL 9
REMARK VINA RESULT:      -6.3      3.914      5.911
REMARK  2 active torsions:
REMARK  status: ('A' for Active; 'I' for Inactive)
REMARK    1  A    between atoms: C_4  and  C_8 
REMARK    2  A    between atoms: C_15  and  O_19 
ROOT
ATOM      1  C   LIG d   1       6.742  -1.079  -4.877  0.00  0.00    -0.005 C 
ATOM      2  C   LIG d   1       6.437  -0.716  -6.149  0.00  0.00     0.176 A 
ATOM      3  C   LIG d   1       7.186  -1.079  -7.361  0.00  0.00     0.232 A 
ATOM      4  O   LIG d   1       8.196  -1.757  -7.438  0.00  0.00    -0.283 OA
ATOM      5  C   LIG d   1       6.442  -0.438  -8.461  0.00  0.00     0.068 A 
ATOM      6  C   LIG d   1       6.630  -0.398  -9.843  0.00  0.00    -0.044 A 
ATOM      7  C   LIG d   1       5.750   0.290 -10.630  0.00  0.00    -0.019 A 
ATOM      8  C   LIG d   1       4.673   0.960 -10.054  0.00  0.00     0.120 A 
ATOM      9  C   LIG d   1       4.475   0.928  -8.683  0.00  0.00     0.023 A 
ATOM     10  C   LIG d   1       5.358   0.229  -7.869  0.00  0.00     0.143 A 
ATOM     11  O   LIG d   1       5.385   0.046  -6.531  0.00  0.00    -0.451 OA
ATOM     12  H   LIG d   1       7.610  -1.694  -4.686  0.00  0.00     0.066 H 
ATOM     13  H   LIG d   1       7.467  -0.912 -10.291  0.00  0.00     0.063 H 
ATOM     14  H   LIG d   1       5.891   0.318 -11.700  0.00  0.00     0.065 H 
ATOM     15  H   LIG d   1       3.634   1.447  -8.247  0.00  0.00     0.069 H 
ENDROOT
BRANCH   1  16
ATOM     16  C   LIG d   1       5.894  -0.638  -3.763  0.00  0.00     0.015 A 
ATOM     17  C   LIG d   1       4.901  -1.485  -3.255  0.00  0.00     0.050 A 
ATOM     18  C   LIG d   1       4.109  -1.062  -2.207  0.00  0.00    -0.043 A 
ATOM     19 CL   LIG d   1       4.668  -3.062  -3.940  0.00  0.00    -0.083 Cl
ATOM     20  C   LIG d   1       4.293   0.196  -1.659  0.00  0.00    -0.059 A 
ATOM     21  H   LIG d   1       3.343  -1.713  -1.814  0.00  0.00     0.063 H 
ATOM     22  C   LIG d   1       5.272   1.040  -2.154  0.00  0.00    -0.043 A 
ATOM     23  H   LIG d   1       3.670   0.520  -0.839  0.00  0.00     0.062 H 
ATOM     24  C   LIG d   1       6.078   0.631  -3.198  0.00  0.00     0.050 A 
ATOM     25  H   LIG d   1       5.409   2.019  -1.720  0.00  0.00     0.063 H 
ATOM     26 CL   LIG d   1       7.309   1.688  -3.812  0.00  0.00    -0.083 Cl
ENDBRANCH   1  16
BRANCH   8  27
ATOM     27  O   LIG d   1       3.807   1.645 -10.843  0.00  0.00    -0.507 OA
ATOM     28  H   LIG d   1       2.952   1.209 -10.960  0.00  0.00     0.292 HD
ENDBRANCH   8  27
TORSDOF 2
ENDMDL
MODEL 10
REMARK VINA RESULT:      -6.3      3.899      6.139
REMARK  2 active torsions:
REMARK  status: ('A' for Active; 'I' for Inactive)
REMARK    1  A    between atoms: C_4  and  C_8 
REMARK    2  A    between atoms: C_15  and  O_19 
ROOT
ATOM      1  C   LIG d   1       6.744  -1.087  -4.859  0.00  0.00    -0.005 C 
ATOM      2  C   LIG d   1       6.450  -0.741  -6.138  0.00  0.00     0.176 A 
ATOM      3  C   LIG d   1       7.211  -1.119  -7.339  0.00  0.00     0.232 A 
ATOM      4  O   LIG d   1       8.222  -1.797  -7.398  0.00  0.00    -0.283 OA
ATOM      5  C   LIG d   1       6.476  -0.494  -8.454  0.00  0.00     0.068 A 
ATOM      6  C   LIG d   1       6.677  -0.471  -9.834  0.00  0.00    -0.044 A 
ATOM      7  C   LIG d   1       5.804   0.205 -10.639  0.00  0.00    -0.019 A 
ATOM      8  C   LIG d   1       4.721   0.881 -10.082  0.00  0.00     0.120 A 
ATOM      9  C   LIG d   1       4.510   0.867  -8.713  0.00  0.00     0.023 A 
ATOM     10  C   LIG d   1       5.386   0.179  -7.881  0.00  0.00     0.143 A 
ATOM     11  O   LIG d   1       5.401   0.015  -6.540  0.00  0.00    -0.451 OA
ATOM     12  H   LIG d   1       7.610  -1.698  -4.652  0.00  0.00     0.066 H 
ATOM     13  H   LIG d   1       7.519  -0.991 -10.268  0.00  0.00     0.063 H 
ATOM     14  H   LIG d   1       5.956   0.219 -11.708  0.00  0.00     0.065 H 
ATOM     15  H   LIG d   1       3.665   1.391  -8.291  0.00  0.00     0.069 H 
ENDROOT
BRANCH   1  16
ATOM     16  C   LIG d   1       5.885  -0.632  -3.759  0.00  0.00     0.015 A 
ATOM     17  C   LIG d   1       6.061   0.644  -3.208  0.00  0.00     0.050 A 
ATOM     18  C   LIG d   1       5.248   1.062  -2.175  0.00  0.00    -0.043 A 
ATOM     19 CL   LIG d   1       7.295   1.696  -3.827  0.00  0.00    -0.083 Cl
ATOM     20  C   LIG d   1       4.263   0.225  -1.680  0.00  0.00    -0.059 A 
ATOM     21  H   LIG d   1       5.381   2.046  -1.749  0.00  0.00     0.063 H 
ATOM     22  C   LIG d   1       4.083  -1.038  -2.217  0.00  0.00    -0.043 A 
ATOM     23  H   LIG d   1       3.631   0.559  -0.871  0.00  0.00     0.062 H 
ATOM     24  C   LIG d   1       4.882  -1.472  -3.256  0.00  0.00     0.050 A 
ATOM     25  H   LIG d   1       3.311  -1.684  -1.825  0.00  0.00     0.063 H 
ATOM     26 CL   LIG d   1       4.649  -3.052  -3.933  0.00  0.00    -0.083 Cl
ENDBRANCH   1  16
BRANCH   8  27
ATOM     27  O   LIG d   1       3.862   1.555 -10.888  0.00  0.00    -0.507 OA
ATOM     28  H   LIG d   1       3.086   1.907 -10.429  0.00  0.00     0.292 HD
ENDBRANCH   8  27
TORSDOF 2
ENDMDL
