MODEL 1
REMARK VINA RESULT:      -7.8      0.000      0.000
REMARK  4 active torsions:
REMARK  status: ('A' for Active; 'I' for Inactive)
REMARK    1  A    between atoms: C_12  and  C_15 
REMARK    2  A    between atoms: C_15  and  C_16 
REMARK    3  A    between atoms: C_16  and  C_17 
REMARK    4  A    between atoms: N_22  and  C_25 
ROOT
ATOM      1  C   LIG d   1       4.499   0.653  -2.397  0.00  0.00    -0.061 A 
ATOM      2  C   LIG d   1       3.304  -0.042  -2.368  0.00  0.00    -0.060 A 
ATOM      3  C   LIG d   1       3.224  -1.313  -2.899  0.00  0.00    -0.040 A 
ATOM      4  C   LIG d   1       4.348  -1.907  -3.468  0.00  0.00     0.043 A 
ATOM      5  C   LIG d   1       5.545  -1.199  -3.489  0.00  0.00     0.034 A 
ATOM      6  C   LIG d   1       5.621   0.070  -2.960  0.00  0.00    -0.051 A 
ATOM      7  C   LIG d   1       6.545  -2.103  -4.153  0.00  0.00     0.106 A 
ATOM      8  C   LIG d   1       7.142  -1.460  -5.410  0.00  0.00     0.111 A 
ATOM      9  H   LIG d   1       6.596  -1.720  -6.316  0.00  0.00     0.047 H 
ATOM     10  C   LIG d   1       8.618  -1.949  -5.435  0.00  0.00     0.097 A 
ATOM     11  H   LIG d   1       8.880  -2.457  -6.362  0.00  0.00     0.046 H 
ATOM     12  C   LIG d   1       8.754  -2.863  -4.198  0.00  0.00    -0.009 C 
ATOM     13  H   LIG d   1       9.731  -2.730  -3.735  0.00  0.00     0.086 H 
ATOM     14  N   LIG d   1       7.686  -2.394  -3.266  0.00  0.00     0.245 N 
ATOM     15  C   LIG d   1       9.410  -0.678  -5.225  0.00  0.00     0.236 A 
ATOM     16  O   LIG d   1      10.619  -0.608  -5.167  0.00  0.00    -0.274 OA
ATOM     17  N   LIG d   1       8.570   0.356  -5.112  0.00  0.00    -0.210 N 
ATOM     18  C   LIG d   1       7.259   0.035  -5.210  0.00  0.00     0.237 A 
ATOM     19  O   LIG d   1       6.328   0.808  -5.147  0.00  0.00    -0.274 OA
ATOM     20  C   LIG d   1       5.779  -3.354  -4.488  0.00  0.00     0.274 A 
ATOM     21  O   LIG d   1       6.213  -4.345  -5.038  0.00  0.00    -0.269 OA
ATOM     22  N   LIG d   1       4.517  -3.161  -4.060  0.00  0.00    -0.280 N 
ATOM     23  H   LIG d   1       4.555   1.649  -1.984  0.00  0.00     0.062 H 
ATOM     24  H   LIG d   1       2.429   0.412  -1.928  0.00  0.00     0.062 H 
ATOM     25  H   LIG d   1       2.287  -1.849  -2.874  0.00  0.00     0.064 H 
ATOM     26  H   LIG d   1       6.555   0.612  -2.984  0.00  0.00     0.062 H 
ATOM     27  H   LIG d   1       7.973  -1.561  -2.775  0.00  0.00     0.203 HD
ATOM     28  H   LIG d   1       3.808  -3.816  -4.151  0.00  0.00     0.155 HD
ATOM     29  H   LIG d   1       7.448  -3.126  -2.614  0.00  0.00     0.203 HD
ENDROOT
BRANCH  12  30
ATOM     30  C   LIG d   1       8.547  -4.326  -4.593  0.00  0.00    -0.004 C 
ATOM     31  H   LIG d   1       7.685  -4.727  -4.061  0.00  0.00     0.032 H 
ATOM     32  H   LIG d   1       8.373  -4.391  -5.668  0.00  0.00     0.032 H 
BRANCH  30  33
ATOM     33  C   LIG d   1       9.794  -5.134  -4.229  0.00  0.00    -0.008 C 
ATOM     34  H   LIG d   1       9.963  -5.902  -4.983  0.00  0.00     0.033 H 
ATOM     35  H   LIG d   1      10.657  -4.470  -4.185  0.00  0.00     0.033 H 
BRANCH  33  36
ATOM     36  C   LIG d   1       9.594  -5.786  -2.884  0.00  0.00     0.042 C 
ATOM     37  O   LIG d   1       9.820  -5.160  -1.863  0.00  0.00    -0.550 OA
ATOM     38  O   LIG d   1       9.208  -6.941  -2.819  0.00  0.00    -0.550 OA
ENDBRANCH  33  36
ENDBRANCH  30  33
ENDBRANCH  12  30
BRANCH  17  39
ATOM     39  C   LIG d   1       9.010   1.673  -4.913  0.00  0.00     0.044 A 
ATOM     40  C   LIG d   1       9.179   2.161  -3.624  0.00  0.00    -0.039 A 
ATOM     41  C   LIG d   1       9.617   3.456  -3.429  0.00  0.00    -0.046 A 
ATOM     42  H   LIG d   1       8.972   1.527  -2.774  0.00  0.00     0.064 H 
ATOM     43  C   LIG d   1       9.877   4.270  -4.518  0.00  0.00     0.018 A 
ATOM     44  H   LIG d   1       9.754   3.834  -2.428  0.00  0.00     0.063 H 
ATOM     45  C   LIG d   1       9.704   3.788  -5.803  0.00  0.00    -0.046 A 
ATOM     46 BR   LIG d   1      10.471   6.045  -4.248  0.00  0.00    -0.050 Br
ATOM     47  C   LIG d   1       9.271   2.492  -6.002  0.00  0.00    -0.039 A 
ATOM     48  H   LIG d   1       9.907   4.426  -6.650  0.00  0.00     0.063 H 
ATOM     49  H   LIG d   1       9.136   2.116  -7.006  0.00  0.00     0.064 H 
ENDBRANCH  17  39
TORSDOF 4
ENDMDL
MODEL 2
REMARK VINA RESULT:      -7.3      3.914      7.209
REMARK  4 active torsions:
REMARK  status: ('A' for Active; 'I' for Inactive)
REMARK    1  A    between atoms: C_12  and  C_15 
REMARK    2  A    between atoms: C_15  and  C_16 
REMARK    3  A    between atoms: C_16  and  C_17 
REMARK    4  A    between atoms: N_22  and  C_25 
ROOT
ATOM      1  C   LIG d   1       4.297  -1.699  -2.415  0.00  0.00    -0.061 A 
ATOM      2  C   LIG d   1       4.358  -0.523  -1.689  0.00  0.00    -0.060 A 
ATOM      3  C   LIG d   1       5.096   0.545  -2.155  0.00  0.00    -0.040 A 
ATOM      4  C   LIG d   1       5.785   0.449  -3.361  0.00  0.00     0.043 A 
ATOM      5  C   LIG d   1       5.715  -0.738  -4.084  0.00  0.00     0.034 A 
ATOM      6  C   LIG d   1       4.979  -1.804  -3.614  0.00  0.00    -0.051 A 
ATOM      7  C   LIG d   1       6.548  -0.520  -5.315  0.00  0.00     0.106 A 
ATOM      8  C   LIG d   1       7.691  -1.537  -5.413  0.00  0.00     0.111 A 
ATOM      9  H   LIG d   1       8.614  -1.176  -4.961  0.00  0.00     0.047 H 
ATOM     10  C   LIG d   1       7.835  -1.817  -6.935  0.00  0.00     0.097 A 
ATOM     11  H   LIG d   1       8.842  -1.628  -7.307  0.00  0.00     0.046 H 
ATOM     12  C   LIG d   1       6.776  -0.916  -7.607  0.00  0.00    -0.009 C 
ATOM     13  H   LIG d   1       6.321  -1.431  -8.452  0.00  0.00     0.086 H 
ATOM     14  N   LIG d   1       5.752  -0.686  -6.545  0.00  0.00     0.245 N 
ATOM     15  C   LIG d   1       7.431  -3.268  -7.064  0.00  0.00     0.236 A 
ATOM     16  O   LIG d   1       7.391  -3.895  -8.100  0.00  0.00    -0.274 OA
ATOM     17  N   LIG d   1       7.123  -3.752  -5.855  0.00  0.00    -0.210 N 
ATOM     18  C   LIG d   1       7.242  -2.864  -4.842  0.00  0.00     0.237 A 
ATOM     19  O   LIG d   1       7.025  -3.084  -3.670  0.00  0.00    -0.274 OA
ATOM     20  C   LIG d   1       7.072   0.885  -5.188  0.00  0.00     0.274 A 
ATOM     21  O   LIG d   1       7.794   1.463  -5.974  0.00  0.00    -0.269 OA
ATOM     22  N   LIG d   1       6.586   1.376  -4.032  0.00  0.00    -0.280 N 
ATOM     23  H   LIG d   1       3.723  -2.534  -2.043  0.00  0.00     0.062 H 
ATOM     24  H   LIG d   1       3.825  -0.441  -0.754  0.00  0.00     0.062 H 
ATOM     25  H   LIG d   1       5.139   1.460  -1.583  0.00  0.00     0.064 H 
ATOM     26  H   LIG d   1       4.934  -2.722  -4.182  0.00  0.00     0.062 H 
ATOM     27  H   LIG d   1       5.133  -1.479  -6.460  0.00  0.00     0.203 HD
ATOM     28  H   LIG d   1       6.770   2.269  -3.704  0.00  0.00     0.155 HD
ATOM     29  H   LIG d   1       5.228   0.153  -6.742  0.00  0.00     0.203 HD
ENDROOT
BRANCH  12  30
ATOM     30  C   LIG d   1       7.409   0.399  -8.064  0.00  0.00    -0.004 C 
ATOM     31  H   LIG d   1       7.304   1.146  -7.277  0.00  0.00     0.032 H 
ATOM     32  H   LIG d   1       8.467   0.239  -8.274  0.00  0.00     0.032 H 
BRANCH  30  33
ATOM     33  C   LIG d   1       6.706   0.890  -9.331  0.00  0.00    -0.008 C 
ATOM     34  H   LIG d   1       7.427   1.391  -9.976  0.00  0.00     0.033 H 
ATOM     35  H   LIG d   1       6.273   0.041  -9.858  0.00  0.00     0.033 H 
BRANCH  33  36
ATOM     36  C   LIG d   1       5.613   1.858  -8.955  0.00  0.00     0.042 C 
ATOM     37  O   LIG d   1       5.659   3.012  -9.347  0.00  0.00    -0.550 OA
ATOM     38  O   LIG d   1       4.684   1.488  -8.257  0.00  0.00    -0.550 OA
ENDBRANCH  33  36
ENDBRANCH  30  33
ENDBRANCH  12  30
BRANCH  17  39
ATOM     39  C   LIG d   1       6.713  -5.077  -5.651  0.00  0.00     0.044 A 
ATOM     40  C   LIG d   1       7.656  -6.064  -5.399  0.00  0.00    -0.039 A 
ATOM     41  C   LIG d   1       7.251  -7.369  -5.192  0.00  0.00    -0.046 A 
ATOM     42  H   LIG d   1       8.706  -5.813  -5.360  0.00  0.00     0.064 H 
ATOM     43  C   LIG d   1       5.907  -7.693  -5.248  0.00  0.00     0.018 A 
ATOM     44  H   LIG d   1       7.984  -8.136  -4.991  0.00  0.00     0.063 H 
ATOM     45  C   LIG d   1       4.966  -6.712  -5.504  0.00  0.00    -0.046 A 
ATOM     46 BR   LIG d   1       5.356  -9.481  -4.972  0.00  0.00    -0.050 Br
ATOM     47  C   LIG d   1       5.366  -5.406  -5.705  0.00  0.00    -0.039 A 
ATOM     48  H   LIG d   1       3.918  -6.968  -5.547  0.00  0.00     0.063 H 
ATOM     49  H   LIG d   1       4.631  -4.640  -5.906  0.00  0.00     0.064 H 
ENDBRANCH  17  39
TORSDOF 4
ENDMDL
MODEL 3
REMARK VINA RESULT:      -7.1      4.452      7.216
REMARK  4 active torsions:
REMARK  status: ('A' for Active; 'I' for Inactive)
REMARK    1  A    between atoms: C_12  and  C_15 
REMARK    2  A    between atoms: C_15  and  C_16 
REMARK    3  A    between atoms: C_16  and  C_17 
REMARK    4  A    between atoms: N_22  and  C_25 
ROOT
ATOM      1  C   LIG d   1       6.035  -5.946  -7.751  0.00  0.00    -0.061 A 
ATOM      2  C   LIG d   1       7.165  -6.586  -7.275  0.00  0.00    -0.060 A 
ATOM      3  C   LIG d   1       7.852  -6.076  -6.194  0.00  0.00    -0.040 A 
ATOM      4  C   LIG d   1       7.413  -4.911  -5.571  0.00  0.00     0.043 A 
ATOM      5  C   LIG d   1       6.275  -4.275  -6.056  0.00  0.00     0.034 A 
ATOM      6  C   LIG d   1       5.592  -4.787  -7.138  0.00  0.00    -0.051 A 
ATOM      7  C   LIG d   1       6.069  -3.073  -5.179  0.00  0.00     0.106 A 
ATOM      8  C   LIG d   1       6.088  -1.771  -5.989  0.00  0.00     0.111 A 
ATOM      9  H   LIG d   1       7.080  -1.323  -6.040  0.00  0.00     0.047 H 
ATOM     10  C   LIG d   1       5.049  -0.857  -5.282  0.00  0.00     0.097 A 
ATOM     11  H   LIG d   1       5.469   0.097  -4.967  0.00  0.00     0.046 H 
ATOM     12  C   LIG d   1       4.524  -1.695  -4.096  0.00  0.00    -0.009 C 
ATOM     13  H   LIG d   1       3.457  -1.524  -3.954  0.00  0.00     0.086 H 
ATOM     14  N   LIG d   1       4.758  -3.111  -4.505  0.00  0.00     0.245 N 
ATOM     15  C   LIG d   1       3.960  -0.698  -6.320  0.00  0.00     0.236 A 
ATOM     16  O   LIG d   1       2.941  -0.059  -6.174  0.00  0.00    -0.274 OA
ATOM     17  N   LIG d   1       4.298  -1.373  -7.424  0.00  0.00    -0.210 N 
ATOM     18  C   LIG d   1       5.488  -2.014  -7.356  0.00  0.00     0.237 A 
ATOM     19  O   LIG d   1       5.994  -2.675  -8.236  0.00  0.00    -0.274 OA
ATOM     20  C   LIG d   1       7.198  -3.117  -4.184  0.00  0.00     0.274 A 
ATOM     21  O   LIG d   1       7.408  -2.324  -3.291  0.00  0.00    -0.269 OA
ATOM     22  N   LIG d   1       7.929  -4.209  -4.479  0.00  0.00    -0.280 N 
ATOM     23  H   LIG d   1       5.504  -6.347  -8.600  0.00  0.00     0.062 H 
ATOM     24  H   LIG d   1       7.510  -7.491  -7.753  0.00  0.00     0.062 H 
ATOM     25  H   LIG d   1       8.734  -6.581  -5.829  0.00  0.00     0.064 H 
ATOM     26  H   LIG d   1       4.710  -4.284  -7.508  0.00  0.00     0.062 H 
ATOM     27  H   LIG d   1       4.043  -3.428  -5.143  0.00  0.00     0.203 HD
ATOM     28  H   LIG d   1       8.722  -4.477  -3.989  0.00  0.00     0.155 HD
ATOM     29  H   LIG d   1       4.796  -3.707  -3.692  0.00  0.00     0.203 HD
ENDROOT
BRANCH  12  30
ATOM     30  C   LIG d   1       5.292  -1.349  -2.820  0.00  0.00    -0.004 C 
ATOM     31  H   LIG d   1       5.690  -2.262  -2.376  0.00  0.00     0.032 H 
ATOM     32  H   LIG d   1       6.114  -0.674  -3.062  0.00  0.00     0.032 H 
BRANCH  30  33
ATOM     33  C   LIG d   1       4.350  -0.667  -1.826  0.00  0.00    -0.008 C 
ATOM     34  H   LIG d   1       3.334  -1.032  -1.978  0.00  0.00     0.033 H 
ATOM     35  H   LIG d   1       4.669  -0.894  -0.809  0.00  0.00     0.033 H 
BRANCH  33  36
ATOM     36  C   LIG d   1       4.385   0.824  -2.042  0.00  0.00     0.042 C 
ATOM     37  O   LIG d   1       3.348   1.465  -2.037  0.00  0.00    -0.550 OA
ATOM     38  O   LIG d   1       5.450   1.389  -2.225  0.00  0.00    -0.550 OA
ENDBRANCH  33  36
ENDBRANCH  30  33
ENDBRANCH  12  30
BRANCH  17  39
ATOM     39  C   LIG d   1       3.486  -1.412  -8.567  0.00  0.00     0.044 A 
ATOM     40  C   LIG d   1       2.850  -2.592  -8.927  0.00  0.00    -0.039 A 
ATOM     41  C   LIG d   1       2.047  -2.628 -10.050  0.00  0.00    -0.046 A 
ATOM     42  H   LIG d   1       2.980  -3.482  -8.328  0.00  0.00     0.064 H 
ATOM     43  C   LIG d   1       1.885  -1.491 -10.822  0.00  0.00     0.018 A 
ATOM     44  H   LIG d   1       1.548  -3.544 -10.328  0.00  0.00     0.063 H 
ATOM     45  C   LIG d   1       2.522  -0.315 -10.468  0.00  0.00    -0.046 A 
ATOM     46 BR   LIG d   1       0.790  -1.544 -12.363  0.00  0.00    -0.050 Br
ATOM     47  C   LIG d   1       3.322  -0.273  -9.343  0.00  0.00    -0.039 A 
ATOM     48  H   LIG d   1       2.394   0.571 -11.073  0.00  0.00     0.063 H 
ATOM     49  H   LIG d   1       3.820   0.645  -9.068  0.00  0.00     0.064 H 
ENDBRANCH  17  39
TORSDOF 4
ENDMDL
MODEL 4
REMARK VINA RESULT:      -7.1      3.917      6.103
REMARK  4 active torsions:
REMARK  status: ('A' for Active; 'I' for Inactive)
REMARK    1  A    between atoms: C_12  and  C_15 
REMARK    2  A    between atoms: C_15  and  C_16 
REMARK    3  A    between atoms: C_16  and  C_17 
REMARK    4  A    between atoms: N_22  and  C_25 
ROOT
ATOM      1  C   LIG d   1       5.045  -0.549  -2.167  0.00  0.00    -0.061 A 
ATOM      2  C   LIG d   1       4.078   0.397  -1.883  0.00  0.00    -0.060 A 
ATOM      3  C   LIG d   1       3.278   0.899  -2.888  0.00  0.00    -0.040 A 
ATOM      4  C   LIG d   1       3.437   0.455  -4.198  0.00  0.00     0.043 A 
ATOM      5  C   LIG d   1       4.413  -0.499  -4.473  0.00  0.00     0.034 A 
ATOM      6  C   LIG d   1       5.212  -0.995  -3.466  0.00  0.00    -0.051 A 
ATOM      7  C   LIG d   1       4.326  -0.762  -5.949  0.00  0.00     0.106 A 
ATOM      8  C   LIG d   1       5.653  -0.458  -6.656  0.00  0.00     0.111 A 
ATOM      9  H   LIG d   1       5.702   0.561  -7.038  0.00  0.00     0.047 H 
ATOM     10  C   LIG d   1       5.749  -1.528  -7.780  0.00  0.00     0.097 A 
ATOM     11  H   LIG d   1       5.871  -1.091  -8.771  0.00  0.00     0.046 H 
ATOM     12  C   LIG d   1       4.453  -2.357  -7.653  0.00  0.00    -0.009 C 
ATOM     13  H   LIG d   1       4.655  -3.409  -7.849  0.00  0.00     0.086 H 
ATOM     14  N   LIG d   1       4.033  -2.179  -6.231  0.00  0.00     0.245 N 
ATOM     15  C   LIG d   1       6.938  -2.366  -7.364  0.00  0.00     0.236 A 
ATOM     16  O   LIG d   1       7.360  -3.329  -7.966  0.00  0.00    -0.274 OA
ATOM     17  N   LIG d   1       7.448  -1.879  -6.228  0.00  0.00    -0.210 N 
ATOM     18  C   LIG d   1       6.807  -0.792  -5.738  0.00  0.00     0.237 A 
ATOM     19  O   LIG d   1       7.100  -0.184  -4.732  0.00  0.00    -0.274 OA
ATOM     20  C   LIG d   1       3.223   0.135  -6.443  0.00  0.00     0.274 A 
ATOM     21  O   LIG d   1       2.827   0.235  -7.585  0.00  0.00    -0.269 OA
ATOM     22  N   LIG d   1       2.761   0.805  -5.370  0.00  0.00    -0.280 N 
ATOM     23  H   LIG d   1       5.673  -0.934  -1.377  0.00  0.00     0.062 H 
ATOM     24  H   LIG d   1       3.948   0.745  -0.869  0.00  0.00     0.062 H 
ATOM     25  H   LIG d   1       2.524   1.637  -2.659  0.00  0.00     0.064 H 
ATOM     26  H   LIG d   1       5.968  -1.733  -3.691  0.00  0.00     0.062 H 
ATOM     27  H   LIG d   1       4.566  -2.778  -5.618  0.00  0.00     0.203 HD
ATOM     28  H   LIG d   1       2.042   1.454  -5.406  0.00  0.00     0.155 HD
ATOM     29  H   LIG d   1       3.046  -2.361  -6.134  0.00  0.00     0.203 HD
ENDROOT
BRANCH  12  30
ATOM     30  C   LIG d   1       3.389  -1.831  -8.617  0.00  0.00    -0.004 C 
ATOM     31  H   LIG d   1       2.583  -1.363  -8.051  0.00  0.00     0.032 H 
ATOM     32  H   LIG d   1       3.837  -1.096  -9.287  0.00  0.00     0.032 H 
BRANCH  30  33
ATOM     33  C   LIG d   1       2.827  -2.992  -9.439  0.00  0.00    -0.008 C 
ATOM     34  H   LIG d   1       3.543  -3.274 -10.210  0.00  0.00     0.033 H 
ATOM     35  H   LIG d   1       2.643  -3.844  -8.785  0.00  0.00     0.033 H 
BRANCH  33  36
ATOM     36  C   LIG d   1       1.533  -2.569 -10.087  0.00  0.00     0.042 C 
ATOM     37  O   LIG d   1       0.720  -3.410 -10.432  0.00  0.00    -0.550 OA
ATOM     38  O   LIG d   1       1.301  -1.385 -10.269  0.00  0.00    -0.550 OA
ENDBRANCH  33  36
ENDBRANCH  30  33
ENDBRANCH  12  30
BRANCH  17  39
ATOM     39  C   LIG d   1       8.564  -2.444  -5.594  0.00  0.00     0.044 A 
ATOM     40  C   LIG d   1       9.844  -2.049  -5.959  0.00  0.00    -0.039 A 
ATOM     41  C   LIG d   1      10.942  -2.604  -5.331  0.00  0.00    -0.046 A 
ATOM     42  H   LIG d   1       9.982  -1.307  -6.732  0.00  0.00     0.064 H 
ATOM     43  C   LIG d   1      10.767  -3.560  -4.346  0.00  0.00     0.018 A 
ATOM     44  H   LIG d   1      11.937  -2.293  -5.611  0.00  0.00     0.063 H 
ATOM     45  C   LIG d   1       9.493  -3.959  -3.984  0.00  0.00    -0.046 A 
ATOM     46 BR   LIG d   1      12.272  -4.322  -3.492  0.00  0.00    -0.050 Br
ATOM     47  C   LIG d   1       8.391  -3.403  -4.606  0.00  0.00    -0.039 A 
ATOM     48  H   LIG d   1       9.359  -4.705  -3.216  0.00  0.00     0.063 H 
ATOM     49  H   LIG d   1       7.397  -3.715  -4.324  0.00  0.00     0.064 H 
ENDBRANCH  17  39
TORSDOF 4
ENDMDL
MODEL 5
REMARK VINA RESULT:      -6.9      4.673      7.838
REMARK  4 active torsions:
REMARK  status: ('A' for Active; 'I' for Inactive)
REMARK    1  A    between atoms: C_12  and  C_15 
REMARK    2  A    between atoms: C_15  and  C_16 
REMARK    3  A    between atoms: C_16  and  C_17 
REMARK    4  A    between atoms: N_22  and  C_25 
ROOT
ATOM      1  C   LIG d   1       4.154  -2.557  -2.449  0.00  0.00    -0.061 A 
ATOM      2  C   LIG d   1       4.161  -1.264  -1.959  0.00  0.00    -0.060 A 
ATOM      3  C   LIG d   1       4.425  -0.202  -2.799  0.00  0.00    -0.040 A 
ATOM      4  C   LIG d   1       4.686  -0.425  -4.149  0.00  0.00     0.043 A 
ATOM      5  C   LIG d   1       4.675  -1.730  -4.631  0.00  0.00     0.034 A 
ATOM      6  C   LIG d   1       4.413  -2.787  -3.788  0.00  0.00    -0.051 A 
ATOM      7  C   LIG d   1       4.984  -1.628  -6.098  0.00  0.00     0.106 A 
ATOM      8  C   LIG d   1       6.243  -2.421  -6.467  0.00  0.00     0.111 A 
ATOM      9  H   LIG d   1       7.147  -1.813  -6.434  0.00  0.00     0.047 H 
ATOM     10  C   LIG d   1       5.948  -2.984  -7.886  0.00  0.00     0.097 A 
ATOM     11  H   LIG d   1       6.702  -2.699  -8.619  0.00  0.00     0.046 H 
ATOM     12  C   LIG d   1       4.544  -2.450  -8.241  0.00  0.00    -0.009 C 
ATOM     13  H   LIG d   1       3.978  -3.204  -8.786  0.00  0.00     0.086 H 
ATOM     14  N   LIG d   1       3.897  -2.190  -6.920  0.00  0.00     0.245 N 
ATOM     15  C   LIG d   1       5.889  -4.479  -7.663  0.00  0.00     0.236 A 
ATOM     16  O   LIG d   1       5.667  -5.306  -8.521  0.00  0.00    -0.274 OA
ATOM     17  N   LIG d   1       6.117  -4.745  -6.373  0.00  0.00    -0.210 N 
ATOM     18  C   LIG d   1       6.340  -3.657  -5.600  0.00  0.00     0.237 A 
ATOM     19  O   LIG d   1       6.576  -3.661  -4.411  0.00  0.00    -0.274 OA
ATOM     20  C   LIG d   1       5.164  -0.158  -6.359  0.00  0.00     0.274 A 
ATOM     21  O   LIG d   1       5.428   0.363  -7.423  0.00  0.00    -0.269 OA
ATOM     22  N   LIG d   1       4.977   0.469  -5.182  0.00  0.00    -0.280 N 
ATOM     23  H   LIG d   1       3.952  -3.385  -1.786  0.00  0.00     0.062 H 
ATOM     24  H   LIG d   1       3.958  -1.084  -0.914  0.00  0.00     0.062 H 
ATOM     25  H   LIG d   1       4.429   0.805  -2.410  0.00  0.00     0.064 H 
ATOM     26  H   LIG d   1       4.410  -3.797  -4.173  0.00  0.00     0.062 H 
ATOM     27  H   LIG d   1       3.551  -3.045  -6.512  0.00  0.00     0.203 HD
ATOM     28  H   LIG d   1       5.035   1.430  -5.066  0.00  0.00     0.155 HD
ATOM     29  H   LIG d   1       3.150  -1.520  -7.024  0.00  0.00     0.203 HD
ENDROOT
BRANCH  12  30
ATOM     30  C   LIG d   1       4.656  -1.168  -9.068  0.00  0.00    -0.004 C 
ATOM     31  H   LIG d   1       4.564  -0.303  -8.412  0.00  0.00     0.032 H 
ATOM     32  H   LIG d   1       5.624  -1.143  -9.570  0.00  0.00     0.032 H 
BRANCH  30  33
ATOM     33  C   LIG d   1       3.540  -1.137 -10.114  0.00  0.00    -0.008 C 
ATOM     34  H   LIG d   1       3.829  -0.483 -10.936  0.00  0.00     0.033 H 
ATOM     35  H   LIG d   1       3.368  -2.144 -10.492  0.00  0.00     0.033 H 
BRANCH  33  36
ATOM     36  C   LIG d   1       2.274  -0.616  -9.481  0.00  0.00     0.042 C 
ATOM     37  O   LIG d   1       1.190  -0.919  -9.948  0.00  0.00    -0.550 OA
ATOM     38  O   LIG d   1       2.335   0.111  -8.503  0.00  0.00    -0.550 OA
ENDBRANCH  33  36
ENDBRANCH  30  33
ENDBRANCH  12  30
BRANCH  17  39
ATOM     39  C   LIG d   1       6.129  -6.049  -5.858  0.00  0.00     0.044 A 
ATOM     40  C   LIG d   1       4.934  -6.695  -5.575  0.00  0.00    -0.039 A 
ATOM     41  C   LIG d   1       4.947  -7.982  -5.073  0.00  0.00    -0.046 A 
ATOM     42  H   LIG d   1       3.993  -6.194  -5.750  0.00  0.00     0.064 H 
ATOM     43  C   LIG d   1       6.152  -8.623  -4.842  0.00  0.00     0.018 A 
ATOM     44  H   LIG d   1       4.018  -8.487  -4.858  0.00  0.00     0.063 H 
ATOM     45  C   LIG d   1       7.345  -7.979  -5.119  0.00  0.00    -0.046 A 
ATOM     46 BR   LIG d   1       6.168 -10.382  -4.149  0.00  0.00    -0.050 Br
ATOM     47  C   LIG d   1       7.336  -6.694  -5.626  0.00  0.00    -0.039 A 
ATOM     48  H   LIG d   1       8.284  -8.481  -4.938  0.00  0.00     0.063 H 
ATOM     49  H   LIG d   1       8.267  -6.191  -5.841  0.00  0.00     0.064 H 
ENDBRANCH  17  39
TORSDOF 4
ENDMDL
MODEL 6
REMARK VINA RESULT:      -6.9      7.854     11.376
REMARK  4 active torsions:
REMARK  status: ('A' for Active; 'I' for Inactive)
REMARK    1  A    between atoms: C_12  and  C_15 
REMARK    2  A    between atoms: C_15  and  C_16 
REMARK    3  A    between atoms: C_16  and  C_17 
REMARK    4  A    between atoms: N_22  and  C_25 
ROOT
ATOM      1  C   LIG d   1       9.328   5.711  -4.244  0.00  0.00    -0.061 A 
ATOM      2  C   LIG d   1       9.530   4.377  -3.940  0.00  0.00    -0.060 A 
ATOM      3  C   LIG d   1      10.186   4.019  -2.781  0.00  0.00    -0.040 A 
ATOM      4  C   LIG d   1      10.650   4.998  -1.906  0.00  0.00     0.043 A 
ATOM      5  C   LIG d   1      10.440   6.337  -2.221  0.00  0.00     0.034 A 
ATOM      6  C   LIG d   1       9.786   6.691  -3.381  0.00  0.00    -0.051 A 
ATOM      7  C   LIG d   1      11.044   7.124  -1.094  0.00  0.00     0.106 A 
ATOM      8  C   LIG d   1      12.140   8.075  -1.591  0.00  0.00     0.111 A 
ATOM      9  H   LIG d   1      13.133   7.628  -1.553  0.00  0.00     0.047 H 
ATOM     10  C   LIG d   1      12.009   9.330  -0.684  0.00  0.00     0.097 A 
ATOM     11  H   LIG d   1      12.936   9.578  -0.168  0.00  0.00     0.046 H 
ATOM     12  C   LIG d   1      10.859   8.998   0.291  0.00  0.00    -0.009 C 
ATOM     13  H   LIG d   1      10.256   9.885   0.481  0.00  0.00     0.086 H 
ATOM     14  N   LIG d   1      10.041   7.977  -0.429  0.00  0.00     0.245 N 
ATOM     15  C   LIG d   1      11.572  10.413  -1.645  0.00  0.00     0.236 A 
ATOM     16  O   LIG d   1      11.342  11.564  -1.346  0.00  0.00    -0.274 OA
ATOM     17  N   LIG d   1      11.477   9.900  -2.877  0.00  0.00    -0.210 N 
ATOM     18  C   LIG d   1      11.784   8.586  -2.970  0.00  0.00     0.237 A 
ATOM     19  O   LIG d   1      11.775   7.920  -3.982  0.00  0.00    -0.274 OA
ATOM     20  C   LIG d   1      11.599   6.093  -0.150  0.00  0.00     0.274 A 
ATOM     21  O   LIG d   1      12.176   6.304   0.896  0.00  0.00    -0.269 OA
ATOM     22  N   LIG d   1      11.330   4.890  -0.691  0.00  0.00    -0.280 N 
ATOM     23  H   LIG d   1       8.819   5.986  -5.155  0.00  0.00     0.062 H 
ATOM     24  H   LIG d   1       9.172   3.613  -4.613  0.00  0.00     0.062 H 
ATOM     25  H   LIG d   1      10.341   2.975  -2.550  0.00  0.00     0.064 H 
ATOM     26  H   LIG d   1       9.630   7.734  -3.618  0.00  0.00     0.062 H 
ATOM     27  H   LIG d   1       9.438   8.411  -1.112  0.00  0.00     0.203 HD
ATOM     28  H   LIG d   1      11.580   4.046  -0.284  0.00  0.00     0.155 HD
ATOM     29  H   LIG d   1       9.500   7.437   0.229  0.00  0.00     0.203 HD
ENDROOT
BRANCH  12  30
ATOM     30  C   LIG d   1      11.416   8.442   1.602  0.00  0.00    -0.004 C 
ATOM     31  H   LIG d   1      10.592   8.187   2.268  0.00  0.00     0.032 H 
ATOM     32  H   LIG d   1      12.007   7.549   1.396  0.00  0.00     0.032 H 
BRANCH  30  33
ATOM     33  C   LIG d   1      12.302   9.497   2.267  0.00  0.00    -0.008 C 
ATOM     34  H   LIG d   1      13.341   9.333   1.981  0.00  0.00     0.033 H 
ATOM     35  H   LIG d   1      11.989  10.490   1.945  0.00  0.00     0.033 H 
BRANCH  33  36
ATOM     36  C   LIG d   1      12.172   9.391   3.765  0.00  0.00     0.042 C 
ATOM     37  O   LIG d   1      12.026   8.299   4.288  0.00  0.00    -0.550 OA
ATOM     38  O   LIG d   1      12.210  10.397   4.453  0.00  0.00    -0.550 OA
ENDBRANCH  33  36
ENDBRANCH  30  33
ENDBRANCH  12  30
BRANCH  17  39
ATOM     39  C   LIG d   1      11.095  10.664  -3.989  0.00  0.00     0.044 A 
ATOM     40  C   LIG d   1       9.757  10.742  -4.351  0.00  0.00    -0.039 A 
ATOM     41  C   LIG d   1       9.380  11.499  -5.443  0.00  0.00    -0.046 A 
ATOM     42  H   LIG d   1       9.009  10.214  -3.777  0.00  0.00     0.064 H 
ATOM     43  C   LIG d   1      10.338  12.171  -6.183  0.00  0.00     0.018 A 
ATOM     44  H   LIG d   1       8.339  11.565  -5.722  0.00  0.00     0.063 H 
ATOM     45  C   LIG d   1      11.672  12.091  -5.827  0.00  0.00    -0.046 A 
ATOM     46 BR   LIG d   1       9.821  13.202  -7.681  0.00  0.00    -0.050 Br
ATOM     47  C   LIG d   1      12.052  11.339  -4.732  0.00  0.00    -0.039 A 
ATOM     48  H   LIG d   1      12.417  12.616  -6.406  0.00  0.00     0.063 H 
ATOM     49  H   LIG d   1      13.094  11.277  -4.455  0.00  0.00     0.064 H 
ENDBRANCH  17  39
TORSDOF 4
ENDMDL
MODEL 7
REMARK VINA RESULT:      -6.8      7.114     11.343
REMARK  4 active torsions:
REMARK  status: ('A' for Active; 'I' for Inactive)
REMARK    1  A    between atoms: C_12  and  C_15 
REMARK    2  A    between atoms: C_15  and  C_16 
REMARK    3  A    between atoms: C_16  and  C_17 
REMARK    4  A    between atoms: N_22  and  C_25 
ROOT
ATOM      1  C   LIG d   1      10.251   9.078  -5.450  0.00  0.00    -0.061 A 
ATOM      2  C   LIG d   1       9.577  10.278  -5.588  0.00  0.00    -0.060 A 
ATOM      3  C   LIG d   1       9.179  10.985  -4.473  0.00  0.00    -0.040 A 
ATOM      4  C   LIG d   1       9.453  10.497  -3.198  0.00  0.00     0.043 A 
ATOM      5  C   LIG d   1      10.132   9.289  -3.070  0.00  0.00     0.034 A 
ATOM      6  C   LIG d   1      10.527   8.585  -4.187  0.00  0.00    -0.051 A 
ATOM      7  C   LIG d   1      10.271   9.049  -1.594  0.00  0.00     0.106 A 
ATOM      8  C   LIG d   1       9.613   7.730  -1.171  0.00  0.00     0.111 A 
ATOM      9  H   LIG d   1       8.578   7.860  -0.855  0.00  0.00     0.047 H 
ATOM     10  C   LIG d   1      10.525   7.185  -0.036  0.00  0.00     0.097 A 
ATOM     11  H   LIG d   1       9.982   6.999   0.890  0.00  0.00     0.046 H 
ATOM     12  C   LIG d   1      11.632   8.249   0.128  0.00  0.00    -0.009 C 
ATOM     13  H   LIG d   1      12.589   7.770   0.333  0.00  0.00     0.086 H 
ATOM     14  N   LIG d   1      11.686   8.942  -1.193  0.00  0.00     0.245 N 
ATOM     15  C   LIG d   1      11.108   5.924  -0.632  0.00  0.00     0.236 A 
ATOM     16  O   LIG d   1      11.891   5.184  -0.077  0.00  0.00    -0.274 OA
ATOM     17  N   LIG d   1      10.625   5.752  -1.868  0.00  0.00    -0.210 N 
ATOM     18  C   LIG d   1       9.761   6.709  -2.277  0.00  0.00     0.237 A 
ATOM     19  O   LIG d   1       9.197   6.752  -3.349  0.00  0.00    -0.274 OA
ATOM     20  C   LIG d   1       9.604  10.230  -0.941  0.00  0.00     0.274 A 
ATOM     21  O   LIG d   1       9.491  10.431   0.250  0.00  0.00    -0.269 OA
ATOM     22  N   LIG d   1       9.158  11.019  -1.936  0.00  0.00    -0.280 N 
ATOM     23  H   LIG d   1      10.556   8.526  -6.326  0.00  0.00     0.062 H 
ATOM     24  H   LIG d   1       9.363  10.664  -6.573  0.00  0.00     0.062 H 
ATOM     25  H   LIG d   1       8.653  11.922  -4.588  0.00  0.00     0.064 H 
ATOM     26  H   LIG d   1      11.051   7.647  -4.077  0.00  0.00     0.062 H 
ATOM     27  H   LIG d   1      12.203   8.398  -1.867  0.00  0.00     0.203 HD
ATOM     28  H   LIG d   1       8.686  11.855  -1.794  0.00  0.00     0.155 HD
ATOM     29  H   LIG d   1      12.094   9.858  -1.089  0.00  0.00     0.203 HD
ENDROOT
BRANCH  12  30
ATOM     30  C   LIG d   1      11.273   9.220   1.253  0.00  0.00    -0.004 C 
ATOM     31  H   LIG d   1      10.740  10.076   0.838  0.00  0.00     0.032 H 
ATOM     32  H   LIG d   1      10.638   8.715   1.981  0.00  0.00     0.032 H 
BRANCH  30  33
ATOM     33  C   LIG d   1      12.553   9.701   1.940  0.00  0.00    -0.008 C 
ATOM     34  H   LIG d   1      13.376   9.035   1.683  0.00  0.00     0.033 H 
ATOM     35  H   LIG d   1      12.785  10.713   1.609  0.00  0.00     0.033 H 
BRANCH  33  36
ATOM     36  C   LIG d   1      12.353   9.695   3.435  0.00  0.00     0.042 C 
ATOM     37  O   LIG d   1      12.269   8.637   4.035  0.00  0.00    -0.550 OA
ATOM     38  O   LIG d   1      12.273  10.749   4.043  0.00  0.00    -0.550 OA
ENDBRANCH  33  36
ENDBRANCH  30  33
ENDBRANCH  12  30
BRANCH  17  39
ATOM     39  C   LIG d   1      10.981   4.663  -2.676  0.00  0.00     0.044 A 
ATOM     40  C   LIG d   1      12.103   4.740  -3.489  0.00  0.00    -0.039 A 
ATOM     41  C   LIG d   1      12.455   3.664  -4.282  0.00  0.00    -0.046 A 
ATOM     42  H   LIG d   1      12.703   5.638  -3.501  0.00  0.00     0.064 H 
ATOM     43  C   LIG d   1      11.684   2.515  -4.273  0.00  0.00     0.018 A 
ATOM     44  H   LIG d   1      13.331   3.721  -4.910  0.00  0.00     0.063 H 
ATOM     45  C   LIG d   1      10.562   2.439  -3.467  0.00  0.00    -0.046 A 
ATOM     46 BR   LIG d   1      12.165   1.047  -5.363  0.00  0.00    -0.050 Br
ATOM     47  C   LIG d   1      10.209   3.510  -2.669  0.00  0.00    -0.039 A 
ATOM     48  H   LIG d   1       9.961   1.541  -3.462  0.00  0.00     0.063 H 
ATOM     49  H   LIG d   1       9.333   3.450  -2.041  0.00  0.00     0.064 H 
ENDBRANCH  17  39
TORSDOF 4
ENDMDL
MODEL 8
REMARK VINA RESULT:      -6.7      3.936      7.632
REMARK  4 active torsions:
REMARK  status: ('A' for Active; 'I' for Inactive)
REMARK    1  A    between atoms: C_12  and  C_15 
REMARK    2  A    between atoms: C_15  and  C_16 
REMARK    3  A    between atoms: C_16  and  C_17 
REMARK    4  A    between atoms: N_22  and  C_25 
ROOT
ATOM      1  C   LIG d   1      10.437  -2.719  -6.589  0.00  0.00    -0.061 A 
ATOM      2  C   LIG d   1      11.277  -1.678  -6.938  0.00  0.00    -0.060 A 
ATOM      3  C   LIG d   1      10.936  -0.376  -6.637  0.00  0.00    -0.040 A 
ATOM      4  C   LIG d   1       9.742  -0.099  -5.976  0.00  0.00     0.043 A 
ATOM      5  C   LIG d   1       8.904  -1.154  -5.628  0.00  0.00     0.034 A 
ATOM      6  C   LIG d   1       9.248  -2.453  -5.933  0.00  0.00    -0.051 A 
ATOM      7  C   LIG d   1       7.724  -0.532  -4.938  0.00  0.00     0.106 A 
ATOM      8  C   LIG d   1       6.410  -0.862  -5.656  0.00  0.00     0.111 A 
ATOM      9  H   LIG d   1       6.132  -0.107  -6.391  0.00  0.00     0.047 H 
ATOM     10  C   LIG d   1       5.366  -1.004  -4.513  0.00  0.00     0.097 A 
ATOM     11  H   LIG d   1       4.510  -0.341  -4.637  0.00  0.00     0.046 H 
ATOM     12  C   LIG d   1       6.154  -0.718  -3.217  0.00  0.00    -0.009 C 
ATOM     13  H   LIG d   1       5.814  -1.371  -2.415  0.00  0.00     0.086 H 
ATOM     14  N   LIG d   1       7.571  -1.039  -3.562  0.00  0.00     0.245 N 
ATOM     15  C   LIG d   1       4.982  -2.465  -4.570  0.00  0.00     0.236 A 
ATOM     16  O   LIG d   1       4.188  -3.010  -3.834  0.00  0.00    -0.274 OA
ATOM     17  N   LIG d   1       5.656  -3.063  -5.559  0.00  0.00    -0.210 N 
ATOM     18  C   LIG d   1       6.489  -2.251  -6.249  0.00  0.00     0.237 A 
ATOM     19  O   LIG d   1       7.187  -2.574  -7.186  0.00  0.00    -0.274 OA
ATOM     20  C   LIG d   1       8.000   0.947  -4.949  0.00  0.00     0.274 A 
ATOM     21  O   LIG d   1       7.292   1.820  -4.492  0.00  0.00    -0.269 OA
ATOM     22  N   LIG d   1       9.184   1.114  -5.567  0.00  0.00    -0.280 N 
ATOM     23  H   LIG d   1      10.706  -3.736  -6.832  0.00  0.00     0.062 H 
ATOM     24  H   LIG d   1      12.206  -1.886  -7.449  0.00  0.00     0.062 H 
ATOM     25  H   LIG d   1      11.598   0.432  -6.913  0.00  0.00     0.064 H 
ATOM     26  H   LIG d   1       8.589  -3.265  -5.660  0.00  0.00     0.062 H 
ATOM     27  H   LIG d   1       7.736  -2.034  -3.532  0.00  0.00     0.203 HD
ATOM     28  H   LIG d   1       9.603   1.978  -5.711  0.00  0.00     0.155 HD
ATOM     29  H   LIG d   1       8.199  -0.557  -2.936  0.00  0.00     0.203 HD
ENDROOT
BRANCH  12  30
ATOM     30  C   LIG d   1       5.998   0.748  -2.811  0.00  0.00    -0.004 C 
ATOM     31  H   LIG d   1       6.900   1.082  -2.299  0.00  0.00     0.032 H 
ATOM     32  H   LIG d   1       5.839   1.357  -3.702  0.00  0.00     0.032 H 
BRANCH  30  33
ATOM     33  C   LIG d   1       4.796   0.893  -1.875  0.00  0.00    -0.008 C 
ATOM     34  H   LIG d   1       4.692  -0.010  -1.274  0.00  0.00     0.033 H 
ATOM     35  H   LIG d   1       4.947   1.751  -1.221  0.00  0.00     0.033 H 
BRANCH  33  36
ATOM     36  C   LIG d   1       3.545   1.098  -2.692  0.00  0.00     0.042 C 
ATOM     37  O   LIG d   1       2.682   0.238  -2.711  0.00  0.00    -0.550 OA
ATOM     38  O   LIG d   1       3.398   2.125  -3.334  0.00  0.00    -0.550 OA
ENDBRANCH  33  36
ENDBRANCH  30  33
ENDBRANCH  12  30
BRANCH  17  39
ATOM     39  C   LIG d   1       5.509  -4.424  -5.861  0.00  0.00     0.044 A 
ATOM     40  C   LIG d   1       6.452  -5.340  -5.415  0.00  0.00    -0.039 A 
ATOM     41  C   LIG d   1       6.303  -6.682  -5.710  0.00  0.00    -0.046 A 
ATOM     42  H   LIG d   1       7.300  -5.006  -4.835  0.00  0.00     0.064 H 
ATOM     43  C   LIG d   1       5.221  -7.111  -6.458  0.00  0.00     0.018 A 
ATOM     44  H   LIG d   1       7.033  -7.396  -5.359  0.00  0.00     0.063 H 
ATOM     45  C   LIG d   1       4.283  -6.199  -6.908  0.00  0.00    -0.046 A 
ATOM     46 BR   LIG d   1       5.023  -8.947  -6.865  0.00  0.00    -0.050 Br
ATOM     47  C   LIG d   1       4.425  -4.857  -6.612  0.00  0.00    -0.039 A 
ATOM     48  H   LIG d   1       3.440  -6.536  -7.492  0.00  0.00     0.063 H 
ATOM     49  H   LIG d   1       3.693  -4.146  -6.963  0.00  0.00     0.064 H 
ENDBRANCH  17  39
TORSDOF 4
ENDMDL
MODEL 9
REMARK VINA RESULT:      -6.7      3.372      4.208
REMARK  4 active torsions:
REMARK  status: ('A' for Active; 'I' for Inactive)
REMARK    1  A    between atoms: C_12  and  C_15 
REMARK    2  A    between atoms: C_15  and  C_16 
REMARK    3  A    between atoms: C_16  and  C_17 
REMARK    4  A    between atoms: N_22  and  C_25 
ROOT
ATOM      1  C   LIG d   1       3.344   0.659  -7.897  0.00  0.00    -0.061 A 
ATOM      2  C   LIG d   1       2.518   0.350  -8.962  0.00  0.00    -0.060 A 
ATOM      3  C   LIG d   1       2.359  -0.960  -9.363  0.00  0.00    -0.040 A 
ATOM      4  C   LIG d   1       3.028  -1.983  -8.697  0.00  0.00     0.043 A 
ATOM      5  C   LIG d   1       3.856  -1.662  -7.626  0.00  0.00     0.034 A 
ATOM      6  C   LIG d   1       4.014  -0.352  -7.230  0.00  0.00    -0.051 A 
ATOM      7  C   LIG d   1       4.415  -2.965  -7.133  0.00  0.00     0.106 A 
ATOM      8  C   LIG d   1       5.948  -2.982  -7.193  0.00  0.00     0.111 A 
ATOM      9  H   LIG d   1       6.327  -3.396  -8.126  0.00  0.00     0.047 H 
ATOM     10  C   LIG d   1       6.377  -3.810  -5.949  0.00  0.00     0.097 A 
ATOM     11  H   LIG d   1       7.007  -4.661  -6.204  0.00  0.00     0.046 H 
ATOM     12  C   LIG d   1       5.054  -4.232  -5.276  0.00  0.00    -0.009 C 
ATOM     13  H   LIG d   1       5.153  -4.200  -4.191  0.00  0.00     0.086 H 
ATOM     14  N   LIG d   1       4.063  -3.208  -5.722  0.00  0.00     0.245 N 
ATOM     15  C   LIG d   1       7.093  -2.795  -5.084  0.00  0.00     0.236 A 
ATOM     16  O   LIG d   1       7.585  -3.022  -4.001  0.00  0.00    -0.274 OA
ATOM     17  N   LIG d   1       7.096  -1.609  -5.702  0.00  0.00    -0.210 N 
ATOM     18  C   LIG d   1       6.483  -1.597  -6.909  0.00  0.00     0.237 A 
ATOM     19  O   LIG d   1       6.375  -0.640  -7.644  0.00  0.00    -0.274 OA
ATOM     20  C   LIG d   1       3.820  -4.013  -8.034  0.00  0.00     0.274 A 
ATOM     21  O   LIG d   1       4.013  -5.210  -7.982  0.00  0.00    -0.269 OA
ATOM     22  N   LIG d   1       3.030  -3.364  -8.911  0.00  0.00    -0.280 N 
ATOM     23  H   LIG d   1       3.469   1.686  -7.590  0.00  0.00     0.062 H 
ATOM     24  H   LIG d   1       1.994   1.139  -9.482  0.00  0.00     0.062 H 
ATOM     25  H   LIG d   1       1.712  -1.193 -10.196  0.00  0.00     0.064 H 
ATOM     26  H   LIG d   1       4.661  -0.113  -6.398  0.00  0.00     0.062 H 
ATOM     27  H   LIG d   1       4.152  -2.358  -5.185  0.00  0.00     0.203 HD
ATOM     28  H   LIG d   1       2.521  -3.804  -9.609  0.00  0.00     0.155 HD
ATOM     29  H   LIG d   1       3.126  -3.575  -5.650  0.00  0.00     0.203 HD
ENDROOT
BRANCH  12  30
ATOM     30  C   LIG d   1       4.649  -5.635  -5.732  0.00  0.00    -0.004 C 
ATOM     31  H   LIG d   1       3.841  -6.003  -5.100  0.00  0.00     0.032 H 
ATOM     32  H   LIG d   1       4.313  -5.597  -6.768  0.00  0.00     0.032 H 
BRANCH  30  33
ATOM     33  C   LIG d   1       5.852  -6.573  -5.621  0.00  0.00    -0.008 C 
ATOM     34  H   LIG d   1       6.373  -6.613  -6.577  0.00  0.00     0.033 H 
ATOM     35  H   LIG d   1       6.530  -6.205  -4.852  0.00  0.00     0.033 H 
BRANCH  33  36
ATOM     36  C   LIG d   1       5.377  -7.956  -5.251  0.00  0.00     0.042 C 
ATOM     37  O   LIG d   1       6.084  -8.682  -4.573  0.00  0.00    -0.550 OA
ATOM     38  O   LIG d   1       4.287  -8.348  -5.632  0.00  0.00    -0.550 OA
ENDBRANCH  33  36
ENDBRANCH  30  33
ENDBRANCH  12  30
BRANCH  17  39
ATOM     39  C   LIG d   1       7.691  -0.467  -5.148  0.00  0.00     0.044 A 
ATOM     40  C   LIG d   1       6.949   0.374  -4.330  0.00  0.00    -0.039 A 
ATOM     41  C   LIG d   1       7.538   1.496  -3.780  0.00  0.00    -0.046 A 
ATOM     42  H   LIG d   1       5.914   0.151  -4.119  0.00  0.00     0.064 H 
ATOM     43  C   LIG d   1       8.863   1.788  -4.053  0.00  0.00     0.018 A 
ATOM     44  H   LIG d   1       6.964   2.148  -3.139  0.00  0.00     0.063 H 
ATOM     45  C   LIG d   1       9.603   0.953  -4.873  0.00  0.00    -0.046 A 
ATOM     46 BR   LIG d   1       9.665   3.328  -3.304  0.00  0.00    -0.050 Br
ATOM     47  C   LIG d   1       9.020  -0.173  -5.420  0.00  0.00    -0.039 A 
ATOM     48  H   LIG d   1      10.636   1.183  -5.084  0.00  0.00     0.063 H 
ATOM     49  H   LIG d   1       9.597  -0.823  -6.060  0.00  0.00     0.064 H 
ENDBRANCH  17  39
TORSDOF 4
ENDMDL
