MODEL 1
REMARK VINA RESULT:      -6.3      0.000      0.000
REMARK  3 active torsions:
REMARK  status: ('A' for Active; 'I' for Inactive)
REMARK    1  A    between atoms: C_4  and  C_7 
REMARK    2  A    between atoms: C_7  and  C_8 
REMARK       I    between atoms: C_8  and  N_10 
REMARK    3  A    between atoms: N_10  and  C_11 
ROOT
ATOM      1  C   LIG d   1       3.088  -0.457  -8.474  0.00  0.00     0.099 C 
ATOM      2  C   LIG d   1       2.281  -1.365  -9.305  0.00  0.00     0.082 C 
ATOM      3  N   LIG d   1       1.658  -2.065  -9.948  0.00  0.00    -0.195 NA
ATOM      4  H   LIG d   1       3.269   0.469  -9.018  0.00  0.00     0.062 H 
ATOM      5  H   LIG d   1       4.040  -0.932  -8.236  0.00  0.00     0.062 H 
ENDROOT
BRANCH   1   6
ATOM      6  N   LIG d   1       2.367  -0.161  -7.233  0.00  0.00    -0.302 N 
ATOM      7  C   LIG d   1       3.049   0.197  -6.127  0.00  0.00     0.218 C 
ATOM      8  O   LIG d   1       4.258   0.274  -6.158  0.00  0.00    -0.275 OA
ATOM      9  H   LIG d   1       1.399  -0.223  -7.208  0.00  0.00     0.150 HD
BRANCH   7  10
ATOM     10  C   LIG d   1       2.307   0.502  -4.851  0.00  0.00     0.049 C 
ATOM     11  H   LIG d   1       1.340  -0.001  -4.864  0.00  0.00     0.041 H 
ATOM     12  H   LIG d   1       2.155   1.577  -4.767  0.00  0.00     0.041 H 
BRANCH  10  13
ATOM     13  C   LIG d   1       3.111   0.014  -3.673  0.00  0.00    -0.039 A 
ATOM     14  C   LIG d   1       3.749   0.922  -2.848  0.00  0.00    -0.058 A 
ATOM     15  C   LIG d   1       4.482   0.474  -1.765  0.00  0.00    -0.061 A 
ATOM     16  H   LIG d   1       3.672   1.980  -3.048  0.00  0.00     0.062 H 
ATOM     17  C   LIG d   1       4.585  -0.881  -1.513  0.00  0.00    -0.062 A 
ATOM     18  H   LIG d   1       4.978   1.183  -1.118  0.00  0.00     0.062 H 
ATOM     19  C   LIG d   1       3.946  -1.789  -2.337  0.00  0.00    -0.061 A 
ATOM     20  H   LIG d   1       5.161  -1.231  -0.669  0.00  0.00     0.062 H 
ATOM     21  C   LIG d   1       3.209  -1.341  -3.417  0.00  0.00    -0.058 A 
ATOM     22  H   LIG d   1       4.023  -2.848  -2.138  0.00  0.00     0.062 H 
ATOM     23  H   LIG d   1       2.710  -2.049  -4.062  0.00  0.00     0.062 H 
ENDBRANCH  10  13
ENDBRANCH   7  10
ENDBRANCH   1   6
TORSDOF 3
ENDMDL
MODEL 2
REMARK VINA RESULT:      -6.1      1.571      2.452
REMARK  3 active torsions:
REMARK  status: ('A' for Active; 'I' for Inactive)
REMARK    1  A    between atoms: C_4  and  C_7 
REMARK    2  A    between atoms: C_7  and  C_8 
REMARK       I    between atoms: C_8  and  N_10 
REMARK    3  A    between atoms: N_10  and  C_11 
ROOT
ATOM      1  C   LIG d   1       3.675   0.641  -8.596  0.00  0.00     0.099 C 
ATOM      2  C   LIG d   1       4.635   1.707  -8.923  0.00  0.00     0.082 C 
ATOM      3  N   LIG d   1       5.377   2.530  -9.176  0.00  0.00    -0.195 NA
ATOM      4  H   LIG d   1       4.211  -0.294  -8.434  0.00  0.00     0.062 H 
ATOM      5  H   LIG d   1       2.972   0.519  -9.420  0.00  0.00     0.062 H 
ENDROOT
BRANCH   1   6
ATOM      6  N   LIG d   1       2.942   1.000  -7.379  0.00  0.00    -0.302 N 
ATOM      7  C   LIG d   1       3.109   0.278  -6.254  0.00  0.00     0.218 C 
ATOM      8  O   LIG d   1       3.867  -0.669  -6.248  0.00  0.00    -0.275 OA
ATOM      9  H   LIG d   1       2.335   1.758  -7.384  0.00  0.00     0.150 HD
BRANCH   7  10
ATOM     10  C   LIG d   1       2.356   0.648  -5.002  0.00  0.00     0.049 C 
ATOM     11  H   LIG d   1       1.374   0.174  -5.017  0.00  0.00     0.041 H 
ATOM     12  H   LIG d   1       2.236   1.730  -4.957  0.00  0.00     0.041 H 
BRANCH  10  13
ATOM     13  C   LIG d   1       3.124   0.176  -3.795  0.00  0.00    -0.039 A 
ATOM     14  C   LIG d   1       3.093  -1.159  -3.434  0.00  0.00    -0.058 A 
ATOM     15  C   LIG d   1       3.803  -1.592  -2.330  0.00  0.00    -0.061 A 
ATOM     16  H   LIG d   1       2.519  -1.862  -4.017  0.00  0.00     0.062 H 
ATOM     17  C   LIG d   1       4.534  -0.690  -1.580  0.00  0.00    -0.062 A 
ATOM     18  H   LIG d   1       3.782  -2.635  -2.050  0.00  0.00     0.062 H 
ATOM     19  C   LIG d   1       4.566   0.644  -1.941  0.00  0.00    -0.061 A 
ATOM     20  H   LIG d   1       5.085  -1.028  -0.715  0.00  0.00     0.062 H 
ATOM     21  C   LIG d   1       3.860   1.076  -3.048  0.00  0.00    -0.058 A 
ATOM     22  H   LIG d   1       5.140   1.349  -1.358  0.00  0.00     0.062 H 
ATOM     23  H   LIG d   1       3.885   2.119  -3.331  0.00  0.00     0.062 H 
ENDBRANCH  10  13
ENDBRANCH   7  10
ENDBRANCH   1   6
TORSDOF 3
ENDMDL
MODEL 3
REMARK VINA RESULT:      -6.0      2.418      3.135
REMARK  3 active torsions:
REMARK  status: ('A' for Active; 'I' for Inactive)
REMARK    1  A    between atoms: C_4  and  C_7 
REMARK    2  A    between atoms: C_7  and  C_8 
REMARK       I    between atoms: C_8  and  N_10 
REMARK    3  A    between atoms: N_10  and  C_11 
ROOT
ATOM      1  C   LIG d   1       4.729  -3.806  -6.536  0.00  0.00     0.099 C 
ATOM      2  C   LIG d   1       4.380  -2.795  -7.548  0.00  0.00     0.082 C 
ATOM      3  N   LIG d   1       4.111  -2.014  -8.329  0.00  0.00    -0.195 NA
ATOM      4  H   LIG d   1       5.808  -3.813  -6.388  0.00  0.00     0.062 H 
ATOM      5  H   LIG d   1       4.401  -4.788  -6.876  0.00  0.00     0.062 H 
ENDROOT
BRANCH   1   6
ATOM      6  N   LIG d   1       4.065  -3.481  -5.272  0.00  0.00    -0.302 N 
ATOM      7  C   LIG d   1       4.777  -2.968  -4.249  0.00  0.00     0.218 C 
ATOM      8  O   LIG d   1       5.967  -2.775  -4.376  0.00  0.00    -0.275 OA
ATOM      9  H   LIG d   1       3.112  -3.636  -5.171  0.00  0.00     0.150 HD
BRANCH   7  10
ATOM     10  C   LIG d   1       4.093  -2.634  -2.948  0.00  0.00     0.049 C 
ATOM     11  H   LIG d   1       4.688  -3.015  -2.118  0.00  0.00     0.041 H 
ATOM     12  H   LIG d   1       3.106  -3.093  -2.928  0.00  0.00     0.041 H 
BRANCH  10  13
ATOM     13  C   LIG d   1       3.955  -1.138  -2.823  0.00  0.00    -0.039 A 
ATOM     14  C   LIG d   1       4.567  -0.473  -1.777  0.00  0.00    -0.058 A 
ATOM     15  C   LIG d   1       4.444   0.900  -1.666  0.00  0.00    -0.061 A 
ATOM     16  H   LIG d   1       5.143  -1.024  -1.050  0.00  0.00     0.062 H 
ATOM     17  C   LIG d   1       3.701   1.605  -2.594  0.00  0.00    -0.062 A 
ATOM     18  H   LIG d   1       4.924   1.421  -0.851  0.00  0.00     0.062 H 
ATOM     19  C   LIG d   1       3.090   0.939  -3.640  0.00  0.00    -0.061 A 
ATOM     20  H   LIG d   1       3.602   2.677  -2.505  0.00  0.00     0.062 H 
ATOM     21  C   LIG d   1       3.217  -0.432  -3.754  0.00  0.00    -0.058 A 
ATOM     22  H   LIG d   1       2.513   1.491  -4.368  0.00  0.00     0.062 H 
ATOM     23  H   LIG d   1       2.740  -0.953  -4.572  0.00  0.00     0.062 H 
ENDBRANCH  10  13
ENDBRANCH   7  10
ENDBRANCH   1   6
TORSDOF 3
ENDMDL
MODEL 4
REMARK VINA RESULT:      -5.4      3.472      3.981
REMARK  3 active torsions:
REMARK  status: ('A' for Active; 'I' for Inactive)
REMARK    1  A    between atoms: C_4  and  C_7 
REMARK    2  A    between atoms: C_7  and  C_8 
REMARK       I    between atoms: C_8  and  N_10 
REMARK    3  A    between atoms: N_10  and  C_11 
ROOT
ATOM      1  C   LIG d   1       5.948  -4.380  -6.166  0.00  0.00     0.099 C 
ATOM      2  C   LIG d   1       4.575  -4.911  -6.145  0.00  0.00     0.082 C 
ATOM      3  N   LIG d   1       3.516  -5.320  -6.130  0.00  0.00    -0.195 NA
ATOM      4  H   LIG d   1       6.028  -3.611  -6.934  0.00  0.00     0.062 H 
ATOM      5  H   LIG d   1       6.647  -5.187  -6.385  0.00  0.00     0.062 H 
ENDROOT
BRANCH   1   6
ATOM      6  N   LIG d   1       6.268  -3.800  -4.859  0.00  0.00    -0.302 N 
ATOM      7  C   LIG d   1       6.628  -2.505  -4.766  0.00  0.00     0.218 C 
ATOM      8  O   LIG d   1       6.686  -1.819  -5.765  0.00  0.00    -0.275 OA
ATOM      9  H   LIG d   1       6.221  -4.350  -4.060  0.00  0.00     0.150 HD
BRANCH   7  10
ATOM     10  C   LIG d   1       6.956  -1.909  -3.422  0.00  0.00     0.049 C 
ATOM     11  H   LIG d   1       7.901  -1.370  -3.485  0.00  0.00     0.041 H 
ATOM     12  H   LIG d   1       7.040  -2.704  -2.682  0.00  0.00     0.041 H 
BRANCH  10  13
ATOM     13  C   LIG d   1       5.861  -0.956  -3.014  0.00  0.00    -0.039 A 
ATOM     14  C   LIG d   1       6.086   0.408  -3.042  0.00  0.00    -0.058 A 
ATOM     15  C   LIG d   1       5.080   1.281  -2.673  0.00  0.00    -0.061 A 
ATOM     16  H   LIG d   1       7.045   0.791  -3.357  0.00  0.00     0.062 H 
ATOM     17  C   LIG d   1       3.854   0.790  -2.265  0.00  0.00    -0.062 A 
ATOM     18  H   LIG d   1       5.254   2.347  -2.698  0.00  0.00     0.062 H 
ATOM     19  C   LIG d   1       3.629  -0.573  -2.238  0.00  0.00    -0.061 A 
ATOM     20  H   LIG d   1       3.069   1.473  -1.973  0.00  0.00     0.062 H 
ATOM     21  C   LIG d   1       4.633  -1.446  -2.611  0.00  0.00    -0.058 A 
ATOM     22  H   LIG d   1       2.669  -0.957  -1.923  0.00  0.00     0.062 H 
ATOM     23  H   LIG d   1       4.458  -2.512  -2.590  0.00  0.00     0.062 H 
ENDBRANCH  10  13
ENDBRANCH   7  10
ENDBRANCH   1   6
TORSDOF 3
ENDMDL
MODEL 5
REMARK VINA RESULT:      -5.1      2.210      2.710
REMARK  3 active torsions:
REMARK  status: ('A' for Active; 'I' for Inactive)
REMARK    1  A    between atoms: C_4  and  C_7 
REMARK    2  A    between atoms: C_7  and  C_8 
REMARK       I    between atoms: C_8  and  N_10 
REMARK    3  A    between atoms: N_10  and  C_11 
ROOT
ATOM      1  C   LIG d   1       4.178  -1.335  -7.781  0.00  0.00     0.099 C 
ATOM      2  C   LIG d   1       4.247   0.123  -7.975  0.00  0.00     0.082 C 
ATOM      3  N   LIG d   1       4.301   1.247  -8.125  0.00  0.00    -0.195 NA
ATOM      4  H   LIG d   1       5.108  -1.791  -8.121  0.00  0.00     0.062 H 
ATOM      5  H   LIG d   1       3.343  -1.739  -8.353  0.00  0.00     0.062 H 
ENDROOT
BRANCH   1   6
ATOM      6  N   LIG d   1       3.982  -1.630  -6.359  0.00  0.00    -0.302 N 
ATOM      7  C   LIG d   1       4.902  -2.350  -5.687  0.00  0.00     0.218 C 
ATOM      8  O   LIG d   1       5.892  -2.754  -6.259  0.00  0.00    -0.275 OA
ATOM      9  H   LIG d   1       3.190  -1.306  -5.902  0.00  0.00     0.150 HD
BRANCH   7  10
ATOM     10  C   LIG d   1       4.700  -2.653  -4.225  0.00  0.00     0.049 C 
ATOM     11  H   LIG d   1       5.569  -3.188  -3.842  0.00  0.00     0.041 H 
ATOM     12  H   LIG d   1       3.811  -3.269  -4.100  0.00  0.00     0.041 H 
BRANCH  10  13
ATOM     13  C   LIG d   1       4.529  -1.363  -3.463  0.00  0.00    -0.039 A 
ATOM     14  C   LIG d   1       5.628  -0.570  -3.192  0.00  0.00    -0.058 A 
ATOM     15  C   LIG d   1       5.470   0.615  -2.498  0.00  0.00    -0.061 A 
ATOM     16  H   LIG d   1       6.609  -0.874  -3.525  0.00  0.00     0.062 H 
ATOM     17  C   LIG d   1       4.215   1.002  -2.067  0.00  0.00    -0.062 A 
ATOM     18  H   LIG d   1       6.328   1.237  -2.289  0.00  0.00     0.062 H 
ATOM     19  C   LIG d   1       3.116   0.209  -2.340  0.00  0.00    -0.061 A 
ATOM     20  H   LIG d   1       4.092   1.926  -1.522  0.00  0.00     0.062 H 
ATOM     21  C   LIG d   1       3.273  -0.973  -3.038  0.00  0.00    -0.058 A 
ATOM     22  H   LIG d   1       2.134   0.513  -2.007  0.00  0.00     0.062 H 
ATOM     23  H   LIG d   1       2.415  -1.593  -3.251  0.00  0.00     0.062 H 
ENDBRANCH  10  13
ENDBRANCH   7  10
ENDBRANCH   1   6
TORSDOF 3
ENDMDL
MODEL 6
REMARK VINA RESULT:      -5.1      2.170      2.577
REMARK  3 active torsions:
REMARK  status: ('A' for Active; 'I' for Inactive)
REMARK    1  A    between atoms: C_4  and  C_7 
REMARK    2  A    between atoms: C_7  and  C_8 
REMARK       I    between atoms: C_8  and  N_10 
REMARK    3  A    between atoms: N_10  and  C_11 
ROOT
ATOM      1  C   LIG d   1       4.295  -3.038  -8.153  0.00  0.00     0.099 C 
ATOM      2  C   LIG d   1       3.881  -4.369  -7.679  0.00  0.00     0.082 C 
ATOM      3  N   LIG d   1       3.561  -5.397  -7.314  0.00  0.00    -0.195 NA
ATOM      4  H   LIG d   1       4.005  -2.918  -9.196  0.00  0.00     0.062 H 
ATOM      5  H   LIG d   1       5.377  -2.940  -8.062  0.00  0.00     0.062 H 
ENDROOT
BRANCH   1   6
ATOM      6  N   LIG d   1       3.642  -2.007  -7.343  0.00  0.00    -0.302 N 
ATOM      7  C   LIG d   1       4.376  -1.229  -6.523  0.00  0.00     0.218 C 
ATOM      8  O   LIG d   1       5.577  -1.383  -6.455  0.00  0.00    -0.275 OA
ATOM      9  H   LIG d   1       2.681  -1.884  -7.397  0.00  0.00     0.150 HD
BRANCH   7  10
ATOM     10  C   LIG d   1       3.704  -0.168  -5.690  0.00  0.00     0.049 C 
ATOM     11  H   LIG d   1       2.629  -0.190  -5.872  0.00  0.00     0.041 H 
ATOM     12  H   LIG d   1       4.097   0.811  -5.962  0.00  0.00     0.041 H 
BRANCH  10  13
ATOM     13  C   LIG d   1       3.972  -0.430  -4.230  0.00  0.00    -0.039 A 
ATOM     14  C   LIG d   1       3.769  -1.693  -3.706  0.00  0.00    -0.058 A 
ATOM     15  C   LIG d   1       4.020  -1.933  -2.368  0.00  0.00    -0.061 A 
ATOM     16  H   LIG d   1       3.419  -2.491  -4.342  0.00  0.00     0.062 H 
ATOM     17  C   LIG d   1       4.464  -0.910  -1.553  0.00  0.00    -0.062 A 
ATOM     18  H   LIG d   1       3.865  -2.921  -1.959  0.00  0.00     0.062 H 
ATOM     19  C   LIG d   1       4.667   0.353  -2.077  0.00  0.00    -0.061 A 
ATOM     20  H   LIG d   1       4.656  -1.097  -0.506  0.00  0.00     0.062 H 
ATOM     21  C   LIG d   1       4.421   0.593  -3.416  0.00  0.00    -0.058 A 
ATOM     22  H   LIG d   1       5.018   1.153  -1.441  0.00  0.00     0.062 H 
ATOM     23  H   LIG d   1       4.580   1.580  -3.826  0.00  0.00     0.062 H 
ENDBRANCH  10  13
ENDBRANCH   7  10
ENDBRANCH   1   6
TORSDOF 3
ENDMDL
MODEL 7
REMARK VINA RESULT:      -5.0      2.730      3.558
REMARK  3 active torsions:
REMARK  status: ('A' for Active; 'I' for Inactive)
REMARK    1  A    between atoms: C_4  and  C_7 
REMARK    2  A    between atoms: C_7  and  C_8 
REMARK       I    between atoms: C_8  and  N_10 
REMARK    3  A    between atoms: N_10  and  C_11 
ROOT
ATOM      1  C   LIG d   1       6.516   0.005  -7.515  0.00  0.00     0.099 C 
ATOM      2  C   LIG d   1       7.781   0.606  -7.062  0.00  0.00     0.082 C 
ATOM      3  N   LIG d   1       8.757   1.070  -6.712  0.00  0.00    -0.195 NA
ATOM      4  H   LIG d   1       6.614  -1.080  -7.529  0.00  0.00     0.062 H 
ATOM      5  H   LIG d   1       6.282   0.363  -8.518  0.00  0.00     0.062 H 
ENDROOT
BRANCH   1   6
ATOM      6  N   LIG d   1       5.438   0.385  -6.598  0.00  0.00    -0.302 N 
ATOM      7  C   LIG d   1       4.362  -0.413  -6.455  0.00  0.00     0.218 C 
ATOM      8  O   LIG d   1       4.286  -1.447  -7.084  0.00  0.00    -0.275 OA
ATOM      9  H   LIG d   1       5.499   1.213  -6.095  0.00  0.00     0.150 HD
BRANCH   7  10
ATOM     10  C   LIG d   1       3.254  -0.022  -5.511  0.00  0.00     0.049 C 
ATOM     11  H   LIG d   1       2.359  -0.600  -5.744  0.00  0.00     0.041 H 
ATOM     12  H   LIG d   1       3.039   1.040  -5.624  0.00  0.00     0.041 H 
BRANCH  10  13
ATOM     13  C   LIG d   1       3.679  -0.301  -4.093  0.00  0.00    -0.039 A 
ATOM     14  C   LIG d   1       3.719  -1.603  -3.627  0.00  0.00    -0.058 A 
ATOM     15  C   LIG d   1       4.114  -1.859  -2.328  0.00  0.00    -0.061 A 
ATOM     16  H   LIG d   1       3.446  -2.418  -4.280  0.00  0.00     0.062 H 
ATOM     17  C   LIG d   1       4.459  -0.815  -1.491  0.00  0.00    -0.062 A 
ATOM     18  H   LIG d   1       4.149  -2.876  -1.965  0.00  0.00     0.062 H 
ATOM     19  C   LIG d   1       4.420   0.486  -1.957  0.00  0.00    -0.061 A 
ATOM     20  H   LIG d   1       4.764  -1.015  -0.474  0.00  0.00     0.062 H 
ATOM     21  C   LIG d   1       4.029   0.743  -3.258  0.00  0.00    -0.058 A 
ATOM     22  H   LIG d   1       4.693   1.303  -1.304  0.00  0.00     0.062 H 
ATOM     23  H   LIG d   1       3.998   1.759  -3.622  0.00  0.00     0.062 H 
ENDBRANCH  10  13
ENDBRANCH   7  10
ENDBRANCH   1   6
TORSDOF 3
ENDMDL
MODEL 8
REMARK VINA RESULT:      -5.0      2.416      6.098
REMARK  3 active torsions:
REMARK  status: ('A' for Active; 'I' for Inactive)
REMARK    1  A    between atoms: C_4  and  C_7 
REMARK    2  A    between atoms: C_7  and  C_8 
REMARK       I    between atoms: C_8  and  N_10 
REMARK    3  A    between atoms: N_10  and  C_11 
ROOT
ATOM      1  C   LIG d   1       4.601  -1.924  -4.518  0.00  0.00     0.099 C 
ATOM      2  C   LIG d   1       4.427  -1.729  -3.069  0.00  0.00     0.082 C 
ATOM      3  N   LIG d   1       4.293  -1.579  -1.951  0.00  0.00    -0.195 NA
ATOM      4  H   LIG d   1       4.544  -2.987  -4.751  0.00  0.00     0.062 H 
ATOM      5  H   LIG d   1       5.573  -1.536  -4.823  0.00  0.00     0.062 H 
ENDROOT
BRANCH   1   6
ATOM      6  N   LIG d   1       3.543  -1.209  -5.237  0.00  0.00    -0.302 N 
ATOM      7  C   LIG d   1       3.842  -0.109  -5.956  0.00  0.00     0.218 C 
ATOM      8  O   LIG d   1       4.986   0.289  -6.009  0.00  0.00    -0.275 OA
ATOM      9  H   LIG d   1       2.628  -1.528  -5.195  0.00  0.00     0.150 HD
BRANCH   7  10
ATOM     10  C   LIG d   1       2.754   0.625  -6.697  0.00  0.00     0.049 C 
ATOM     11  H   LIG d   1       2.617   1.612  -6.255  0.00  0.00     0.041 H 
ATOM     12  H   LIG d   1       1.823   0.064  -6.625  0.00  0.00     0.041 H 
BRANCH  10  13
ATOM     13  C   LIG d   1       3.142   0.772  -8.145  0.00  0.00    -0.039 A 
ATOM     14  C   LIG d   1       3.306  -0.352  -8.934  0.00  0.00    -0.058 A 
ATOM     15  C   LIG d   1       3.657  -0.216 -10.264  0.00  0.00    -0.061 A 
ATOM     16  H   LIG d   1       3.155  -1.334  -8.513  0.00  0.00     0.062 H 
ATOM     17  C   LIG d   1       3.854   1.041 -10.803  0.00  0.00    -0.062 A 
ATOM     18  H   LIG d   1       3.781  -1.093 -10.882  0.00  0.00     0.062 H 
ATOM     19  C   LIG d   1       3.690   2.165 -10.014  0.00  0.00    -0.061 A 
ATOM     20  H   LIG d   1       4.133   1.147 -11.841  0.00  0.00     0.062 H 
ATOM     21  C   LIG d   1       3.334   2.030  -8.685  0.00  0.00    -0.058 A 
ATOM     22  H   LIG d   1       3.840   3.148 -10.435  0.00  0.00     0.062 H 
ATOM     23  H   LIG d   1       3.206   2.907  -8.069  0.00  0.00     0.062 H 
ENDBRANCH  10  13
ENDBRANCH   7  10
ENDBRANCH   1   6
TORSDOF 3
ENDMDL
MODEL 9
REMARK VINA RESULT:      -4.9      4.256      5.184
REMARK  3 active torsions:
REMARK  status: ('A' for Active; 'I' for Inactive)
REMARK    1  A    between atoms: C_4  and  C_7 
REMARK    2  A    between atoms: C_7  and  C_8 
REMARK       I    between atoms: C_8  and  N_10 
REMARK    3  A    between atoms: N_10  and  C_11 
ROOT
ATOM      1  C   LIG d   1       9.324   0.348  -5.447  0.00  0.00     0.099 C 
ATOM      2  C   LIG d   1       9.903  -1.000  -5.330  0.00  0.00     0.082 C 
ATOM      3  N   LIG d   1      10.350  -2.041  -5.240  0.00  0.00    -0.195 NA
ATOM      4  H   LIG d   1       8.663   0.385  -6.313  0.00  0.00     0.062 H 
ATOM      5  H   LIG d   1      10.124   1.079  -5.568  0.00  0.00     0.062 H 
ENDROOT
BRANCH   1   6
ATOM      6  N   LIG d   1       8.559   0.659  -4.237  0.00  0.00    -0.302 N 
ATOM      7  C   LIG d   1       7.236   0.901  -4.319  0.00  0.00     0.218 C 
ATOM      8  O   LIG d   1       6.678   0.861  -5.395  0.00  0.00    -0.275 OA
ATOM      9  H   LIG d   1       9.006   0.691  -3.376  0.00  0.00     0.150 HD
BRANCH   7  10
ATOM     10  C   LIG d   1       6.450   1.220  -3.074  0.00  0.00     0.049 C 
ATOM     11  H   LIG d   1       6.073   2.241  -3.135  0.00  0.00     0.041 H 
ATOM     12  H   LIG d   1       7.095   1.123  -2.202  0.00  0.00     0.041 H 
BRANCH  10  13
ATOM     13  C   LIG d   1       5.292   0.263  -2.952  0.00  0.00    -0.039 A 
ATOM     14  C   LIG d   1       5.526  -1.079  -2.714  0.00  0.00    -0.058 A 
ATOM     15  C   LIG d   1       4.463  -1.955  -2.597  0.00  0.00    -0.061 A 
ATOM     16  H   LIG d   1       6.538  -1.441  -2.616  0.00  0.00     0.062 H 
ATOM     17  C   LIG d   1       3.168  -1.492  -2.727  0.00  0.00    -0.062 A 
ATOM     18  H   LIG d   1       4.645  -3.003  -2.408  0.00  0.00     0.062 H 
ATOM     19  C   LIG d   1       2.933  -0.150  -2.964  0.00  0.00    -0.061 A 
ATOM     20  H   LIG d   1       2.337  -2.177  -2.640  0.00  0.00     0.062 H 
ATOM     21  C   LIG d   1       3.996   0.727  -3.077  0.00  0.00    -0.058 A 
ATOM     22  H   LIG d   1       1.921   0.213  -3.062  0.00  0.00     0.062 H 
ATOM     23  H   LIG d   1       3.813   1.775  -3.262  0.00  0.00     0.062 H 
ENDBRANCH  10  13
ENDBRANCH   7  10
ENDBRANCH   1   6
TORSDOF 3
ENDMDL
MODEL 10
REMARK VINA RESULT:      -4.8      3.211      3.658
REMARK  3 active torsions:
REMARK  status: ('A' for Active; 'I' for Inactive)
REMARK    1  A    between atoms: C_4  and  C_7 
REMARK    2  A    between atoms: C_7  and  C_8 
REMARK       I    between atoms: C_8  and  N_10 
REMARK    3  A    between atoms: N_10  and  C_11 
ROOT
ATOM      1  C   LIG d   1       7.303   0.250  -7.379  0.00  0.00     0.099 C 
ATOM      2  C   LIG d   1       6.284  -0.706  -7.841  0.00  0.00     0.082 C 
ATOM      3  N   LIG d   1       5.496  -1.443  -8.197  0.00  0.00    -0.195 NA
ATOM      4  H   LIG d   1       7.432   1.033  -8.126  0.00  0.00     0.062 H 
ATOM      5  H   LIG d   1       8.250  -0.271  -7.231  0.00  0.00     0.062 H 
ENDROOT
BRANCH   1   6
ATOM      6  N   LIG d   1       6.874   0.850  -6.113  0.00  0.00    -0.302 N 
ATOM      7  C   LIG d   1       7.699   0.838  -5.048  0.00  0.00     0.218 C 
ATOM      8  O   LIG d   1       8.797   0.332  -5.136  0.00  0.00    -0.275 OA
ATOM      9  H   LIG d   1       5.995   1.255  -6.043  0.00  0.00     0.150 HD
BRANCH   7  10
ATOM     10  C   LIG d   1       7.257   1.456  -3.746  0.00  0.00     0.049 C 
ATOM     11  H   LIG d   1       6.906   2.472  -3.927  0.00  0.00     0.041 H 
ATOM     12  H   LIG d   1       8.096   1.480  -3.052  0.00  0.00     0.041 H 
BRANCH  10  13
ATOM     13  C   LIG d   1       6.139   0.636  -3.155  0.00  0.00    -0.039 A 
ATOM     14  C   LIG d   1       5.048   1.265  -2.584  0.00  0.00    -0.058 A 
ATOM     15  C   LIG d   1       4.020   0.512  -2.047  0.00  0.00    -0.061 A 
ATOM     16  H   LIG d   1       4.996   2.343  -2.561  0.00  0.00     0.062 H 
ATOM     17  C   LIG d   1       4.088  -0.868  -2.071  0.00  0.00    -0.062 A 
ATOM     18  H   LIG d   1       3.166   1.003  -1.604  0.00  0.00     0.062 H 
ATOM     19  C   LIG d   1       5.178  -1.497  -2.643  0.00  0.00    -0.061 A 
ATOM     20  H   LIG d   1       3.287  -1.456  -1.648  0.00  0.00     0.062 H 
ATOM     21  C   LIG d   1       6.204  -0.744  -3.184  0.00  0.00    -0.058 A 
ATOM     22  H   LIG d   1       5.230  -2.576  -2.665  0.00  0.00     0.062 H 
ATOM     23  H   LIG d   1       7.056  -1.235  -3.631  0.00  0.00     0.062 H 
ENDBRANCH  10  13
ENDBRANCH   7  10
ENDBRANCH   1   6
TORSDOF 3
ENDMDL
