MODEL 1
REMARK VINA RESULT:      -5.9      0.000      0.000
REMARK  10 active torsions:
REMARK  status: ('A' for Active; 'I' for Inactive)
REMARK    1  A    between atoms: C_1  and  C_2 
REMARK    2  A    between atoms: C_3  and  C_15 
REMARK    3  A    between atoms: C_9  and  O_14 
REMARK    4  A    between atoms: C_11  and  O_13 
REMARK    5  A    between atoms: C_15  and  C_16 
REMARK       I    between atoms: C_16  and  N_18 
REMARK    6  A    between atoms: N_18  and  C_19 
REMARK    7  A    between atoms: C_19  and  C_20 
REMARK    8  A    between atoms: C_20  and  C_26 
REMARK    9  A    between atoms: C_29  and  O_32 
REMARK   10  A    between atoms: O_32  and  C_33 
ROOT
ATOM      1  C   LIG d   1       5.669  -4.231  -9.046  0.00  0.00     0.021 C 
ATOM      2  H   LIG d   1       6.682  -4.154  -9.440  0.00  0.00     0.047 H 
ATOM      3  H   LIG d   1       5.163  -5.077  -9.510  0.00  0.00     0.047 H 
ENDROOT
BRANCH   1   4
ATOM      4  N   LIG d   1       5.722  -4.430  -7.596  0.00  0.00    -0.314 N 
ATOM      5  C   LIG d   1       6.913  -4.507  -6.969  0.00  0.00     0.218 C 
ATOM      6  O   LIG d   1       7.941  -4.413  -7.606  0.00  0.00    -0.276 OA
ATOM      7  H   LIG d   1       4.900  -4.506  -7.087  0.00  0.00     0.149 HD
BRANCH   5   8
ATOM      8  C   LIG d   1       6.968  -4.712  -5.477  0.00  0.00     0.056 C 
ATOM      9  H   LIG d   1       8.001  -4.637  -5.138  0.00  0.00     0.041 H 
ATOM     10  H   LIG d   1       6.576  -5.699  -5.231  0.00  0.00     0.041 H 
BRANCH   8  11
ATOM     11  C   LIG d   1       6.137  -3.656  -4.793  0.00  0.00     0.049 A 
ATOM     12  C   LIG d   1       6.706  -2.481  -4.418  0.00  0.00    -0.026 A 
ATOM     13  C   LIG d   1       5.901  -1.507  -3.775  0.00  0.00     0.062 A 
ATOM     14  C   LIG d   1       4.540  -1.778  -3.543  0.00  0.00     0.146 A 
ATOM     15  C   LIG d   1       6.449  -0.277  -3.369  0.00  0.00     0.131 A 
ATOM     16  O   LIG d   1       4.011  -2.960  -3.932  0.00  0.00    -0.422 OA
ATOM     17  C   LIG d   1       3.750  -0.829  -2.916  0.00  0.00     0.023 A 
ATOM     18  C   LIG d   1       4.770  -3.887  -4.542  0.00  0.00     0.341 A 
ATOM     19  O   LIG d   1       4.267  -4.943  -4.882  0.00  0.00    -0.245 OA
ATOM     20  C   LIG d   1       4.299   0.381  -2.519  0.00  0.00     0.124 A 
ATOM     21  H   LIG d   1       2.706  -1.032  -2.731  0.00  0.00     0.069 H 
ATOM     22  C   LIG d   1       5.644   0.656  -2.746  0.00  0.00     0.022 A 
ATOM     23  H   LIG d   1       6.061   1.602  -2.432  0.00  0.00     0.069 H 
BRANCH  12  24
ATOM     24  C   LIG d   1       8.167  -2.219  -4.679  0.00  0.00    -0.038 C 
ATOM     25  H   LIG d   1       8.355  -2.251  -5.751  0.00  0.00     0.028 H 
ATOM     26  H   LIG d   1       8.434  -1.235  -4.292  0.00  0.00     0.028 H 
ATOM     27  H   LIG d   1       8.767  -2.980  -4.182  0.00  0.00     0.028 H 
ENDBRANCH  12  24
BRANCH  20  28
ATOM     28  O   LIG d   1       3.518   1.307  -1.905  0.00  0.00    -0.506 OA
ATOM     29  H   LIG d   1       3.829   2.216  -2.010  0.00  0.00     0.292 HD
ENDBRANCH  20  28
BRANCH  15  30
ATOM     30  O   LIG d   1       7.761  -0.009  -3.590  0.00  0.00    -0.506 OA
ATOM     31  H   LIG d   1       7.953   0.930  -3.720  0.00  0.00     0.292 HD
ENDBRANCH  15  30
ENDBRANCH   8  11
ENDBRANCH   5   8
ENDBRANCH   1   4
BRANCH   1  32
ATOM     32  C   LIG d   1       4.902  -2.945  -9.356  0.00  0.00     0.015 C 
ATOM     33  C   LIG d   1       5.007  -2.633 -10.853  0.00  0.00    -0.018 C 
ATOM     34  C   LIG d   1       4.342  -3.761 -11.648  0.00  0.00     0.049 C 
ATOM     35  H   LIG d   1       4.502  -1.691 -11.065  0.00  0.00     0.030 H 
ATOM     36  H   LIG d   1       6.056  -2.557 -11.137  0.00  0.00     0.030 H 
ATOM     37  O   LIG d   1       2.981  -3.895 -11.233  0.00  0.00    -0.380 OA
ATOM     38  H   LIG d   1       4.376  -3.524 -12.711  0.00  0.00     0.056 H 
ATOM     39  H   LIG d   1       4.873  -4.695 -11.466  0.00  0.00     0.056 H 
ATOM     40  C   LIG d   1       2.823  -4.233  -9.854  0.00  0.00     0.049 C 
ATOM     41  C   LIG d   1       3.427  -3.125  -8.986  0.00  0.00    -0.018 C 
ATOM     42  H   LIG d   1       1.762  -4.337  -9.624  0.00  0.00     0.056 H 
ATOM     43  H   LIG d   1       3.333  -5.174  -9.648  0.00  0.00     0.056 H 
ATOM     44  H   LIG d   1       3.347  -3.401  -7.935  0.00  0.00     0.030 H 
ATOM     45  H   LIG d   1       2.890  -2.192  -9.161  0.00  0.00     0.030 H 
BRANCH  32  46
ATOM     46  C   LIG d   1       5.486  -1.805  -8.563  0.00  0.00    -0.039 A 
ATOM     47  C   LIG d   1       6.785  -1.394  -8.799  0.00  0.00    -0.054 A 
ATOM     48  C   LIG d   1       7.323  -0.349  -8.073  0.00  0.00    -0.020 A 
ATOM     49  H   LIG d   1       7.380  -1.890  -9.552  0.00  0.00     0.062 H 
ATOM     50  C   LIG d   1       6.559   0.289  -7.106  0.00  0.00     0.120 A 
ATOM     51  H   LIG d   1       8.338  -0.028  -8.258  0.00  0.00     0.065 H 
ATOM     52  C   LIG d   1       5.256  -0.125  -6.872  0.00  0.00    -0.020 A 
ATOM     53  C   LIG d   1       4.720  -1.167  -7.603  0.00  0.00    -0.054 A 
ATOM     54  H   LIG d   1       4.659   0.370  -6.119  0.00  0.00     0.065 H 
ATOM     55  H   LIG d   1       3.705  -1.487  -7.424  0.00  0.00     0.062 H 
BRANCH  50  56
ATOM     56  O   LIG d   1       7.086   1.318  -6.391  0.00  0.00    -0.495 OA
BRANCH  56  57
ATOM     57  C   LIG d   1       8.415   1.724  -6.722  0.00  0.00     0.079 C 
ATOM     58  H   LIG d   1       8.394   2.730  -7.141  0.00  0.00     0.066 H 
ATOM     59  H   LIG d   1       9.031   1.718  -5.822  0.00  0.00     0.066 H 
ATOM     60  H   LIG d   1       8.835   1.034  -7.454  0.00  0.00     0.066 H 
ENDBRANCH  56  57
ENDBRANCH  50  56
ENDBRANCH  32  46
ENDBRANCH   1  32
TORSDOF 10
ENDMDL
MODEL 2
REMARK VINA RESULT:      -5.9      2.009      6.748
REMARK  10 active torsions:
REMARK  status: ('A' for Active; 'I' for Inactive)
REMARK    1  A    between atoms: C_1  and  C_2 
REMARK    2  A    between atoms: C_3  and  C_15 
REMARK    3  A    between atoms: C_9  and  O_14 
REMARK    4  A    between atoms: C_11  and  O_13 
REMARK    5  A    between atoms: C_15  and  C_16 
REMARK       I    between atoms: C_16  and  N_18 
REMARK    6  A    between atoms: N_18  and  C_19 
REMARK    7  A    between atoms: C_19  and  C_20 
REMARK    8  A    between atoms: C_20  and  C_26 
REMARK    9  A    between atoms: C_29  and  O_32 
REMARK   10  A    between atoms: O_32  and  C_33 
ROOT
ATOM      1  C   LIG d   1       6.006   0.188  -4.275  0.00  0.00     0.021 C 
ATOM      2  H   LIG d   1       7.022  -0.078  -3.986  0.00  0.00     0.047 H 
ATOM      3  H   LIG d   1       5.734   1.137  -3.814  0.00  0.00     0.047 H 
ENDROOT
BRANCH   1   4
ATOM      4  N   LIG d   1       5.930   0.315  -5.733  0.00  0.00    -0.314 N 
ATOM      5  C   LIG d   1       7.049   0.217  -6.477  0.00  0.00     0.218 C 
ATOM      6  O   LIG d   1       8.120   0.024  -5.940  0.00  0.00    -0.276 OA
ATOM      7  H   LIG d   1       5.074   0.469  -6.162  0.00  0.00     0.149 HD
BRANCH   5   8
ATOM      8  C   LIG d   1       6.971   0.347  -7.976  0.00  0.00     0.056 C 
ATOM      9  H   LIG d   1       7.758  -0.254  -8.434  0.00  0.00     0.041 H 
ATOM     10  H   LIG d   1       7.104   1.391  -8.258  0.00  0.00     0.041 H 
BRANCH   8  11
ATOM     11  C   LIG d   1       5.626  -0.137  -8.454  0.00  0.00     0.049 A 
ATOM     12  C   LIG d   1       5.419  -1.462  -8.671  0.00  0.00    -0.026 A 
ATOM     13  C   LIG d   1       4.143  -1.889  -9.122  0.00  0.00     0.062 A 
ATOM     14  C   LIG d   1       3.130  -0.936  -9.333  0.00  0.00     0.146 A 
ATOM     15  C   LIG d   1       3.884  -3.250  -9.359  0.00  0.00     0.131 A 
ATOM     16  O   LIG d   1       3.377   0.374  -9.106  0.00  0.00    -0.422 OA
ATOM     17  C   LIG d   1       1.883  -1.348  -9.774  0.00  0.00     0.023 A 
ATOM     18  C   LIG d   1       4.584   0.784  -8.679  0.00  0.00     0.341 A 
ATOM     19  O   LIG d   1       4.779   1.970  -8.482  0.00  0.00    -0.245 OA
ATOM     20  C   LIG d   1       1.637  -2.693 -10.005  0.00  0.00     0.124 A 
ATOM     21  H   LIG d   1       1.102  -0.622  -9.941  0.00  0.00     0.069 H 
ATOM     22  C   LIG d   1       2.634  -3.640  -9.798  0.00  0.00     0.022 A 
ATOM     23  H   LIG d   1       2.431  -4.685  -9.981  0.00  0.00     0.069 H 
BRANCH  12  24
ATOM     24  C   LIG d   1       6.523  -2.460  -8.436  0.00  0.00    -0.038 C 
ATOM     25  H   LIG d   1       6.797  -2.927  -9.382  0.00  0.00     0.028 H 
ATOM     26  H   LIG d   1       7.391  -1.951  -8.017  0.00  0.00     0.028 H 
ATOM     27  H   LIG d   1       6.179  -3.225  -7.740  0.00  0.00     0.028 H 
ENDBRANCH  12  24
BRANCH  20  28
ATOM     28  O   LIG d   1       0.412  -3.089 -10.436  0.00  0.00    -0.506 OA
ATOM     29  H   LIG d   1       0.278  -2.986 -11.388  0.00  0.00     0.292 HD
ENDBRANCH  20  28
BRANCH  15  30
ATOM     30  O   LIG d   1       4.857  -4.175  -9.157  0.00  0.00    -0.506 OA
ATOM     31  H   LIG d   1       4.854  -4.895  -9.803  0.00  0.00     0.292 HD
ENDBRANCH  15  30
ENDBRANCH   8  11
ENDBRANCH   5   8
ENDBRANCH   1   4
BRANCH   1  32
ATOM     32  C   LIG d   1       5.040  -0.901  -3.807  0.00  0.00     0.015 C 
ATOM     33  C   LIG d   1       5.041  -0.964  -2.276  0.00  0.00    -0.018 C 
ATOM     34  C   LIG d   1       4.528   0.366  -1.719  0.00  0.00     0.049 C 
ATOM     35  H   LIG d   1       4.391  -1.774  -1.944  0.00  0.00     0.030 H 
ATOM     36  H   LIG d   1       6.056  -1.142  -1.919  0.00  0.00     0.030 H 
ATOM     37  O   LIG d   1       3.220   0.624  -2.233  0.00  0.00    -0.380 OA
ATOM     38  H   LIG d   1       4.486   0.312  -0.631  0.00  0.00     0.056 H 
ATOM     39  H   LIG d   1       5.202   1.169  -2.017  0.00  0.00     0.056 H 
ATOM     40  C   LIG d   1       3.166   0.740  -3.656  0.00  0.00     0.049 C 
ATOM     41  C   LIG d   1       3.624  -0.576  -4.292  0.00  0.00    -0.018 C 
ATOM     42  H   LIG d   1       2.143   0.955  -3.965  0.00  0.00     0.056 H 
ATOM     43  H   LIG d   1       3.821   1.548  -3.981  0.00  0.00     0.056 H 
ATOM     44  H   LIG d   1       3.626  -0.475  -5.378  0.00  0.00     0.030 H 
ATOM     45  H   LIG d   1       2.946  -1.377  -4.001  0.00  0.00     0.030 H 
BRANCH  32  46
ATOM     46  C   LIG d   1       5.472  -2.233  -4.366  0.00  0.00    -0.039 A 
ATOM     47  C   LIG d   1       6.765  -2.679  -4.165  0.00  0.00    -0.054 A 
ATOM     48  C   LIG d   1       7.163  -3.899  -4.675  0.00  0.00    -0.020 A 
ATOM     49  H   LIG d   1       7.464  -2.074  -3.606  0.00  0.00     0.062 H 
ATOM     50  C   LIG d   1       6.265  -4.677  -5.391  0.00  0.00     0.120 A 
ATOM     51  H   LIG d   1       8.173  -4.248  -4.517  0.00  0.00     0.065 H 
ATOM     52  C   LIG d   1       4.968  -4.227  -5.592  0.00  0.00    -0.020 A 
ATOM     53  C   LIG d   1       4.573  -3.008  -5.075  0.00  0.00    -0.054 A 
ATOM     54  H   LIG d   1       4.266  -4.830  -6.150  0.00  0.00     0.065 H 
ATOM     55  H   LIG d   1       3.563  -2.659  -5.227  0.00  0.00     0.062 H 
BRANCH  50  56
ATOM     56  O   LIG d   1       6.654  -5.878  -5.895  0.00  0.00    -0.495 OA
BRANCH  56  57
ATOM     57  C   LIG d   1       5.720  -6.954  -5.801  0.00  0.00     0.079 C 
ATOM     58  H   LIG d   1       5.172  -7.044  -6.738  0.00  0.00     0.066 H 
ATOM     59  H   LIG d   1       6.255  -7.883  -5.603  0.00  0.00     0.066 H 
ATOM     60  H   LIG d   1       5.021  -6.759  -4.988  0.00  0.00     0.066 H 
ENDBRANCH  56  57
ENDBRANCH  50  56
ENDBRANCH  32  46
ENDBRANCH   1  32
TORSDOF 10
ENDMDL
MODEL 3
REMARK VINA RESULT:      -5.6      2.180      6.754
REMARK  10 active torsions:
REMARK  status: ('A' for Active; 'I' for Inactive)
REMARK    1  A    between atoms: C_1  and  C_2 
REMARK    2  A    between atoms: C_3  and  C_15 
REMARK    3  A    between atoms: C_9  and  O_14 
REMARK    4  A    between atoms: C_11  and  O_13 
REMARK    5  A    between atoms: C_15  and  C_16 
REMARK       I    between atoms: C_16  and  N_18 
REMARK    6  A    between atoms: N_18  and  C_19 
REMARK    7  A    between atoms: C_19  and  C_20 
REMARK    8  A    between atoms: C_20  and  C_26 
REMARK    9  A    between atoms: C_29  and  O_32 
REMARK   10  A    between atoms: O_32  and  C_33 
ROOT
ATOM      1  C   LIG d   1       6.036   0.266  -4.249  0.00  0.00     0.021 C 
ATOM      2  H   LIG d   1       7.058   0.065  -3.928  0.00  0.00     0.047 H 
ATOM      3  H   LIG d   1       5.715   1.229  -3.853  0.00  0.00     0.047 H 
ENDROOT
BRANCH   1   4
ATOM      4  N   LIG d   1       5.981   0.296  -5.712  0.00  0.00    -0.314 N 
ATOM      5  C   LIG d   1       7.117   0.221  -6.432  0.00  0.00     0.218 C 
ATOM      6  O   LIG d   1       8.187   0.128  -5.868  0.00  0.00    -0.276 OA
ATOM      7  H   LIG d   1       5.125   0.371  -6.163  0.00  0.00     0.149 HD
BRANCH   5   8
ATOM      8  C   LIG d   1       7.060   0.252  -7.937  0.00  0.00     0.056 C 
ATOM      9  H   LIG d   1       7.973  -0.183  -8.344  0.00  0.00     0.041 H 
ATOM     10  H   LIG d   1       6.967   1.283  -8.277  0.00  0.00     0.041 H 
BRANCH   8  11
ATOM     11  C   LIG d   1       5.870  -0.543  -8.412  0.00  0.00     0.049 A 
ATOM     12  C   LIG d   1       4.742   0.097  -8.816  0.00  0.00    -0.026 A 
ATOM     13  C   LIG d   1       3.639  -0.677  -9.257  0.00  0.00     0.062 A 
ATOM     14  C   LIG d   1       3.737  -2.080  -9.266  0.00  0.00     0.146 A 
ATOM     15  C   LIG d   1       2.452  -0.056  -9.683  0.00  0.00     0.131 A 
ATOM     16  O   LIG d   1       4.878  -2.679  -8.856  0.00  0.00    -0.422 OA
ATOM     17  C   LIG d   1       2.661  -2.840  -9.696  0.00  0.00     0.023 A 
ATOM     18  C   LIG d   1       5.927  -1.951  -8.437  0.00  0.00     0.341 A 
ATOM     19  O   LIG d   1       6.942  -2.517  -8.074  0.00  0.00    -0.245 OA
ATOM     20  C   LIG d   1       1.495  -2.219 -10.114  0.00  0.00     0.124 A 
ATOM     21  H   LIG d   1       2.729  -3.917  -9.701  0.00  0.00     0.069 H 
ATOM     22  C   LIG d   1       1.391  -0.831 -10.108  0.00  0.00     0.022 A 
ATOM     23  H   LIG d   1       0.476  -0.359 -10.437  0.00  0.00     0.069 H 
BRANCH  12  24
ATOM     24  C   LIG d   1       4.665   1.601  -8.796  0.00  0.00    -0.038 C 
ATOM     25  H   LIG d   1       3.674   1.919  -9.119  0.00  0.00     0.028 H 
ATOM     26  H   LIG d   1       4.849   1.961  -7.783  0.00  0.00     0.028 H 
ATOM     27  H   LIG d   1       5.416   2.013  -9.470  0.00  0.00     0.028 H 
ENDBRANCH  12  24
BRANCH  20  28
ATOM     28  O   LIG d   1       0.444  -2.970 -10.534  0.00  0.00    -0.506 OA
ATOM     29  H   LIG d   1      -0.145  -3.254  -9.823  0.00  0.00     0.292 HD
ENDBRANCH  20  28
BRANCH  15  30
ATOM     30  O   LIG d   1       2.349   1.297  -9.678  0.00  0.00    -0.506 OA
ATOM     31  H   LIG d   1       1.569   1.630  -9.213  0.00  0.00     0.292 HD
ENDBRANCH  15  30
ENDBRANCH   8  11
ENDBRANCH   5   8
ENDBRANCH   1   4
BRANCH   1  32
ATOM     32  C   LIG d   1       5.111  -0.834  -3.726  0.00  0.00     0.015 C 
ATOM     33  C   LIG d   1       5.146  -0.847  -2.194  0.00  0.00    -0.018 C 
ATOM     34  C   LIG d   1       4.608   0.486  -1.668  0.00  0.00     0.049 C 
ATOM     35  H   LIG d   1       4.526  -1.663  -1.823  0.00  0.00     0.030 H 
ATOM     36  H   LIG d   1       6.172  -0.986  -1.853  0.00  0.00     0.030 H 
ATOM     37  O   LIG d   1       3.282   0.691  -2.161  0.00  0.00    -0.380 OA
ATOM     38  H   LIG d   1       4.590   0.465  -0.578  0.00  0.00     0.056 H 
ATOM     39  H   LIG d   1       5.252   1.297  -2.006  0.00  0.00     0.056 H 
ATOM     40  C   LIG d   1       3.195   0.759  -3.586  0.00  0.00     0.049 C 
ATOM     41  C   LIG d   1       3.677  -0.562  -4.190  0.00  0.00    -0.018 C 
ATOM     42  H   LIG d   1       2.161   0.937  -3.880  0.00  0.00     0.056 H 
ATOM     43  H   LIG d   1       3.821   1.575  -3.950  0.00  0.00     0.056 H 
ATOM     44  H   LIG d   1       3.654  -0.496  -5.278  0.00  0.00     0.030 H 
ATOM     45  H   LIG d   1       3.028  -1.372  -3.859  0.00  0.00     0.030 H 
BRANCH  32  46
ATOM     46  C   LIG d   1       5.569  -2.170  -4.251  0.00  0.00    -0.039 A 
ATOM     47  C   LIG d   1       4.682  -2.985  -4.929  0.00  0.00    -0.054 A 
ATOM     48  C   LIG d   1       5.099  -4.210  -5.413  0.00  0.00    -0.020 A 
ATOM     49  H   LIG d   1       3.662  -2.664  -5.082  0.00  0.00     0.062 H 
ATOM     50  C   LIG d   1       6.409  -4.623  -5.217  0.00  0.00     0.120 A 
ATOM     51  H   LIG d   1       4.406  -4.847  -5.943  0.00  0.00     0.065 H 
ATOM     52  C   LIG d   1       7.298  -3.802  -4.537  0.00  0.00    -0.020 A 
ATOM     53  C   LIG d   1       6.877  -2.576  -4.060  0.00  0.00    -0.054 A 
ATOM     54  H   LIG d   1       8.318  -4.121  -4.383  0.00  0.00     0.065 H 
ATOM     55  H   LIG d   1       7.569  -1.935  -3.534  0.00  0.00     0.062 H 
BRANCH  50  56
ATOM     56  O   LIG d   1       6.822  -5.827  -5.692  0.00  0.00    -0.495 OA
BRANCH  56  57
ATOM     57  C   LIG d   1       5.868  -6.891  -5.679  0.00  0.00     0.079 C 
ATOM     58  H   LIG d   1       5.397  -6.945  -4.698  0.00  0.00     0.066 H 
ATOM     59  H   LIG d   1       5.107  -6.705  -6.438  0.00  0.00     0.066 H 
ATOM     60  H   LIG d   1       6.371  -7.833  -5.894  0.00  0.00     0.066 H 
ENDBRANCH  56  57
ENDBRANCH  50  56
ENDBRANCH  32  46
ENDBRANCH   1  32
TORSDOF 10
ENDMDL
MODEL 4
REMARK VINA RESULT:      -5.5      2.772      6.555
REMARK  10 active torsions:
REMARK  status: ('A' for Active; 'I' for Inactive)
REMARK    1  A    between atoms: C_1  and  C_2 
REMARK    2  A    between atoms: C_3  and  C_15 
REMARK    3  A    between atoms: C_9  and  O_14 
REMARK    4  A    between atoms: C_11  and  O_13 
REMARK    5  A    between atoms: C_15  and  C_16 
REMARK       I    between atoms: C_16  and  N_18 
REMARK    6  A    between atoms: N_18  and  C_19 
REMARK    7  A    between atoms: C_19  and  C_20 
REMARK    8  A    between atoms: C_20  and  C_26 
REMARK    9  A    between atoms: C_29  and  O_32 
REMARK   10  A    between atoms: O_32  and  C_33 
ROOT
ATOM      1  C   LIG d   1       4.467  -0.438  -5.179  0.00  0.00     0.021 C 
ATOM      2  H   LIG d   1       3.786   0.395  -5.006  0.00  0.00     0.047 H 
ATOM      3  H   LIG d   1       3.957  -1.209  -5.757  0.00  0.00     0.047 H 
ENDROOT
BRANCH   1   4
ATOM      4  N   LIG d   1       5.638   0.034  -5.921  0.00  0.00    -0.314 N 
ATOM      5  C   LIG d   1       5.855  -0.393  -7.181  0.00  0.00     0.218 C 
ATOM      6  O   LIG d   1       5.081  -1.169  -7.700  0.00  0.00    -0.276 OA
ATOM      7  H   LIG d   1       6.257   0.654  -5.506  0.00  0.00     0.149 HD
BRANCH   5   8
ATOM      8  C   LIG d   1       7.060   0.093  -7.945  0.00  0.00     0.056 C 
ATOM      9  H   LIG d   1       6.901   1.126  -8.254  0.00  0.00     0.041 H 
ATOM     10  H   LIG d   1       7.207  -0.531  -8.827  0.00  0.00     0.041 H 
BRANCH   8  11
ATOM     11  C   LIG d   1       8.280   0.014  -7.063  0.00  0.00     0.049 A 
ATOM     12  C   LIG d   1       8.982  -1.146  -6.978  0.00  0.00    -0.026 A 
ATOM     13  C   LIG d   1      10.126  -1.192  -6.140  0.00  0.00     0.062 A 
ATOM     14  C   LIG d   1      10.504  -0.043  -5.422  0.00  0.00     0.146 A 
ATOM     15  C   LIG d   1      10.882  -2.371  -6.021  0.00  0.00     0.131 A 
ATOM     16  O   LIG d   1       9.778   1.093  -5.535  0.00  0.00    -0.422 OA
ATOM     17  C   LIG d   1      11.620  -0.082  -4.603  0.00  0.00     0.023 A 
ATOM     18  C   LIG d   1       8.693   1.142  -6.327  0.00  0.00     0.341 A 
ATOM     19  O   LIG d   1       8.058   2.178  -6.410  0.00  0.00    -0.245 OA
ATOM     20  C   LIG d   1      12.359  -1.250  -4.492  0.00  0.00     0.124 A 
ATOM     21  H   LIG d   1      11.913   0.795  -4.046  0.00  0.00     0.069 H 
ATOM     22  C   LIG d   1      11.991  -2.390  -5.199  0.00  0.00     0.022 A 
ATOM     23  H   LIG d   1      12.575  -3.295  -5.105  0.00  0.00     0.069 H 
BRANCH  12  24
ATOM     24  C   LIG d   1       8.554  -2.362  -7.758  0.00  0.00    -0.038 C 
ATOM     25  H   LIG d   1       7.847  -2.065  -8.533  0.00  0.00     0.028 H 
ATOM     26  H   LIG d   1       9.427  -2.823  -8.220  0.00  0.00     0.028 H 
ATOM     27  H   LIG d   1       8.078  -3.075  -7.086  0.00  0.00     0.028 H 
ENDBRANCH  12  24
BRANCH  20  28
ATOM     28  O   LIG d   1      13.452  -1.282  -3.687  0.00  0.00    -0.506 OA
ATOM     29  H   LIG d   1      13.247  -1.397  -2.749  0.00  0.00     0.292 HD
ENDBRANCH  20  28
BRANCH  15  30
ATOM     30  O   LIG d   1      10.524  -3.484  -6.711  0.00  0.00    -0.506 OA
ATOM     31  H   LIG d   1       9.709  -3.384  -7.222  0.00  0.00     0.292 HD
ENDBRANCH  15  30
ENDBRANCH   8  11
ENDBRANCH   5   8
ENDBRANCH   1   4
BRANCH   1  32
ATOM     32  C   LIG d   1       4.914  -1.019  -3.837  0.00  0.00     0.015 C 
ATOM     33  C   LIG d   1       5.519   0.092  -2.972  0.00  0.00    -0.018 C 
ATOM     34  C   LIG d   1       4.443   1.140  -2.677  0.00  0.00     0.049 C 
ATOM     35  H   LIG d   1       5.883  -0.332  -2.036  0.00  0.00     0.030 H 
ATOM     36  H   LIG d   1       6.346   0.559  -3.506  0.00  0.00     0.030 H 
ATOM     37  O   LIG d   1       3.335   0.513  -2.026  0.00  0.00    -0.380 OA
ATOM     38  H   LIG d   1       4.857   1.911  -2.027  0.00  0.00     0.056 H 
ATOM     39  H   LIG d   1       4.110   1.592  -3.610  0.00  0.00     0.056 H 
ATOM     40  C   LIG d   1       2.700  -0.502  -2.806  0.00  0.00     0.049 C 
ATOM     41  C   LIG d   1       3.706  -1.616  -3.108  0.00  0.00    -0.018 C 
ATOM     42  H   LIG d   1       1.857  -0.914  -2.251  0.00  0.00     0.056 H 
ATOM     43  H   LIG d   1       2.343  -0.072  -3.742  0.00  0.00     0.056 H 
ATOM     44  H   LIG d   1       3.236  -2.370  -3.740  0.00  0.00     0.030 H 
ATOM     45  H   LIG d   1       4.033  -2.074  -2.175  0.00  0.00     0.030 H 
BRANCH  32  46
ATOM     46  C   LIG d   1       5.945  -2.093  -4.070  0.00  0.00    -0.039 A 
ATOM     47  C   LIG d   1       5.637  -3.186  -4.860  0.00  0.00    -0.054 A 
ATOM     48  C   LIG d   1       6.580  -4.171  -5.076  0.00  0.00    -0.020 A 
ATOM     49  H   LIG d   1       4.658  -3.268  -5.309  0.00  0.00     0.062 H 
ATOM     50  C   LIG d   1       7.838  -4.065  -4.500  0.00  0.00     0.120 A 
ATOM     51  H   LIG d   1       6.340  -5.024  -5.693  0.00  0.00     0.065 H 
ATOM     52  C   LIG d   1       8.145  -2.967  -3.708  0.00  0.00    -0.020 A 
ATOM     53  C   LIG d   1       7.200  -1.982  -3.499  0.00  0.00    -0.054 A 
ATOM     54  H   LIG d   1       9.123  -2.882  -3.258  0.00  0.00     0.065 H 
ATOM     55  H   LIG d   1       7.439  -1.126  -2.887  0.00  0.00     0.062 H 
BRANCH  50  56
ATOM     56  O   LIG d   1       8.768  -5.033  -4.711  0.00  0.00    -0.495 OA
BRANCH  56  57
ATOM     57  C   LIG d   1       9.706  -5.271  -3.661  0.00  0.00     0.079 C 
ATOM     58  H   LIG d   1       9.345  -6.080  -3.027  0.00  0.00     0.066 H 
ATOM     59  H   LIG d   1      10.670  -5.548  -4.090  0.00  0.00     0.066 H 
ATOM     60  H   LIG d   1       9.822  -4.366  -3.064  0.00  0.00     0.066 H 
ENDBRANCH  56  57
ENDBRANCH  50  56
ENDBRANCH  32  46
ENDBRANCH   1  32
TORSDOF 10
ENDMDL
MODEL 5
REMARK VINA RESULT:      -5.5      2.234      7.437
REMARK  10 active torsions:
REMARK  status: ('A' for Active; 'I' for Inactive)
REMARK    1  A    between atoms: C_1  and  C_2 
REMARK    2  A    between atoms: C_3  and  C_15 
REMARK    3  A    between atoms: C_9  and  O_14 
REMARK    4  A    between atoms: C_11  and  O_13 
REMARK    5  A    between atoms: C_15  and  C_16 
REMARK       I    between atoms: C_16  and  N_18 
REMARK    6  A    between atoms: N_18  and  C_19 
REMARK    7  A    between atoms: C_19  and  C_20 
REMARK    8  A    between atoms: C_20  and  C_26 
REMARK    9  A    between atoms: C_29  and  O_32 
REMARK   10  A    between atoms: O_32  and  C_33 
ROOT
ATOM      1  C   LIG d   1       4.097  -0.405  -4.739  0.00  0.00     0.021 C 
ATOM      2  H   LIG d   1       4.064   0.676  -4.605  0.00  0.00     0.047 H 
ATOM      3  H   LIG d   1       3.117  -0.827  -4.521  0.00  0.00     0.047 H 
ENDROOT
BRANCH   1   4
ATOM      4  N   LIG d   1       4.464  -0.715  -6.123  0.00  0.00    -0.314 N 
ATOM      5  C   LIG d   1       3.917  -0.017  -7.138  0.00  0.00     0.218 C 
ATOM      6  O   LIG d   1       3.119   0.867  -6.906  0.00  0.00    -0.276 OA
ATOM      7  H   LIG d   1       5.101  -1.422  -6.308  0.00  0.00     0.149 HD
BRANCH   5   8
ATOM      8  C   LIG d   1       4.295  -0.336  -8.561  0.00  0.00     0.056 C 
ATOM      9  H   LIG d   1       5.369  -0.206  -8.690  0.00  0.00     0.041 H 
ATOM     10  H   LIG d   1       3.765   0.336  -9.237  0.00  0.00     0.041 H 
BRANCH   8  11
ATOM     11  C   LIG d   1       3.920  -1.762  -8.875  0.00  0.00     0.049 A 
ATOM     12  C   LIG d   1       2.731  -2.037  -9.471  0.00  0.00    -0.026 A 
ATOM     13  C   LIG d   1       2.405  -3.388  -9.753  0.00  0.00     0.062 A 
ATOM     14  C   LIG d   1       3.315  -4.406  -9.411  0.00  0.00     0.146 A 
ATOM     15  C   LIG d   1       1.185  -3.719 -10.368  0.00  0.00     0.131 A 
ATOM     16  O   LIG d   1       4.489  -4.090  -8.819  0.00  0.00    -0.422 OA
ATOM     17  C   LIG d   1       3.001  -5.727  -9.685  0.00  0.00     0.023 A 
ATOM     18  C   LIG d   1       4.803  -2.811  -8.549  0.00  0.00     0.341 A 
ATOM     19  O   LIG d   1       5.867  -2.555  -8.015  0.00  0.00    -0.245 OA
ATOM     20  C   LIG d   1       1.795  -6.043 -10.292  0.00  0.00     0.124 A 
ATOM     21  H   LIG d   1       3.693  -6.512  -9.421  0.00  0.00     0.069 H 
ATOM     22  C   LIG d   1       0.890  -5.042 -10.632  0.00  0.00     0.022 A 
ATOM     23  H   LIG d   1      -0.046  -5.301 -11.105  0.00  0.00     0.069 H 
BRANCH  12  24
ATOM     24  C   LIG d   1       1.776  -0.927  -9.825  0.00  0.00    -0.038 C 
ATOM     25  H   LIG d   1       0.824  -1.092  -9.320  0.00  0.00     0.028 H 
ATOM     26  H   LIG d   1       2.195   0.028  -9.509  0.00  0.00     0.028 H 
ATOM     27  H   LIG d   1       1.617  -0.916 -10.903  0.00  0.00     0.028 H 
ENDBRANCH  12  24
BRANCH  20  28
ATOM     28  O   LIG d   1       1.493  -7.340 -10.557  0.00  0.00    -0.506 OA
ATOM     29  H   LIG d   1       1.556  -7.923  -9.788  0.00  0.00     0.292 HD
ENDBRANCH  20  28
BRANCH  15  30
ATOM     30  O   LIG d   1       0.302  -2.743 -10.701  0.00  0.00    -0.506 OA
ATOM     31  H   LIG d   1       0.450  -1.906 -10.241  0.00  0.00     0.292 HD
ENDBRANCH  15  30
ENDBRANCH   8  11
ENDBRANCH   5   8
ENDBRANCH   1   4
BRANCH   1  32
ATOM     32  C   LIG d   1       5.134  -1.006  -3.790  0.00  0.00     0.015 C 
ATOM     33  C   LIG d   1       6.339  -0.065  -3.684  0.00  0.00    -0.018 C 
ATOM     34  C   LIG d   1       5.886   1.264  -3.077  0.00  0.00     0.049 C 
ATOM     35  H   LIG d   1       7.099  -0.518  -3.047  0.00  0.00     0.030 H 
ATOM     36  H   LIG d   1       6.753   0.110  -4.677  0.00  0.00     0.030 H 
ATOM     37  O   LIG d   1       5.292   1.025  -1.798  0.00  0.00    -0.380 OA
ATOM     38  H   LIG d   1       6.747   1.922  -2.959  0.00  0.00     0.056 H 
ATOM     39  H   LIG d   1       5.156   1.735  -3.735  0.00  0.00     0.056 H 
ATOM     40  C   LIG d   1       4.133   0.190  -1.841  0.00  0.00     0.049 C 
ATOM     41  C   LIG d   1       4.516  -1.183  -2.400  0.00  0.00    -0.018 C 
ATOM     42  H   LIG d   1       3.731   0.074  -0.835  0.00  0.00     0.056 H 
ATOM     43  H   LIG d   1       3.379   0.647  -2.483  0.00  0.00     0.056 H 
ATOM     44  H   LIG d   1       3.625  -1.807  -2.475  0.00  0.00     0.030 H 
ATOM     45  H   LIG d   1       5.239  -1.657  -1.737  0.00  0.00     0.030 H 
BRANCH  32  46
ATOM     46  C   LIG d   1       5.585  -2.344  -4.317  0.00  0.00    -0.039 A 
ATOM     47  C   LIG d   1       6.933  -2.605  -4.477  0.00  0.00    -0.054 A 
ATOM     48  C   LIG d   1       7.348  -3.830  -4.959  0.00  0.00    -0.020 A 
ATOM     49  H   LIG d   1       7.662  -1.849  -4.223  0.00  0.00     0.062 H 
ATOM     50  C   LIG d   1       6.412  -4.801  -5.283  0.00  0.00     0.120 A 
ATOM     51  H   LIG d   1       8.402  -4.034  -5.083  0.00  0.00     0.065 H 
ATOM     52  C   LIG d   1       5.059  -4.537  -5.122  0.00  0.00    -0.020 A 
ATOM     53  C   LIG d   1       4.648  -3.312  -4.634  0.00  0.00    -0.054 A 
ATOM     54  H   LIG d   1       4.327  -5.291  -5.375  0.00  0.00     0.065 H 
ATOM     55  H   LIG d   1       3.597  -3.107  -4.505  0.00  0.00     0.062 H 
BRANCH  50  56
ATOM     56  O   LIG d   1       6.818  -6.008  -5.758  0.00  0.00    -0.495 OA
BRANCH  56  57
ATOM     57  C   LIG d   1       5.909  -7.101  -5.616  0.00  0.00     0.079 C 
ATOM     58  H   LIG d   1       5.240  -6.910  -4.777  0.00  0.00     0.066 H 
ATOM     59  H   LIG d   1       5.324  -7.209  -6.530  0.00  0.00     0.066 H 
ATOM     60  H   LIG d   1       6.469  -8.018  -5.432  0.00  0.00     0.066 H 
ENDBRANCH  56  57
ENDBRANCH  50  56
ENDBRANCH  32  46
ENDBRANCH   1  32
TORSDOF 10
ENDMDL
MODEL 6
REMARK VINA RESULT:      -5.4      2.947      6.436
REMARK  10 active torsions:
REMARK  status: ('A' for Active; 'I' for Inactive)
REMARK    1  A    between atoms: C_1  and  C_2 
REMARK    2  A    between atoms: C_3  and  C_15 
REMARK    3  A    between atoms: C_9  and  O_14 
REMARK    4  A    between atoms: C_11  and  O_13 
REMARK    5  A    between atoms: C_15  and  C_16 
REMARK       I    between atoms: C_16  and  N_18 
REMARK    6  A    between atoms: N_18  and  C_19 
REMARK    7  A    between atoms: C_19  and  C_20 
REMARK    8  A    between atoms: C_20  and  C_26 
REMARK    9  A    between atoms: C_29  and  O_32 
REMARK   10  A    between atoms: O_32  and  C_33 
ROOT
ATOM      1  C   LIG d   1       4.628  -0.367  -5.129  0.00  0.00     0.021 C 
ATOM      2  H   LIG d   1       3.949   0.463  -4.932  0.00  0.00     0.047 H 
ATOM      3  H   LIG d   1       4.132  -1.097  -5.767  0.00  0.00     0.047 H 
ENDROOT
BRANCH   1   4
ATOM      4  N   LIG d   1       5.829   0.133  -5.802  0.00  0.00    -0.314 N 
ATOM      5  C   LIG d   1       6.093  -0.234  -7.071  0.00  0.00     0.218 C 
ATOM      6  O   LIG d   1       5.336  -0.980  -7.656  0.00  0.00    -0.276 OA
ATOM      7  H   LIG d   1       6.434   0.730  -5.334  0.00  0.00     0.149 HD
BRANCH   5   8
ATOM      8  C   LIG d   1       7.328   0.281  -7.764  0.00  0.00     0.056 C 
ATOM      9  H   LIG d   1       7.292   1.370  -7.809  0.00  0.00     0.041 H 
ATOM     10  H   LIG d   1       7.372  -0.122  -8.776  0.00  0.00     0.041 H 
BRANCH   8  11
ATOM     11  C   LIG d   1       8.552  -0.150  -6.997  0.00  0.00     0.049 A 
ATOM     12  C   LIG d   1       9.226   0.749  -6.234  0.00  0.00    -0.026 A 
ATOM     13  C   LIG d   1      10.375   0.316  -5.524  0.00  0.00     0.062 A 
ATOM     14  C   LIG d   1      10.787  -1.026  -5.627  0.00  0.00     0.146 A 
ATOM     15  C   LIG d   1      11.104   1.211  -4.722  0.00  0.00     0.131 A 
ATOM     16  O   LIG d   1      10.088  -1.889  -6.398  0.00  0.00    -0.422 OA
ATOM     17  C   LIG d   1      11.909  -1.453  -4.936  0.00  0.00     0.023 A 
ATOM     18  C   LIG d   1       8.998  -1.484  -7.073  0.00  0.00     0.341 A 
ATOM     19  O   LIG d   1       8.388  -2.283  -7.760  0.00  0.00    -0.245 OA
ATOM     20  C   LIG d   1      12.621  -0.562  -4.147  0.00  0.00     0.124 A 
ATOM     21  H   LIG d   1      12.233  -2.480  -5.014  0.00  0.00     0.069 H 
ATOM     22  C   LIG d   1      12.219   0.766  -4.041  0.00  0.00     0.022 A 
ATOM     23  H   LIG d   1      12.782   1.451  -3.423  0.00  0.00     0.069 H 
BRANCH  12  24
ATOM     24  C   LIG d   1       8.762   2.179  -6.142  0.00  0.00    -0.038 C 
ATOM     25  H   LIG d   1       7.998   2.362  -6.897  0.00  0.00     0.028 H 
ATOM     26  H   LIG d   1       8.346   2.364  -5.151  0.00  0.00     0.028 H 
ATOM     27  H   LIG d   1       9.607   2.847  -6.312  0.00  0.00     0.028 H 
ENDBRANCH  12  24
BRANCH  20  28
ATOM     28  O   LIG d   1      13.720  -0.988  -3.472  0.00  0.00    -0.506 OA
ATOM     29  H   LIG d   1      14.102  -1.806  -3.820  0.00  0.00     0.292 HD
ENDBRANCH  20  28
BRANCH  15  30
ATOM     30  O   LIG d   1      10.713   2.507  -4.617  0.00  0.00    -0.506 OA
ATOM     31  H   LIG d   1       9.854   2.692  -5.021  0.00  0.00     0.292 HD
ENDBRANCH  15  30
ENDBRANCH   8  11
ENDBRANCH   5   8
ENDBRANCH   1   4
BRANCH   1  32
ATOM     32  C   LIG d   1       5.023  -1.029  -3.807  0.00  0.00     0.015 C 
ATOM     33  C   LIG d   1       5.644   0.017  -2.875  0.00  0.00    -0.018 C 
ATOM     34  C   LIG d   1       4.598   1.086  -2.552  0.00  0.00     0.049 C 
ATOM     35  H   LIG d   1       5.971  -0.465  -1.954  0.00  0.00     0.030 H 
ATOM     36  H   LIG d   1       6.500   0.481  -3.367  0.00  0.00     0.030 H 
ATOM     37  O   LIG d   1       3.454   0.467  -1.959  0.00  0.00    -0.380 OA
ATOM     38  H   LIG d   1       5.022   1.809  -1.855  0.00  0.00     0.056 H 
ATOM     39  H   LIG d   1       4.302   1.595  -3.469  0.00  0.00     0.056 H 
ATOM     40  C   LIG d   1       2.804  -0.485  -2.802  0.00  0.00     0.049 C 
ATOM     41  C   LIG d   1       3.778  -1.618  -3.137  0.00  0.00    -0.018 C 
ATOM     42  H   LIG d   1       1.934  -0.894  -2.287  0.00  0.00     0.056 H 
ATOM     43  H   LIG d   1       2.484   0.003  -3.723  0.00  0.00     0.056 H 
ATOM     44  H   LIG d   1       3.298  -2.323  -3.816  0.00  0.00     0.030 H 
ATOM     45  H   LIG d   1       4.067  -2.132  -2.221  0.00  0.00     0.030 H 
BRANCH  32  46
ATOM     46  C   LIG d   1       6.022  -2.126  -4.071  0.00  0.00    -0.039 A 
ATOM     47  C   LIG d   1       5.673  -3.199  -4.869  0.00  0.00    -0.054 A 
ATOM     48  C   LIG d   1       6.588  -4.205  -5.113  0.00  0.00    -0.020 A 
ATOM     49  H   LIG d   1       4.686  -3.251  -5.303  0.00  0.00     0.062 H 
ATOM     50  C   LIG d   1       7.857  -4.139  -4.556  0.00  0.00     0.120 A 
ATOM     51  H   LIG d   1       6.315  -5.044  -5.737  0.00  0.00     0.065 H 
ATOM     52  C   LIG d   1       8.204  -3.060  -3.756  0.00  0.00    -0.020 A 
ATOM     53  C   LIG d   1       7.288  -2.053  -3.519  0.00  0.00    -0.054 A 
ATOM     54  H   LIG d   1       9.191  -3.006  -3.320  0.00  0.00     0.065 H 
ATOM     55  H   LIG d   1       7.559  -1.212  -2.900  0.00  0.00     0.062 H 
BRANCH  50  56
ATOM     56  O   LIG d   1       8.758  -5.128  -4.794  0.00  0.00    -0.495 OA
BRANCH  56  57
ATOM     57  C   LIG d   1      10.119  -4.861  -4.451  0.00  0.00     0.079 C 
ATOM     58  H   LIG d   1      10.333  -5.275  -3.466  0.00  0.00     0.066 H 
ATOM     59  H   LIG d   1      10.776  -5.321  -5.189  0.00  0.00     0.066 H 
ATOM     60  H   LIG d   1      10.287  -3.785  -4.437  0.00  0.00     0.066 H 
ENDBRANCH  56  57
ENDBRANCH  50  56
ENDBRANCH  32  46
ENDBRANCH   1  32
TORSDOF 10
ENDMDL
MODEL 7
REMARK VINA RESULT:      -5.3      8.083     11.778
REMARK  10 active torsions:
REMARK  status: ('A' for Active; 'I' for Inactive)
REMARK    1  A    between atoms: C_1  and  C_2 
REMARK    2  A    between atoms: C_3  and  C_15 
REMARK    3  A    between atoms: C_9  and  O_14 
REMARK    4  A    between atoms: C_11  and  O_13 
REMARK    5  A    between atoms: C_15  and  C_16 
REMARK       I    between atoms: C_16  and  N_18 
REMARK    6  A    between atoms: N_18  and  C_19 
REMARK    7  A    between atoms: C_19  and  C_20 
REMARK    8  A    between atoms: C_20  and  C_26 
REMARK    9  A    between atoms: C_29  and  O_32 
REMARK   10  A    between atoms: O_32  and  C_33 
ROOT
ATOM      1  C   LIG d   1      11.849   4.096  -4.365  0.00  0.00     0.021 C 
ATOM      2  H   LIG d   1      11.875   3.396  -5.201  0.00  0.00     0.047 H 
ATOM      3  H   LIG d   1      12.580   3.792  -3.616  0.00  0.00     0.047 H 
ENDROOT
BRANCH   1   4
ATOM      4  N   LIG d   1      12.173   5.442  -4.844  0.00  0.00    -0.314 N 
ATOM      5  C   LIG d   1      13.286   6.064  -4.407  0.00  0.00     0.218 C 
ATOM      6  O   LIG d   1      14.019   5.509  -3.616  0.00  0.00    -0.276 OA
ATOM      7  H   LIG d   1      11.586   5.885  -5.476  0.00  0.00     0.149 HD
BRANCH   5   8
ATOM      8  C   LIG d   1      13.619   7.448  -4.900  0.00  0.00     0.056 C 
ATOM      9  H   LIG d   1      13.902   7.400  -5.952  0.00  0.00     0.041 H 
ATOM     10  H   LIG d   1      14.449   7.851  -4.319  0.00  0.00     0.041 H 
BRANCH   8  11
ATOM     11  C   LIG d   1      12.415   8.341  -4.743  0.00  0.00     0.049 A 
ATOM     12  C   LIG d   1      12.174   8.956  -3.556  0.00  0.00    -0.026 A 
ATOM     13  C   LIG d   1      11.034   9.790  -3.437  0.00  0.00     0.062 A 
ATOM     14  C   LIG d   1      10.183   9.961  -4.545  0.00  0.00     0.146 A 
ATOM     15  C   LIG d   1      10.746  10.445  -2.227  0.00  0.00     0.131 A 
ATOM     16  O   LIG d   1      10.458   9.331  -5.710  0.00  0.00    -0.422 OA
ATOM     17  C   LIG d   1       9.068  10.775  -4.434  0.00  0.00     0.023 A 
ATOM     18  C   LIG d   1      11.538   8.539  -5.828  0.00  0.00     0.341 A 
ATOM     19  O   LIG d   1      11.760   7.985  -6.889  0.00  0.00    -0.245 OA
ATOM     20  C   LIG d   1       8.793  11.416  -3.236  0.00  0.00     0.124 A 
ATOM     21  H   LIG d   1       8.409  10.906  -5.279  0.00  0.00     0.069 H 
ATOM     22  C   LIG d   1       9.629  11.252  -2.137  0.00  0.00     0.022 A 
ATOM     23  H   LIG d   1       9.405  11.758  -1.209  0.00  0.00     0.069 H 
BRANCH  12  24
ATOM     24  C   LIG d   1      13.103   8.754  -2.386  0.00  0.00    -0.038 C 
ATOM     25  H   LIG d   1      14.071   9.200  -2.611  0.00  0.00     0.028 H 
ATOM     26  H   LIG d   1      12.680   9.230  -1.501  0.00  0.00     0.028 H 
ATOM     27  H   LIG d   1      13.228   7.688  -2.201  0.00  0.00     0.028 H 
ENDBRANCH  12  24
BRANCH  20  28
ATOM     28  O   LIG d   1       7.697  12.213  -3.134  0.00  0.00    -0.506 OA
ATOM     29  H   LIG d   1       6.874  11.731  -2.974  0.00  0.00     0.292 HD
ENDBRANCH  20  28
BRANCH  15  30
ATOM     30  O   LIG d   1      11.562  10.285  -1.154  0.00  0.00    -0.506 OA
ATOM     31  H   LIG d   1      12.501  10.240  -1.378  0.00  0.00     0.292 HD
ENDBRANCH  15  30
ENDBRANCH   8  11
ENDBRANCH   5   8
ENDBRANCH   1   4
BRANCH   1  32
ATOM     32  C   LIG d   1      10.452   4.098  -3.743  0.00  0.00     0.015 C 
ATOM     33  C   LIG d   1       9.415   4.449  -4.815  0.00  0.00    -0.018 C 
ATOM     34  C   LIG d   1       9.427   3.368  -5.899  0.00  0.00     0.049 C 
ATOM     35  H   LIG d   1       8.425   4.500  -4.361  0.00  0.00     0.030 H 
ATOM     36  H   LIG d   1       9.661   5.414  -5.259  0.00  0.00     0.030 H 
ATOM     37  O   LIG d   1       9.158   2.097  -5.305  0.00  0.00    -0.380 OA
ATOM     38  H   LIG d   1       8.661   3.591  -6.642  0.00  0.00     0.056 H 
ATOM     39  H   LIG d   1      10.404   3.347  -6.380  0.00  0.00     0.056 H 
ATOM     40  C   LIG d   1      10.122   1.694  -4.329  0.00  0.00     0.049 C 
ATOM     41  C   LIG d   1      10.138   2.708  -3.182  0.00  0.00    -0.018 C 
ATOM     42  H   LIG d   1       9.858   0.710  -3.941  0.00  0.00     0.056 H 
ATOM     43  H   LIG d   1      11.109   1.650  -4.789  0.00  0.00     0.056 H 
ATOM     44  H   LIG d   1      10.904   2.427  -2.458  0.00  0.00     0.030 H 
ATOM     45  H   LIG d   1       9.163   2.723  -2.695  0.00  0.00     0.030 H 
BRANCH  32  46
ATOM     46  C   LIG d   1      10.395   5.116  -2.634  0.00  0.00    -0.039 A 
ATOM     47  C   LIG d   1       9.532   6.192  -2.728  0.00  0.00    -0.054 A 
ATOM     48  C   LIG d   1       9.477   7.126  -1.712  0.00  0.00    -0.020 A 
ATOM     49  H   LIG d   1       8.898   6.301  -3.596  0.00  0.00     0.062 H 
ATOM     50  C   LIG d   1      10.290   6.985  -0.596  0.00  0.00     0.120 A 
ATOM     51  H   LIG d   1       8.802   7.966  -1.786  0.00  0.00     0.065 H 
ATOM     52  C   LIG d   1      11.156   5.905  -0.505  0.00  0.00    -0.020 A 
ATOM     53  C   LIG d   1      11.203   4.970  -1.521  0.00  0.00    -0.054 A 
ATOM     54  H   LIG d   1      11.791   5.793   0.363  0.00  0.00     0.065 H 
ATOM     55  H   LIG d   1      11.873   4.127  -1.448  0.00  0.00     0.062 H 
BRANCH  50  56
ATOM     56  O   LIG d   1      10.239   7.903   0.404  0.00  0.00    -0.495 OA
BRANCH  56  57
ATOM     57  C   LIG d   1      11.345   7.941   1.307  0.00  0.00     0.079 C 
ATOM     58  H   LIG d   1      11.537   6.938   1.688  0.00  0.00     0.066 H 
ATOM     59  H   LIG d   1      12.229   8.307   0.785  0.00  0.00     0.066 H 
ATOM     60  H   LIG d   1      11.113   8.607   2.138  0.00  0.00     0.066 H 
ENDBRANCH  56  57
ENDBRANCH  50  56
ENDBRANCH  32  46
ENDBRANCH   1  32
TORSDOF 10
ENDMDL
MODEL 8
REMARK VINA RESULT:      -5.3      2.617      7.005
REMARK  10 active torsions:
REMARK  status: ('A' for Active; 'I' for Inactive)
REMARK    1  A    between atoms: C_1  and  C_2 
REMARK    2  A    between atoms: C_3  and  C_15 
REMARK    3  A    between atoms: C_9  and  O_14 
REMARK    4  A    between atoms: C_11  and  O_13 
REMARK    5  A    between atoms: C_15  and  C_16 
REMARK       I    between atoms: C_16  and  N_18 
REMARK    6  A    between atoms: N_18  and  C_19 
REMARK    7  A    between atoms: C_19  and  C_20 
REMARK    8  A    between atoms: C_20  and  C_26 
REMARK    9  A    between atoms: C_29  and  O_32 
REMARK   10  A    between atoms: O_32  and  C_33 
ROOT
ATOM      1  C   LIG d   1       3.754  -0.072  -4.797  0.00  0.00     0.021 C 
ATOM      2  H   LIG d   1       4.024   0.975  -4.933  0.00  0.00     0.047 H 
ATOM      3  H   LIG d   1       2.974  -0.150  -4.040  0.00  0.00     0.047 H 
ENDROOT
BRANCH   1   4
ATOM      4  N   LIG d   1       3.261  -0.618  -6.063  0.00  0.00    -0.314 N 
ATOM      5  C   LIG d   1       2.897   0.213  -7.060  0.00  0.00     0.218 C 
ATOM      6  O   LIG d   1       2.977   1.414  -6.908  0.00  0.00    -0.276 OA
ATOM      7  H   LIG d   1       3.196  -1.579  -6.184  0.00  0.00     0.149 HD
BRANCH   5   8
ATOM      8  C   LIG d   1       2.389  -0.349  -8.363  0.00  0.00     0.056 C 
ATOM      9  H   LIG d   1       1.678   0.348  -8.806  0.00  0.00     0.041 H 
ATOM     10  H   LIG d   1       1.896  -1.303  -8.180  0.00  0.00     0.041 H 
BRANCH   8  11
ATOM     11  C   LIG d   1       3.546  -0.553  -9.307  0.00  0.00     0.049 A 
ATOM     12  C   LIG d   1       4.142  -1.771  -9.398  0.00  0.00    -0.026 A 
ATOM     13  C   LIG d   1       5.229  -1.934 -10.294  0.00  0.00     0.062 A 
ATOM     14  C   LIG d   1       5.662  -0.838 -11.063  0.00  0.00     0.146 A 
ATOM     15  C   LIG d   1       5.875  -3.176 -10.420  0.00  0.00     0.131 A 
ATOM     16  O   LIG d   1       5.042   0.357 -10.943  0.00  0.00    -0.422 OA
ATOM     17  C   LIG d   1       6.724  -0.993 -11.940  0.00  0.00     0.023 A 
ATOM     18  C   LIG d   1       4.011   0.518 -10.095  0.00  0.00     0.341 A 
ATOM     19  O   LIG d   1       3.472   1.606 -10.008  0.00  0.00    -0.245 OA
ATOM     20  C   LIG d   1       7.355  -2.222 -12.057  0.00  0.00     0.124 A 
ATOM     21  H   LIG d   1       7.063  -0.155 -12.530  0.00  0.00     0.069 H 
ATOM     22  C   LIG d   1       6.931  -3.310 -11.300  0.00  0.00     0.022 A 
ATOM     23  H   LIG d   1       7.431  -4.262 -11.400  0.00  0.00     0.069 H 
BRANCH  12  24
ATOM     24  C   LIG d   1       3.657  -2.927  -8.562  0.00  0.00    -0.038 C 
ATOM     25  H   LIG d   1       4.204  -3.828  -8.837  0.00  0.00     0.028 H 
ATOM     26  H   LIG d   1       3.824  -2.707  -7.507  0.00  0.00     0.028 H 
ATOM     27  H   LIG d   1       2.593  -3.081  -8.738  0.00  0.00     0.028 H 
ENDBRANCH  12  24
BRANCH  20  28
ATOM     28  O   LIG d   1       8.394  -2.366 -12.919  0.00  0.00    -0.506 OA
ATOM     29  H   LIG d   1       8.474  -3.253 -13.294  0.00  0.00     0.292 HD
ENDBRANCH  20  28
BRANCH  15  30
ATOM     30  O   LIG d   1       5.464  -4.238  -9.682  0.00  0.00    -0.506 OA
ATOM     31  H   LIG d   1       4.541  -4.487  -9.832  0.00  0.00     0.292 HD
ENDBRANCH  15  30
ENDBRANCH   8  11
ENDBRANCH   5   8
ENDBRANCH   1   4
BRANCH   1  32
ATOM     32  C   LIG d   1       4.983  -0.862  -4.345  0.00  0.00     0.015 C 
ATOM     33  C   LIG d   1       5.705  -0.096  -3.231  0.00  0.00    -0.018 C 
ATOM     34  C   LIG d   1       4.774   0.025  -2.022  0.00  0.00     0.049 C 
ATOM     35  H   LIG d   1       6.608  -0.634  -2.945  0.00  0.00     0.030 H 
ATOM     36  H   LIG d   1       5.971   0.900  -3.587  0.00  0.00     0.030 H 
ATOM     37  O   LIG d   1       4.382  -1.281  -1.592  0.00  0.00    -0.380 OA
ATOM     38  H   LIG d   1       5.297   0.532  -1.211  0.00  0.00     0.056 H 
ATOM     39  H   LIG d   1       3.890   0.599  -2.299  0.00  0.00     0.056 H 
ATOM     40  C   LIG d   1       3.663  -2.026  -2.577  0.00  0.00     0.049 C 
ATOM     41  C   LIG d   1       4.548  -2.229  -3.809  0.00  0.00    -0.018 C 
ATOM     42  H   LIG d   1       3.383  -2.996  -2.166  0.00  0.00     0.056 H 
ATOM     43  H   LIG d   1       2.763  -1.480  -2.861  0.00  0.00     0.056 H 
ATOM     44  H   LIG d   1       3.986  -2.759  -4.579  0.00  0.00     0.030 H 
ATOM     45  H   LIG d   1       5.427  -2.810  -3.534  0.00  0.00     0.030 H 
BRANCH  32  46
ATOM     46  C   LIG d   1       5.918  -1.051  -5.513  0.00  0.00    -0.039 A 
ATOM     47  C   LIG d   1       6.257  -2.326  -5.925  0.00  0.00    -0.054 A 
ATOM     48  C   LIG d   1       7.113  -2.502  -6.996  0.00  0.00    -0.020 A 
ATOM     49  H   LIG d   1       5.852  -3.185  -5.412  0.00  0.00     0.062 H 
ATOM     50  C   LIG d   1       7.633  -1.398  -7.656  0.00  0.00     0.120 A 
ATOM     51  H   LIG d   1       7.377  -3.498  -7.318  0.00  0.00     0.065 H 
ATOM     52  C   LIG d   1       7.290  -0.119  -7.240  0.00  0.00    -0.020 A 
ATOM     53  C   LIG d   1       6.430   0.052  -6.173  0.00  0.00    -0.054 A 
ATOM     54  H   LIG d   1       7.694   0.742  -7.752  0.00  0.00     0.065 H 
ATOM     55  H   LIG d   1       6.160   1.046  -5.851  0.00  0.00     0.062 H 
BRANCH  50  56
ATOM     56  O   LIG d   1       8.475  -1.568  -8.709  0.00  0.00    -0.495 OA
BRANCH  56  57
ATOM     57  C   LIG d   1       9.186  -0.416  -9.164  0.00  0.00     0.079 C 
ATOM     58  H   LIG d   1       9.574  -0.601 -10.165  0.00  0.00     0.066 H 
ATOM     59  H   LIG d   1       8.512   0.441  -9.188  0.00  0.00     0.066 H 
ATOM     60  H   LIG d   1      10.013  -0.207  -8.486  0.00  0.00     0.066 H 
ENDBRANCH  56  57
ENDBRANCH  50  56
ENDBRANCH  32  46
ENDBRANCH   1  32
TORSDOF 10
ENDMDL
MODEL 9
REMARK VINA RESULT:      -5.3      2.286      6.098
REMARK  10 active torsions:
REMARK  status: ('A' for Active; 'I' for Inactive)
REMARK    1  A    between atoms: C_1  and  C_2 
REMARK    2  A    between atoms: C_3  and  C_15 
REMARK    3  A    between atoms: C_9  and  O_14 
REMARK    4  A    between atoms: C_11  and  O_13 
REMARK    5  A    between atoms: C_15  and  C_16 
REMARK       I    between atoms: C_16  and  N_18 
REMARK    6  A    between atoms: N_18  and  C_19 
REMARK    7  A    between atoms: C_19  and  C_20 
REMARK    8  A    between atoms: C_20  and  C_26 
REMARK    9  A    between atoms: C_29  and  O_32 
REMARK   10  A    between atoms: O_32  and  C_33 
ROOT
ATOM      1  C   LIG d   1       4.454  -0.773  -5.332  0.00  0.00     0.021 C 
ATOM      2  H   LIG d   1       4.946  -0.070  -6.003  0.00  0.00     0.047 H 
ATOM      3  H   LIG d   1       3.460  -0.403  -5.084  0.00  0.00     0.047 H 
ENDROOT
BRANCH   1   4
ATOM      4  N   LIG d   1       4.339  -2.077  -5.989  0.00  0.00    -0.314 N 
ATOM      5  C   LIG d   1       4.619  -2.198  -7.301  0.00  0.00     0.218 C 
ATOM      6  O   LIG d   1       4.966  -1.226  -7.940  0.00  0.00    -0.276 OA
ATOM      7  H   LIG d   1       4.061  -2.854  -5.479  0.00  0.00     0.149 HD
BRANCH   5   8
ATOM      8  C   LIG d   1       4.500  -3.539  -7.977  0.00  0.00     0.056 C 
ATOM      9  H   LIG d   1       4.930  -3.481  -8.978  0.00  0.00     0.041 H 
ATOM     10  H   LIG d   1       3.449  -3.818  -8.050  0.00  0.00     0.041 H 
BRANCH   8  11
ATOM     11  C   LIG d   1       5.242  -4.576  -7.172  0.00  0.00     0.049 A 
ATOM     12  C   LIG d   1       6.588  -4.702  -7.301  0.00  0.00    -0.026 A 
ATOM     13  C   LIG d   1       7.259  -5.686  -6.532  0.00  0.00     0.062 A 
ATOM     14  C   LIG d   1       6.519  -6.505  -5.659  0.00  0.00     0.146 A 
ATOM     15  C   LIG d   1       8.651  -5.851  -6.634  0.00  0.00     0.131 A 
ATOM     16  O   LIG d   1       5.180  -6.348  -5.560  0.00  0.00    -0.422 OA
ATOM     17  C   LIG d   1       7.170  -7.468  -4.906  0.00  0.00     0.023 A 
ATOM     18  C   LIG d   1       4.538  -5.417  -6.287  0.00  0.00     0.341 A 
ATOM     19  O   LIG d   1       3.332  -5.298  -6.177  0.00  0.00    -0.245 OA
ATOM     20  C   LIG d   1       8.544  -7.623  -5.013  0.00  0.00     0.124 A 
ATOM     21  H   LIG d   1       6.607  -8.102  -4.238  0.00  0.00     0.069 H 
ATOM     22  C   LIG d   1       9.282  -6.817  -5.874  0.00  0.00     0.022 A 
ATOM     23  H   LIG d   1      10.351  -6.947  -5.949  0.00  0.00     0.069 H 
BRANCH  12  24
ATOM     24  C   LIG d   1       7.355  -3.811  -8.244  0.00  0.00    -0.038 C 
ATOM     25  H   LIG d   1       8.240  -3.425  -7.740  0.00  0.00     0.028 H 
ATOM     26  H   LIG d   1       7.657  -4.384  -9.121  0.00  0.00     0.028 H 
ATOM     27  H   LIG d   1       6.722  -2.979  -8.553  0.00  0.00     0.028 H 
ENDBRANCH  12  24
BRANCH  20  28
ATOM     28  O   LIG d   1       9.175  -8.570  -4.272  0.00  0.00    -0.506 OA
ATOM     29  H   LIG d   1       8.864  -8.626  -3.358  0.00  0.00     0.292 HD
ENDBRANCH  20  28
BRANCH  15  30
ATOM     30  O   LIG d   1       9.372  -5.065  -7.473  0.00  0.00    -0.506 OA
ATOM     31  H   LIG d   1       8.987  -4.976  -8.356  0.00  0.00     0.292 HD
ENDBRANCH  15  30
ENDBRANCH   8  11
ENDBRANCH   5   8
ENDBRANCH   1   4
BRANCH   1  32
ATOM     32  C   LIG d   1       5.278  -0.918  -4.052  0.00  0.00     0.015 C 
ATOM     33  C   LIG d   1       5.456   0.456  -3.397  0.00  0.00    -0.018 C 
ATOM     34  C   LIG d   1       4.084   1.001  -2.993  0.00  0.00     0.049 C 
ATOM     35  H   LIG d   1       6.085   0.360  -2.513  0.00  0.00     0.030 H 
ATOM     36  H   LIG d   1       5.925   1.139  -4.106  0.00  0.00     0.030 H 
ATOM     37  O   LIG d   1       3.447   0.076  -2.109  0.00  0.00    -0.380 OA
ATOM     38  H   LIG d   1       4.207   1.959  -2.489  0.00  0.00     0.056 H 
ATOM     39  H   LIG d   1       3.469   1.135  -3.884  0.00  0.00     0.056 H 
ATOM     40  C   LIG d   1       3.213  -1.212  -2.682  0.00  0.00     0.049 C 
ATOM     41  C   LIG d   1       4.550  -1.846  -3.074  0.00  0.00    -0.018 C 
ATOM     42  H   LIG d   1       2.709  -1.848  -1.954  0.00  0.00     0.056 H 
ATOM     43  H   LIG d   1       2.586  -1.107  -3.568  0.00  0.00     0.056 H 
ATOM     44  H   LIG d   1       4.371  -2.809  -3.553  0.00  0.00     0.030 H 
ATOM     45  H   LIG d   1       5.161  -1.988  -2.183  0.00  0.00     0.030 H 
BRANCH  32  46
ATOM     46  C   LIG d   1       6.630  -1.496  -4.385  0.00  0.00    -0.039 A 
ATOM     47  C   LIG d   1       7.444  -0.861  -5.305  0.00  0.00    -0.054 A 
ATOM     48  C   LIG d   1       8.683  -1.388  -5.611  0.00  0.00    -0.020 A 
ATOM     49  H   LIG d   1       7.111   0.048  -5.783  0.00  0.00     0.062 H 
ATOM     50  C   LIG d   1       9.112  -2.556  -4.995  0.00  0.00     0.120 A 
ATOM     51  H   LIG d   1       9.320  -0.892  -6.329  0.00  0.00     0.065 H 
ATOM     52  C   LIG d   1       8.293  -3.190  -4.072  0.00  0.00    -0.020 A 
ATOM     53  C   LIG d   1       7.057  -2.657  -3.765  0.00  0.00    -0.054 A 
ATOM     54  H   LIG d   1       8.624  -4.100  -3.592  0.00  0.00     0.065 H 
ATOM     55  H   LIG d   1       6.421  -3.148  -3.044  0.00  0.00     0.062 H 
BRANCH  50  56
ATOM     56  O   LIG d   1      10.331  -3.076  -5.295  0.00  0.00    -0.495 OA
BRANCH  56  57
ATOM     57  C   LIG d   1      10.957  -3.880  -4.294  0.00  0.00     0.079 C 
ATOM     58  H   LIG d   1      12.012  -4.006  -4.537  0.00  0.00     0.066 H 
ATOM     59  H   LIG d   1      10.863  -3.391  -3.324  0.00  0.00     0.066 H 
ATOM     60  H   LIG d   1      10.474  -4.856  -4.256  0.00  0.00     0.066 H 
ENDBRANCH  56  57
ENDBRANCH  50  56
ENDBRANCH  32  46
ENDBRANCH   1  32
TORSDOF 10
ENDMDL
MODEL 10
REMARK VINA RESULT:      -5.3      2.866      5.928
REMARK  10 active torsions:
REMARK  status: ('A' for Active; 'I' for Inactive)
REMARK    1  A    between atoms: C_1  and  C_2 
REMARK    2  A    between atoms: C_3  and  C_15 
REMARK    3  A    between atoms: C_9  and  O_14 
REMARK    4  A    between atoms: C_11  and  O_13 
REMARK    5  A    between atoms: C_15  and  C_16 
REMARK       I    between atoms: C_16  and  N_18 
REMARK    6  A    between atoms: N_18  and  C_19 
REMARK    7  A    between atoms: C_19  and  C_20 
REMARK    8  A    between atoms: C_20  and  C_26 
REMARK    9  A    between atoms: C_29  and  O_32 
REMARK   10  A    between atoms: O_32  and  C_33 
ROOT
ATOM      1  C   LIG d   1       4.304   0.820  -8.768  0.00  0.00     0.021 C 
ATOM      2  H   LIG d   1       4.008   1.709  -8.211  0.00  0.00     0.047 H 
ATOM      3  H   LIG d   1       4.055   0.952  -9.821  0.00  0.00     0.047 H 
ENDROOT
BRANCH   1   4
ATOM      4  N   LIG d   1       5.748   0.617  -8.631  0.00  0.00    -0.314 N 
ATOM      5  C   LIG d   1       6.601   1.620  -8.917  0.00  0.00     0.218 C 
ATOM      6  O   LIG d   1       6.173   2.692  -9.291  0.00  0.00    -0.276 OA
ATOM      7  H   LIG d   1       6.090  -0.241  -8.333  0.00  0.00     0.149 HD
BRANCH   5   8
ATOM      8  C   LIG d   1       8.086   1.410  -8.775  0.00  0.00     0.056 C 
ATOM      9  H   LIG d   1       8.575   1.617  -9.728  0.00  0.00     0.041 H 
ATOM     10  H   LIG d   1       8.282   0.378  -8.484  0.00  0.00     0.041 H 
BRANCH   8  11
ATOM     11  C   LIG d   1       8.628   2.342  -7.721  0.00  0.00     0.049 A 
ATOM     12  C   LIG d   1       8.601   1.977  -6.413  0.00  0.00    -0.026 A 
ATOM     13  C   LIG d   1       9.116   2.874  -5.443  0.00  0.00     0.062 A 
ATOM     14  C   LIG d   1       9.639   4.114  -5.856  0.00  0.00     0.146 A 
ATOM     15  C   LIG d   1       9.108   2.538  -4.078  0.00  0.00     0.131 A 
ATOM     16  O   LIG d   1       9.648   4.439  -7.168  0.00  0.00    -0.422 OA
ATOM     17  C   LIG d   1      10.144   4.993  -4.912  0.00  0.00     0.023 A 
ATOM     18  C   LIG d   1       9.161   3.593  -8.092  0.00  0.00     0.341 A 
ATOM     19  O   LIG d   1       9.181   3.912  -9.267  0.00  0.00    -0.245 OA
ATOM     20  C   LIG d   1      10.131   4.652  -3.568  0.00  0.00     0.124 A 
ATOM     21  H   LIG d   1      10.543   5.947  -5.221  0.00  0.00     0.069 H 
ATOM     22  C   LIG d   1       9.615   3.429  -3.153  0.00  0.00     0.022 A 
ATOM     23  H   LIG d   1       9.611   3.174  -2.103  0.00  0.00     0.069 H 
BRANCH  12  24
ATOM     24  C   LIG d   1       8.034   0.644  -6.000  0.00  0.00    -0.038 C 
ATOM     25  H   LIG d   1       7.021   0.543  -6.390  0.00  0.00     0.028 H 
ATOM     26  H   LIG d   1       8.658  -0.156  -6.400  0.00  0.00     0.028 H 
ATOM     27  H   LIG d   1       8.013   0.579  -4.913  0.00  0.00     0.028 H 
ENDBRANCH  12  24
BRANCH  20  28
ATOM     28  O   LIG d   1      10.627   5.519  -2.648  0.00  0.00    -0.506 OA
ATOM     29  H   LIG d   1      10.507   5.233  -1.732  0.00  0.00     0.292 HD
ENDBRANCH  20  28
BRANCH  15  30
ATOM     30  O   LIG d   1       8.605   1.345  -3.672  0.00  0.00    -0.506 OA
ATOM     31  H   LIG d   1       8.989   0.582  -4.126  0.00  0.00     0.292 HD
ENDBRANCH  15  30
ENDBRANCH   8  11
ENDBRANCH   5   8
ENDBRANCH   1   4
BRANCH   1  32
ATOM     32  C   LIG d   1       3.562  -0.399  -8.218  0.00  0.00     0.015 C 
ATOM     33  C   LIG d   1       2.121  -0.400  -8.739  0.00  0.00    -0.018 C 
ATOM     34  C   LIG d   1       2.139  -0.531 -10.264  0.00  0.00     0.049 C 
ATOM     35  H   LIG d   1       1.579  -1.241  -8.306  0.00  0.00     0.030 H 
ATOM     36  H   LIG d   1       1.631   0.532  -8.459  0.00  0.00     0.030 H 
ATOM     37  O   LIG d   1       2.831  -1.727 -10.630  0.00  0.00    -0.380 OA
ATOM     38  H   LIG d   1       1.115  -0.575 -10.636  0.00  0.00     0.056 H 
ATOM     39  H   LIG d   1       2.646   0.331 -10.697  0.00  0.00     0.056 H 
ATOM     40  C   LIG d   1       4.196  -1.761 -10.211  0.00  0.00     0.049 C 
ATOM     41  C   LIG d   1       4.262  -1.679  -8.683  0.00  0.00    -0.018 C 
ATOM     42  H   LIG d   1       4.657  -2.691 -10.545  0.00  0.00     0.056 H 
ATOM     43  H   LIG d   1       4.732  -0.915 -10.644  0.00  0.00     0.056 H 
ATOM     44  H   LIG d   1       5.304  -1.660  -8.364  0.00  0.00     0.030 H 
ATOM     45  H   LIG d   1       3.763  -2.545  -8.250  0.00  0.00     0.030 H 
BRANCH  32  46
ATOM     46  C   LIG d   1       3.554  -0.346  -6.712  0.00  0.00    -0.039 A 
ATOM     47  C   LIG d   1       4.467  -1.091  -5.990  0.00  0.00    -0.054 A 
ATOM     48  C   LIG d   1       4.461  -1.044  -4.610  0.00  0.00    -0.020 A 
ATOM     49  H   LIG d   1       5.186  -1.710  -6.505  0.00  0.00     0.062 H 
ATOM     50  C   LIG d   1       3.537  -0.248  -3.947  0.00  0.00     0.120 A 
ATOM     51  H   LIG d   1       5.176  -1.626  -4.045  0.00  0.00     0.065 H 
ATOM     52  C   LIG d   1       2.622   0.499  -4.674  0.00  0.00    -0.020 A 
ATOM     53  C   LIG d   1       2.635   0.452  -6.055  0.00  0.00    -0.054 A 
ATOM     54  H   LIG d   1       1.901   1.118  -4.161  0.00  0.00     0.065 H 
ATOM     55  H   LIG d   1       1.925   1.036  -6.621  0.00  0.00     0.062 H 
BRANCH  50  56
ATOM     56  O   LIG d   1       3.530  -0.200  -2.589  0.00  0.00    -0.495 OA
BRANCH  56  57
ATOM     57  C   LIG d   1       4.336  -1.158  -1.901  0.00  0.00     0.079 C 
ATOM     58  H   LIG d   1       4.388  -0.898  -0.845  0.00  0.00     0.066 H 
ATOM     59  H   LIG d   1       3.895  -2.150  -2.010  0.00  0.00     0.066 H 
ATOM     60  H   LIG d   1       5.340  -1.160  -2.325  0.00  0.00     0.066 H 
ENDBRANCH  56  57
ENDBRANCH  50  56
ENDBRANCH  32  46
ENDBRANCH   1  32
TORSDOF 10
ENDMDL
