MODEL 1
REMARK VINA RESULT:      -7.4      0.000      0.000
REMARK  9 active torsions:
REMARK  status: ('A' for Active; 'I' for Inactive)
REMARK    1  A    between atoms: C_1  and  C_2 
REMARK    2  A    between atoms: C_2  and  CA_3 
REMARK    3  A    between atoms: CA_3  and  C_5 
REMARK    4  A    between atoms: CA_3  and  N_7 
REMARK       I    between atoms: N_7  and  C_8 
REMARK    5  A    between atoms: C_8  and  C_10 
REMARK    6  A    between atoms: C_10  and  O_11 
REMARK    7  A    between atoms: O_11  and  C_12 
REMARK    8  A    between atoms: C_28  and  C_30 
REMARK    9  A    between atoms: C_28  and  C_31 
ROOT
ATOM      1  C   LIG d   1       4.644  -2.444  -6.904  0.00  0.00     0.136 A 
ATOM      2  C   LIG d   1       4.745  -2.364  -8.277  0.00  0.00     0.023 A 
ATOM      3  C   LIG d   1       4.322  -1.219  -8.955  0.00  0.00     0.131 A 
ATOM      4  C   LIG d   1       3.802  -0.146  -8.253  0.00  0.00     0.038 A 
ATOM      5  C   LIG d   1       3.699  -0.205  -6.869  0.00  0.00     0.149 A 
ATOM      6  C   LIG d   1       4.122  -1.356  -6.183  0.00  0.00     0.063 A 
ATOM      7  C   LIG d   1       4.020  -1.407  -4.769  0.00  0.00    -0.023 A 
ATOM      8  C   LIG d   1       3.509  -0.336  -4.109  0.00  0.00     0.041 A 
ATOM      9  C   LIG d   1       3.090   0.798  -4.841  0.00  0.00     0.341 A 
ATOM     10  O   LIG d   1       2.629   1.756  -4.245  0.00  0.00    -0.245 OA
ATOM     11  O   LIG d   1       3.192   0.841  -6.179  0.00  0.00    -0.421 OA
ATOM     12  C   LIG d   1       3.492  -0.602  -2.620  0.00  0.00    -0.020 C 
ATOM     13  C   LIG d   1       4.454  -1.792  -2.413  0.00  0.00    -0.045 C 
ATOM     14  C   LIG d   1       4.397  -2.494  -3.787  0.00  0.00    -0.026 C 
ATOM     15  C   LIG d   1       3.334   1.103  -8.958  0.00  0.00    -0.017 C 
ATOM     16  C   LIG d   1       3.923   1.150 -10.371  0.00  0.00    -0.009 C 
ATOM     17  C   LIG d   1       3.697  -0.216 -11.030  0.00  0.00     0.105 C 
ATOM     18  O   LIG d   1       4.446  -1.194 -10.307  0.00  0.00    -0.486 OA
ATOM     19  H   LIG d   1       5.150  -3.196  -8.833  0.00  0.00     0.069 H 
ATOM     20  H   LIG d   1       3.849   0.272  -2.075  0.00  0.00     0.032 H 
ATOM     21  H   LIG d   1       2.487  -0.868  -2.294  0.00  0.00     0.032 H 
ATOM     22  H   LIG d   1       5.464  -1.443  -2.197  0.00  0.00     0.027 H 
ATOM     23  H   LIG d   1       4.093  -2.452  -1.624  0.00  0.00     0.027 H 
ATOM     24  H   LIG d   1       5.371  -2.911  -4.041  0.00  0.00     0.031 H 
ATOM     25  H   LIG d   1       3.638  -3.277  -3.781  0.00  0.00     0.031 H 
ATOM     26  H   LIG d   1       2.246   1.099  -9.020  0.00  0.00     0.032 H 
ATOM     27  H   LIG d   1       3.662   1.980  -8.399  0.00  0.00     0.032 H 
ATOM     28  H   LIG d   1       3.424   1.926 -10.951  0.00  0.00     0.031 H 
ATOM     29  H   LIG d   1       4.991   1.361 -10.316  0.00  0.00     0.031 H 
ENDROOT
BRANCH   1  30
ATOM     30  O   LIG d   1       5.052  -3.564  -6.253  0.00  0.00    -0.482 OA
BRANCH  30  31
ATOM     31  C   LIG d   1       4.807  -4.815  -6.899  0.00  0.00     0.165 C 
ATOM     32  H   LIG d   1       5.596  -5.009  -7.625  0.00  0.00     0.080 H 
ATOM     33  H   LIG d   1       3.845  -4.779  -7.409  0.00  0.00     0.080 H 
BRANCH  31  34
ATOM     34  C   LIG d   1       4.790  -5.916  -5.870  0.00  0.00     0.251 C 
ATOM     35  N   LIG d   1       5.605  -6.980  -6.009  0.00  0.00    -0.305 N 
ATOM     36  H   LIG d   1       6.202  -7.037  -6.771  0.00  0.00     0.149 HD
ATOM     37  O   LIG d   1       4.043  -5.844  -4.917  0.00  0.00    -0.272 OA
BRANCH  35  38
ATOM     38  CA  LIG d   1       5.588  -8.051  -5.009  0.00  0.00     0.062 C 
ATOM     39  HA  LIG d   1       5.337  -7.633  -4.034  0.00  0.00     0.056 H 
BRANCH  38  40
ATOM     40  C   LIG d   1       6.968  -8.708  -4.942  0.00  0.00    -0.032 C 
ATOM     41  H   LIG d   1       7.732  -7.978  -5.210  0.00  0.00     0.028 H 
ATOM     42  H   LIG d   1       7.006  -9.544  -5.639  0.00  0.00     0.028 H 
BRANCH  40  43
ATOM     43  C   LIG d   1       7.223  -9.215  -3.522  0.00  0.00    -0.063 C 
ATOM     44  H   LIG d   1       7.510  -8.379  -2.884  0.00  0.00     0.023 H 
ATOM     45  H   LIG d   1       8.027  -9.952  -3.538  0.00  0.00     0.023 H 
ATOM     46  H   LIG d   1       6.316  -9.676  -3.132  0.00  0.00     0.023 H 
ENDBRANCH  40  43
ENDBRANCH  38  40
BRANCH  38  47
ATOM     47  C   LIG d   1       4.559  -9.083  -5.394  0.00  0.00     0.062 C 
ATOM     48  O   LIG d   1       4.413  -9.386  -6.554  0.00  0.00    -0.548 OA
ATOM     49  OXT LIG d   1       3.804  -9.663  -4.449  0.00  0.00    -0.548 OA
ENDBRANCH  38  47
ENDBRANCH  35  38
ENDBRANCH  31  34
ENDBRANCH  30  31
ENDBRANCH   1  30
BRANCH  17  50
ATOM     50  C   LIG d   1       2.210  -0.571 -10.987  0.00  0.00    -0.025 C 
ATOM     51  H   LIG d   1       2.097  -1.645 -10.840  0.00  0.00     0.027 H 
ATOM     52  H   LIG d   1       1.733  -0.039 -10.166  0.00  0.00     0.027 H 
ATOM     53  H   LIG d   1       1.741  -0.283 -11.928  0.00  0.00     0.027 H 
ENDBRANCH  17  50
BRANCH  17  54
ATOM     54  C   LIG d   1       4.176  -0.173 -12.483  0.00  0.00    -0.025 C 
ATOM     55  H   LIG d   1       5.264  -0.107 -12.506  0.00  0.00     0.027 H 
ATOM     56  H   LIG d   1       3.855  -1.077 -12.999  0.00  0.00     0.027 H 
ATOM     57  H   LIG d   1       3.749   0.699 -12.979  0.00  0.00     0.027 H 
ENDBRANCH  17  54
TORSDOF 9
ENDMDL
MODEL 2
REMARK VINA RESULT:      -7.3      2.590      7.606
REMARK  9 active torsions:
REMARK  status: ('A' for Active; 'I' for Inactive)
REMARK    1  A    between atoms: C_1  and  C_2 
REMARK    2  A    between atoms: C_2  and  CA_3 
REMARK    3  A    between atoms: CA_3  and  C_5 
REMARK    4  A    between atoms: CA_3  and  N_7 
REMARK       I    between atoms: N_7  and  C_8 
REMARK    5  A    between atoms: C_8  and  C_10 
REMARK    6  A    between atoms: C_10  and  O_11 
REMARK    7  A    between atoms: O_11  and  C_12 
REMARK    8  A    between atoms: C_28  and  C_30 
REMARK    9  A    between atoms: C_28  and  C_31 
ROOT
ATOM      1  C   LIG d   1       6.577  -1.946  -6.385  0.00  0.00     0.136 A 
ATOM      2  C   LIG d   1       6.373  -0.898  -5.512  0.00  0.00     0.023 A 
ATOM      3  C   LIG d   1       5.568  -1.060  -4.383  0.00  0.00     0.131 A 
ATOM      4  C   LIG d   1       4.969  -2.280  -4.123  0.00  0.00     0.038 A 
ATOM      5  C   LIG d   1       5.168  -3.349  -4.987  0.00  0.00     0.149 A 
ATOM      6  C   LIG d   1       5.977  -3.190  -6.125  0.00  0.00     0.063 A 
ATOM      7  C   LIG d   1       6.180  -4.289  -6.999  0.00  0.00    -0.023 A 
ATOM      8  C   LIG d   1       5.582  -5.474  -6.714  0.00  0.00     0.041 A 
ATOM      9  C   LIG d   1       4.772  -5.586  -5.562  0.00  0.00     0.341 A 
ATOM     10  O   LIG d   1       4.234  -6.650  -5.312  0.00  0.00    -0.245 OA
ATOM     11  O   LIG d   1       4.585  -4.543  -4.737  0.00  0.00    -0.421 OA
ATOM     12  C   LIG d   1       5.932  -6.501  -7.770  0.00  0.00    -0.020 C 
ATOM     13  C   LIG d   1       7.165  -5.923  -8.500  0.00  0.00    -0.045 C 
ATOM     14  C   LIG d   1       6.990  -4.406  -8.271  0.00  0.00    -0.026 C 
ATOM     15  C   LIG d   1       4.092  -2.484  -2.913  0.00  0.00    -0.017 C 
ATOM     16  C   LIG d   1       4.352  -1.372  -1.893  0.00  0.00    -0.009 C 
ATOM     17  C   LIG d   1       4.318  -0.028  -2.630  0.00  0.00     0.105 C 
ATOM     18  O   LIG d   1       5.403   0.006  -3.557  0.00  0.00    -0.486 OA
ATOM     19  H   LIG d   1       6.837   0.058  -5.706  0.00  0.00     0.069 H 
ATOM     20  H   LIG d   1       6.181  -7.453  -7.303  0.00  0.00     0.032 H 
ATOM     21  H   LIG d   1       5.104  -6.625  -8.467  0.00  0.00     0.032 H 
ATOM     22  H   LIG d   1       8.088  -6.281  -8.046  0.00  0.00     0.027 H 
ATOM     23  H   LIG d   1       7.135  -6.162  -9.563  0.00  0.00     0.027 H 
ATOM     24  H   LIG d   1       7.962  -3.927  -8.146  0.00  0.00     0.031 H 
ATOM     25  H   LIG d   1       6.451  -3.956  -9.106  0.00  0.00     0.031 H 
ATOM     26  H   LIG d   1       3.045  -2.459  -3.216  0.00  0.00     0.032 H 
ATOM     27  H   LIG d   1       4.315  -3.450  -2.461  0.00  0.00     0.032 H 
ATOM     28  H   LIG d   1       3.579  -1.391  -1.125  0.00  0.00     0.031 H 
ATOM     29  H   LIG d   1       5.331  -1.516  -1.435  0.00  0.00     0.031 H 
ENDROOT
BRANCH   1  30
ATOM     30  O   LIG d   1       7.356  -1.779  -7.484  0.00  0.00    -0.482 OA
BRANCH  30  31
ATOM     31  C   LIG d   1       7.265  -0.522  -8.159  0.00  0.00     0.165 C 
ATOM     32  H   LIG d   1       8.186  -0.340  -8.713  0.00  0.00     0.080 H 
ATOM     33  H   LIG d   1       7.118   0.273  -7.428  0.00  0.00     0.080 H 
BRANCH  31  34
ATOM     34  C   LIG d   1       6.100  -0.549  -9.114  0.00  0.00     0.251 C 
ATOM     35  N   LIG d   1       5.011   0.206  -8.870  0.00  0.00    -0.305 N 
ATOM     36  H   LIG d   1       4.977   0.766  -8.078  0.00  0.00     0.149 HD
ATOM     37  O   LIG d   1       6.143  -1.250 -10.103  0.00  0.00    -0.272 OA
BRANCH  35  38
ATOM     38  CA  LIG d   1       3.878   0.180  -9.799  0.00  0.00     0.062 C 
ATOM     39  HA  LIG d   1       4.069  -0.552 -10.584  0.00  0.00     0.056 H 
BRANCH  38  40
ATOM     40  C   LIG d   1       3.699   1.565 -10.423  0.00  0.00    -0.032 C 
ATOM     41  H   LIG d   1       2.687   1.658 -10.817  0.00  0.00     0.028 H 
ATOM     42  H   LIG d   1       4.417   1.693 -11.233  0.00  0.00     0.028 H 
BRANCH  40  43
ATOM     43  C   LIG d   1       3.933   2.638  -9.359  0.00  0.00    -0.063 C 
ATOM     44  H   LIG d   1       4.420   2.191  -8.492  0.00  0.00     0.023 H 
ATOM     45  H   LIG d   1       2.976   3.066  -9.057  0.00  0.00     0.023 H 
ATOM     46  H   LIG d   1       4.569   3.423  -9.767  0.00  0.00     0.023 H 
ENDBRANCH  40  43
ENDBRANCH  38  40
BRANCH  38  47
ATOM     47  C   LIG d   1       2.625  -0.200  -9.052  0.00  0.00     0.062 C 
ATOM     48  O   LIG d   1       2.645  -0.299  -7.848  0.00  0.00    -0.548 OA
ATOM     49  OXT LIG d   1       1.486  -0.428  -9.724  0.00  0.00    -0.548 OA
ENDBRANCH  38  47
ENDBRANCH  35  38
ENDBRANCH  31  34
ENDBRANCH  30  31
ENDBRANCH   1  30
BRANCH  17  50
ATOM     50  C   LIG d   1       2.994   0.116  -3.382  0.00  0.00    -0.025 C 
ATOM     51  H   LIG d   1       2.349   0.817  -2.852  0.00  0.00     0.027 H 
ATOM     52  H   LIG d   1       3.185   0.488  -4.388  0.00  0.00     0.027 H 
ATOM     53  H   LIG d   1       2.503  -0.855  -3.441  0.00  0.00     0.027 H 
ENDBRANCH  17  50
BRANCH  17  54
ATOM     54  C   LIG d   1       4.466   1.116  -1.623  0.00  0.00    -0.025 C 
ATOM     55  H   LIG d   1       5.523   1.291  -1.425  0.00  0.00     0.027 H 
ATOM     56  H   LIG d   1       4.018   2.021  -2.033  0.00  0.00     0.027 H 
ATOM     57  H   LIG d   1       3.962   0.849  -0.695  0.00  0.00     0.027 H 
ENDBRANCH  17  54
TORSDOF 9
ENDMDL
MODEL 3
REMARK VINA RESULT:      -7.2      4.029      6.635
REMARK  9 active torsions:
REMARK  status: ('A' for Active; 'I' for Inactive)
REMARK    1  A    between atoms: C_1  and  C_2 
REMARK    2  A    between atoms: C_2  and  CA_3 
REMARK    3  A    between atoms: CA_3  and  C_5 
REMARK    4  A    between atoms: CA_3  and  N_7 
REMARK       I    between atoms: N_7  and  C_8 
REMARK    5  A    between atoms: C_8  and  C_10 
REMARK    6  A    between atoms: C_10  and  O_11 
REMARK    7  A    between atoms: O_11  and  C_12 
REMARK    8  A    between atoms: C_28  and  C_30 
REMARK    9  A    between atoms: C_28  and  C_31 
ROOT
ATOM      1  C   LIG d   1       7.300  -1.290  -5.381  0.00  0.00     0.136 A 
ATOM      2  C   LIG d   1       8.428  -0.756  -5.968  0.00  0.00     0.023 A 
ATOM      3  C   LIG d   1       8.906   0.497  -5.579  0.00  0.00     0.131 A 
ATOM      4  C   LIG d   1       8.255   1.215  -4.591  0.00  0.00     0.038 A 
ATOM      5  C   LIG d   1       7.122   0.690  -3.982  0.00  0.00     0.149 A 
ATOM      6  C   LIG d   1       6.637  -0.570  -4.373  0.00  0.00     0.063 A 
ATOM      7  C   LIG d   1       5.482  -1.103  -3.742  0.00  0.00    -0.023 A 
ATOM      8  C   LIG d   1       4.869  -0.375  -2.773  0.00  0.00     0.041 A 
ATOM      9  C   LIG d   1       5.389   0.890  -2.418  0.00  0.00     0.341 A 
ATOM     10  O   LIG d   1       4.834   1.541  -1.551  0.00  0.00    -0.245 OA
ATOM     11  O   LIG d   1       6.483   1.387  -3.016  0.00  0.00    -0.421 OA
ATOM     12  C   LIG d   1       3.668  -1.126  -2.241  0.00  0.00    -0.020 C 
ATOM     13  C   LIG d   1       3.873  -2.588  -2.696  0.00  0.00    -0.045 C 
ATOM     14  C   LIG d   1       4.754  -2.411  -3.952  0.00  0.00    -0.026 C 
ATOM     15  C   LIG d   1       8.747   2.571  -4.151  0.00  0.00    -0.017 C 
ATOM     16  C   LIG d   1      10.198   2.764  -4.598  0.00  0.00    -0.009 C 
ATOM     17  C   LIG d   1      10.301   2.369  -6.076  0.00  0.00     0.105 C 
ATOM     18  O   LIG d   1      10.021   0.974  -6.189  0.00  0.00    -0.486 OA
ATOM     19  H   LIG d   1       8.943  -1.309  -6.739  0.00  0.00     0.069 H 
ATOM     20  H   LIG d   1       3.639  -1.070  -1.153  0.00  0.00     0.032 H 
ATOM     21  H   LIG d   1       2.750  -0.723  -2.667  0.00  0.00     0.032 H 
ATOM     22  H   LIG d   1       4.396  -3.163  -1.933  0.00  0.00     0.027 H 
ATOM     23  H   LIG d   1       2.921  -3.053  -2.951  0.00  0.00     0.027 H 
ATOM     24  H   LIG d   1       5.467  -3.232  -4.034  0.00  0.00     0.031 H 
ATOM     25  H   LIG d   1       4.133  -2.359  -4.847  0.00  0.00     0.031 H 
ATOM     26  H   LIG d   1       8.124   3.345  -4.599  0.00  0.00     0.032 H 
ATOM     27  H   LIG d   1       8.689   2.643  -3.065  0.00  0.00     0.032 H 
ATOM     28  H   LIG d   1      10.484   3.809  -4.475  0.00  0.00     0.031 H 
ATOM     29  H   LIG d   1      10.854   2.131  -4.000  0.00  0.00     0.031 H 
ENDROOT
BRANCH   1  30
ATOM     30  O   LIG d   1       6.838  -2.506  -5.770  0.00  0.00    -0.482 OA
BRANCH  30  31
ATOM     31  C   LIG d   1       6.515  -2.665  -7.153  0.00  0.00     0.165 C 
ATOM     32  H   LIG d   1       6.650  -3.708  -7.440  0.00  0.00     0.080 H 
ATOM     33  H   LIG d   1       7.170  -2.035  -7.754  0.00  0.00     0.080 H 
BRANCH  31  34
ATOM     34  C   LIG d   1       5.081  -2.263  -7.383  0.00  0.00     0.251 C 
ATOM     35  N   LIG d   1       4.778  -0.982  -7.668  0.00  0.00    -0.305 N 
ATOM     36  H   LIG d   1       5.484  -0.318  -7.725  0.00  0.00     0.149 HD
ATOM     37  O   LIG d   1       4.199  -3.093  -7.312  0.00  0.00    -0.272 OA
BRANCH  35  38
ATOM     38  CA  LIG d   1       3.384  -0.590  -7.891  0.00  0.00     0.062 C 
ATOM     39  HA  LIG d   1       2.725  -1.404  -7.587  0.00  0.00     0.056 H 
BRANCH  38  40
ATOM     40  C   LIG d   1       3.171  -0.288  -9.376  0.00  0.00    -0.032 C 
ATOM     41  H   LIG d   1       3.908  -0.832  -9.967  0.00  0.00     0.028 H 
ATOM     42  H   LIG d   1       3.284   0.781  -9.549  0.00  0.00     0.028 H 
BRANCH  40  43
ATOM     43  C   LIG d   1       1.764  -0.725  -9.788  0.00  0.00    -0.063 C 
ATOM     44  H   LIG d   1       1.344  -1.372  -9.018  0.00  0.00     0.023 H 
ATOM     45  H   LIG d   1       1.814  -1.270 -10.731  0.00  0.00     0.023 H 
ATOM     46  H   LIG d   1       1.131   0.154  -9.909  0.00  0.00     0.023 H 
ENDBRANCH  40  43
ENDBRANCH  38  40
BRANCH  38  47
ATOM     47  C   LIG d   1       3.071   0.641  -7.079  0.00  0.00     0.062 C 
ATOM     48  O   LIG d   1       2.938   0.556  -5.882  0.00  0.00    -0.548 OA
ATOM     49  OXT LIG d   1       2.940   1.830  -7.686  0.00  0.00    -0.548 OA
ENDBRANCH  38  47
ENDBRANCH  35  38
ENDBRANCH  31  34
ENDBRANCH  30  31
ENDBRANCH   1  30
BRANCH  17  50
ATOM     50  C   LIG d   1       9.286   3.167  -6.896  0.00  0.00    -0.025 C 
ATOM     51  H   LIG d   1       9.736   3.461  -7.845  0.00  0.00     0.027 H 
ATOM     52  H   LIG d   1       8.408   2.551  -7.086  0.00  0.00     0.027 H 
ATOM     53  H   LIG d   1       8.992   4.058  -6.343  0.00  0.00     0.027 H 
ENDBRANCH  17  50
BRANCH  17  54
ATOM     54  C   LIG d   1      11.716   2.653  -6.588  0.00  0.00    -0.025 C 
ATOM     55  H   LIG d   1      12.193   1.716  -6.874  0.00  0.00     0.027 H 
ATOM     56  H   LIG d   1      11.663   3.313  -7.453  0.00  0.00     0.027 H 
ATOM     57  H   LIG d   1      12.297   3.132  -5.800  0.00  0.00     0.027 H 
ENDBRANCH  17  54
TORSDOF 9
ENDMDL
MODEL 4
REMARK VINA RESULT:      -7.1      2.937      4.698
REMARK  9 active torsions:
REMARK  status: ('A' for Active; 'I' for Inactive)
REMARK    1  A    between atoms: C_1  and  C_2 
REMARK    2  A    between atoms: C_2  and  CA_3 
REMARK    3  A    between atoms: CA_3  and  C_5 
REMARK    4  A    between atoms: CA_3  and  N_7 
REMARK       I    between atoms: N_7  and  C_8 
REMARK    5  A    between atoms: C_8  and  C_10 
REMARK    6  A    between atoms: C_10  and  O_11 
REMARK    7  A    between atoms: O_11  and  C_12 
REMARK    8  A    between atoms: C_28  and  C_30 
REMARK    9  A    between atoms: C_28  and  C_31 
ROOT
ATOM      1  C   LIG d   1       4.291  -2.174  -6.293  0.00  0.00     0.136 A 
ATOM      2  C   LIG d   1       4.293  -2.316  -7.665  0.00  0.00     0.023 A 
ATOM      3  C   LIG d   1       3.808  -1.297  -8.486  0.00  0.00     0.131 A 
ATOM      4  C   LIG d   1       3.325  -0.125  -7.931  0.00  0.00     0.038 A 
ATOM      5  C   LIG d   1       3.323   0.041  -6.552  0.00  0.00     0.149 A 
ATOM      6  C   LIG d   1       3.809  -0.984  -5.722  0.00  0.00     0.063 A 
ATOM      7  C   LIG d   1       3.809  -0.804  -4.314  0.00  0.00    -0.023 A 
ATOM      8  C   LIG d   1       3.333   0.359  -3.800  0.00  0.00     0.041 A 
ATOM      9  C   LIG d   1       2.849   1.359  -4.674  0.00  0.00     0.341 A 
ATOM     10  O   LIG d   1       2.419   2.400  -4.208  0.00  0.00    -0.245 OA
ATOM     11  O   LIG d   1       2.854   1.185  -6.004  0.00  0.00    -0.421 OA
ATOM     12  C   LIG d   1       3.425   0.337  -2.290  0.00  0.00    -0.020 C 
ATOM     13  C   LIG d   1       4.415  -0.803  -1.964  0.00  0.00    -0.045 C 
ATOM     14  C   LIG d   1       4.268  -1.718  -3.200  0.00  0.00    -0.026 C 
ATOM     15  C   LIG d   1       2.793   0.993  -8.793  0.00  0.00    -0.017 C 
ATOM     16  C   LIG d   1       3.279   0.812 -10.233  0.00  0.00    -0.009 C 
ATOM     17  C   LIG d   1       3.024  -0.644 -10.645  0.00  0.00     0.105 C 
ATOM     18  O   LIG d   1       3.834  -1.491  -9.830  0.00  0.00    -0.486 OA
ATOM     19  H   LIG d   1       4.667  -3.227  -8.107  0.00  0.00     0.069 H 
ATOM     20  H   LIG d   1       3.810   1.288  -1.921  0.00  0.00     0.032 H 
ATOM     21  H   LIG d   1       2.450   0.127  -1.853  0.00  0.00     0.032 H 
ATOM     22  H   LIG d   1       5.433  -0.423  -1.882  0.00  0.00     0.027 H 
ATOM     23  H   LIG d   1       4.120  -1.326  -1.055  0.00  0.00     0.027 H 
ATOM     24  H   LIG d   1       5.227  -2.170  -3.453  0.00  0.00     0.031 H 
ATOM     25  H   LIG d   1       3.522  -2.491  -3.012  0.00  0.00     0.031 H 
ATOM     26  H   LIG d   1       1.703   0.978  -8.773  0.00  0.00     0.032 H 
ATOM     27  H   LIG d   1       3.149   1.949  -8.408  0.00  0.00     0.032 H 
ATOM     28  H   LIG d   1       2.729   1.483 -10.893  0.00  0.00     0.031 H 
ATOM     29  H   LIG d   1       4.345   1.029 -10.291  0.00  0.00     0.031 H 
ENDROOT
BRANCH   1  30
ATOM     30  O   LIG d   1       4.758  -3.172  -5.502  0.00  0.00    -0.482 OA
BRANCH  30  31
ATOM     31  C   LIG d   1       6.102  -3.603  -5.725  0.00  0.00     0.165 C 
ATOM     32  H   LIG d   1       6.314  -3.591  -6.795  0.00  0.00     0.080 H 
ATOM     33  H   LIG d   1       6.229  -4.615  -5.341  0.00  0.00     0.080 H 
BRANCH  31  34
ATOM     34  C   LIG d   1       7.052  -2.673  -5.016  0.00  0.00     0.251 C 
ATOM     35  N   LIG d   1       7.484  -1.554  -5.629  0.00  0.00    -0.305 N 
ATOM     36  H   LIG d   1       7.184  -1.347  -6.528  0.00  0.00     0.149 HD
ATOM     37  O   LIG d   1       7.428  -2.932  -3.891  0.00  0.00    -0.272 OA
BRANCH  35  38
ATOM     38  CA  LIG d   1       8.408  -0.650  -4.939  0.00  0.00     0.062 C 
ATOM     39  HA  LIG d   1       8.524  -0.971  -3.904  0.00  0.00     0.056 H 
BRANCH  38  40
ATOM     40  C   LIG d   1       7.850   0.774  -4.974  0.00  0.00    -0.032 C 
ATOM     41  H   LIG d   1       7.195   0.887  -5.838  0.00  0.00     0.028 H 
ATOM     42  H   LIG d   1       8.672   1.485  -5.045  0.00  0.00     0.028 H 
BRANCH  40  43
ATOM     43  C   LIG d   1       7.054   1.040  -3.694  0.00  0.00    -0.063 C 
ATOM     44  H   LIG d   1       6.888   2.112  -3.587  0.00  0.00     0.023 H 
ATOM     45  H   LIG d   1       7.614   0.672  -2.834  0.00  0.00     0.023 H 
ATOM     46  H   LIG d   1       6.094   0.527  -3.749  0.00  0.00     0.023 H 
ENDBRANCH  40  43
ENDBRANCH  38  40
BRANCH  38  47
ATOM     47  C   LIG d   1       9.749  -0.680  -5.628  0.00  0.00     0.062 C 
ATOM     48  O   LIG d   1      10.059  -1.630  -6.306  0.00  0.00    -0.548 OA
ATOM     49  OXT LIG d   1      10.599   0.349  -5.487  0.00  0.00    -0.548 OA
ENDBRANCH  38  47
ENDBRANCH  35  38
ENDBRANCH  31  34
ENDBRANCH  30  31
ENDBRANCH   1  30
BRANCH  17  50
ATOM     50  C   LIG d   1       1.548  -0.988 -10.438  0.00  0.00    -0.025 C 
ATOM     51  H   LIG d   1       1.047  -0.158  -9.939  0.00  0.00     0.027 H 
ATOM     52  H   LIG d   1       1.077  -1.168 -11.403  0.00  0.00     0.027 H 
ATOM     53  H   LIG d   1       1.467  -1.884  -9.822  0.00  0.00     0.027 H 
ENDBRANCH  17  50
BRANCH  17  54
ATOM     54  C   LIG d   1       3.396  -0.836 -12.117  0.00  0.00    -0.025 C 
ATOM     55  H   LIG d   1       3.334  -1.893 -12.372  0.00  0.00     0.027 H 
ATOM     56  H   LIG d   1       2.707  -0.269 -12.743  0.00  0.00     0.027 H 
ATOM     57  H   LIG d   1       4.413  -0.481 -12.283  0.00  0.00     0.027 H 
ENDBRANCH  17  54
TORSDOF 9
ENDMDL
MODEL 5
REMARK VINA RESULT:      -6.9      7.959     10.607
REMARK  9 active torsions:
REMARK  status: ('A' for Active; 'I' for Inactive)
REMARK    1  A    between atoms: C_1  and  C_2 
REMARK    2  A    between atoms: C_2  and  CA_3 
REMARK    3  A    between atoms: CA_3  and  C_5 
REMARK    4  A    between atoms: CA_3  and  N_7 
REMARK       I    between atoms: N_7  and  C_8 
REMARK    5  A    between atoms: C_8  and  C_10 
REMARK    6  A    between atoms: C_10  and  O_11 
REMARK    7  A    between atoms: O_11  and  C_12 
REMARK    8  A    between atoms: C_28  and  C_30 
REMARK    9  A    between atoms: C_28  and  C_31 
ROOT
ATOM      1  C   LIG d   1      10.097   3.972  -4.178  0.00  0.00     0.136 A 
ATOM      2  C   LIG d   1      10.275   4.003  -2.811  0.00  0.00     0.023 A 
ATOM      3  C   LIG d   1      10.431   5.219  -2.142  0.00  0.00     0.131 A 
ATOM      4  C   LIG d   1      10.401   6.410  -2.846  0.00  0.00     0.038 A 
ATOM      5  C   LIG d   1      10.215   6.400  -4.222  0.00  0.00     0.149 A 
ATOM      6  C   LIG d   1      10.059   5.178  -4.899  0.00  0.00     0.063 A 
ATOM      7  C   LIG d   1       9.864   5.176  -6.305  0.00  0.00    -0.023 A 
ATOM      8  C   LIG d   1       9.835   6.362  -6.965  0.00  0.00     0.041 A 
ATOM      9  C   LIG d   1      10.002   7.566  -6.244  0.00  0.00     0.341 A 
ATOM     10  O   LIG d   1       9.980   8.627  -6.841  0.00  0.00    -0.245 OA
ATOM     11  O   LIG d   1      10.185   7.561  -4.914  0.00  0.00    -0.421 OA
ATOM     12  C   LIG d   1       9.617   6.128  -8.445  0.00  0.00    -0.020 C 
ATOM     13  C   LIG d   1       9.082   4.683  -8.549  0.00  0.00    -0.045 C 
ATOM     14  C   LIG d   1       9.665   4.033  -7.275  0.00  0.00    -0.026 C 
ATOM     15  C   LIG d   1      10.569   7.739  -2.151  0.00  0.00    -0.017 C 
ATOM     16  C   LIG d   1      10.319   7.572  -0.650  0.00  0.00    -0.009 C 
ATOM     17  C   LIG d   1      11.121   6.359  -0.162  0.00  0.00     0.105 C 
ATOM     18  O   LIG d   1      10.602   5.190  -0.795  0.00  0.00    -0.486 OA
ATOM     19  H   LIG d   1      10.299   3.079  -2.254  0.00  0.00     0.069 H 
ATOM     20  H   LIG d   1       8.881   6.832  -8.834  0.00  0.00     0.032 H 
ATOM     21  H   LIG d   1      10.557   6.223  -8.986  0.00  0.00     0.032 H 
ATOM     22  H   LIG d   1       7.993   4.669  -8.528  0.00  0.00     0.027 H 
ATOM     23  H   LIG d   1       9.461   4.192  -9.445  0.00  0.00     0.027 H 
ATOM     24  H   LIG d   1       8.964   3.306  -6.865  0.00  0.00     0.031 H 
ATOM     25  H   LIG d   1      10.620   3.555  -7.497  0.00  0.00     0.031 H 
ATOM     26  H   LIG d   1      11.583   8.105  -2.310  0.00  0.00     0.032 H 
ATOM     27  H   LIG d   1       9.857   8.455  -2.560  0.00  0.00     0.032 H 
ATOM     28  H   LIG d   1      10.646   8.467  -0.121  0.00  0.00     0.031 H 
ATOM     29  H   LIG d   1       9.256   7.406  -0.471  0.00  0.00     0.031 H 
ENDROOT
BRANCH   1  30
ATOM     30  O   LIG d   1       9.952   2.786  -4.822  0.00  0.00    -0.482 OA
BRANCH  30  31
ATOM     31  C   LIG d   1       9.530   1.669  -4.037  0.00  0.00     0.165 C 
ATOM     32  H   LIG d   1       9.742   1.863  -2.986  0.00  0.00     0.080 H 
ATOM     33  H   LIG d   1      10.067   0.776  -4.357  0.00  0.00     0.080 H 
BRANCH  31  34
ATOM     34  C   LIG d   1       8.049   1.458  -4.219  0.00  0.00     0.251 C 
ATOM     35  N   LIG d   1       7.345   0.786  -3.289  0.00  0.00    -0.305 N 
ATOM     36  H   LIG d   1       7.791   0.437  -2.501  0.00  0.00     0.149 HD
ATOM     37  O   LIG d   1       7.492   1.894  -5.205  0.00  0.00    -0.272 OA
BRANCH  35  38
ATOM     38  CA  LIG d   1       5.905   0.580  -3.467  0.00  0.00     0.062 C 
ATOM     39  HA  LIG d   1       5.547   1.206  -4.284  0.00  0.00     0.056 H 
BRANCH  38  40
ATOM     40  C   LIG d   1       5.173   0.957  -2.177  0.00  0.00    -0.032 C 
ATOM     41  H   LIG d   1       5.611   1.865  -1.762  0.00  0.00     0.028 H 
ATOM     42  H   LIG d   1       5.268   0.146  -1.456  0.00  0.00     0.028 H 
BRANCH  40  43
ATOM     43  C   LIG d   1       3.693   1.197  -2.482  0.00  0.00    -0.063 C 
ATOM     44  H   LIG d   1       3.371   0.521  -3.274  0.00  0.00     0.023 H 
ATOM     45  H   LIG d   1       3.551   2.229  -2.805  0.00  0.00     0.023 H 
ATOM     46  H   LIG d   1       3.102   1.014  -1.585  0.00  0.00     0.023 H 
ENDBRANCH  40  43
ENDBRANCH  38  40
BRANCH  38  47
ATOM     47  C   LIG d   1       5.640  -0.868  -3.790  0.00  0.00     0.062 C 
ATOM     48  O   LIG d   1       5.795  -1.714  -2.942  0.00  0.00    -0.548 OA
ATOM     49  OXT LIG d   1       5.233  -1.218  -5.019  0.00  0.00    -0.548 OA
ENDBRANCH  38  47
ENDBRANCH  35  38
ENDBRANCH  31  34
ENDBRANCH  30  31
ENDBRANCH   1  30
BRANCH  17  50
ATOM     50  C   LIG d   1      12.595   6.533  -0.531  0.00  0.00    -0.025 C 
ATOM     51  H   LIG d   1      12.898   7.564  -0.343  0.00  0.00     0.027 H 
ATOM     52  H   LIG d   1      13.203   5.860   0.072  0.00  0.00     0.027 H 
ATOM     53  H   LIG d   1      12.735   6.301  -1.586  0.00  0.00     0.027 H 
ENDBRANCH  17  50
BRANCH  17  54
ATOM     54  C   LIG d   1      10.982   6.227   1.357  0.00  0.00    -0.025 C 
ATOM     55  H   LIG d   1      10.365   7.040   1.738  0.00  0.00     0.027 H 
ATOM     56  H   LIG d   1      10.514   5.272   1.597  0.00  0.00     0.027 H 
ATOM     57  H   LIG d   1      11.969   6.273   1.817  0.00  0.00     0.027 H 
ENDBRANCH  17  54
TORSDOF 9
ENDMDL
MODEL 6
REMARK VINA RESULT:      -6.5      1.980      2.410
REMARK  9 active torsions:
REMARK  status: ('A' for Active; 'I' for Inactive)
REMARK    1  A    between atoms: C_1  and  C_2 
REMARK    2  A    between atoms: C_2  and  CA_3 
REMARK    3  A    between atoms: CA_3  and  C_5 
REMARK    4  A    between atoms: CA_3  and  N_7 
REMARK       I    between atoms: N_7  and  C_8 
REMARK    5  A    between atoms: C_8  and  C_10 
REMARK    6  A    between atoms: C_10  and  O_11 
REMARK    7  A    between atoms: O_11  and  C_12 
REMARK    8  A    between atoms: C_28  and  C_30 
REMARK    9  A    between atoms: C_28  and  C_31 
ROOT
ATOM      1  C   LIG d   1       4.262  -2.318  -6.327  0.00  0.00     0.136 A 
ATOM      2  C   LIG d   1       4.209  -2.400  -7.703  0.00  0.00     0.023 A 
ATOM      3  C   LIG d   1       3.754  -1.320  -8.462  0.00  0.00     0.131 A 
ATOM      4  C   LIG d   1       3.358  -0.148  -7.841  0.00  0.00     0.038 A 
ATOM      5  C   LIG d   1       3.411  -0.044  -6.456  0.00  0.00     0.149 A 
ATOM      6  C   LIG d   1       3.867  -1.129  -5.689  0.00  0.00     0.063 A 
ATOM      7  C   LIG d   1       3.925  -1.013  -4.275  0.00  0.00    -0.023 A 
ATOM      8  C   LIG d   1       3.533   0.151  -3.696  0.00  0.00     0.041 A 
ATOM      9  C   LIG d   1       3.077   1.214  -4.508  0.00  0.00     0.341 A 
ATOM     10  O   LIG d   1       2.722   2.256  -3.984  0.00  0.00    -0.245 OA
ATOM     11  O   LIG d   1       3.027   1.098  -5.844  0.00  0.00    -0.421 OA
ATOM     12  C   LIG d   1       3.676   0.058  -2.193  0.00  0.00    -0.020 C 
ATOM     13  C   LIG d   1       4.611  -1.148  -1.951  0.00  0.00    -0.045 C 
ATOM     14  C   LIG d   1       4.370  -1.998  -3.218  0.00  0.00    -0.026 C 
ATOM     15  C   LIG d   1       2.861   1.034  -8.634  0.00  0.00    -0.017 C 
ATOM     16  C   LIG d   1       3.286   0.890 -10.098  0.00  0.00    -0.009 C 
ATOM     17  C   LIG d   1       2.935  -0.530 -10.561  0.00  0.00     0.105 C 
ATOM     18  O   LIG d   1       3.724  -1.455  -9.813  0.00  0.00    -0.486 OA
ATOM     19  H   LIG d   1       4.516  -3.309  -8.197  0.00  0.00     0.069 H 
ATOM     20  H   LIG d   1       4.125   0.969  -1.798  0.00  0.00     0.032 H 
ATOM     21  H   LIG d   1       2.706  -0.118  -1.730  0.00  0.00     0.032 H 
ATOM     22  H   LIG d   1       5.650  -0.828  -1.890  0.00  0.00     0.027 H 
ATOM     23  H   LIG d   1       4.317  -1.694  -1.055  0.00  0.00     0.027 H 
ATOM     24  H   LIG d   1       5.293  -2.491  -3.525  0.00  0.00     0.031 H 
ATOM     25  H   LIG d   1       3.589  -2.736  -3.036  0.00  0.00     0.031 H 
ATOM     26  H   LIG d   1       1.773   1.078  -8.576  0.00  0.00     0.032 H 
ATOM     27  H   LIG d   1       3.283   1.951  -8.223  0.00  0.00     0.032 H 
ATOM     28  H   LIG d   1       2.753   1.619 -10.708  0.00  0.00     0.031 H 
ATOM     29  H   LIG d   1       4.360   1.051 -10.185  0.00  0.00     0.031 H 
ENDROOT
BRANCH   1  30
ATOM     30  O   LIG d   1       4.699  -3.375  -5.596  0.00  0.00    -0.482 OA
BRANCH  30  31
ATOM     31  C   LIG d   1       4.471  -4.677  -6.138  0.00  0.00     0.165 C 
ATOM     32  H   LIG d   1       4.416  -4.613  -7.225  0.00  0.00     0.080 H 
ATOM     33  H   LIG d   1       3.533  -5.073  -5.749  0.00  0.00     0.080 H 
BRANCH  31  34
ATOM     34  C   LIG d   1       5.604  -5.589  -5.745  0.00  0.00     0.251 C 
ATOM     35  N   LIG d   1       6.844  -5.091  -5.579  0.00  0.00    -0.305 N 
ATOM     36  H   LIG d   1       7.008  -4.143  -5.713  0.00  0.00     0.149 HD
ATOM     37  O   LIG d   1       5.399  -6.774  -5.579  0.00  0.00    -0.272 OA
BRANCH  35  38
ATOM     38  CA  LIG d   1       7.946  -5.978  -5.198  0.00  0.00     0.062 C 
ATOM     39  HA  LIG d   1       7.543  -6.885  -4.748  0.00  0.00     0.056 H 
BRANCH  38  40
ATOM     40  C   LIG d   1       8.849  -5.266  -4.189  0.00  0.00    -0.032 C 
ATOM     41  H   LIG d   1       9.880  -5.291  -4.542  0.00  0.00     0.028 H 
ATOM     42  H   LIG d   1       8.783  -5.768  -3.225  0.00  0.00     0.028 H 
BRANCH  40  43
ATOM     43  C   LIG d   1       8.397  -3.811  -4.039  0.00  0.00    -0.063 C 
ATOM     44  H   LIG d   1       7.970  -3.665  -3.047  0.00  0.00     0.023 H 
ATOM     45  H   LIG d   1       7.646  -3.584  -4.795  0.00  0.00     0.023 H 
ATOM     46  H   LIG d   1       9.254  -3.150  -4.167  0.00  0.00     0.023 H 
ENDBRANCH  40  43
ENDBRANCH  38  40
BRANCH  38  47
ATOM     47  C   LIG d   1       8.748  -6.338  -6.423  0.00  0.00     0.062 C 
ATOM     48  O   LIG d   1       9.730  -5.696  -6.712  0.00  0.00    -0.548 OA
ATOM     49  OXT LIG d   1       8.372  -7.371  -7.192  0.00  0.00    -0.548 OA
ENDBRANCH  38  47
ENDBRANCH  35  38
ENDBRANCH  31  34
ENDBRANCH  30  31
ENDBRANCH   1  30
BRANCH  17  50
ATOM     50  C   LIG d   1       1.450  -0.801 -10.315  0.00  0.00    -0.025 C 
ATOM     51  H   LIG d   1       0.859  -0.329 -11.100  0.00  0.00     0.027 H 
ATOM     52  H   LIG d   1       1.271  -1.876 -10.322  0.00  0.00     0.027 H 
ATOM     53  H   LIG d   1       1.161  -0.391  -9.347  0.00  0.00     0.027 H 
ENDBRANCH  17  50
BRANCH  17  54
ATOM     54  C   LIG d   1       3.246  -0.677 -12.053  0.00  0.00    -0.025 C 
ATOM     55  H   LIG d   1       3.530   0.293 -12.461  0.00  0.00     0.027 H 
ATOM     56  H   LIG d   1       4.066  -1.382 -12.185  0.00  0.00     0.027 H 
ATOM     57  H   LIG d   1       2.362  -1.046 -12.573  0.00  0.00     0.027 H 
ENDBRANCH  17  54
TORSDOF 9
ENDMDL
MODEL 7
REMARK VINA RESULT:      -6.4      2.378      6.557
REMARK  9 active torsions:
REMARK  status: ('A' for Active; 'I' for Inactive)
REMARK    1  A    between atoms: C_1  and  C_2 
REMARK    2  A    between atoms: C_2  and  CA_3 
REMARK    3  A    between atoms: CA_3  and  C_5 
REMARK    4  A    between atoms: CA_3  and  N_7 
REMARK       I    between atoms: N_7  and  C_8 
REMARK    5  A    between atoms: C_8  and  C_10 
REMARK    6  A    between atoms: C_10  and  O_11 
REMARK    7  A    between atoms: O_11  and  C_12 
REMARK    8  A    between atoms: C_28  and  C_30 
REMARK    9  A    between atoms: C_28  and  C_31 
ROOT
ATOM      1  C   LIG d   1       4.741  -4.281  -6.590  0.00  0.00     0.136 A 
ATOM      2  C   LIG d   1       4.354  -3.075  -7.135  0.00  0.00     0.023 A 
ATOM      3  C   LIG d   1       3.635  -3.034  -8.331  0.00  0.00     0.131 A 
ATOM      4  C   LIG d   1       3.295  -4.207  -8.981  0.00  0.00     0.038 A 
ATOM      5  C   LIG d   1       3.668  -5.432  -8.444  0.00  0.00     0.149 A 
ATOM      6  C   LIG d   1       4.394  -5.478  -7.241  0.00  0.00     0.063 A 
ATOM      7  C   LIG d   1       4.767  -6.734  -6.695  0.00  0.00    -0.023 A 
ATOM      8  C   LIG d   1       4.414  -7.867  -7.354  0.00  0.00     0.041 A 
ATOM      9  C   LIG d   1       3.690  -7.772  -8.564  0.00  0.00     0.341 A 
ATOM     10  O   LIG d   1       3.379  -8.792  -9.155  0.00  0.00    -0.245 OA
ATOM     11  O   LIG d   1       3.338  -6.582  -9.074  0.00  0.00    -0.421 OA
ATOM     12  C   LIG d   1       4.909  -9.083  -6.601  0.00  0.00    -0.020 C 
ATOM     13  C   LIG d   1       5.230  -8.571  -5.179  0.00  0.00    -0.045 C 
ATOM     14  C   LIG d   1       5.530  -7.078  -5.435  0.00  0.00    -0.026 C 
ATOM     15  C   LIG d   1       2.521  -4.194 -10.276  0.00  0.00    -0.017 C 
ATOM     16  C   LIG d   1       1.842  -2.833 -10.458  0.00  0.00    -0.009 C 
ATOM     17  C   LIG d   1       2.883  -1.739 -10.191  0.00  0.00     0.105 C 
ATOM     18  O   LIG d   1       3.280  -1.818  -8.822  0.00  0.00    -0.486 OA
ATOM     19  H   LIG d   1       4.615  -2.154  -6.635  0.00  0.00     0.069 H 
ATOM     20  H   LIG d   1       4.131  -9.845  -6.562  0.00  0.00     0.032 H 
ATOM     21  H   LIG d   1       5.808  -9.480  -7.071  0.00  0.00     0.032 H 
ATOM     22  H   LIG d   1       4.370  -8.687  -4.521  0.00  0.00     0.027 H 
ATOM     23  H   LIG d   1       6.104  -9.079  -4.771  0.00  0.00     0.027 H 
ATOM     24  H   LIG d   1       5.176  -6.472  -4.601  0.00  0.00     0.031 H 
ATOM     25  H   LIG d   1       6.599  -6.927  -5.588  0.00  0.00     0.031 H 
ATOM     26  H   LIG d   1       3.202  -4.373 -11.107  0.00  0.00     0.032 H 
ATOM     27  H   LIG d   1       1.763  -4.977 -10.254  0.00  0.00     0.032 H 
ATOM     28  H   LIG d   1       1.467  -2.744 -11.477  0.00  0.00     0.031 H 
ATOM     29  H   LIG d   1       1.018  -2.737  -9.751  0.00  0.00     0.031 H 
ENDROOT
BRANCH   1  30
ATOM     30  O   LIG d   1       5.445  -4.313  -5.430  0.00  0.00    -0.482 OA
BRANCH  30  31
ATOM     31  C   LIG d   1       6.657  -3.556  -5.387  0.00  0.00     0.165 C 
ATOM     32  H   LIG d   1       6.746  -2.961  -6.295  0.00  0.00     0.080 H 
ATOM     33  H   LIG d   1       7.506  -4.234  -5.312  0.00  0.00     0.080 H 
BRANCH  31  34
ATOM     34  C   LIG d   1       6.635  -2.643  -4.188  0.00  0.00     0.251 C 
ATOM     35  N   LIG d   1       5.544  -1.897  -3.929  0.00  0.00    -0.305 N 
ATOM     36  H   LIG d   1       4.771  -1.948  -4.514  0.00  0.00     0.149 HD
ATOM     37  O   LIG d   1       7.601  -2.579  -3.457  0.00  0.00    -0.272 OA
BRANCH  35  38
ATOM     38  CA  LIG d   1       5.523  -1.008  -2.764  0.00  0.00     0.062 C 
ATOM     39  HA  LIG d   1       6.386  -1.218  -2.132  0.00  0.00     0.056 H 
BRANCH  38  40
ATOM     40  C   LIG d   1       4.238  -1.242  -1.968  0.00  0.00    -0.032 C 
ATOM     41  H   LIG d   1       4.113  -0.443  -1.237  0.00  0.00     0.028 H 
ATOM     42  H   LIG d   1       4.299  -2.199  -1.452  0.00  0.00     0.028 H 
BRANCH  40  43
ATOM     43  C   LIG d   1       3.042  -1.252  -2.922  0.00  0.00    -0.063 C 
ATOM     44  H   LIG d   1       2.328  -2.011  -2.601  0.00  0.00     0.023 H 
ATOM     45  H   LIG d   1       3.384  -1.479  -3.932  0.00  0.00     0.023 H 
ATOM     46  H   LIG d   1       2.561  -0.274  -2.912  0.00  0.00     0.023 H 
ENDBRANCH  40  43
ENDBRANCH  38  40
BRANCH  38  47
ATOM     47  C   LIG d   1       5.575   0.426  -3.225  0.00  0.00     0.062 C 
ATOM     48  O   LIG d   1       5.502   1.322  -2.419  0.00  0.00    -0.548 OA
ATOM     49  OXT LIG d   1       5.700   0.707  -4.531  0.00  0.00    -0.548 OA
ENDBRANCH  38  47
ENDBRANCH  35  38
ENDBRANCH  31  34
ENDBRANCH  30  31
ENDBRANCH   1  30
BRANCH  17  50
ATOM     50  C   LIG d   1       4.100  -1.953 -11.093  0.00  0.00    -0.025 C 
ATOM     51  H   LIG d   1       4.818  -1.148 -10.933  0.00  0.00     0.027 H 
ATOM     52  H   LIG d   1       4.567  -2.908 -10.854  0.00  0.00     0.027 H 
ATOM     53  H   LIG d   1       3.784  -1.955 -12.136  0.00  0.00     0.027 H 
ENDBRANCH  17  50
BRANCH  17  54
ATOM     54  C   LIG d   1       2.270  -0.365 -10.471  0.00  0.00    -0.025 C 
ATOM     55  H   LIG d   1       1.935  -0.320 -11.507  0.00  0.00     0.027 H 
ATOM     56  H   LIG d   1       1.420  -0.205  -9.808  0.00  0.00     0.027 H 
ATOM     57  H   LIG d   1       3.018   0.408 -10.297  0.00  0.00     0.027 H 
ENDBRANCH  17  54
TORSDOF 9
ENDMDL
MODEL 8
REMARK VINA RESULT:      -6.4      3.418      7.939
REMARK  9 active torsions:
REMARK  status: ('A' for Active; 'I' for Inactive)
REMARK    1  A    between atoms: C_1  and  C_2 
REMARK    2  A    between atoms: C_2  and  CA_3 
REMARK    3  A    between atoms: CA_3  and  C_5 
REMARK    4  A    between atoms: CA_3  and  N_7 
REMARK       I    between atoms: N_7  and  C_8 
REMARK    5  A    between atoms: C_8  and  C_10 
REMARK    6  A    between atoms: C_10  and  O_11 
REMARK    7  A    between atoms: O_11  and  C_12 
REMARK    8  A    between atoms: C_28  and  C_30 
REMARK    9  A    between atoms: C_28  and  C_31 
ROOT
ATOM      1  C   LIG d   1       7.603  -2.454  -5.299  0.00  0.00     0.136 A 
ATOM      2  C   LIG d   1       7.362  -1.377  -4.471  0.00  0.00     0.023 A 
ATOM      3  C   LIG d   1       6.176  -1.295  -3.739  0.00  0.00     0.131 A 
ATOM      4  C   LIG d   1       5.230  -2.301  -3.831  0.00  0.00     0.038 A 
ATOM      5  C   LIG d   1       5.457  -3.397  -4.653  0.00  0.00     0.149 A 
ATOM      6  C   LIG d   1       6.650  -3.482  -5.392  0.00  0.00     0.063 A 
ATOM      7  C   LIG d   1       6.879  -4.609  -6.225  0.00  0.00    -0.023 A 
ATOM      8  C   LIG d   1       5.932  -5.580  -6.290  0.00  0.00     0.041 A 
ATOM      9  C   LIG d   1       4.746  -5.449  -5.533  0.00  0.00     0.341 A 
ATOM     10  O   LIG d   1       3.898  -6.321  -5.597  0.00  0.00    -0.245 OA
ATOM     11  O   LIG d   1       4.537  -4.382  -4.745  0.00  0.00    -0.421 OA
ATOM     12  C   LIG d   1       6.378  -6.679  -7.230  0.00  0.00    -0.020 C 
ATOM     13  C   LIG d   1       7.900  -6.472  -7.397  0.00  0.00    -0.045 C 
ATOM     14  C   LIG d   1       8.051  -4.962  -7.113  0.00  0.00    -0.026 C 
ATOM     15  C   LIG d   1       3.938  -2.239  -3.054  0.00  0.00    -0.017 C 
ATOM     16  C   LIG d   1       4.069  -1.225  -1.914  0.00  0.00    -0.009 C 
ATOM     17  C   LIG d   1       4.667   0.066  -2.486  0.00  0.00     0.105 C 
ATOM     18  O   LIG d   1       5.992  -0.213  -2.940  0.00  0.00    -0.486 OA
ATOM     19  H   LIG d   1       8.095  -0.588  -4.393  0.00  0.00     0.069 H 
ATOM     20  H   LIG d   1       6.176  -7.656  -6.792  0.00  0.00     0.032 H 
ATOM     21  H   LIG d   1       5.876  -6.582  -8.192  0.00  0.00     0.032 H 
ATOM     22  H   LIG d   1       8.455  -7.062  -6.669  0.00  0.00     0.027 H 
ATOM     23  H   LIG d   1       8.215  -6.710  -8.413  0.00  0.00     0.027 H 
ATOM     24  H   LIG d   1       8.990  -4.765  -6.595  0.00  0.00     0.031 H 
ATOM     25  H   LIG d   1       8.005  -4.394  -8.043  0.00  0.00     0.031 H 
ATOM     26  H   LIG d   1       3.130  -1.933  -3.718  0.00  0.00     0.032 H 
ATOM     27  H   LIG d   1       3.715  -3.222  -2.641  0.00  0.00     0.032 H 
ATOM     28  H   LIG d   1       3.086  -1.020  -1.490  0.00  0.00     0.031 H 
ATOM     29  H   LIG d   1       4.727  -1.625  -1.142  0.00  0.00     0.031 H 
ENDROOT
BRANCH   1  30
ATOM     30  O   LIG d   1       8.756  -2.523  -6.012  0.00  0.00    -0.482 OA
BRANCH  30  31
ATOM     31  C   LIG d   1       9.420  -1.289  -6.293  0.00  0.00     0.165 C 
ATOM     32  H   LIG d   1      10.491  -1.467  -6.388  0.00  0.00     0.080 H 
ATOM     33  H   LIG d   1       9.239  -0.586  -5.481  0.00  0.00     0.080 H 
BRANCH  31  34
ATOM     34  C   LIG d   1       8.889  -0.716  -7.582  0.00  0.00     0.251 C 
ATOM     35  N   LIG d   1       8.324   0.506  -7.594  0.00  0.00    -0.305 N 
ATOM     36  H   LIG d   1       8.259   1.018  -6.772  0.00  0.00     0.149 HD
ATOM     37  O   LIG d   1       8.971  -1.357  -8.610  0.00  0.00    -0.272 OA
BRANCH  35  38
ATOM     38  CA  LIG d   1       7.808   1.063  -8.847  0.00  0.00     0.062 C 
ATOM     39  HA  LIG d   1       7.842   0.300  -9.625  0.00  0.00     0.056 H 
BRANCH  38  40
ATOM     40  C   LIG d   1       8.667   2.258  -9.266  0.00  0.00    -0.032 C 
ATOM     41  H   LIG d   1       8.092   2.904  -9.930  0.00  0.00     0.028 H 
ATOM     42  H   LIG d   1       9.555   1.901  -9.786  0.00  0.00     0.028 H 
BRANCH  40  43
ATOM     43  C   LIG d   1       9.086   3.046  -8.023  0.00  0.00    -0.063 C 
ATOM     44  H   LIG d   1       8.253   3.086  -7.321  0.00  0.00     0.023 H 
ATOM     45  H   LIG d   1       9.366   4.059  -8.312  0.00  0.00     0.023 H 
ATOM     46  H   LIG d   1       9.936   2.555  -7.550  0.00  0.00     0.023 H 
ENDBRANCH  40  43
ENDBRANCH  38  40
BRANCH  38  47
ATOM     47  C   LIG d   1       6.384   1.515  -8.647  0.00  0.00     0.062 C 
ATOM     48  O   LIG d   1       5.913   2.365  -9.365  0.00  0.00    -0.548 OA
ATOM     49  OXT LIG d   1       5.639   0.974  -7.671  0.00  0.00    -0.548 OA
ENDBRANCH  38  47
ENDBRANCH  35  38
ENDBRANCH  31  34
ENDBRANCH  30  31
ENDBRANCH   1  30
BRANCH  17  50
ATOM     50  C   LIG d   1       3.814   0.555  -3.658  0.00  0.00    -0.025 C 
ATOM     51  H   LIG d   1       2.806   0.147  -3.569  0.00  0.00     0.027 H 
ATOM     52  H   LIG d   1       3.768   1.643  -3.645  0.00  0.00     0.027 H 
ATOM     53  H   LIG d   1       4.258   0.221  -4.595  0.00  0.00     0.027 H 
ENDBRANCH  17  50
BRANCH  17  54
ATOM     54  C   LIG d   1       4.711   1.140  -1.397  0.00  0.00    -0.025 C 
ATOM     55  H   LIG d   1       4.671   2.127  -1.858  0.00  0.00     0.027 H 
ATOM     56  H   LIG d   1       3.860   1.016  -0.729  0.00  0.00     0.027 H 
ATOM     57  H   LIG d   1       5.637   1.043  -0.829  0.00  0.00     0.027 H 
ENDBRANCH  17  54
TORSDOF 9
ENDMDL
MODEL 9
REMARK VINA RESULT:      -6.3      3.801      5.964
REMARK  9 active torsions:
REMARK  status: ('A' for Active; 'I' for Inactive)
REMARK    1  A    between atoms: C_1  and  C_2 
REMARK    2  A    between atoms: C_2  and  CA_3 
REMARK    3  A    between atoms: CA_3  and  C_5 
REMARK    4  A    between atoms: CA_3  and  N_7 
REMARK       I    between atoms: N_7  and  C_8 
REMARK    5  A    between atoms: C_8  and  C_10 
REMARK    6  A    between atoms: C_10  and  O_11 
REMARK    7  A    between atoms: O_11  and  C_12 
REMARK    8  A    between atoms: C_28  and  C_30 
REMARK    9  A    between atoms: C_28  and  C_31 
ROOT
ATOM      1  C   LIG d   1       6.231  -5.245  -5.506  0.00  0.00     0.136 A 
ATOM      2  C   LIG d   1       5.098  -4.478  -5.334  0.00  0.00     0.023 A 
ATOM      3  C   LIG d   1       5.163  -3.254  -4.667  0.00  0.00     0.131 A 
ATOM      4  C   LIG d   1       6.371  -2.790  -4.177  0.00  0.00     0.038 A 
ATOM      5  C   LIG d   1       7.525  -3.544  -4.347  0.00  0.00     0.149 A 
ATOM      6  C   LIG d   1       7.463  -4.779  -5.017  0.00  0.00     0.063 A 
ATOM      7  C   LIG d   1       8.648  -5.540  -5.193  0.00  0.00    -0.023 A 
ATOM      8  C   LIG d   1       9.819  -5.056  -4.704  0.00  0.00     0.041 A 
ATOM      9  C   LIG d   1       9.832  -3.812  -4.033  0.00  0.00     0.341 A 
ATOM     10  O   LIG d   1      10.884  -3.383  -3.592  0.00  0.00    -0.245 OA
ATOM     11  O   LIG d   1       8.708  -3.096  -3.871  0.00  0.00    -0.421 OA
ATOM     12  C   LIG d   1      10.945  -6.021  -5.001  0.00  0.00    -0.020 C 
ATOM     13  C   LIG d   1      10.399  -6.949  -6.109  0.00  0.00    -0.045 C 
ATOM     14  C   LIG d   1       8.876  -6.875  -5.866  0.00  0.00    -0.026 C 
ATOM     15  C   LIG d   1       6.472  -1.472  -3.450  0.00  0.00    -0.017 C 
ATOM     16  C   LIG d   1       5.235  -0.621  -3.749  0.00  0.00    -0.009 C 
ATOM     17  C   LIG d   1       3.991  -1.497  -3.552  0.00  0.00     0.105 C 
ATOM     18  O   LIG d   1       4.016  -2.540  -4.526  0.00  0.00    -0.486 OA
ATOM     19  H   LIG d   1       4.151  -4.832  -5.713  0.00  0.00     0.069 H 
ATOM     20  H   LIG d   1      11.822  -5.481  -5.358  0.00  0.00     0.032 H 
ATOM     21  H   LIG d   1      11.192  -6.600  -4.112  0.00  0.00     0.032 H 
ATOM     22  H   LIG d   1      10.654  -6.566  -7.097  0.00  0.00     0.027 H 
ATOM     23  H   LIG d   1      10.765  -7.967  -5.979  0.00  0.00     0.027 H 
ATOM     24  H   LIG d   1       8.338  -6.917  -6.814  0.00  0.00     0.031 H 
ATOM     25  H   LIG d   1       8.556  -7.687  -5.213  0.00  0.00     0.031 H 
ATOM     26  H   LIG d   1       6.536  -1.654  -2.377  0.00  0.00     0.032 H 
ATOM     27  H   LIG d   1       7.365  -0.942  -3.781  0.00  0.00     0.032 H 
ATOM     28  H   LIG d   1       5.200   0.228  -3.067  0.00  0.00     0.031 H 
ATOM     29  H   LIG d   1       5.275  -0.265  -4.779  0.00  0.00     0.031 H 
ENDROOT
BRANCH   1  30
ATOM     30  O   LIG d   1       6.158  -6.438  -6.150  0.00  0.00    -0.482 OA
BRANCH  30  31
ATOM     31  C   LIG d   1       4.929  -7.158  -6.044  0.00  0.00     0.165 C 
ATOM     32  H   LIG d   1       4.670  -7.580  -7.015  0.00  0.00     0.080 H 
ATOM     33  H   LIG d   1       4.138  -6.482  -5.720  0.00  0.00     0.080 H 
BRANCH  31  34
ATOM     34  C   LIG d   1       5.083  -8.270  -5.038  0.00  0.00     0.251 C 
ATOM     35  N   LIG d   1       6.312  -8.652  -4.640  0.00  0.00    -0.305 N 
ATOM     36  H   LIG d   1       7.098  -8.212  -5.001  0.00  0.00     0.149 HD
ATOM     37  O   LIG d   1       4.101  -8.820  -4.587  0.00  0.00    -0.272 OA
BRANCH  35  38
ATOM     38  CA  LIG d   1       6.462  -9.733  -3.662  0.00  0.00     0.062 C 
ATOM     39  HA  LIG d   1       5.514  -9.892  -3.148  0.00  0.00     0.056 H 
BRANCH  38  40
ATOM     40  C   LIG d   1       7.538  -9.353  -2.643  0.00  0.00    -0.032 C 
ATOM     41  H   LIG d   1       7.518  -8.276  -2.477  0.00  0.00     0.028 H 
ATOM     42  H   LIG d   1       8.517  -9.643  -3.024  0.00  0.00     0.028 H 
BRANCH  40  43
ATOM     43  C   LIG d   1       7.269 -10.078  -1.323  0.00  0.00    -0.063 C 
ATOM     44  H   LIG d   1       6.267 -10.506  -1.342  0.00  0.00     0.023 H 
ATOM     45  H   LIG d   1       7.346  -9.371  -0.497  0.00  0.00     0.023 H 
ATOM     46  H   LIG d   1       8.001 -10.874  -1.189  0.00  0.00     0.023 H 
ENDBRANCH  40  43
ENDBRANCH  38  40
BRANCH  38  47
ATOM     47  C   LIG d   1       6.868 -11.000  -4.372  0.00  0.00     0.062 C 
ATOM     48  O   LIG d   1       7.921 -11.051  -4.962  0.00  0.00    -0.548 OA
ATOM     49  OXT LIG d   1       6.059 -12.070  -4.350  0.00  0.00    -0.548 OA
ENDBRANCH  38  47
ENDBRANCH  35  38
ENDBRANCH  31  34
ENDBRANCH  30  31
ENDBRANCH   1  30
BRANCH  17  50
ATOM     50  C   LIG d   1       4.005  -2.104  -2.148  0.00  0.00    -0.025 C 
ATOM     51  H   LIG d   1       3.331  -1.540  -1.502  0.00  0.00     0.027 H 
ATOM     52  H   LIG d   1       3.678  -3.141  -2.196  0.00  0.00     0.027 H 
ATOM     53  H   LIG d   1       5.015  -2.060  -1.743  0.00  0.00     0.027 H 
ENDBRANCH  17  50
BRANCH  17  54
ATOM     54  C   LIG d   1       2.730  -0.650  -3.736  0.00  0.00    -0.025 C 
ATOM     55  H   LIG d   1       2.874   0.323  -3.266  0.00  0.00     0.027 H 
ATOM     56  H   LIG d   1       2.535  -0.515  -4.800  0.00  0.00     0.027 H 
ATOM     57  H   LIG d   1       1.883  -1.156  -3.273  0.00  0.00     0.027 H 
ENDBRANCH  17  54
TORSDOF 9
ENDMDL
