MODEL 1
REMARK VINA RESULT:      -6.0      0.000      0.000
REMARK  9 active torsions:
REMARK  status: ('A' for Active; 'I' for Inactive)
REMARK    1  A    between atoms: C_1  and  O_2 
REMARK    2  A    between atoms: O_2  and  N_3 
REMARK    3  A    between atoms: C_4  and  C_5 
REMARK    4  A    between atoms: C_4  and  C_10 
REMARK       I    between atoms: C_10  and  N_12 
REMARK    5  A    between atoms: N_12  and  CA_13 
REMARK    6  A    between atoms: CA_20  and  C_29 
REMARK    7  A    between atoms: C_21  and  C_24 
REMARK    8  A    between atoms: C_24  and  O_25 
REMARK    9  A    between atoms: O_25  and  C_26 
REMARK       I    between atoms: C_26  and  N_28 
ROOT
ATOM      1  CA  LIG d   1       5.625  -4.605  -6.232  0.00  0.00     0.129 C 
ATOM      2  HA  LIG d   1       6.566  -4.689  -6.776  0.00  0.00     0.062 H 
ATOM      3  C   LIG d   1       5.720  -3.829  -4.930  0.00  0.00     0.104 C 
ATOM      4  H   LIG d   1       5.120  -4.234  -4.116  0.00  0.00     0.064 H 
ATOM      5  N   LIG d   1       5.138  -2.635  -5.604  0.00  0.00    -0.253 N 
ATOM      6  C   LIG d   1       4.763  -3.401  -6.622  0.00  0.00     0.244 C 
ATOM      7  O   LIG d   1       3.994  -3.213  -7.541  0.00  0.00    -0.273 OA
ATOM      8  CA  LIG d   1       5.201  -1.304  -5.175  0.00  0.00     0.063 C 
ATOM      9  C   LIG d   1       6.096  -0.931  -4.272  0.00  0.00     0.000 C 
ATOM     10  C   LIG d   1       7.091  -1.782  -3.552  0.00  0.00     0.022 C 
ATOM     11  S   LIG d   1       7.407  -3.345  -4.428  0.00  0.00    -0.131 SA
ATOM     12  H   LIG d   1       8.027  -1.232  -3.459  0.00  0.00     0.042 H 
ATOM     13  H   LIG d   1       6.711  -2.006  -2.555  0.00  0.00     0.042 H 
ENDROOT
BRANCH   1  14
ATOM     14  N   LIG d   1       4.895  -5.871  -6.131  0.00  0.00    -0.296 N 
ATOM     15  C   LIG d   1       5.568  -7.025  -5.958  0.00  0.00     0.270 C 
ATOM     16  O   LIG d   1       6.771  -7.008  -5.788  0.00  0.00    -0.268 OA
ATOM     17  H   LIG d   1       3.927  -5.878  -6.190  0.00  0.00     0.150 HD
BRANCH  15  18
ATOM     18  C   LIG d   1       4.841  -8.317  -5.974  0.00  0.00     0.206 C 
ATOM     19  N   LIG d   1       4.283  -8.738  -7.075  0.00  0.00    -0.076 NA
BRANCH  19  20
ATOM     20  O   LIG d   1       4.463  -8.017  -8.281  0.00  0.00    -0.396 OA
BRANCH  20  21
ATOM     21  C   LIG d   1       3.392  -8.169  -9.214  0.00  0.00     0.107 C 
ATOM     22  H   LIG d   1       3.791  -8.496 -10.175  0.00  0.00     0.069 H 
ATOM     23  H   LIG d   1       2.688  -8.914  -8.842  0.00  0.00     0.069 H 
ATOM     24  H   LIG d   1       2.880  -7.216  -9.339  0.00  0.00     0.069 H 
ENDBRANCH  20  21
ENDBRANCH  19  20
BRANCH  18  25
ATOM     25  C   LIG d   1       4.750  -9.126  -4.746  0.00  0.00     0.161 A 
ATOM     26  O   LIG d   1       3.613  -9.478  -4.113  0.00  0.00    -0.461 OA
ATOM     27  C   LIG d   1       3.915 -10.214  -3.031  0.00  0.00     0.093 A 
ATOM     28  C   LIG d   1       5.256 -10.343  -2.956  0.00  0.00    -0.023 A 
ATOM     29  H   LIG d   1       3.202 -10.632  -2.336  0.00  0.00     0.103 H 
ATOM     30  C   LIG d   1       5.799  -9.653  -4.055  0.00  0.00    -0.014 A 
ATOM     31  H   LIG d   1       5.808 -10.878  -2.198  0.00  0.00     0.065 H 
ATOM     32  H   LIG d   1       6.848  -9.558  -4.302  0.00  0.00     0.066 H 
ENDBRANCH  18  25
ENDBRANCH  15  18
ENDBRANCH   1  14
BRANCH   8  33
ATOM     33  C   LIG d   1       4.262  -0.312  -5.728  0.00  0.00     0.086 C 
ATOM     34  O   LIG d   1       4.535   0.277  -6.755  0.00  0.00    -0.543 OA
ATOM     35  OXT LIG d   1       3.100  -0.057  -5.094  0.00  0.00    -0.543 OA
ENDBRANCH   8  33
BRANCH   9  36
ATOM     36  C   LIG d   1       6.112   0.536  -3.926  0.00  0.00     0.118 C 
ATOM     37  H   LIG d   1       7.082   0.959  -4.184  0.00  0.00     0.075 H 
ATOM     38  H   LIG d   1       5.331   1.050  -4.487  0.00  0.00     0.075 H 
BRANCH  36  39
ATOM     39  O   LIG d   1       5.875   0.701  -2.503  0.00  0.00    -0.446 OA
BRANCH  39  40
ATOM     40  C   LIG d   1       4.623   0.474  -2.062  0.00  0.00     0.398 C 
ATOM     41  O   LIG d   1       4.379  -0.523  -1.412  0.00  0.00    -0.227 OA
ATOM     42  N   LIG d   1       3.641   1.354  -2.341  0.00  0.00    -0.295 N 
ATOM     43  H   LIG d   1       3.818   2.112  -2.920  0.00  0.00     0.148 HD
ATOM     44  H   LIG d   1       2.756   1.229  -1.963  0.00  0.00     0.148 HD
ENDBRANCH  39  40
ENDBRANCH  36  39
ENDBRANCH   9  36
TORSDOF 9
ENDMDL
MODEL 2
REMARK VINA RESULT:      -5.9      4.332     10.087
REMARK  9 active torsions:
REMARK  status: ('A' for Active; 'I' for Inactive)
REMARK    1  A    between atoms: C_1  and  O_2 
REMARK    2  A    between atoms: O_2  and  N_3 
REMARK    3  A    between atoms: C_4  and  C_5 
REMARK    4  A    between atoms: C_4  and  C_10 
REMARK       I    between atoms: C_10  and  N_12 
REMARK    5  A    between atoms: N_12  and  CA_13 
REMARK    6  A    between atoms: CA_20  and  C_29 
REMARK    7  A    between atoms: C_21  and  C_24 
REMARK    8  A    between atoms: C_24  and  O_25 
REMARK    9  A    between atoms: O_25  and  C_26 
REMARK       I    between atoms: C_26  and  N_28 
ROOT
ATOM      1  CA  LIG d   1       7.875   1.128  -3.710  0.00  0.00     0.129 C 
ATOM      2  HA  LIG d   1       8.593   0.649  -3.043  0.00  0.00     0.062 H 
ATOM      3  C   LIG d   1       7.432   0.264  -4.877  0.00  0.00     0.104 C 
ATOM      4  H   LIG d   1       7.305   0.802  -5.816  0.00  0.00     0.064 H 
ATOM      5  N   LIG d   1       6.164  -0.051  -4.159  0.00  0.00    -0.253 N 
ATOM      6  C   LIG d   1       6.407   0.942  -3.311  0.00  0.00     0.244 C 
ATOM      7  O   LIG d   1       5.705   1.512  -2.504  0.00  0.00    -0.273 OA
ATOM      8  CA  LIG d   1       5.290  -1.115  -4.408  0.00  0.00     0.063 C 
ATOM      9  C   LIG d   1       5.691  -2.163  -5.113  0.00  0.00     0.000 C 
ATOM     10  C   LIG d   1       7.014  -2.381  -5.771  0.00  0.00     0.022 C 
ATOM     11  S   LIG d   1       8.312  -1.326  -5.054  0.00  0.00    -0.131 SA
ATOM     12  H   LIG d   1       7.302  -3.426  -5.654  0.00  0.00     0.042 H 
ATOM     13  H   LIG d   1       6.923  -2.157  -6.834  0.00  0.00     0.042 H 
ENDROOT
BRANCH   1  14
ATOM     14  N   LIG d   1       8.240   2.498  -4.074  0.00  0.00    -0.296 N 
ATOM     15  C   LIG d   1       9.442   2.992  -3.719  0.00  0.00     0.270 C 
ATOM     16  O   LIG d   1      10.261   2.273  -3.183  0.00  0.00    -0.268 OA
ATOM     17  H   LIG d   1       7.615   3.051  -4.570  0.00  0.00     0.150 HD
BRANCH  15  18
ATOM     18  C   LIG d   1       9.766   4.415  -3.983  0.00  0.00     0.206 C 
ATOM     19  N   LIG d   1       9.963   4.822  -5.206  0.00  0.00    -0.076 NA
BRANCH  19  20
ATOM     20  O   LIG d   1       9.759   3.934  -6.290  0.00  0.00    -0.396 OA
BRANCH  20  21
ATOM     21  C   LIG d   1       9.720   4.575  -7.567  0.00  0.00     0.107 C 
ATOM     22  H   LIG d   1       9.561   3.826  -8.344  0.00  0.00     0.069 H 
ATOM     23  H   LIG d   1       8.905   5.298  -7.587  0.00  0.00     0.069 H 
ATOM     24  H   LIG d   1      10.665   5.087  -7.746  0.00  0.00     0.069 H 
ENDBRANCH  20  21
ENDBRANCH  19  20
BRANCH  18  25
ATOM     25  C   LIG d   1       9.867   5.367  -2.864  0.00  0.00     0.161 A 
ATOM     26  O   LIG d   1      10.409   5.114  -1.655  0.00  0.00    -0.461 OA
ATOM     27  C   LIG d   1      10.326   6.215  -0.891  0.00  0.00     0.093 A 
ATOM     28  C   LIG d   1       9.727   7.192  -1.602  0.00  0.00    -0.023 A 
ATOM     29  H   LIG d   1      10.680   6.302   0.125  0.00  0.00     0.103 H 
ATOM     30  C   LIG d   1       9.434   6.659  -2.871  0.00  0.00    -0.014 A 
ATOM     31  H   LIG d   1       9.516   8.195  -1.263  0.00  0.00     0.065 H 
ATOM     32  H   LIG d   1       8.956   7.175  -3.692  0.00  0.00     0.066 H 
ENDBRANCH  18  25
ENDBRANCH  15  18
ENDBRANCH   1  14
BRANCH   8  33
ATOM     33  C   LIG d   1       3.912  -1.067  -3.887  0.00  0.00     0.086 C 
ATOM     34  O   LIG d   1       3.064  -0.420  -4.470  0.00  0.00    -0.543 OA
ATOM     35  OXT LIG d   1       3.592  -1.739  -2.763  0.00  0.00    -0.543 OA
ENDBRANCH   8  33
BRANCH   9  36
ATOM     36  C   LIG d   1       4.686  -3.275  -5.270  0.00  0.00     0.118 C 
ATOM     37  H   LIG d   1       5.018  -4.147  -4.709  0.00  0.00     0.075 H 
ATOM     38  H   LIG d   1       3.718  -2.946  -4.891  0.00  0.00     0.075 H 
BRANCH  36  39
ATOM     39  O   LIG d   1       4.564  -3.621  -6.675  0.00  0.00    -0.446 OA
BRANCH  39  40
ATOM     40  C   LIG d   1       3.786  -4.678  -6.978  0.00  0.00     0.398 C 
ATOM     41  O   LIG d   1       3.511  -5.495  -6.123  0.00  0.00    -0.227 OA
ATOM     42  N   LIG d   1       3.315  -4.830  -8.232  0.00  0.00    -0.295 N 
ATOM     43  H   LIG d   1       3.594  -4.220  -8.932  0.00  0.00     0.148 HD
ATOM     44  H   LIG d   1       2.698  -5.550  -8.434  0.00  0.00     0.148 HD
ENDBRANCH  39  40
ENDBRANCH  36  39
ENDBRANCH   9  36
TORSDOF 9
ENDMDL
MODEL 3
REMARK VINA RESULT:      -5.7      6.124      8.756
REMARK  9 active torsions:
REMARK  status: ('A' for Active; 'I' for Inactive)
REMARK    1  A    between atoms: C_1  and  O_2 
REMARK    2  A    between atoms: O_2  and  N_3 
REMARK    3  A    between atoms: C_4  and  C_5 
REMARK    4  A    between atoms: C_4  and  C_10 
REMARK       I    between atoms: C_10  and  N_12 
REMARK    5  A    between atoms: N_12  and  CA_13 
REMARK    6  A    between atoms: CA_20  and  C_29 
REMARK    7  A    between atoms: C_21  and  C_24 
REMARK    8  A    between atoms: C_24  and  O_25 
REMARK    9  A    between atoms: O_25  and  C_26 
REMARK       I    between atoms: C_26  and  N_28 
ROOT
ATOM      1  CA  LIG d   1       8.401   1.510  -7.205  0.00  0.00     0.129 C 
ATOM      2  HA  LIG d   1       9.257   0.834  -7.220  0.00  0.00     0.062 H 
ATOM      3  C   LIG d   1       8.719   2.915  -6.725  0.00  0.00     0.104 C 
ATOM      4  H   LIG d   1       7.946   3.366  -6.103  0.00  0.00     0.064 H 
ATOM      5  N   LIG d   1       8.741   3.388  -8.138  0.00  0.00    -0.253 N 
ATOM      6  C   LIG d   1       8.154   2.259  -8.518  0.00  0.00     0.244 C 
ATOM      7  O   LIG d   1       7.604   1.936  -9.549  0.00  0.00    -0.273 OA
ATOM      8  CA  LIG d   1       9.325   4.561  -8.630  0.00  0.00     0.063 C 
ATOM      9  C   LIG d   1      10.226   5.216  -7.911  0.00  0.00     0.000 C 
ATOM     10  C   LIG d   1      10.717   4.899  -6.537  0.00  0.00     0.022 C 
ATOM     11  S   LIG d   1      10.412   3.161  -6.090  0.00  0.00    -0.131 SA
ATOM     12  H   LIG d   1      11.788   5.094  -6.489  0.00  0.00     0.042 H 
ATOM     13  H   LIG d   1      10.208   5.543  -5.820  0.00  0.00     0.042 H 
ENDROOT
BRANCH   1  14
ATOM     14  N   LIG d   1       7.203   0.919  -6.604  0.00  0.00    -0.296 N 
ATOM     15  C   LIG d   1       7.312   0.133  -5.516  0.00  0.00     0.270 C 
ATOM     16  O   LIG d   1       8.390  -0.010  -4.975  0.00  0.00    -0.268 OA
ATOM     17  H   LIG d   1       6.330   1.095  -6.991  0.00  0.00     0.150 HD
BRANCH  15  18
ATOM     18  C   LIG d   1       6.116  -0.559  -4.978  0.00  0.00     0.206 C 
ATOM     19  N   LIG d   1       5.634  -1.602  -5.595  0.00  0.00    -0.076 NA
BRANCH  19  20
ATOM     20  O   LIG d   1       6.314  -2.140  -6.715  0.00  0.00    -0.396 OA
BRANCH  20  21
ATOM     21  C   LIG d   1       5.703  -3.313  -7.257  0.00  0.00     0.107 C 
ATOM     22  H   LIG d   1       4.913  -3.654  -6.587  0.00  0.00     0.069 H 
ATOM     23  H   LIG d   1       5.278  -3.084  -8.234  0.00  0.00     0.069 H 
ATOM     24  H   LIG d   1       6.453  -4.097  -7.362  0.00  0.00     0.069 H 
ENDBRANCH  20  21
ENDBRANCH  19  20
BRANCH  18  25
ATOM     25  C   LIG d   1       5.473  -0.068  -3.747  0.00  0.00     0.161 A 
ATOM     26  O   LIG d   1       5.171   1.216  -3.470  0.00  0.00    -0.461 OA
ATOM     27  C   LIG d   1       4.594   1.287  -2.260  0.00  0.00     0.093 A 
ATOM     28  C   LIG d   1       4.519   0.043  -1.742  0.00  0.00    -0.023 A 
ATOM     29  H   LIG d   1       4.247   2.190  -1.780  0.00  0.00     0.103 H 
ATOM     30  C   LIG d   1       5.076  -0.833  -2.692  0.00  0.00    -0.014 A 
ATOM     31  H   LIG d   1       4.106  -0.229  -0.783  0.00  0.00     0.065 H 
ATOM     32  H   LIG d   1       5.171  -1.906  -2.601  0.00  0.00     0.066 H 
ENDBRANCH  18  25
ENDBRANCH  15  18
ENDBRANCH   1  14
BRANCH   8  33
ATOM     33  C   LIG d   1       8.931   5.075  -9.954  0.00  0.00     0.086 C 
ATOM     34  O   LIG d   1       8.021   5.874 -10.049  0.00  0.00    -0.543 OA
ATOM     35  OXT LIG d   1       9.580   4.658 -11.060  0.00  0.00    -0.543 OA
ENDBRANCH   8  33
BRANCH   9  36
ATOM     36  C   LIG d   1      10.830   6.433  -8.563  0.00  0.00     0.118 C 
ATOM     37  H   LIG d   1      11.916   6.381  -8.493  0.00  0.00     0.075 H 
ATOM     38  H   LIG d   1      10.535   6.469  -9.611  0.00  0.00     0.075 H 
BRANCH  36  39
ATOM     39  O   LIG d   1      10.359   7.628  -7.886  0.00  0.00    -0.446 OA
BRANCH  39  40
ATOM     40  C   LIG d   1       9.779   8.575  -8.649  0.00  0.00     0.398 C 
ATOM     41  O   LIG d   1      10.464   9.294  -9.348  0.00  0.00    -0.227 OA
ATOM     42  N   LIG d   1       8.440   8.724  -8.636  0.00  0.00    -0.295 N 
ATOM     43  H   LIG d   1       7.899   8.200  -8.024  0.00  0.00     0.148 HD
ATOM     44  H   LIG d   1       8.017   9.356  -9.238  0.00  0.00     0.148 HD
ENDBRANCH  39  40
ENDBRANCH  36  39
ENDBRANCH   9  36
TORSDOF 9
ENDMDL
MODEL 4
REMARK VINA RESULT:      -5.6     14.907     18.078
REMARK  9 active torsions:
REMARK  status: ('A' for Active; 'I' for Inactive)
REMARK    1  A    between atoms: C_1  and  O_2 
REMARK    2  A    between atoms: O_2  and  N_3 
REMARK    3  A    between atoms: C_4  and  C_5 
REMARK    4  A    between atoms: C_4  and  C_10 
REMARK       I    between atoms: C_10  and  N_12 
REMARK    5  A    between atoms: N_12  and  CA_13 
REMARK    6  A    between atoms: CA_20  and  C_29 
REMARK    7  A    between atoms: C_21  and  C_24 
REMARK    8  A    between atoms: C_24  and  O_25 
REMARK    9  A    between atoms: O_25  and  C_26 
REMARK       I    between atoms: C_26  and  N_28 
ROOT
ATOM      1  CA  LIG d   1      12.436   9.742   2.634  0.00  0.00     0.129 C 
ATOM      2  HA  LIG d   1      13.515   9.692   2.487  0.00  0.00     0.062 H 
ATOM      3  C   LIG d   1      11.703  10.591   1.611  0.00  0.00     0.104 C 
ATOM      4  H   LIG d   1      10.882  11.182   2.018  0.00  0.00     0.064 H 
ATOM      5  N   LIG d   1      11.288   9.357   0.888  0.00  0.00    -0.253 N 
ATOM      6  C   LIG d   1      11.643   8.629   1.940  0.00  0.00     0.244 C 
ATOM      7  O   LIG d   1      11.411   7.480   2.250  0.00  0.00    -0.273 OA
ATOM      8  CA  LIG d   1      10.840   9.258  -0.435  0.00  0.00     0.063 C 
ATOM      9  C   LIG d   1      11.064  10.241  -1.295  0.00  0.00     0.000 C 
ATOM     10  C   LIG d   1      11.729  11.555  -1.042  0.00  0.00     0.022 C 
ATOM     11  S   LIG d   1      12.768  11.514   0.451  0.00  0.00    -0.131 SA
ATOM     12  H   LIG d   1      12.351  11.809  -1.900  0.00  0.00     0.042 H 
ATOM     13  H   LIG d   1      10.964  12.322  -0.920  0.00  0.00     0.042 H 
ENDROOT
BRANCH   1  14
ATOM     14  N   LIG d   1      12.046   9.994   4.023  0.00  0.00    -0.296 N 
ATOM     15  C   LIG d   1      12.677   9.354   5.027  0.00  0.00     0.270 C 
ATOM     16  O   LIG d   1      13.632   8.642   4.788  0.00  0.00    -0.268 OA
ATOM     17  H   LIG d   1      11.333  10.623   4.220  0.00  0.00     0.150 HD
BRANCH  15  18
ATOM     18  C   LIG d   1      12.206   9.519   6.423  0.00  0.00     0.206 C 
ATOM     19  N   LIG d   1      12.303  10.680   7.011  0.00  0.00    -0.076 NA
BRANCH  19  20
ATOM     20  O   LIG d   1      12.755  11.807   6.282  0.00  0.00    -0.396 OA
BRANCH  20  21
ATOM     21  C   LIG d   1      13.474  12.758   7.070  0.00  0.00     0.107 C 
ATOM     22  H   LIG d   1      14.495  12.842   6.696  0.00  0.00     0.069 H 
ATOM     23  H   LIG d   1      12.983  13.729   7.007  0.00  0.00     0.069 H 
ATOM     24  H   LIG d   1      13.495  12.428   8.109  0.00  0.00     0.069 H 
ENDBRANCH  20  21
ENDBRANCH  19  20
BRANCH  18  25
ATOM     25  C   LIG d   1      11.630   8.373   7.146  0.00  0.00     0.161 A 
ATOM     26  O   LIG d   1      11.697   8.160   8.476  0.00  0.00    -0.461 OA
ATOM     27  C   LIG d   1      11.060   7.018   8.777  0.00  0.00     0.093 A 
ATOM     28  C   LIG d   1      10.575   6.479   7.639  0.00  0.00    -0.023 A 
ATOM     29  H   LIG d   1      10.955   6.599   9.767  0.00  0.00     0.103 H 
ATOM     30  C   LIG d   1      10.930   7.345   6.588  0.00  0.00    -0.014 A 
ATOM     31  H   LIG d   1      10.015   5.560   7.552  0.00  0.00     0.065 H 
ATOM     32  H   LIG d   1      10.696   7.217   5.541  0.00  0.00     0.066 H 
ENDBRANCH  18  25
ENDBRANCH  15  18
ENDBRANCH   1  14
BRANCH   8  33
ATOM     33  C   LIG d   1      10.109   8.056  -0.872  0.00  0.00     0.086 C 
ATOM     34  O   LIG d   1      10.721   7.081  -1.262  0.00  0.00    -0.543 OA
ATOM     35  OXT LIG d   1       8.761   8.037  -0.840  0.00  0.00    -0.543 OA
ENDBRANCH   8  33
BRANCH   9  36
ATOM     36  C   LIG d   1      10.589  10.004  -2.705  0.00  0.00     0.118 C 
ATOM     37  H   LIG d   1      11.381   9.526  -3.280  0.00  0.00     0.075 H 
ATOM     38  H   LIG d   1       9.711   9.358  -2.689  0.00  0.00     0.075 H 
BRANCH  36  39
ATOM     39  O   LIG d   1      10.244  11.274  -3.319  0.00  0.00    -0.446 OA
BRANCH  39  40
ATOM     40  C   LIG d   1       8.981  11.414  -3.767  0.00  0.00     0.398 C 
ATOM     41  O   LIG d   1       8.771  11.579  -4.952  0.00  0.00    -0.227 OA
ATOM     42  N   LIG d   1       7.951  11.371  -2.900  0.00  0.00    -0.295 N 
ATOM     43  H   LIG d   1       8.121  11.312  -1.946  0.00  0.00     0.148 HD
ATOM     44  H   LIG d   1       7.039  11.399  -3.228  0.00  0.00     0.148 HD
ENDBRANCH  39  40
ENDBRANCH  36  39
ENDBRANCH   9  36
TORSDOF 9
ENDMDL
MODEL 5
REMARK VINA RESULT:      -5.6      7.224     10.322
REMARK  9 active torsions:
REMARK  status: ('A' for Active; 'I' for Inactive)
REMARK    1  A    between atoms: C_1  and  O_2 
REMARK    2  A    between atoms: O_2  and  N_3 
REMARK    3  A    between atoms: C_4  and  C_5 
REMARK    4  A    between atoms: C_4  and  C_10 
REMARK       I    between atoms: C_10  and  N_12 
REMARK    5  A    between atoms: N_12  and  CA_13 
REMARK    6  A    between atoms: CA_20  and  C_29 
REMARK    7  A    between atoms: C_21  and  C_24 
REMARK    8  A    between atoms: C_24  and  O_25 
REMARK    9  A    between atoms: O_25  and  C_26 
REMARK       I    between atoms: C_26  and  N_28 
ROOT
ATOM      1  CA  LIG d   1       9.762   4.005  -5.099  0.00  0.00     0.129 C 
ATOM      2  HA  LIG d   1      10.725   3.696  -4.691  0.00  0.00     0.062 H 
ATOM      3  C   LIG d   1       9.206   5.282  -4.496  0.00  0.00     0.104 C 
ATOM      4  H   LIG d   1       8.127   5.278  -4.343  0.00  0.00     0.064 H 
ATOM      5  N   LIG d   1       9.666   6.043  -5.691  0.00  0.00    -0.253 N 
ATOM      6  C   LIG d   1       9.850   4.899  -6.340  0.00  0.00     0.244 C 
ATOM      7  O   LIG d   1      10.020   4.648  -7.514  0.00  0.00    -0.273 OA
ATOM      8  CA  LIG d   1       9.858   7.425  -5.794  0.00  0.00     0.063 C 
ATOM      9  C   LIG d   1       9.966   8.172  -4.705  0.00  0.00     0.000 C 
ATOM     10  C   LIG d   1       9.861   7.742  -3.278  0.00  0.00     0.022 C 
ATOM     11  S   LIG d   1      10.146   5.956  -3.083  0.00  0.00    -0.131 SA
ATOM     12  H   LIG d   1      10.600   8.285  -2.688  0.00  0.00     0.042 H 
ATOM     13  H   LIG d   1       8.865   7.985  -2.906  0.00  0.00     0.042 H 
ENDROOT
BRANCH   1  14
ATOM     14  N   LIG d   1       8.794   2.910  -5.202  0.00  0.00    -0.296 N 
ATOM     15  C   LIG d   1       8.640   2.048  -4.179  0.00  0.00     0.270 C 
ATOM     16  O   LIG d   1       9.231   2.234  -3.134  0.00  0.00    -0.268 OA
ATOM     17  H   LIG d   1       8.265   2.806  -6.009  0.00  0.00     0.150 HD
BRANCH  15  18
ATOM     18  C   LIG d   1       7.748   0.873  -4.327  0.00  0.00     0.206 C 
ATOM     19  N   LIG d   1       8.026  -0.050  -5.205  0.00  0.00    -0.076 NA
BRANCH  19  20
ATOM     20  O   LIG d   1       9.234   0.014  -5.941  0.00  0.00    -0.396 OA
BRANCH  20  21
ATOM     21  C   LIG d   1      10.119  -1.082  -5.701  0.00  0.00     0.107 C 
ATOM     22  H   LIG d   1      10.966  -0.742  -5.104  0.00  0.00     0.069 H 
ATOM     23  H   LIG d   1       9.588  -1.867  -5.162  0.00  0.00     0.069 H 
ATOM     24  H   LIG d   1      10.479  -1.474  -6.652  0.00  0.00     0.069 H 
ENDBRANCH  20  21
ENDBRANCH  19  20
BRANCH  18  25
ATOM     25  C   LIG d   1       6.548   0.748  -3.481  0.00  0.00     0.161 A 
ATOM     26  O   LIG d   1       5.782   1.766  -3.039  0.00  0.00    -0.461 OA
ATOM     27  C   LIG d   1       4.776   1.276  -2.297  0.00  0.00     0.093 A 
ATOM     28  C   LIG d   1       4.886  -0.068  -2.252  0.00  0.00    -0.023 A 
ATOM     29  H   LIG d   1       4.008   1.862  -1.815  0.00  0.00     0.103 H 
ATOM     30  C   LIG d   1       6.016  -0.415  -3.014  0.00  0.00    -0.014 A 
ATOM     31  H   LIG d   1       4.227  -0.748  -1.733  0.00  0.00     0.065 H 
ATOM     32  H   LIG d   1       6.392  -1.414  -3.192  0.00  0.00     0.066 H 
ENDBRANCH  18  25
ENDBRANCH  15  18
ENDBRANCH   1  14
BRANCH   8  33
ATOM     33  C   LIG d   1       9.933   8.056  -7.124  0.00  0.00     0.086 C 
ATOM     34  O   LIG d   1      11.002   8.144  -7.696  0.00  0.00    -0.543 OA
ATOM     35  OXT LIG d   1       8.816   8.538  -7.707  0.00  0.00    -0.543 OA
ENDBRANCH   8  33
BRANCH   9  36
ATOM     36  C   LIG d   1      10.227   9.638  -4.934  0.00  0.00     0.118 C 
ATOM     37  H   LIG d   1      10.976   9.989  -4.225  0.00  0.00     0.075 H 
ATOM     38  H   LIG d   1      10.590   9.789  -5.950  0.00  0.00     0.075 H 
BRANCH  36  39
ATOM     39  O   LIG d   1       8.995  10.384  -4.745  0.00  0.00    -0.446 OA
BRANCH  39  40
ATOM     40  C   LIG d   1       8.993  11.328  -3.784  0.00  0.00     0.398 C 
ATOM     41  O   LIG d   1       9.974  12.025  -3.615  0.00  0.00    -0.227 OA
ATOM     42  N   LIG d   1       7.904  11.498  -3.009  0.00  0.00    -0.295 N 
ATOM     43  H   LIG d   1       7.149  10.895  -3.094  0.00  0.00     0.148 HD
ATOM     44  H   LIG d   1       7.874  12.223  -2.366  0.00  0.00     0.148 HD
ENDBRANCH  39  40
ENDBRANCH  36  39
ENDBRANCH   9  36
TORSDOF 9
ENDMDL
MODEL 6
REMARK VINA RESULT:      -5.6      7.575     10.815
REMARK  9 active torsions:
REMARK  status: ('A' for Active; 'I' for Inactive)
REMARK    1  A    between atoms: C_1  and  O_2 
REMARK    2  A    between atoms: O_2  and  N_3 
REMARK    3  A    between atoms: C_4  and  C_5 
REMARK    4  A    between atoms: C_4  and  C_10 
REMARK       I    between atoms: C_10  and  N_12 
REMARK    5  A    between atoms: N_12  and  CA_13 
REMARK    6  A    between atoms: CA_20  and  C_29 
REMARK    7  A    between atoms: C_21  and  C_24 
REMARK    8  A    between atoms: C_24  and  O_25 
REMARK    9  A    between atoms: O_25  and  C_26 
REMARK       I    between atoms: C_26  and  N_28 
ROOT
ATOM      1  CA  LIG d   1       9.938   4.618  -4.305  0.00  0.00     0.129 C 
ATOM      2  HA  LIG d   1      10.892   4.151  -4.058  0.00  0.00     0.062 H 
ATOM      3  C   LIG d   1       9.487   5.681  -3.319  0.00  0.00     0.104 C 
ATOM      4  H   LIG d   1       8.415   5.687  -3.119  0.00  0.00     0.064 H 
ATOM      5  N   LIG d   1       9.955   6.742  -4.254  0.00  0.00    -0.253 N 
ATOM      6  C   LIG d   1      10.042   5.839  -5.224  0.00  0.00     0.244 C 
ATOM      7  O   LIG d   1      10.156   5.946  -6.427  0.00  0.00    -0.273 OA
ATOM      8  CA  LIG d   1      10.232   8.080  -3.949  0.00  0.00     0.063 C 
ATOM      9  C   LIG d   1      10.425   8.456  -2.693  0.00  0.00     0.000 C 
ATOM     10  C   LIG d   1      10.341   7.622  -1.457  0.00  0.00     0.022 C 
ATOM     11  S   LIG d   1      10.515   5.848  -1.821  0.00  0.00    -0.131 SA
ATOM     12  H   LIG d   1      11.133   7.923  -0.771  0.00  0.00     0.042 H 
ATOM     13  H   LIG d   1       9.376   7.792  -0.979  0.00  0.00     0.042 H 
ENDROOT
BRANCH   1  14
ATOM     14  N   LIG d   1       8.899   3.657  -4.681  0.00  0.00    -0.296 N 
ATOM     15  C   LIG d   1       8.873   2.436  -4.114  0.00  0.00     0.270 C 
ATOM     16  O   LIG d   1       9.651   2.164  -3.221  0.00  0.00    -0.268 OA
ATOM     17  H   LIG d   1       8.229   3.902  -5.339  0.00  0.00     0.150 HD
BRANCH  15  18
ATOM     18  C   LIG d   1       7.894   1.423  -4.578  0.00  0.00     0.206 C 
ATOM     19  N   LIG d   1       8.010   0.902  -5.767  0.00  0.00    -0.076 NA
BRANCH  19  20
ATOM     20  O   LIG d   1       9.130   1.220  -6.574  0.00  0.00    -0.396 OA
BRANCH  20  21
ATOM     21  C   LIG d   1      10.016   0.122  -6.797  0.00  0.00     0.107 C 
ATOM     22  H   LIG d   1      10.897   0.470  -7.337  0.00  0.00     0.069 H 
ATOM     23  H   LIG d   1      10.321  -0.300  -5.839  0.00  0.00     0.069 H 
ATOM     24  H   LIG d   1       9.508  -0.642  -7.386  0.00  0.00     0.069 H 
ENDBRANCH  20  21
ENDBRANCH  19  20
BRANCH  18  25
ATOM     25  C   LIG d   1       6.791   1.006  -3.694  0.00  0.00     0.161 A 
ATOM     26  O   LIG d   1       5.902   1.825  -3.098  0.00  0.00    -0.461 OA
ATOM     27  C   LIG d   1       5.042   1.095  -2.370  0.00  0.00     0.093 A 
ATOM     28  C   LIG d   1       5.372  -0.208  -2.489  0.00  0.00    -0.023 A 
ATOM     29  H   LIG d   1       4.223   1.486  -1.785  0.00  0.00     0.103 H 
ATOM     30  C   LIG d   1       6.489  -0.275  -3.342  0.00  0.00    -0.014 A 
ATOM     31  H   LIG d   1       4.870  -1.042  -2.023  0.00  0.00     0.065 H 
ATOM     32  H   LIG d   1       7.009  -1.170  -3.655  0.00  0.00     0.066 H 
ENDBRANCH  18  25
ENDBRANCH  15  18
ENDBRANCH   1  14
BRANCH   8  33
ATOM     33  C   LIG d   1      10.304   9.077  -5.031  0.00  0.00     0.086 C 
ATOM     34  O   LIG d   1      11.343   9.242  -5.639  0.00  0.00    -0.543 OA
ATOM     35  OXT LIG d   1       9.216   9.809  -5.347  0.00  0.00    -0.543 OA
ENDBRANCH   8  33
BRANCH   9  36
ATOM     36  C   LIG d   1      10.773   9.908  -2.486  0.00  0.00     0.118 C 
ATOM     37  H   LIG d   1      11.676   9.982  -1.882  0.00  0.00     0.075 H 
ATOM     38  H   LIG d   1      10.942  10.382  -3.452  0.00  0.00     0.075 H 
BRANCH  36  39
ATOM     39  O   LIG d   1       9.678  10.575  -1.804  0.00  0.00    -0.446 OA
BRANCH  39  40
ATOM     40  C   LIG d   1       9.090  11.600  -2.450  0.00  0.00     0.398 C 
ATOM     41  O   LIG d   1       9.670  12.661  -2.562  0.00  0.00    -0.227 OA
ATOM     42  N   LIG d   1       7.856  11.448  -2.971  0.00  0.00    -0.295 N 
ATOM     43  H   LIG d   1       7.363  10.627  -2.819  0.00  0.00     0.148 HD
ATOM     44  H   LIG d   1       7.461  12.161  -3.497  0.00  0.00     0.148 HD
ENDBRANCH  39  40
ENDBRANCH  36  39
ENDBRANCH   9  36
TORSDOF 9
ENDMDL
MODEL 7
REMARK VINA RESULT:      -5.5      3.923      8.719
REMARK  9 active torsions:
REMARK  status: ('A' for Active; 'I' for Inactive)
REMARK    1  A    between atoms: C_1  and  O_2 
REMARK    2  A    between atoms: O_2  and  N_3 
REMARK    3  A    between atoms: C_4  and  C_5 
REMARK    4  A    between atoms: C_4  and  C_10 
REMARK       I    between atoms: C_10  and  N_12 
REMARK    5  A    between atoms: N_12  and  CA_13 
REMARK    6  A    between atoms: CA_20  and  C_29 
REMARK    7  A    between atoms: C_21  and  C_24 
REMARK    8  A    between atoms: C_24  and  O_25 
REMARK    9  A    between atoms: O_25  and  C_26 
REMARK       I    between atoms: C_26  and  N_28 
ROOT
ATOM      1  CA  LIG d   1       9.022  -3.147  -4.632  0.00  0.00     0.129 C 
ATOM      2  HA  LIG d   1       9.303  -3.126  -5.685  0.00  0.00     0.062 H 
ATOM      3  C   LIG d   1       8.214  -4.366  -4.222  0.00  0.00     0.104 C 
ATOM      4  H   LIG d   1       7.419  -4.162  -3.505  0.00  0.00     0.064 H 
ATOM      5  N   LIG d   1       9.441  -4.980  -3.641  0.00  0.00    -0.253 N 
ATOM      6  C   LIG d   1      10.052  -3.803  -3.707  0.00  0.00     0.244 C 
ATOM      7  O   LIG d   1      11.073  -3.387  -3.201  0.00  0.00    -0.273 OA
ATOM      8  CA  LIG d   1       9.653  -6.330  -3.341  0.00  0.00     0.063 C 
ATOM      9  C   LIG d   1       8.877  -7.266  -3.869  0.00  0.00     0.000 C 
ATOM     10  C   LIG d   1       7.694  -7.086  -4.764  0.00  0.00     0.022 C 
ATOM     11  S   LIG d   1       7.706  -5.464  -5.589  0.00  0.00    -0.131 SA
ATOM     12  H   LIG d   1       7.701  -7.869  -5.523  0.00  0.00     0.042 H 
ATOM     13  H   LIG d   1       6.784  -7.176  -4.172  0.00  0.00     0.042 H 
ENDROOT
BRANCH   1  14
ATOM     14  N   LIG d   1       8.488  -1.873  -4.145  0.00  0.00    -0.296 N 
ATOM     15  C   LIG d   1       7.426  -1.311  -4.754  0.00  0.00     0.270 C 
ATOM     16  O   LIG d   1       6.850  -1.906  -5.643  0.00  0.00    -0.268 OA
ATOM     17  H   LIG d   1       8.901  -1.434  -3.385  0.00  0.00     0.150 HD
BRANCH  15  18
ATOM     18  C   LIG d   1       6.958   0.033  -4.338  0.00  0.00     0.206 C 
ATOM     19  N   LIG d   1       7.445   1.098  -4.911  0.00  0.00    -0.076 NA
BRANCH  19  20
ATOM     20  O   LIG d   1       8.338   0.971  -6.002  0.00  0.00    -0.396 OA
BRANCH  20  21
ATOM     21  C   LIG d   1       7.839   1.511  -7.228  0.00  0.00     0.107 C 
ATOM     22  H   LIG d   1       6.836   1.125  -7.413  0.00  0.00     0.069 H 
ATOM     23  H   LIG d   1       7.802   2.599  -7.158  0.00  0.00     0.069 H 
ATOM     24  H   LIG d   1       8.496   1.221  -8.047  0.00  0.00     0.069 H 
ENDBRANCH  20  21
ENDBRANCH  19  20
BRANCH  18  25
ATOM     25  C   LIG d   1       5.943   0.164  -3.278  0.00  0.00     0.161 A 
ATOM     26  O   LIG d   1       5.609   1.302  -2.639  0.00  0.00    -0.461 OA
ATOM     27  C   LIG d   1       4.648   1.042  -1.738  0.00  0.00     0.093 A 
ATOM     28  C   LIG d   1       4.352  -0.273  -1.788  0.00  0.00    -0.023 A 
ATOM     29  H   LIG d   1       4.188   1.766  -1.082  0.00  0.00     0.103 H 
ATOM     30  C   LIG d   1       5.174  -0.844  -2.778  0.00  0.00    -0.014 A 
ATOM     31  H   LIG d   1       3.620  -0.790  -1.186  0.00  0.00     0.065 H 
ATOM     32  H   LIG d   1       5.193  -1.881  -3.080  0.00  0.00     0.066 H 
ENDBRANCH  18  25
ENDBRANCH  15  18
ENDBRANCH   1  14
BRANCH   8  33
ATOM     33  C   LIG d   1      10.743  -6.714  -2.427  0.00  0.00     0.086 C 
ATOM     34  O   LIG d   1      10.529  -6.817  -1.235  0.00  0.00    -0.543 OA
ATOM     35  OXT LIG d   1      11.978  -6.951  -2.912  0.00  0.00    -0.543 OA
ENDBRANCH   8  33
BRANCH   9  36
ATOM     36  C   LIG d   1       9.231  -8.689  -3.523  0.00  0.00     0.118 C 
ATOM     37  H   LIG d   1       9.586  -9.203  -4.415  0.00  0.00     0.075 H 
ATOM     38  H   LIG d   1      10.014  -8.695  -2.765  0.00  0.00     0.075 H 
BRANCH  36  39
ATOM     39  O   LIG d   1       8.055  -9.369  -3.009  0.00  0.00    -0.446 OA
BRANCH  39  40
ATOM     40  C   LIG d   1       7.936  -9.457  -1.670  0.00  0.00     0.398 C 
ATOM     41  O   LIG d   1       6.839  -9.596  -1.166  0.00  0.00    -0.227 OA
ATOM     42  N   LIG d   1       9.032  -9.390  -0.890  0.00  0.00    -0.295 N 
ATOM     43  H   LIG d   1       9.899  -9.206  -1.286  0.00  0.00     0.148 HD
ATOM     44  H   LIG d   1       8.956  -9.525   0.067  0.00  0.00     0.148 HD
ENDBRANCH  39  40
ENDBRANCH  36  39
ENDBRANCH   9  36
TORSDOF 9
ENDMDL
MODEL 8
REMARK VINA RESULT:      -5.3      8.035     11.583
REMARK  9 active torsions:
REMARK  status: ('A' for Active; 'I' for Inactive)
REMARK    1  A    between atoms: C_1  and  O_2 
REMARK    2  A    between atoms: O_2  and  N_3 
REMARK    3  A    between atoms: C_4  and  C_5 
REMARK    4  A    between atoms: C_4  and  C_10 
REMARK       I    between atoms: C_10  and  N_12 
REMARK    5  A    between atoms: N_12  and  CA_13 
REMARK    6  A    between atoms: CA_20  and  C_29 
REMARK    7  A    between atoms: C_21  and  C_24 
REMARK    8  A    between atoms: C_24  and  O_25 
REMARK    9  A    between atoms: O_25  and  C_26 
REMARK       I    between atoms: C_26  and  N_28 
ROOT
ATOM      1  CA  LIG d   1      10.360   5.257  -3.282  0.00  0.00     0.129 C 
ATOM      2  HA  LIG d   1      11.384   4.939  -3.479  0.00  0.00     0.062 H 
ATOM      3  C   LIG d   1      10.059   5.529  -1.819  0.00  0.00     0.104 C 
ATOM      4  H   LIG d   1       9.070   5.208  -1.492  0.00  0.00     0.064 H 
ATOM      5  N   LIG d   1      10.192   6.993  -2.067  0.00  0.00    -0.253 N 
ATOM      6  C   LIG d   1      10.129   6.769  -3.375  0.00  0.00     0.244 C 
ATOM      7  O   LIG d   1       9.944   7.507  -4.318  0.00  0.00    -0.273 OA
ATOM      8  CA  LIG d   1      10.409   7.998  -1.118  0.00  0.00     0.063 C 
ATOM      9  C   LIG d   1      10.859   7.695   0.091  0.00  0.00     0.000 C 
ATOM     10  C   LIG d   1      11.148   6.342   0.655  0.00  0.00     0.022 C 
ATOM     11  S   LIG d   1      11.394   5.099  -0.651  0.00  0.00    -0.131 SA
ATOM     12  H   LIG d   1      12.049   6.397   1.266  0.00  0.00     0.042 H 
ATOM     13  H   LIG d   1      10.313   6.034   1.284  0.00  0.00     0.042 H 
ENDROOT
BRANCH   1  14
ATOM     14  N   LIG d   1       9.354   4.442  -3.966  0.00  0.00    -0.296 N 
ATOM     15  C   LIG d   1       9.362   3.103  -3.826  0.00  0.00     0.270 C 
ATOM     16  O   LIG d   1      10.141   2.577  -3.057  0.00  0.00    -0.268 OA
ATOM     17  H   LIG d   1       8.682   4.869  -4.522  0.00  0.00     0.150 HD
BRANCH  15  18
ATOM     18  C   LIG d   1       8.419   2.269  -4.611  0.00  0.00     0.206 C 
ATOM     19  N   LIG d   1       8.484   2.262  -5.913  0.00  0.00    -0.076 NA
BRANCH  19  20
ATOM     20  O   LIG d   1       9.521   2.963  -6.575  0.00  0.00    -0.396 OA
BRANCH  20  21
ATOM     21  C   LIG d   1      10.433   2.121  -7.283  0.00  0.00     0.107 C 
ATOM     22  H   LIG d   1      11.456   2.406  -7.038  0.00  0.00     0.069 H 
ATOM     23  H   LIG d   1      10.268   1.082  -6.994  0.00  0.00     0.069 H 
ATOM     24  H   LIG d   1      10.272   2.230  -8.355  0.00  0.00     0.069 H 
ENDBRANCH  20  21
ENDBRANCH  19  20
BRANCH  18  25
ATOM     25  C   LIG d   1       7.410   1.449  -3.918  0.00  0.00     0.161 A 
ATOM     26  O   LIG d   1       6.333   1.913  -3.253  0.00  0.00    -0.461 OA
ATOM     27  C   LIG d   1       5.639   0.879  -2.752  0.00  0.00     0.093 A 
ATOM     28  C   LIG d   1       6.265  -0.267  -3.090  0.00  0.00    -0.023 A 
ATOM     29  H   LIG d   1       4.731   0.953  -2.174  0.00  0.00     0.103 H 
ATOM     30  C   LIG d   1       7.399   0.089  -3.843  0.00  0.00    -0.014 A 
ATOM     31  H   LIG d   1       5.953  -1.269  -2.834  0.00  0.00     0.065 H 
ATOM     32  H   LIG d   1       8.123  -0.587  -4.277  0.00  0.00     0.066 H 
ENDBRANCH  18  25
ENDBRANCH  15  18
ENDBRANCH   1  14
BRANCH   8  33
ATOM     33  C   LIG d   1      10.129   9.403  -1.464  0.00  0.00     0.086 C 
ATOM     34  O   LIG d   1       9.022   9.867  -1.276  0.00  0.00    -0.543 OA
ATOM     35  OXT LIG d   1      11.102  10.175  -1.990  0.00  0.00    -0.543 OA
ENDBRANCH   8  33
BRANCH   9  36
ATOM     36  C   LIG d   1      11.110   8.861   1.012  0.00  0.00     0.118 C 
ATOM     37  H   LIG d   1      10.980   9.793   0.462  0.00  0.00     0.075 H 
ATOM     38  H   LIG d   1      10.405   8.828   1.842  0.00  0.00     0.075 H 
BRANCH  36  39
ATOM     39  O   LIG d   1      12.466   8.788   1.526  0.00  0.00    -0.446 OA
BRANCH  39  40
ATOM     40  C   LIG d   1      13.451   9.223   0.717  0.00  0.00     0.398 C 
ATOM     41  O   LIG d   1      14.457   8.558   0.573  0.00  0.00    -0.227 OA
ATOM     42  N   LIG d   1      13.321  10.397   0.069  0.00  0.00    -0.295 N 
ATOM     43  H   LIG d   1      12.551  10.963   0.239  0.00  0.00     0.148 HD
ATOM     44  H   LIG d   1      13.996  10.677  -0.568  0.00  0.00     0.148 HD
ENDBRANCH  39  40
ENDBRANCH  36  39
ENDBRANCH   9  36
TORSDOF 9
ENDMDL
MODEL 9
REMARK VINA RESULT:      -5.3      4.341     10.212
REMARK  9 active torsions:
REMARK  status: ('A' for Active; 'I' for Inactive)
REMARK    1  A    between atoms: C_1  and  O_2 
REMARK    2  A    between atoms: O_2  and  N_3 
REMARK    3  A    between atoms: C_4  and  C_5 
REMARK    4  A    between atoms: C_4  and  C_10 
REMARK       I    between atoms: C_10  and  N_12 
REMARK    5  A    between atoms: N_12  and  CA_13 
REMARK    6  A    between atoms: CA_20  and  C_29 
REMARK    7  A    between atoms: C_21  and  C_24 
REMARK    8  A    between atoms: C_24  and  O_25 
REMARK    9  A    between atoms: O_25  and  C_26 
REMARK       I    between atoms: C_26  and  N_28 
ROOT
ATOM      1  CA  LIG d   1       7.808   1.203  -3.857  0.00  0.00     0.129 C 
ATOM      2  HA  LIG d   1       8.580   0.679  -3.292  0.00  0.00     0.062 H 
ATOM      3  C   LIG d   1       7.280   0.435  -5.056  0.00  0.00     0.104 C 
ATOM      4  H   LIG d   1       7.075   1.050  -5.933  0.00  0.00     0.064 H 
ATOM      5  N   LIG d   1       6.075   0.044  -4.270  0.00  0.00    -0.253 N 
ATOM      6  C   LIG d   1       6.378   0.964  -3.362  0.00  0.00     0.244 C 
ATOM      7  O   LIG d   1       5.738   1.454  -2.456  0.00  0.00    -0.273 OA
ATOM      8  CA  LIG d   1       5.191  -1.007  -4.540  0.00  0.00     0.063 C 
ATOM      9  C   LIG d   1       5.542  -1.986  -5.362  0.00  0.00     0.000 C 
ATOM     10  C   LIG d   1       6.810  -2.129  -6.138  0.00  0.00     0.022 C 
ATOM     11  S   LIG d   1       8.154  -1.121  -5.437  0.00  0.00    -0.131 SA
ATOM     12  H   LIG d   1       7.113  -3.176  -6.134  0.00  0.00     0.042 H 
ATOM     13  H   LIG d   1       6.634  -1.816  -7.168  0.00  0.00     0.042 H 
ENDROOT
BRANCH   1  14
ATOM     14  N   LIG d   1       8.134   2.604  -4.129  0.00  0.00    -0.296 N 
ATOM     15  C   LIG d   1       9.406   2.961  -4.393  0.00  0.00     0.270 C 
ATOM     16  O   LIG d   1      10.266   2.110  -4.501  0.00  0.00    -0.268 OA
ATOM     17  H   LIG d   1       7.433   3.275  -4.119  0.00  0.00     0.150 HD
BRANCH  15  18
ATOM     18  C   LIG d   1       9.757   4.393  -4.552  0.00  0.00     0.206 C 
ATOM     19  N   LIG d   1      10.033   5.117  -3.503  0.00  0.00    -0.076 NA
BRANCH  19  20
ATOM     20  O   LIG d   1      10.106   4.513  -2.224  0.00  0.00    -0.396 OA
BRANCH  20  21
ATOM     21  C   LIG d   1      11.277   4.861  -1.483  0.00  0.00     0.107 C 
ATOM     22  H   LIG d   1      11.212   5.905  -1.171  0.00  0.00     0.069 H 
ATOM     23  H   LIG d   1      11.352   4.224  -0.601  0.00  0.00     0.069 H 
ATOM     24  H   LIG d   1      12.158   4.723  -2.108  0.00  0.00     0.069 H 
ENDBRANCH  20  21
ENDBRANCH  19  20
BRANCH  18  25
ATOM     25  C   LIG d   1       9.792   4.997  -5.895  0.00  0.00     0.161 A 
ATOM     26  O   LIG d   1       9.794   6.317  -6.169  0.00  0.00    -0.461 OA
ATOM     27  C   LIG d   1       9.832   6.496  -7.499  0.00  0.00     0.093 A 
ATOM     28  C   LIG d   1       9.855   5.287  -8.098  0.00  0.00    -0.023 A 
ATOM     29  H   LIG d   1       9.842   7.450  -8.006  0.00  0.00     0.103 H 
ATOM     30  C   LIG d   1       9.836   4.320  -7.076  0.00  0.00    -0.014 A 
ATOM     31  H   LIG d   1       9.887   5.098  -9.161  0.00  0.00     0.065 H 
ATOM     32  H   LIG d   1       9.851   3.247  -7.205  0.00  0.00     0.066 H 
ENDBRANCH  18  25
ENDBRANCH  15  18
ENDBRANCH   1  14
BRANCH   8  33
ATOM     33  C   LIG d   1       3.859  -1.021  -3.912  0.00  0.00     0.086 C 
ATOM     34  O   LIG d   1       2.957  -0.357  -4.382  0.00  0.00    -0.543 OA
ATOM     35  OXT LIG d   1       3.640  -1.772  -2.813  0.00  0.00    -0.543 OA
ENDBRANCH   8  33
BRANCH   9  36
ATOM     36  C   LIG d   1       4.535  -3.093  -5.535  0.00  0.00     0.118 C 
ATOM     37  H   LIG d   1       3.609  -2.825  -5.028  0.00  0.00     0.075 H 
ATOM     38  H   LIG d   1       4.337  -3.242  -6.597  0.00  0.00     0.075 H 
BRANCH  36  39
ATOM     39  O   LIG d   1       5.061  -4.320  -4.964  0.00  0.00    -0.446 OA
BRANCH  39  40
ATOM     40  C   LIG d   1       4.680  -5.476  -5.541  0.00  0.00     0.398 C 
ATOM     41  O   LIG d   1       3.563  -5.583  -6.006  0.00  0.00    -0.227 OA
ATOM     42  N   LIG d   1       5.537  -6.513  -5.601  0.00  0.00    -0.295 N 
ATOM     43  H   LIG d   1       6.403  -6.454  -5.165  0.00  0.00     0.148 HD
ATOM     44  H   LIG d   1       5.290  -7.320  -6.078  0.00  0.00     0.148 HD
ENDBRANCH  39  40
ENDBRANCH  36  39
ENDBRANCH   9  36
TORSDOF 9
ENDMDL
MODEL 10
REMARK VINA RESULT:      -5.3      5.554      8.315
REMARK  9 active torsions:
REMARK  status: ('A' for Active; 'I' for Inactive)
REMARK    1  A    between atoms: C_1  and  O_2 
REMARK    2  A    between atoms: O_2  and  N_3 
REMARK    3  A    between atoms: C_4  and  C_5 
REMARK    4  A    between atoms: C_4  and  C_10 
REMARK       I    between atoms: C_10  and  N_12 
REMARK    5  A    between atoms: N_12  and  CA_13 
REMARK    6  A    between atoms: CA_20  and  C_29 
REMARK    7  A    between atoms: C_21  and  C_24 
REMARK    8  A    between atoms: C_24  and  O_25 
REMARK    9  A    between atoms: O_25  and  C_26 
REMARK       I    between atoms: C_26  and  N_28 
ROOT
ATOM      1  CA  LIG d   1       8.822   1.941  -5.553  0.00  0.00     0.129 C 
ATOM      2  HA  LIG d   1       9.633   1.213  -5.586  0.00  0.00     0.062 H 
ATOM      3  C   LIG d   1       8.882   2.893  -4.371  0.00  0.00     0.104 C 
ATOM      4  H   LIG d   1       7.914   3.132  -3.932  0.00  0.00     0.064 H 
ATOM      5  N   LIG d   1       9.449   3.950  -5.256  0.00  0.00    -0.253 N 
ATOM      6  C   LIG d   1       9.094   3.239  -6.320  0.00  0.00     0.244 C 
ATOM      7  O   LIG d   1       9.006   3.524  -7.495  0.00  0.00    -0.273 OA
ATOM      8  CA  LIG d   1      10.145   5.099  -4.865  0.00  0.00     0.063 C 
ATOM      9  C   LIG d   1      10.669   5.188  -3.650  0.00  0.00     0.000 C 
ATOM     10  C   LIG d   1      10.584   4.197  -2.535  0.00  0.00     0.022 C 
ATOM     11  S   LIG d   1      10.178   2.529  -3.137  0.00  0.00    -0.131 SA
ATOM     12  H   LIG d   1      11.543   4.163  -2.017  0.00  0.00     0.042 H 
ATOM     13  H   LIG d   1       9.814   4.517  -1.833  0.00  0.00     0.042 H 
ENDROOT
BRANCH   1  14
ATOM     14  N   LIG d   1       7.502   1.355  -5.792  0.00  0.00    -0.296 N 
ATOM     15  C   LIG d   1       7.126   0.244  -5.129  0.00  0.00     0.270 C 
ATOM     16  O   LIG d   1       7.842  -0.216  -4.262  0.00  0.00    -0.268 OA
ATOM     17  H   LIG d   1       6.897   1.767  -6.431  0.00  0.00     0.150 HD
BRANCH  15  18
ATOM     18  C   LIG d   1       5.840  -0.416  -5.456  0.00  0.00     0.206 C 
ATOM     19  N   LIG d   1       5.674  -0.980  -6.620  0.00  0.00    -0.076 NA
BRANCH  19  20
ATOM     20  O   LIG d   1       6.757  -1.058  -7.530  0.00  0.00    -0.396 OA
BRANCH  20  21
ATOM     21  C   LIG d   1       7.198  -2.391  -7.796  0.00  0.00     0.107 C 
ATOM     22  H   LIG d   1       7.700  -2.421  -8.764  0.00  0.00     0.069 H 
ATOM     23  H   LIG d   1       7.894  -2.706  -7.017  0.00  0.00     0.069 H 
ATOM     24  H   LIG d   1       6.340  -3.062  -7.810  0.00  0.00     0.069 H 
ENDBRANCH  20  21
ENDBRANCH  19  20
BRANCH  18  25
ATOM     25  C   LIG d   1       4.750  -0.436  -4.466  0.00  0.00     0.161 A 
ATOM     26  O   LIG d   1       4.114   0.643  -3.967  0.00  0.00    -0.461 OA
ATOM     27  C   LIG d   1       3.178   0.244  -3.091  0.00  0.00     0.093 A 
ATOM     28  C   LIG d   1       3.203  -1.103  -3.015  0.00  0.00    -0.023 A 
ATOM     29  H   LIG d   1       2.516   0.894  -2.538  0.00  0.00     0.103 H 
ATOM     30  C   LIG d   1       4.204  -1.548  -3.898  0.00  0.00    -0.014 A 
ATOM     31  H   LIG d   1       2.571  -1.722  -2.397  0.00  0.00     0.065 H 
ATOM     32  H   LIG d   1       4.487  -2.574  -4.087  0.00  0.00     0.066 H 
ENDBRANCH  18  25
ENDBRANCH  15  18
ENDBRANCH   1  14
BRANCH   8  33
ATOM     33  C   LIG d   1      10.293   6.221  -5.809  0.00  0.00     0.086 C 
ATOM     34  O   LIG d   1       9.495   7.137  -5.794  0.00  0.00    -0.543 OA
ATOM     35  OXT LIG d   1      11.314   6.231  -6.690  0.00  0.00    -0.543 OA
ENDBRANCH   8  33
BRANCH   9  36
ATOM     36  C   LIG d   1      11.445   6.445  -3.358  0.00  0.00     0.118 C 
ATOM     37  H   LIG d   1      12.508   6.210  -3.295  0.00  0.00     0.075 H 
ATOM     38  H   LIG d   1      11.280   7.169  -4.155  0.00  0.00     0.075 H 
BRANCH  36  39
ATOM     39  O   LIG d   1      11.000   7.006  -2.095  0.00  0.00    -0.446 OA
BRANCH  39  40
ATOM     40  C   LIG d   1       9.827   7.667  -2.100  0.00  0.00     0.398 C 
ATOM     41  O   LIG d   1       8.985   7.416  -1.260  0.00  0.00    -0.227 OA
ATOM     42  N   LIG d   1       9.586   8.606  -3.035  0.00  0.00    -0.295 N 
ATOM     43  H   LIG d   1      10.226   8.755  -3.749  0.00  0.00     0.148 HD
ATOM     44  H   LIG d   1       8.772   9.132  -2.997  0.00  0.00     0.148 HD
ENDBRANCH  39  40
ENDBRANCH  36  39
ENDBRANCH   9  36
TORSDOF 9
ENDMDL
