MODEL 1
REMARK VINA RESULT:      -6.9      0.000      0.000
REMARK  12 active torsions:
REMARK  status: ('A' for Active; 'I' for Inactive)
REMARK    1  A    between atoms: C_1  and  C_2 
REMARK    2  A    between atoms: C_2  and  C_4 
REMARK    3  A    between atoms: C_2  and  C_22 
REMARK    4  A    between atoms: C_4  and  C_5 
REMARK    5  A    between atoms: C_5  and  C_6 
REMARK       I    between atoms: C_6  and  N_8 
REMARK    6  A    between atoms: N_8  and  C_9 
REMARK    7  A    between atoms: C_9  and  C_10 
REMARK    8  A    between atoms: C_10  and  C_11 
REMARK    9  A    between atoms: C_28  and  C_49 
REMARK   10  A    between atoms: C_35  and  O_48 
REMARK   11  A    between atoms: C_40  and  C_47 
REMARK   12  A    between atoms: C_43  and  O_46 
ROOT
ATOM      1  C   LIG d   1       6.015  -1.369  -9.225  0.00  0.00    -0.033 C 
ATOM      2  H   LIG d   1       5.537  -0.445  -9.554  0.00  0.00     0.031 H 
ATOM      3  C   LIG d   1       5.022  -2.553  -9.331  0.00  0.00    -0.049 C 
ATOM      4  C   LIG d   1       4.781  -3.055  -7.882  0.00  0.00    -0.049 C 
ATOM      5  C   LIG d   1       5.111  -1.822  -7.033  0.00  0.00    -0.030 C 
ATOM      6  H   LIG d   1       4.302  -1.095  -7.090  0.00  0.00     0.031 H 
ATOM      7  C   LIG d   1       6.380  -1.278  -7.746  0.00  0.00    -0.026 C 
ATOM      8  C   LIG d   1       6.652   0.110  -7.200  0.00  0.00    -0.047 C 
ATOM      9  C   LIG d   1       6.985  -0.045  -5.706  0.00  0.00    -0.049 C 
ATOM     10  C   LIG d   1       5.854  -0.737  -4.954  0.00  0.00    -0.030 C 
ATOM     11  H   LIG d   1       4.969  -0.102  -4.985  0.00  0.00     0.031 H 
ATOM     12  C   LIG d   1       5.476  -2.093  -5.586  0.00  0.00    -0.008 C 
ATOM     13  H   LIG d   1       6.334  -2.763  -5.541  0.00  0.00     0.033 H 
ATOM     14  C   LIG d   1       4.285  -2.697  -4.841  0.00  0.00     0.059 C 
ATOM     15  H   LIG d   1       3.435  -2.018  -4.905  0.00  0.00     0.060 H 
ATOM     16  C   LIG d   1       4.658  -2.912  -3.373  0.00  0.00    -0.023 C 
ATOM     17  C   LIG d   1       5.027  -1.570  -2.737  0.00  0.00    -0.031 C 
ATOM     18  H   LIG d   1       5.290  -1.723  -1.690  0.00  0.00     0.031 H 
ATOM     19  C   LIG d   1       6.254  -0.958  -3.494  0.00  0.00    -0.026 C 
ATOM     20  C   LIG d   1       6.620   0.386  -2.858  0.00  0.00    -0.045 C 
ATOM     21  C   LIG d   1       5.417   1.328  -2.936  0.00  0.00    -0.026 C 
ATOM     22  C   LIG d   1       4.236   0.713  -2.182  0.00  0.00     0.056 C 
ATOM     23  H   LIG d   1       4.511   0.562  -1.138  0.00  0.00     0.059 H 
ATOM     24  C   LIG d   1       3.833  -0.617  -2.830  0.00  0.00    -0.023 C 
ATOM     25  H   LIG d   1       4.084  -2.218  -9.773  0.00  0.00     0.027 H 
ATOM     26  H   LIG d   1       5.455  -3.350  -9.936  0.00  0.00     0.027 H 
ATOM     27  H   LIG d   1       3.742  -3.352  -7.744  0.00  0.00     0.027 H 
ATOM     28  H   LIG d   1       5.453  -3.879  -7.641  0.00  0.00     0.027 H 
ATOM     29  H   LIG d   1       7.496   0.556  -7.725  0.00  0.00     0.027 H 
ATOM     30  H   LIG d   1       5.767   0.735  -7.320  0.00  0.00     0.027 H 
ATOM     31  H   LIG d   1       7.896  -0.635  -5.604  0.00  0.00     0.027 H 
ATOM     32  H   LIG d   1       7.149   0.942  -5.274  0.00  0.00     0.027 H 
ATOM     33  H   LIG d   1       3.809  -3.343  -2.842  0.00  0.00     0.029 H 
ATOM     34  H   LIG d   1       5.509  -3.590  -3.309  0.00  0.00     0.029 H 
ATOM     35  H   LIG d   1       6.894   0.231  -1.815  0.00  0.00     0.027 H 
ATOM     36  H   LIG d   1       7.461   0.825  -3.395  0.00  0.00     0.027 H 
ATOM     37  H   LIG d   1       5.677   2.286  -2.485  0.00  0.00     0.029 H 
ATOM     38  H   LIG d   1       5.141   1.481  -3.979  0.00  0.00     0.029 H 
ATOM     39  H   LIG d   1       3.570  -0.465  -3.877  0.00  0.00     0.029 H 
ATOM     40  H   LIG d   1       2.983  -1.048  -2.301  0.00  0.00     0.029 H 
ENDROOT
BRANCH   1  41
ATOM     41  C   LIG d   1       7.264  -1.646 -10.063  0.00  0.00    -0.040 C 
ATOM     42  H   LIG d   1       8.058  -2.022  -9.419  0.00  0.00     0.030 H 
BRANCH  41  43
ATOM     43  C   LIG d   1       7.723  -0.352 -10.738  0.00  0.00    -0.062 C 
ATOM     44  H   LIG d   1       7.205  -0.234 -11.690  0.00  0.00     0.023 H 
ATOM     45  H   LIG d   1       7.494   0.496 -10.092  0.00  0.00     0.023 H 
ATOM     46  H   LIG d   1       8.799  -0.395 -10.913  0.00  0.00     0.023 H 
ENDBRANCH  41  43
BRANCH  41  47
ATOM     47  C   LIG d   1       6.939  -2.691 -11.133  0.00  0.00    -0.042 C 
ATOM     48  H   LIG d   1       7.526  -3.591 -10.952  0.00  0.00     0.027 H 
ATOM     49  H   LIG d   1       5.878  -2.936 -11.091  0.00  0.00     0.027 H 
BRANCH  47  50
ATOM     50  C   LIG d   1       7.278  -2.129 -12.515  0.00  0.00     0.024 C 
ATOM     51  H   LIG d   1       7.657  -1.112 -12.411  0.00  0.00     0.036 H 
ATOM     52  H   LIG d   1       8.038  -2.755 -12.985  0.00  0.00     0.036 H 
BRANCH  50  53
ATOM     53  C   LIG d   1       6.037  -2.119 -13.371  0.00  0.00     0.213 C 
ATOM     54  O   LIG d   1       6.098  -1.743 -14.522  0.00  0.00    -0.276 OA
ATOM     55  N   LIG d   1       4.860  -2.526 -12.856  0.00  0.00    -0.315 N 
ATOM     56  H   LIG d   1       4.813  -2.826 -11.934  0.00  0.00     0.149 HD
BRANCH  55  57
ATOM     57  C   LIG d   1       3.653  -2.516 -13.686  0.00  0.00     0.016 C 
ATOM     58  H   LIG d   1       3.937  -2.521 -14.738  0.00  0.00     0.046 H 
ATOM     59  H   LIG d   1       3.055  -3.401 -13.467  0.00  0.00     0.046 H 
BRANCH  57  60
ATOM     60  C   LIG d   1       2.836  -1.259 -13.383  0.00  0.00    -0.010 C 
ATOM     61  H   LIG d   1       3.470  -0.379 -13.486  0.00  0.00     0.033 H 
ATOM     62  H   LIG d   1       2.002  -1.191 -14.083  0.00  0.00     0.033 H 
BRANCH  60  63
ATOM     63  C   LIG d   1       2.303  -1.335 -11.976  0.00  0.00    -0.021 A 
ATOM     64  C   LIG d   1       2.663  -0.457 -10.860  0.00  0.00     0.004 A 
ATOM     65  C   LIG d   1       1.916  -0.904  -9.755  0.00  0.00     0.047 A 
ATOM     66  C   LIG d   1       3.528   0.632 -10.722  0.00  0.00    -0.034 A 
ATOM     67  N   LIG d   1       1.169  -1.980 -10.181  0.00  0.00    -0.360 N 
ATOM     68  C   LIG d   1       2.045  -0.254  -8.533  0.00  0.00    -0.036 A 
ATOM     69  C   LIG d   1       1.411  -2.221 -11.505  0.00  0.00     0.006 A 
ATOM     70  H   LIG d   1       0.560  -2.491  -9.624  0.00  0.00     0.165 HD
ATOM     71  H   LIG d   1       0.955  -3.008 -12.085  0.00  0.00     0.081 H 
ATOM     72  C   LIG d   1       2.908   0.814  -8.410  0.00  0.00    -0.041 A 
ATOM     73  H   LIG d   1       1.479  -0.592  -7.678  0.00  0.00     0.064 H 
ATOM     74  C   LIG d   1       3.644   1.258  -9.501  0.00  0.00     0.042 A 
ATOM     75  H   LIG d   1       3.008   1.313  -7.458  0.00  0.00     0.063 H 
ATOM     76 CL   LIG d   1       4.718   2.612  -9.324  0.00  0.00    -0.084 Cl
ATOM     77  H   LIG d   1       4.102   0.980 -11.568  0.00  0.00     0.064 H 
ENDBRANCH  60  63
ENDBRANCH  57  60
ENDBRANCH  55  57
ENDBRANCH  50  53
ENDBRANCH  47  50
ENDBRANCH  41  47
ENDBRANCH   1  41
BRANCH   7  78
ATOM     78  C   LIG d   1       7.571  -2.192  -7.451  0.00  0.00    -0.059 C 
ATOM     79  H   LIG d   1       8.159  -2.327  -8.359  0.00  0.00     0.024 H 
ATOM     80  H   LIG d   1       8.193  -1.739  -6.679  0.00  0.00     0.024 H 
ATOM     81  H   LIG d   1       7.209  -3.161  -7.105  0.00  0.00     0.024 H 
ENDBRANCH   7  78
BRANCH  14  82
ATOM     82  O   LIG d   1       3.938  -3.950  -5.433  0.00  0.00    -0.392 OA
ATOM     83  H   LIG d   1       3.728  -4.643  -4.792  0.00  0.00     0.210 HD
ENDBRANCH  14  82
BRANCH  19  84
ATOM     84  C   LIG d   1       7.456  -1.903  -3.431  0.00  0.00    -0.059 C 
ATOM     85  H   LIG d   1       7.136  -2.870  -3.040  0.00  0.00     0.024 H 
ATOM     86  H   LIG d   1       7.868  -2.034  -4.431  0.00  0.00     0.024 H 
ATOM     87  H   LIG d   1       8.217  -1.480  -2.776  0.00  0.00     0.024 H 
ENDBRANCH  19  84
BRANCH  22  88
ATOM     88  O   LIG d   1       3.113   1.593  -2.256  0.00  0.00    -0.392 OA
ATOM     89  H   LIG d   1       2.259   1.141  -2.248  0.00  0.00     0.210 HD
ENDBRANCH  22  88
TORSDOF 12
ENDMDL
MODEL 2
REMARK VINA RESULT:      -6.6      3.074      8.117
REMARK  12 active torsions:
REMARK  status: ('A' for Active; 'I' for Inactive)
REMARK    1  A    between atoms: C_1  and  C_2 
REMARK    2  A    between atoms: C_2  and  C_4 
REMARK    3  A    between atoms: C_2  and  C_22 
REMARK    4  A    between atoms: C_4  and  C_5 
REMARK    5  A    between atoms: C_5  and  C_6 
REMARK       I    between atoms: C_6  and  N_8 
REMARK    6  A    between atoms: N_8  and  C_9 
REMARK    7  A    between atoms: C_9  and  C_10 
REMARK    8  A    between atoms: C_10  and  C_11 
REMARK    9  A    between atoms: C_28  and  C_49 
REMARK   10  A    between atoms: C_35  and  O_48 
REMARK   11  A    between atoms: C_40  and  C_47 
REMARK   12  A    between atoms: C_43  and  O_46 
ROOT
ATOM      1  C   LIG d   1       3.276  -1.188  -4.852  0.00  0.00    -0.033 C 
ATOM      2  H   LIG d   1       2.636  -2.068  -4.926  0.00  0.00     0.031 H 
ATOM      3  C   LIG d   1       2.414   0.092  -4.716  0.00  0.00    -0.049 C 
ATOM      4  C   LIG d   1       2.685   0.939  -5.989  0.00  0.00    -0.049 C 
ATOM      5  C   LIG d   1       3.146  -0.109  -7.007  0.00  0.00    -0.030 C 
ATOM      6  H   LIG d   1       2.295  -0.684  -7.372  0.00  0.00     0.031 H 
ATOM      7  C   LIG d   1       4.073  -1.005  -6.140  0.00  0.00    -0.026 C 
ATOM      8  C   LIG d   1       4.372  -2.260  -6.937  0.00  0.00    -0.047 C 
ATOM      9  C   LIG d   1       5.166  -1.832  -8.182  0.00  0.00    -0.049 C 
ATOM     10  C   LIG d   1       4.395  -0.808  -9.008  0.00  0.00    -0.030 C 
ATOM     11  H   LIG d   1       3.490  -1.276  -9.394  0.00  0.00     0.031 H 
ATOM     12  C   LIG d   1       3.968   0.415  -8.171  0.00  0.00    -0.008 C 
ATOM     13  H   LIG d   1       4.855   0.924  -7.795  0.00  0.00     0.033 H 
ATOM     14  C   LIG d   1       3.129   1.362  -9.030  0.00  0.00     0.059 C 
ATOM     15  H   LIG d   1       2.242   0.839  -9.387  0.00  0.00     0.060 H 
ATOM     16  C   LIG d   1       3.959   1.835 -10.224  0.00  0.00    -0.023 C 
ATOM     17  C   LIG d   1       4.381   0.628 -11.064  0.00  0.00    -0.031 C 
ATOM     18  H   LIG d   1       4.970   0.966 -11.917  0.00  0.00     0.031 H 
ATOM     19  C   LIG d   1       5.248  -0.336 -10.186  0.00  0.00    -0.026 C 
ATOM     20  C   LIG d   1       5.668  -1.544 -11.027  0.00  0.00    -0.045 C 
ATOM     21  C   LIG d   1       4.418  -2.264 -11.539  0.00  0.00    -0.026 C 
ATOM     22  C   LIG d   1       3.594  -1.305 -12.401  0.00  0.00     0.056 C 
ATOM     23  H   LIG d   1       4.193  -0.972 -13.249  0.00  0.00     0.059 H 
ATOM     24  C   LIG d   1       3.135  -0.107 -11.563  0.00  0.00    -0.023 C 
ATOM     25  H   LIG d   1       1.359  -0.172  -4.658  0.00  0.00     0.027 H 
ATOM     26  H   LIG d   1       2.710   0.648  -3.827  0.00  0.00     0.027 H 
ATOM     27  H   LIG d   1       1.772   1.430  -6.327  0.00  0.00     0.027 H 
ATOM     28  H   LIG d   1       3.471   1.671  -5.806  0.00  0.00     0.027 H 
ATOM     29  H   LIG d   1       4.965  -2.948  -6.336  0.00  0.00     0.027 H 
ATOM     30  H   LIG d   1       3.439  -2.738  -7.238  0.00  0.00     0.027 H 
ATOM     31  H   LIG d   1       6.115  -1.396  -7.867  0.00  0.00     0.027 H 
ATOM     32  H   LIG d   1       5.365  -2.710  -8.797  0.00  0.00     0.027 H 
ATOM     33  H   LIG d   1       3.361   2.511 -10.836  0.00  0.00     0.029 H 
ATOM     34  H   LIG d   1       4.846   2.357  -9.867  0.00  0.00     0.029 H 
ATOM     35  H   LIG d   1       6.266  -1.208 -11.873  0.00  0.00     0.027 H 
ATOM     36  H   LIG d   1       6.256  -2.228 -10.414  0.00  0.00     0.027 H 
ATOM     37  H   LIG d   1       4.716  -3.125 -12.138  0.00  0.00     0.029 H 
ATOM     38  H   LIG d   1       3.819  -2.599 -10.694  0.00  0.00     0.029 H 
ATOM     39  H   LIG d   1       2.546  -0.443 -10.710  0.00  0.00     0.029 H 
ATOM     40  H   LIG d   1       2.535   0.569 -12.173  0.00  0.00     0.029 H 
ENDROOT
BRANCH   1  41
ATOM     41  C   LIG d   1       4.222  -1.321  -3.658  0.00  0.00    -0.040 C 
ATOM     42  H   LIG d   1       5.193  -0.899  -3.915  0.00  0.00     0.030 H 
BRANCH  41  43
ATOM     43  C   LIG d   1       4.386  -2.799  -3.298  0.00  0.00    -0.062 C 
ATOM     44  H   LIG d   1       3.582  -3.376  -3.755  0.00  0.00     0.023 H 
ATOM     45  H   LIG d   1       5.347  -3.159  -3.667  0.00  0.00     0.023 H 
ATOM     46  H   LIG d   1       4.346  -2.915  -2.214  0.00  0.00     0.023 H 
ENDBRANCH  41  43
BRANCH  41  47
ATOM     47  C   LIG d   1       3.641  -0.565  -2.460  0.00  0.00    -0.042 C 
ATOM     48  H   LIG d   1       2.904   0.157  -2.809  0.00  0.00     0.027 H 
ATOM     49  H   LIG d   1       3.162  -1.273  -1.783  0.00  0.00     0.027 H 
BRANCH  47  50
ATOM     50  C   LIG d   1       4.765   0.165  -1.723  0.00  0.00     0.024 C 
ATOM     51  H   LIG d   1       4.346   0.732  -0.891  0.00  0.00     0.036 H 
ATOM     52  H   LIG d   1       5.482  -0.563  -1.343  0.00  0.00     0.036 H 
BRANCH  50  53
ATOM     53  C   LIG d   1       5.460   1.106  -2.674  0.00  0.00     0.213 C 
ATOM     54  O   LIG d   1       4.844   2.020  -3.179  0.00  0.00    -0.276 OA
ATOM     55  N   LIG d   1       6.764   0.931  -2.962  0.00  0.00    -0.315 N 
ATOM     56  H   LIG d   1       7.256   0.199  -2.557  0.00  0.00     0.149 HD
BRANCH  55  57
ATOM     57  C   LIG d   1       7.440   1.845  -3.886  0.00  0.00     0.016 C 
ATOM     58  H   LIG d   1       6.938   1.821  -4.852  0.00  0.00     0.046 H 
ATOM     59  H   LIG d   1       7.406   2.858  -3.484  0.00  0.00     0.046 H 
BRANCH  57  60
ATOM     60  C   LIG d   1       8.898   1.412  -4.057  0.00  0.00    -0.010 C 
ATOM     61  H   LIG d   1       9.547   2.284  -3.979  0.00  0.00     0.033 H 
ATOM     62  H   LIG d   1       9.157   0.695  -3.277  0.00  0.00     0.033 H 
BRANCH  60  63
ATOM     63  C   LIG d   1       9.076   0.770  -5.408  0.00  0.00    -0.021 A 
ATOM     64  C   LIG d   1       8.774  -0.621  -5.757  0.00  0.00     0.004 A 
ATOM     65  C   LIG d   1       9.095  -0.758  -7.120  0.00  0.00     0.047 A 
ATOM     66  C   LIG d   1       8.275  -1.713  -5.045  0.00  0.00    -0.034 A 
ATOM     67  N   LIG d   1       9.565   0.463  -7.550  0.00  0.00    -0.360 N 
ATOM     68  C   LIG d   1       8.910  -1.985  -7.746  0.00  0.00    -0.036 A 
ATOM     69  C   LIG d   1       9.545   1.360  -6.518  0.00  0.00     0.006 A 
ATOM     70  H   LIG d   1       9.865   0.659  -8.452  0.00  0.00     0.165 HD
ATOM     71  H   LIG d   1       9.861   2.390  -6.585  0.00  0.00     0.081 H 
ATOM     72  C   LIG d   1       8.423  -3.057  -7.029  0.00  0.00    -0.041 A 
ATOM     73  H   LIG d   1       9.157  -2.103  -8.791  0.00  0.00     0.064 H 
ATOM     74  C   LIG d   1       8.103  -2.921  -5.684  0.00  0.00     0.042 A 
ATOM     75  H   LIG d   1       8.285  -4.009  -7.518  0.00  0.00     0.063 H 
ATOM     76 CL   LIG d   1       7.483  -4.283  -4.803  0.00  0.00    -0.084 Cl
ATOM     77  H   LIG d   1       8.025  -1.612  -3.999  0.00  0.00     0.064 H 
ENDBRANCH  60  63
ENDBRANCH  57  60
ENDBRANCH  55  57
ENDBRANCH  50  53
ENDBRANCH  47  50
ENDBRANCH  41  47
ENDBRANCH   1  41
BRANCH   7  78
ATOM     78  C   LIG d   1       5.377  -0.262  -5.840  0.00  0.00    -0.059 C 
ATOM     79  H   LIG d   1       6.203  -0.972  -5.819  0.00  0.00     0.024 H 
ATOM     80  H   LIG d   1       5.556   0.483  -6.615  0.00  0.00     0.024 H 
ATOM     81  H   LIG d   1       5.298   0.233  -4.871  0.00  0.00     0.024 H 
ENDBRANCH   7  78
BRANCH  14  82
ATOM     82  O   LIG d   1       2.733   2.490  -8.248  0.00  0.00    -0.392 OA
ATOM     83  H   LIG d   1       2.796   2.349  -7.294  0.00  0.00     0.210 HD
ENDBRANCH  14  82
BRANCH  19  84
ATOM     84  C   LIG d   1       6.493   0.383  -9.660  0.00  0.00    -0.059 C 
ATOM     85  H   LIG d   1       6.793  -0.058  -8.710  0.00  0.00     0.024 H 
ATOM     86  H   LIG d   1       7.304   0.279 -10.381  0.00  0.00     0.024 H 
ATOM     87  H   LIG d   1       6.269   1.440  -9.516  0.00  0.00     0.024 H 
ENDBRANCH  19  84
BRANCH  22  88
ATOM     88  O   LIG d   1       2.427  -1.977 -12.878  0.00  0.00    -0.392 OA
ATOM     89  H   LIG d   1       1.637  -1.421 -12.907  0.00  0.00     0.210 HD
ENDBRANCH  22  88
TORSDOF 12
ENDMDL
MODEL 3
REMARK VINA RESULT:      -6.5      6.277      8.887
REMARK  12 active torsions:
REMARK  status: ('A' for Active; 'I' for Inactive)
REMARK    1  A    between atoms: C_1  and  C_2 
REMARK    2  A    between atoms: C_2  and  C_4 
REMARK    3  A    between atoms: C_2  and  C_22 
REMARK    4  A    between atoms: C_4  and  C_5 
REMARK    5  A    between atoms: C_5  and  C_6 
REMARK       I    between atoms: C_6  and  N_8 
REMARK    6  A    between atoms: N_8  and  C_9 
REMARK    7  A    between atoms: C_9  and  C_10 
REMARK    8  A    between atoms: C_10  and  C_11 
REMARK    9  A    between atoms: C_28  and  C_49 
REMARK   10  A    between atoms: C_35  and  O_48 
REMARK   11  A    between atoms: C_40  and  C_47 
REMARK   12  A    between atoms: C_43  and  O_46 
ROOT
ATOM      1  C   LIG d   1       9.294   3.434  -4.972  0.00  0.00    -0.033 C 
ATOM      2  H   LIG d   1       8.246   3.686  -5.142  0.00  0.00     0.031 H 
ATOM      3  C   LIG d   1       9.423   2.460  -3.775  0.00  0.00    -0.049 C 
ATOM      4  C   LIG d   1      10.214   3.219  -2.676  0.00  0.00    -0.049 C 
ATOM      5  C   LIG d   1       9.954   4.690  -3.020  0.00  0.00    -0.030 C 
ATOM      6  H   LIG d   1       8.946   4.976  -2.722  0.00  0.00     0.031 H 
ATOM      7  C   LIG d   1      10.078   4.678  -4.569  0.00  0.00    -0.026 C 
ATOM      8  C   LIG d   1       9.553   6.005  -5.079  0.00  0.00    -0.047 C 
ATOM      9  C   LIG d   1      10.487   7.103  -4.543  0.00  0.00    -0.049 C 
ATOM     10  C   LIG d   1      10.564   7.073  -3.021  0.00  0.00    -0.030 C 
ATOM     11  H   LIG d   1       9.581   7.311  -2.614  0.00  0.00     0.031 H 
ATOM     12  C   LIG d   1      10.967   5.684  -2.484  0.00  0.00    -0.008 C 
ATOM     13  H   LIG d   1      11.961   5.431  -2.849  0.00  0.00     0.033 H 
ATOM     14  C   LIG d   1      10.944   5.695  -0.954  0.00  0.00     0.059 C 
ATOM     15  H   LIG d   1       9.939   5.940  -0.608  0.00  0.00     0.060 H 
ATOM     16  C   LIG d   1      11.932   6.741  -0.437  0.00  0.00    -0.023 C 
ATOM     17  C   LIG d   1      11.534   8.123  -0.960  0.00  0.00    -0.031 C 
ATOM     18  H   LIG d   1      12.238   8.869  -0.589  0.00  0.00     0.031 H 
ATOM     19  C   LIG d   1      11.569   8.114  -2.526  0.00  0.00    -0.026 C 
ATOM     20  C   LIG d   1      11.168   9.496  -3.047  0.00  0.00    -0.045 C 
ATOM     21  C   LIG d   1       9.765   9.841  -2.544  0.00  0.00    -0.026 C 
ATOM     22  C   LIG d   1       9.761   9.853  -1.014  0.00  0.00     0.056 C 
ATOM     23  H   LIG d   1      10.468  10.600  -0.654  0.00  0.00     0.059 H 
ATOM     24  C   LIG d   1      10.124   8.465  -0.476  0.00  0.00    -0.023 C 
ATOM     25  H   LIG d   1       8.434   2.188  -3.404  0.00  0.00     0.027 H 
ATOM     26  H   LIG d   1       9.967   1.565  -4.077  0.00  0.00     0.027 H 
ATOM     27  H   LIG d   1       9.827   2.980  -1.686  0.00  0.00     0.027 H 
ATOM     28  H   LIG d   1      11.278   2.991  -2.739  0.00  0.00     0.027 H 
ATOM     29  H   LIG d   1       9.558   6.012  -6.169  0.00  0.00     0.027 H 
ATOM     30  H   LIG d   1       8.539   6.169  -4.712  0.00  0.00     0.027 H 
ATOM     31  H   LIG d   1      11.486   6.953  -4.954  0.00  0.00     0.027 H 
ATOM     32  H   LIG d   1      10.114   8.076  -4.863  0.00  0.00     0.027 H 
ATOM     33  H   LIG d   1      11.916   6.748   0.653  0.00  0.00     0.029 H 
ATOM     34  H   LIG d   1      12.936   6.496  -0.785  0.00  0.00     0.029 H 
ATOM     35  H   LIG d   1      11.878  10.240  -2.686  0.00  0.00     0.027 H 
ATOM     36  H   LIG d   1      11.172   9.489  -4.138  0.00  0.00     0.027 H 
ATOM     37  H   LIG d   1       9.479  10.825  -2.915  0.00  0.00     0.029 H 
ATOM     38  H   LIG d   1       9.056   9.096  -2.903  0.00  0.00     0.029 H 
ATOM     39  H   LIG d   1       9.421   7.718  -0.846  0.00  0.00     0.029 H 
ATOM     40  H   LIG d   1      10.106   8.470   0.615  0.00  0.00     0.029 H 
ENDROOT
BRANCH   1  41
ATOM     41  C   LIG d   1       9.899   2.810  -6.231  0.00  0.00    -0.040 C 
ATOM     42  H   LIG d   1      10.957   3.061  -6.288  0.00  0.00     0.030 H 
BRANCH  41  43
ATOM     43  C   LIG d   1       9.178   3.353  -7.467  0.00  0.00    -0.062 C 
ATOM     44  H   LIG d   1       9.633   4.298  -7.767  0.00  0.00     0.023 H 
ATOM     45  H   LIG d   1       9.262   2.634  -8.282  0.00  0.00     0.023 H 
ATOM     46  H   LIG d   1       8.126   3.514  -7.232  0.00  0.00     0.023 H 
ENDBRANCH  41  43
BRANCH  41  47
ATOM     47  C   LIG d   1       9.739   1.289  -6.174  0.00  0.00    -0.042 C 
ATOM     48  H   LIG d   1      10.517   0.820  -6.775  0.00  0.00     0.027 H 
ATOM     49  H   LIG d   1       9.826   0.953  -5.141  0.00  0.00     0.027 H 
BRANCH  47  50
ATOM     50  C   LIG d   1       8.365   0.899  -6.723  0.00  0.00     0.024 C 
ATOM     51  H   LIG d   1       7.591   1.454  -6.191  0.00  0.00     0.036 H 
ATOM     52  H   LIG d   1       8.318   1.137  -7.786  0.00  0.00     0.036 H 
BRANCH  50  53
ATOM     53  C   LIG d   1       8.147  -0.579  -6.527  0.00  0.00     0.213 C 
ATOM     54  O   LIG d   1       7.458  -1.199  -7.309  0.00  0.00    -0.276 OA
ATOM     55  N   LIG d   1       8.719  -1.212  -5.484  0.00  0.00    -0.315 N 
ATOM     56  H   LIG d   1       9.270  -0.716  -4.859  0.00  0.00     0.149 HD
BRANCH  55  57
ATOM     57  C   LIG d   1       8.508  -2.649  -5.293  0.00  0.00     0.016 C 
ATOM     58  H   LIG d   1       7.906  -3.040  -6.112  0.00  0.00     0.046 H 
ATOM     59  H   LIG d   1       9.472  -3.158  -5.276  0.00  0.00     0.046 H 
BRANCH  57  60
ATOM     60  C   LIG d   1       7.783  -2.887  -3.967  0.00  0.00    -0.010 C 
ATOM     61  H   LIG d   1       8.031  -3.879  -3.589  0.00  0.00     0.033 H 
ATOM     62  H   LIG d   1       8.096  -2.134  -3.242  0.00  0.00     0.033 H 
BRANCH  60  63
ATOM     63  C   LIG d   1       6.296  -2.787  -4.183  0.00  0.00    -0.021 A 
ATOM     64  C   LIG d   1       5.394  -1.796  -3.591  0.00  0.00     0.004 A 
ATOM     65  C   LIG d   1       4.110  -2.095  -4.081  0.00  0.00     0.047 A 
ATOM     66  C   LIG d   1       5.574  -0.720  -2.718  0.00  0.00    -0.034 A 
ATOM     67  N   LIG d   1       4.236  -3.194  -4.901  0.00  0.00    -0.360 N 
ATOM     68  C   LIG d   1       3.029  -1.312  -3.691  0.00  0.00    -0.036 A 
ATOM     69  C   LIG d   1       5.543  -3.592  -4.950  0.00  0.00     0.006 A 
ATOM     70  H   LIG d   1       3.505  -3.623  -5.374  0.00  0.00     0.165 HD
ATOM     71  H   LIG d   1       5.916  -4.429  -5.520  0.00  0.00     0.081 H 
ATOM     72  C   LIG d   1       3.221  -0.258  -2.824  0.00  0.00    -0.041 A 
ATOM     73  H   LIG d   1       2.039  -1.536  -4.058  0.00  0.00     0.064 H 
ATOM     74  C   LIG d   1       4.489   0.040  -2.341  0.00  0.00     0.042 A 
ATOM     75  H   LIG d   1       2.378   0.345  -2.520  0.00  0.00     0.063 H 
ATOM     76 CL   LIG d   1       4.707   1.378  -1.257  0.00  0.00    -0.084 Cl
ATOM     77  H   LIG d   1       6.559  -0.486  -2.341  0.00  0.00     0.064 H 
ENDBRANCH  60  63
ENDBRANCH  57  60
ENDBRANCH  55  57
ENDBRANCH  50  53
ENDBRANCH  47  50
ENDBRANCH  41  47
ENDBRANCH   1  41
BRANCH   7  78
ATOM     78  C   LIG d   1      11.546   4.515  -4.968  0.00  0.00    -0.059 C 
ATOM     79  H   LIG d   1      11.972   3.659  -4.446  0.00  0.00     0.024 H 
ATOM     80  H   LIG d   1      11.614   4.355  -6.045  0.00  0.00     0.024 H 
ATOM     81  H   LIG d   1      12.098   5.417  -4.700  0.00  0.00     0.024 H 
ENDBRANCH   7  78
BRANCH  14  82
ATOM     82  O   LIG d   1      11.314   4.405  -0.464  0.00  0.00    -0.392 OA
ATOM     83  H   LIG d   1      10.613   3.954   0.025  0.00  0.00     0.210 HD
ENDBRANCH  14  82
BRANCH  19  84
ATOM     84  C   LIG d   1      12.968   7.756  -3.035  0.00  0.00    -0.059 C 
ATOM     85  H   LIG d   1      12.975   7.783  -4.124  0.00  0.00     0.024 H 
ATOM     86  H   LIG d   1      13.689   8.476  -2.648  0.00  0.00     0.024 H 
ATOM     87  H   LIG d   1      13.234   6.756  -2.694  0.00  0.00     0.024 H 
ENDBRANCH  19  84
BRANCH  22  88
ATOM     88  O   LIG d   1       8.450  10.174  -0.544  0.00  0.00    -0.392 OA
ATOM     89  H   LIG d   1       8.074  10.971  -0.941  0.00  0.00     0.210 HD
ENDBRANCH  22  88
TORSDOF 12
ENDMDL
MODEL 4
REMARK VINA RESULT:      -6.4      6.237      8.546
REMARK  12 active torsions:
REMARK  status: ('A' for Active; 'I' for Inactive)
REMARK    1  A    between atoms: C_1  and  C_2 
REMARK    2  A    between atoms: C_2  and  C_4 
REMARK    3  A    between atoms: C_2  and  C_22 
REMARK    4  A    between atoms: C_4  and  C_5 
REMARK    5  A    between atoms: C_5  and  C_6 
REMARK       I    between atoms: C_6  and  N_8 
REMARK    6  A    between atoms: N_8  and  C_9 
REMARK    7  A    between atoms: C_9  and  C_10 
REMARK    8  A    between atoms: C_10  and  C_11 
REMARK    9  A    between atoms: C_28  and  C_49 
REMARK   10  A    between atoms: C_35  and  O_48 
REMARK   11  A    between atoms: C_40  and  C_47 
REMARK   12  A    between atoms: C_43  and  O_46 
ROOT
ATOM      1  C   LIG d   1       9.352   3.510  -5.017  0.00  0.00    -0.033 C 
ATOM      2  H   LIG d   1       8.311   3.772  -5.210  0.00  0.00     0.031 H 
ATOM      3  C   LIG d   1       9.443   2.519  -3.829  0.00  0.00    -0.049 C 
ATOM      4  C   LIG d   1      10.211   3.259  -2.700  0.00  0.00    -0.049 C 
ATOM      5  C   LIG d   1       9.970   4.736  -3.032  0.00  0.00    -0.030 C 
ATOM      6  H   LIG d   1       8.956   5.026  -2.756  0.00  0.00     0.031 H 
ATOM      7  C   LIG d   1      10.134   4.743  -4.577  0.00  0.00    -0.026 C 
ATOM      8  C   LIG d   1       9.632   6.081  -5.083  0.00  0.00    -0.047 C 
ATOM      9  C   LIG d   1      10.559   7.165  -4.509  0.00  0.00    -0.049 C 
ATOM     10  C   LIG d   1      10.596   7.115  -2.985  0.00  0.00    -0.030 C 
ATOM     11  H   LIG d   1       9.604   7.354  -2.601  0.00  0.00     0.031 H 
ATOM     12  C   LIG d   1      10.975   5.716  -2.456  0.00  0.00    -0.008 C 
ATOM     13  H   LIG d   1      11.977   5.460  -2.799  0.00  0.00     0.033 H 
ATOM     14  C   LIG d   1      10.912   5.707  -0.928  0.00  0.00     0.059 C 
ATOM     15  H   LIG d   1       9.901   5.954  -0.605  0.00  0.00     0.060 H 
ATOM     16  C   LIG d   1      11.894   6.739  -0.372  0.00  0.00    -0.023 C 
ATOM     17  C   LIG d   1      11.520   8.131  -0.887  0.00  0.00    -0.031 C 
ATOM     18  H   LIG d   1      12.218   8.867  -0.488  0.00  0.00     0.031 H 
ATOM     19  C   LIG d   1      11.594   8.142  -2.451  0.00  0.00    -0.026 C 
ATOM     20  C   LIG d   1      11.217   9.533  -2.965  0.00  0.00    -0.045 C 
ATOM     21  C   LIG d   1       9.804   9.882  -2.493  0.00  0.00    -0.026 C 
ATOM     22  C   LIG d   1       9.760   9.874  -0.964  0.00  0.00     0.056 C 
ATOM     23  H   LIG d   1      10.463  10.612  -0.576  0.00  0.00     0.059 H 
ATOM     24  C   LIG d   1      10.099   8.476  -0.434  0.00  0.00    -0.023 C 
ATOM     25  H   LIG d   1       8.444   2.250  -3.488  0.00  0.00     0.027 H 
ATOM     26  H   LIG d   1       9.989   1.625  -4.129  0.00  0.00     0.027 H 
ATOM     27  H   LIG d   1       9.796   3.010  -1.724  0.00  0.00     0.027 H 
ATOM     28  H   LIG d   1      11.275   3.024  -2.739  0.00  0.00     0.027 H 
ATOM     29  H   LIG d   1       9.665   6.102  -6.172  0.00  0.00     0.027 H 
ATOM     30  H   LIG d   1       8.609   6.247  -4.740  0.00  0.00     0.027 H 
ATOM     31  H   LIG d   1      11.567   7.012  -4.896  0.00  0.00     0.027 H 
ATOM     32  H   LIG d   1      10.201   8.144  -4.825  0.00  0.00     0.027 H 
ATOM     33  H   LIG d   1      11.850   6.732   0.718  0.00  0.00     0.029 H 
ATOM     34  H   LIG d   1      12.905   6.492  -0.696  0.00  0.00     0.029 H 
ATOM     35  H   LIG d   1      11.922  10.268  -2.576  0.00  0.00     0.027 H 
ATOM     36  H   LIG d   1      11.249   9.540  -4.055  0.00  0.00     0.027 H 
ATOM     37  H   LIG d   1       9.534  10.873  -2.859  0.00  0.00     0.029 H 
ATOM     38  H   LIG d   1       9.100   9.147  -2.880  0.00  0.00     0.029 H 
ATOM     39  H   LIG d   1       9.402   7.739  -0.833  0.00  0.00     0.029 H 
ATOM     40  H   LIG d   1      10.053   8.467   0.655  0.00  0.00     0.029 H 
ENDROOT
BRANCH   1  41
ATOM     41  C   LIG d   1       9.985   2.898  -6.267  0.00  0.00    -0.040 C 
ATOM     42  H   LIG d   1      11.040   3.168  -6.309  0.00  0.00     0.030 H 
BRANCH  41  43
ATOM     43  C   LIG d   1       9.272   3.430  -7.512  0.00  0.00    -0.062 C 
ATOM     44  H   LIG d   1       9.872   4.219  -7.966  0.00  0.00     0.023 H 
ATOM     45  H   LIG d   1       9.138   2.619  -8.228  0.00  0.00     0.023 H 
ATOM     46  H   LIG d   1       8.298   3.830  -7.230  0.00  0.00     0.023 H 
ENDBRANCH  41  43
BRANCH  41  47
ATOM     47  C   LIG d   1       9.852   1.374  -6.214  0.00  0.00    -0.042 C 
ATOM     48  H   LIG d   1      10.780   0.941  -5.846  0.00  0.00     0.027 H 
ATOM     49  H   LIG d   1       9.035   1.105  -5.545  0.00  0.00     0.027 H 
BRANCH  47  50
ATOM     50  C   LIG d   1       9.558   0.839  -7.617  0.00  0.00     0.024 C 
ATOM     51  H   LIG d   1       9.328   1.670  -8.283  0.00  0.00     0.036 H 
ATOM     52  H   LIG d   1      10.432   0.304  -7.991  0.00  0.00     0.036 H 
BRANCH  50  53
ATOM     53  C   LIG d   1       8.381  -0.101  -7.560  0.00  0.00     0.213 C 
ATOM     54  O   LIG d   1       8.436  -1.100  -6.876  0.00  0.00    -0.276 OA
ATOM     55  N   LIG d   1       7.268   0.171  -8.269  0.00  0.00    -0.315 N 
ATOM     56  H   LIG d   1       7.224   0.971  -8.815  0.00  0.00     0.149 HD
BRANCH  55  57
ATOM     57  C   LIG d   1       6.123  -0.742  -8.214  0.00  0.00     0.016 C 
ATOM     58  H   LIG d   1       5.663  -0.807  -9.199  0.00  0.00     0.046 H 
ATOM     59  H   LIG d   1       6.463  -1.731  -7.905  0.00  0.00     0.046 H 
BRANCH  57  60
ATOM     60  C   LIG d   1       5.100  -0.217  -7.205  0.00  0.00    -0.010 C 
ATOM     61  H   LIG d   1       5.508   0.653  -6.691  0.00  0.00     0.033 H 
ATOM     62  H   LIG d   1       4.186   0.068  -7.730  0.00  0.00     0.033 H 
BRANCH  60  63
ATOM     63  C   LIG d   1       4.786  -1.295  -6.201  0.00  0.00    -0.021 A 
ATOM     64  C   LIG d   1       4.626  -1.118  -4.755  0.00  0.00     0.004 A 
ATOM     65  C   LIG d   1       4.338  -2.394  -4.237  0.00  0.00     0.047 A 
ATOM     66  C   LIG d   1       4.700  -0.018  -3.899  0.00  0.00    -0.034 A 
ATOM     67  N   LIG d   1       4.336  -3.272  -5.299  0.00  0.00    -0.360 N 
ATOM     68  C   LIG d   1       4.129  -2.546  -2.871  0.00  0.00    -0.036 A 
ATOM     69  C   LIG d   1       4.604  -2.599  -6.459  0.00  0.00     0.006 A 
ATOM     70  H   LIG d   1       4.170  -4.225  -5.233  0.00  0.00     0.165 HD
ATOM     71  H   LIG d   1       4.661  -3.051  -7.438  0.00  0.00     0.081 H 
ATOM     72  C   LIG d   1       4.214  -1.452  -2.037  0.00  0.00    -0.041 A 
ATOM     73  H   LIG d   1       3.912  -3.522  -2.462  0.00  0.00     0.064 H 
ATOM     74  C   LIG d   1       4.494  -0.192  -2.548  0.00  0.00     0.042 A 
ATOM     75  H   LIG d   1       4.055  -1.576  -0.976  0.00  0.00     0.063 H 
ATOM     76 CL   LIG d   1       4.586   1.173  -1.478  0.00  0.00    -0.084 Cl
ATOM     77  H   LIG d   1       4.919   0.963  -4.293  0.00  0.00     0.064 H 
ENDBRANCH  60  63
ENDBRANCH  57  60
ENDBRANCH  55  57
ENDBRANCH  50  53
ENDBRANCH  47  50
ENDBRANCH  41  47
ENDBRANCH   1  41
BRANCH   7  78
ATOM     78  C   LIG d   1      11.611   4.575  -4.940  0.00  0.00    -0.059 C 
ATOM     79  H   LIG d   1      11.704   4.409  -6.013  0.00  0.00     0.024 H 
ATOM     80  H   LIG d   1      12.157   5.477  -4.664  0.00  0.00     0.024 H 
ATOM     81  H   LIG d   1      12.023   3.721  -4.402  0.00  0.00     0.024 H 
ENDBRANCH   7  78
BRANCH  14  82
ATOM     82  O   LIG d   1      11.261   4.409  -0.445  0.00  0.00    -0.392 OA
ATOM     83  H   LIG d   1      10.675   3.704  -0.751  0.00  0.00     0.210 HD
ENDBRANCH  14  82
BRANCH  19  84
ATOM     84  C   LIG d   1      13.004   7.780  -2.928  0.00  0.00    -0.059 C 
ATOM     85  H   LIG d   1      13.717   7.971  -2.126  0.00  0.00     0.024 H 
ATOM     86  H   LIG d   1      13.035   6.726  -3.200  0.00  0.00     0.024 H 
ATOM     87  H   LIG d   1      13.261   8.387  -3.796  0.00  0.00     0.024 H 
ENDBRANCH  19  84
BRANCH  22  88
ATOM     88  O   LIG d   1       8.439  10.199  -0.524  0.00  0.00    -0.392 OA
ATOM     89  H   LIG d   1       8.063  10.979  -0.952  0.00  0.00     0.210 HD
ENDBRANCH  22  88
TORSDOF 12
ENDMDL
MODEL 5
REMARK VINA RESULT:      -6.4      6.769      9.304
REMARK  12 active torsions:
REMARK  status: ('A' for Active; 'I' for Inactive)
REMARK    1  A    between atoms: C_1  and  C_2 
REMARK    2  A    between atoms: C_2  and  C_4 
REMARK    3  A    between atoms: C_2  and  C_22 
REMARK    4  A    between atoms: C_4  and  C_5 
REMARK    5  A    between atoms: C_5  and  C_6 
REMARK       I    between atoms: C_6  and  N_8 
REMARK    6  A    between atoms: N_8  and  C_9 
REMARK    7  A    between atoms: C_9  and  C_10 
REMARK    8  A    between atoms: C_10  and  C_11 
REMARK    9  A    between atoms: C_28  and  C_49 
REMARK   10  A    between atoms: C_35  and  O_48 
REMARK   11  A    between atoms: C_40  and  C_47 
REMARK   12  A    between atoms: C_43  and  O_46 
ROOT
ATOM      1  C   LIG d   1       9.490   4.048  -4.631  0.00  0.00    -0.033 C 
ATOM      2  H   LIG d   1       8.449   4.091  -4.955  0.00  0.00     0.031 H 
ATOM      3  C   LIG d   1       9.573   3.583  -3.156  0.00  0.00    -0.049 C 
ATOM      4  C   LIG d   1      10.165   4.773  -2.354  0.00  0.00    -0.049 C 
ATOM      5  C   LIG d   1       9.812   5.983  -3.226  0.00  0.00    -0.030 C 
ATOM      6  H   LIG d   1       8.756   6.229  -3.124  0.00  0.00     0.031 H 
ATOM      7  C   LIG d   1      10.108   5.442  -4.652  0.00  0.00    -0.026 C 
ATOM      8  C   LIG d   1       9.525   6.427  -5.645  0.00  0.00    -0.047 C 
ATOM      9  C   LIG d   1      10.290   7.751  -5.479  0.00  0.00    -0.049 C 
ATOM     10  C   LIG d   1      10.199   8.270  -4.048  0.00  0.00    -0.030 C 
ATOM     11  H   LIG d   1       9.160   8.511  -3.826  0.00  0.00     0.031 H 
ATOM     12  C   LIG d   1      10.664   7.221  -3.016  0.00  0.00    -0.008 C 
ATOM     13  H   LIG d   1      11.712   6.981  -3.193  0.00  0.00     0.033 H 
ATOM     14  C   LIG d   1      10.471   7.767  -1.601  0.00  0.00     0.059 C 
ATOM     15  H   LIG d   1       9.416   7.991  -1.439  0.00  0.00     0.060 H 
ATOM     16  C   LIG d   1      11.296   9.043  -1.430  0.00  0.00    -0.023 C 
ATOM     17  C   LIG d   1      10.835  10.091  -2.445  0.00  0.00    -0.031 C 
ATOM     18  H   LIG d   1      11.422  11.001  -2.321  0.00  0.00     0.031 H 
ATOM     19  C   LIG d   1      11.044   9.535  -3.895  0.00  0.00    -0.026 C 
ATOM     20  C   LIG d   1      10.580  10.583  -4.909  0.00  0.00    -0.045 C 
ATOM     21  C   LIG d   1       9.104  10.905  -4.666  0.00  0.00    -0.026 C 
ATOM     22  C   LIG d   1       8.928  11.455  -3.249  0.00  0.00     0.056 C 
ATOM     23  H   LIG d   1       9.521  12.363  -3.135  0.00  0.00     0.059 H 
ATOM     24  C   LIG d   1       9.354  10.403  -2.219  0.00  0.00    -0.023 C 
ATOM     25  H   LIG d   1       8.579   3.338  -2.783  0.00  0.00     0.027 H 
ATOM     26  H   LIG d   1      10.227   2.715  -3.074  0.00  0.00     0.027 H 
ATOM     27  H   LIG d   1       9.693   4.852  -1.375  0.00  0.00     0.027 H 
ATOM     28  H   LIG d   1      11.246   4.672  -2.254  0.00  0.00     0.027 H 
ATOM     29  H   LIG d   1       9.650   6.050  -6.659  0.00  0.00     0.027 H 
ATOM     30  H   LIG d   1       8.466   6.582  -5.435  0.00  0.00     0.027 H 
ATOM     31  H   LIG d   1      11.338   7.591  -5.735  0.00  0.00     0.027 H 
ATOM     32  H   LIG d   1       9.867   8.494  -6.155  0.00  0.00     0.027 H 
ATOM     33  H   LIG d   1      11.158   9.432  -0.420  0.00  0.00     0.029 H 
ATOM     34  H   LIG d   1      12.350   8.819  -1.592  0.00  0.00     0.029 H 
ATOM     35  H   LIG d   1      11.174  11.489  -4.793  0.00  0.00     0.027 H 
ATOM     36  H   LIG d   1      10.706  10.192  -5.919  0.00  0.00     0.027 H 
ATOM     37  H   LIG d   1       8.772  11.651  -5.388  0.00  0.00     0.029 H 
ATOM     38  H   LIG d   1       8.510   9.999  -4.780  0.00  0.00     0.029 H 
ATOM     39  H   LIG d   1       8.768   9.492  -2.342  0.00  0.00     0.029 H 
ATOM     40  H   LIG d   1       9.215  10.790  -1.209  0.00  0.00     0.029 H 
ENDROOT
BRANCH   1  41
ATOM     41  C   LIG d   1      10.285   3.101  -5.531  0.00  0.00    -0.040 C 
ATOM     42  H   LIG d   1      11.319   3.441  -5.592  0.00  0.00     0.030 H 
BRANCH  41  43
ATOM     43  C   LIG d   1       9.669   3.090  -6.931  0.00  0.00    -0.062 C 
ATOM     44  H   LIG d   1       8.685   2.622  -6.892  0.00  0.00     0.023 H 
ATOM     45  H   LIG d   1       9.570   4.113  -7.294  0.00  0.00     0.023 H 
ATOM     46  H   LIG d   1      10.312   2.525  -7.607  0.00  0.00     0.023 H 
ENDBRANCH  41  43
BRANCH  41  47
ATOM     47  C   LIG d   1      10.248   1.687  -4.946  0.00  0.00    -0.042 C 
ATOM     48  H   LIG d   1      11.227   1.224  -5.054  0.00  0.00     0.027 H 
ATOM     49  H   LIG d   1       9.985   1.740  -3.889  0.00  0.00     0.027 H 
BRANCH  47  50
ATOM     50  C   LIG d   1       9.202   0.854  -5.690  0.00  0.00     0.024 C 
ATOM     51  H   LIG d   1       8.857   1.403  -6.567  0.00  0.00     0.036 H 
ATOM     52  H   LIG d   1       9.647  -0.090  -6.004  0.00  0.00     0.036 H 
BRANCH  50  53
ATOM     53  C   LIG d   1       8.035   0.582  -4.776  0.00  0.00     0.213 C 
ATOM     54  O   LIG d   1       7.186   1.430  -4.608  0.00  0.00    -0.276 OA
ATOM     55  N   LIG d   1       7.935  -0.606  -4.147  0.00  0.00    -0.315 N 
ATOM     56  H   LIG d   1       8.615  -1.285  -4.282  0.00  0.00     0.149 HD
BRANCH  55  57
ATOM     57  C   LIG d   1       6.801  -0.872  -3.258  0.00  0.00     0.016 C 
ATOM     58  H   LIG d   1       7.168  -1.260  -2.309  0.00  0.00     0.046 H 
ATOM     59  H   LIG d   1       6.252   0.054  -3.085  0.00  0.00     0.046 H 
BRANCH  57  60
ATOM     60  C   LIG d   1       5.875  -1.901  -3.908  0.00  0.00    -0.010 C 
ATOM     61  H   LIG d   1       6.407  -2.418  -4.706  0.00  0.00     0.033 H 
ATOM     62  H   LIG d   1       5.554  -2.626  -3.157  0.00  0.00     0.033 H 
BRANCH  60  63
ATOM     63  C   LIG d   1       4.668  -1.202  -4.477  0.00  0.00    -0.021 A 
ATOM     64  C   LIG d   1       4.535  -0.657  -5.830  0.00  0.00     0.004 A 
ATOM     65  C   LIG d   1       3.243  -0.107  -5.903  0.00  0.00     0.047 A 
ATOM     66  C   LIG d   1       5.381  -0.599  -6.940  0.00  0.00    -0.034 A 
ATOM     67  N   LIG d   1       2.650  -0.301  -4.675  0.00  0.00    -0.360 N 
ATOM     68  C   LIG d   1       2.819   0.491  -7.085  0.00  0.00    -0.036 A 
ATOM     69  C   LIG d   1       3.513  -0.955  -3.840  0.00  0.00     0.006 A 
ATOM     70  H   LIG d   1       1.753  -0.017  -4.438  0.00  0.00     0.165 HD
ATOM     71  H   LIG d   1       3.297  -1.231  -2.819  0.00  0.00     0.081 H 
ATOM     72  C   LIG d   1       3.668   0.547  -8.170  0.00  0.00    -0.041 A 
ATOM     73  H   LIG d   1       1.830   0.920  -7.150  0.00  0.00     0.064 H 
ATOM     74  C   LIG d   1       4.943   0.001  -8.100  0.00  0.00     0.042 A 
ATOM     75  H   LIG d   1       3.336   1.015  -9.084  0.00  0.00     0.063 H 
ATOM     76 CL   LIG d   1       5.991   0.075  -9.483  0.00  0.00    -0.084 Cl
ATOM     77  H   LIG d   1       6.373  -1.023  -6.889  0.00  0.00     0.064 H 
ENDBRANCH  60  63
ENDBRANCH  57  60
ENDBRANCH  55  57
ENDBRANCH  50  53
ENDBRANCH  47  50
ENDBRANCH  41  47
ENDBRANCH   1  41
BRANCH   7  78
ATOM     78  C   LIG d   1      11.620   5.333  -4.860  0.00  0.00    -0.059 C 
ATOM     79  H   LIG d   1      12.091   6.282  -4.603  0.00  0.00     0.024 H 
ATOM     80  H   LIG d   1      12.019   4.545  -4.221  0.00  0.00     0.024 H 
ATOM     81  H   LIG d   1      11.828   5.096  -5.904  0.00  0.00     0.024 H 
ENDBRANCH   7  78
BRANCH  14  82
ATOM     82  O   LIG d   1      10.900   6.791  -0.651  0.00  0.00    -0.392 OA
ATOM     83  H   LIG d   1      10.740   5.878  -0.925  0.00  0.00     0.210 HD
ENDBRANCH  14  82
BRANCH  19  84
ATOM     84  C   LIG d   1      12.517   9.198  -4.138  0.00  0.00    -0.059 C 
ATOM     85  H   LIG d   1      13.080  10.120  -4.283  0.00  0.00     0.024 H 
ATOM     86  H   LIG d   1      12.914   8.662  -3.276  0.00  0.00     0.024 H 
ATOM     87  H   LIG d   1      12.606   8.574  -5.026  0.00  0.00     0.024 H 
ENDBRANCH  19  84
BRANCH  22  88
ATOM     88  O   LIG d   1       7.550  11.755  -3.022  0.00  0.00    -0.392 OA
ATOM     89  H   LIG d   1       6.997  10.976  -2.874  0.00  0.00     0.210 HD
ENDBRANCH  22  88
TORSDOF 12
ENDMDL
MODEL 6
REMARK VINA RESULT:      -6.3      3.670      8.330
REMARK  12 active torsions:
REMARK  status: ('A' for Active; 'I' for Inactive)
REMARK    1  A    between atoms: C_1  and  C_2 
REMARK    2  A    between atoms: C_2  and  C_4 
REMARK    3  A    between atoms: C_2  and  C_22 
REMARK    4  A    between atoms: C_4  and  C_5 
REMARK    5  A    between atoms: C_5  and  C_6 
REMARK       I    between atoms: C_6  and  N_8 
REMARK    6  A    between atoms: N_8  and  C_9 
REMARK    7  A    between atoms: C_9  and  C_10 
REMARK    8  A    between atoms: C_10  and  C_11 
REMARK    9  A    between atoms: C_28  and  C_49 
REMARK   10  A    between atoms: C_35  and  O_48 
REMARK   11  A    between atoms: C_40  and  C_47 
REMARK   12  A    between atoms: C_43  and  O_46 
ROOT
ATOM      1  C   LIG d   1       3.229  -1.194  -4.852  0.00  0.00    -0.033 C 
ATOM      2  H   LIG d   1       2.564  -2.054  -4.936  0.00  0.00     0.031 H 
ATOM      3  C   LIG d   1       2.405   0.109  -4.700  0.00  0.00    -0.049 C 
ATOM      4  C   LIG d   1       2.700   0.963  -5.962  0.00  0.00    -0.049 C 
ATOM      5  C   LIG d   1       3.130  -0.085  -6.993  0.00  0.00    -0.030 C 
ATOM      6  H   LIG d   1       2.263  -0.630  -7.365  0.00  0.00     0.031 H 
ATOM      7  C   LIG d   1       4.031  -1.018  -6.138  0.00  0.00    -0.026 C 
ATOM      8  C   LIG d   1       4.293  -2.271  -6.950  0.00  0.00    -0.047 C 
ATOM      9  C   LIG d   1       5.098  -1.852  -8.191  0.00  0.00    -0.049 C 
ATOM     10  C   LIG d   1       4.358  -0.796  -9.004  0.00  0.00    -0.030 C 
ATOM     11  H   LIG d   1       3.439  -1.233  -9.394  0.00  0.00     0.031 H 
ATOM     12  C   LIG d   1       3.966   0.429  -8.151  0.00  0.00    -0.008 C 
ATOM     13  H   LIG d   1       4.868   0.906  -7.770  0.00  0.00     0.033 H 
ATOM     14  C   LIG d   1       3.155   1.411  -8.998  0.00  0.00     0.059 C 
ATOM     15  H   LIG d   1       2.253   0.918  -9.361  0.00  0.00     0.060 H 
ATOM     16  C   LIG d   1       3.998   1.873 -10.187  0.00  0.00    -0.023 C 
ATOM     17  C   LIG d   1       4.385   0.665 -11.042  0.00  0.00    -0.031 C 
ATOM     18  H   LIG d   1       4.984   0.996 -11.891  0.00  0.00     0.031 H 
ATOM     19  C   LIG d   1       5.224  -0.335 -10.176  0.00  0.00    -0.026 C 
ATOM     20  C   LIG d   1       5.608  -1.544 -11.032  0.00  0.00    -0.045 C 
ATOM     21  C   LIG d   1       4.338  -2.221 -11.552  0.00  0.00    -0.026 C 
ATOM     22  C   LIG d   1       3.542  -1.228 -12.402  0.00  0.00     0.056 C 
ATOM     23  H   LIG d   1       4.150  -0.902 -13.246  0.00  0.00     0.059 H 
ATOM     24  C   LIG d   1       3.118  -0.027 -11.549  0.00  0.00    -0.023 C 
ATOM     25  H   LIG d   1       1.342  -0.124  -4.645  0.00  0.00     0.027 H 
ATOM     26  H   LIG d   1       2.717   0.646  -3.804  0.00  0.00     0.027 H 
ATOM     27  H   LIG d   1       1.802   1.485  -6.293  0.00  0.00     0.027 H 
ATOM     28  H   LIG d   1       3.507   1.670  -5.771  0.00  0.00     0.027 H 
ATOM     29  H   LIG d   1       4.865  -2.984  -6.358  0.00  0.00     0.027 H 
ATOM     30  H   LIG d   1       3.346  -2.719  -7.256  0.00  0.00     0.027 H 
ATOM     31  H   LIG d   1       6.060  -1.448  -7.871  0.00  0.00     0.027 H 
ATOM     32  H   LIG d   1       5.271  -2.728  -8.816  0.00  0.00     0.027 H 
ATOM     33  H   LIG d   1       3.421   2.574 -10.790  0.00  0.00     0.029 H 
ATOM     34  H   LIG d   1       4.901   2.365  -9.824  0.00  0.00     0.029 H 
ATOM     35  H   LIG d   1       6.216  -1.216 -11.874  0.00  0.00     0.027 H 
ATOM     36  H   LIG d   1       6.176  -2.252 -10.427  0.00  0.00     0.027 H 
ATOM     37  H   LIG d   1       4.610  -3.083 -12.161  0.00  0.00     0.029 H 
ATOM     38  H   LIG d   1       3.729  -2.548 -10.710  0.00  0.00     0.029 H 
ATOM     39  H   LIG d   1       2.519  -0.357 -10.699  0.00  0.00     0.029 H 
ATOM     40  H   LIG d   1       2.538   0.673 -12.151  0.00  0.00     0.029 H 
ENDROOT
BRANCH   1  41
ATOM     41  C   LIG d   1       4.171  -1.369  -3.660  0.00  0.00    -0.040 C 
ATOM     42  H   LIG d   1       5.135  -0.916  -3.889  0.00  0.00     0.030 H 
BRANCH  41  43
ATOM     43  C   LIG d   1       4.362  -2.860  -3.374  0.00  0.00    -0.062 C 
ATOM     44  H   LIG d   1       5.311  -3.192  -3.797  0.00  0.00     0.023 H 
ATOM     45  H   LIG d   1       4.365  -3.026  -2.297  0.00  0.00     0.023 H 
ATOM     46  H   LIG d   1       3.546  -3.424  -3.826  0.00  0.00     0.023 H 
ENDBRANCH  41  43
BRANCH  41  47
ATOM     47  C   LIG d   1       3.568  -0.687  -2.429  0.00  0.00    -0.042 C 
ATOM     48  H   LIG d   1       2.802   0.020  -2.744  0.00  0.00     0.027 H 
ATOM     49  H   LIG d   1       3.123  -1.440  -1.779  0.00  0.00     0.027 H 
BRANCH  47  50
ATOM     50  C   LIG d   1       4.668   0.057  -1.668  0.00  0.00     0.024 C 
ATOM     51  H   LIG d   1       4.228   0.602  -0.833  0.00  0.00     0.036 H 
ATOM     52  H   LIG d   1       5.397  -0.661  -1.290  0.00  0.00     0.036 H 
BRANCH  50  53
ATOM     53  C   LIG d   1       5.352   1.027  -2.596  0.00  0.00     0.213 C 
ATOM     54  O   LIG d   1       4.734   1.959  -3.062  0.00  0.00    -0.276 OA
ATOM     55  N   LIG d   1       6.652   0.857  -2.909  0.00  0.00    -0.315 N 
ATOM     56  H   LIG d   1       7.147   0.111  -2.536  0.00  0.00     0.149 HD
BRANCH  55  57
ATOM     57  C   LIG d   1       7.318   1.799  -3.812  0.00  0.00     0.016 C 
ATOM     58  H   LIG d   1       6.622   2.110  -4.590  0.00  0.00     0.046 H 
ATOM     59  H   LIG d   1       7.646   2.672  -3.247  0.00  0.00     0.046 H 
BRANCH  57  60
ATOM     60  C   LIG d   1       8.531   1.122  -4.452  0.00  0.00    -0.010 C 
ATOM     61  H   LIG d   1       9.365   1.128  -3.750  0.00  0.00     0.033 H 
ATOM     62  H   LIG d   1       8.279   0.091  -4.706  0.00  0.00     0.033 H 
BRANCH  60  63
ATOM     63  C   LIG d   1       8.920   1.866  -5.703  0.00  0.00    -0.021 A 
ATOM     64  C   LIG d   1       9.252   3.289  -5.802  0.00  0.00     0.004 A 
ATOM     65  C   LIG d   1       9.551   3.526  -7.155  0.00  0.00     0.047 A 
ATOM     66  C   LIG d   1       9.316   4.336  -4.880  0.00  0.00    -0.034 A 
ATOM     67  N   LIG d   1       9.399   2.329  -7.820  0.00  0.00    -0.360 N 
ATOM     68  C   LIG d   1       9.910   4.806  -7.563  0.00  0.00    -0.036 A 
ATOM     69  C   LIG d   1       9.024   1.352  -6.939  0.00  0.00     0.006 A 
ATOM     70  H   LIG d   1       9.537   2.198  -8.771  0.00  0.00     0.165 HD
ATOM     71  H   LIG d   1       8.837   0.321  -7.199  0.00  0.00     0.081 H 
ATOM     72  C   LIG d   1       9.962   5.831  -6.643  0.00  0.00    -0.041 A 
ATOM     73  H   LIG d   1      10.138   5.000  -8.601  0.00  0.00     0.064 H 
ATOM     74  C   LIG d   1       9.670   5.597  -5.306  0.00  0.00     0.042 A 
ATOM     75  H   LIG d   1      10.238   6.824  -6.965  0.00  0.00     0.063 H 
ATOM     76 CL   LIG d   1       9.752   6.903  -4.164  0.00  0.00    -0.084 Cl
ATOM     77  H   LIG d   1       9.089   4.158  -3.839  0.00  0.00     0.064 H 
ENDBRANCH  60  63
ENDBRANCH  57  60
ENDBRANCH  55  57
ENDBRANCH  50  53
ENDBRANCH  47  50
ENDBRANCH  41  47
ENDBRANCH   1  41
BRANCH   7  78
ATOM     78  C   LIG d   1       5.355  -0.317  -5.829  0.00  0.00    -0.059 C 
ATOM     79  H   LIG d   1       5.997  -0.348  -6.710  0.00  0.00     0.024 H 
ATOM     80  H   LIG d   1       5.162   0.720  -5.557  0.00  0.00     0.024 H 
ATOM     81  H   LIG d   1       5.851  -0.824  -5.001  0.00  0.00     0.024 H 
ENDBRANCH   7  78
BRANCH  14  82
ATOM     82  O   LIG d   1       2.793   2.540  -8.202  0.00  0.00    -0.392 OA
ATOM     83  H   LIG d   1       3.187   3.372  -8.497  0.00  0.00     0.210 HD
ENDBRANCH  14  82
BRANCH  19  84
ATOM     84  C   LIG d   1       6.490   0.342  -9.642  0.00  0.00    -0.059 C 
ATOM     85  H   LIG d   1       7.191   0.495 -10.462  0.00  0.00     0.024 H 
ATOM     86  H   LIG d   1       6.228   1.303  -9.202  0.00  0.00     0.024 H 
ATOM     87  H   LIG d   1       6.949  -0.292  -8.885  0.00  0.00     0.024 H 
ENDBRANCH  19  84
BRANCH  22  88
ATOM     88  O   LIG d   1       2.355  -1.860 -12.886  0.00  0.00    -0.392 OA
ATOM     89  H   LIG d   1       2.166  -2.712 -12.471  0.00  0.00     0.210 HD
ENDBRANCH  22  88
TORSDOF 12
ENDMDL
MODEL 7
REMARK VINA RESULT:      -6.1      6.184      8.310
REMARK  12 active torsions:
REMARK  status: ('A' for Active; 'I' for Inactive)
REMARK    1  A    between atoms: C_1  and  C_2 
REMARK    2  A    between atoms: C_2  and  C_4 
REMARK    3  A    between atoms: C_2  and  C_22 
REMARK    4  A    between atoms: C_4  and  C_5 
REMARK    5  A    between atoms: C_5  and  C_6 
REMARK       I    between atoms: C_6  and  N_8 
REMARK    6  A    between atoms: N_8  and  C_9 
REMARK    7  A    between atoms: C_9  and  C_10 
REMARK    8  A    between atoms: C_10  and  C_11 
REMARK    9  A    between atoms: C_28  and  C_49 
REMARK   10  A    between atoms: C_35  and  O_48 
REMARK   11  A    between atoms: C_40  and  C_47 
REMARK   12  A    between atoms: C_43  and  O_46 
ROOT
ATOM      1  C   LIG d   1       9.344   3.479  -5.380  0.00  0.00    -0.033 C 
ATOM      2  H   LIG d   1       8.311   3.728  -5.627  0.00  0.00     0.031 H 
ATOM      3  C   LIG d   1       9.389   2.507  -4.175  0.00  0.00    -0.049 C 
ATOM      4  C   LIG d   1      10.096   3.270  -3.023  0.00  0.00    -0.049 C 
ATOM      5  C   LIG d   1       9.856   4.739  -3.386  0.00  0.00    -0.030 C 
ATOM      6  H   LIG d   1       8.828   5.022  -3.163  0.00  0.00     0.031 H 
ATOM      7  C   LIG d   1      10.093   4.727  -4.922  0.00  0.00    -0.026 C 
ATOM      8  C   LIG d   1       9.601   6.052  -5.471  0.00  0.00    -0.047 C 
ATOM      9  C   LIG d   1      10.490   7.154  -4.869  0.00  0.00    -0.049 C 
ATOM     10  C   LIG d   1      10.455   7.125  -3.345  0.00  0.00    -0.030 C 
ATOM     11  H   LIG d   1       9.444   7.359  -3.011  0.00  0.00     0.031 H 
ATOM     12  C   LIG d   1      10.823   5.738  -2.778  0.00  0.00    -0.008 C 
ATOM     13  H   LIG d   1      11.842   5.488  -3.070  0.00  0.00     0.033 H 
ATOM     14  C   LIG d   1      10.688   5.749  -1.255  0.00  0.00     0.059 C 
ATOM     15  H   LIG d   1       9.661   5.991  -0.983  0.00  0.00     0.060 H 
ATOM     16  C   LIG d   1      11.632   6.800  -0.668  0.00  0.00    -0.023 C 
ATOM     17  C   LIG d   1      11.269   8.180  -1.220  0.00  0.00    -0.031 C 
ATOM     18  H   LIG d   1      11.941   8.929  -0.800  0.00  0.00     0.031 H 
ATOM     19  C   LIG d   1      11.417   8.170  -2.780  0.00  0.00    -0.026 C 
ATOM     20  C   LIG d   1      11.051   9.550  -3.330  0.00  0.00    -0.045 C 
ATOM     21  C   LIG d   1       9.614   9.890  -2.931  0.00  0.00    -0.026 C 
ATOM     22  C   LIG d   1       9.497   9.904  -1.405  0.00  0.00     0.056 C 
ATOM     23  H   LIG d   1      10.174  10.654  -0.995  0.00  0.00     0.059 H 
ATOM     24  C   LIG d   1       9.826   8.517  -0.840  0.00  0.00    -0.023 C 
ATOM     25  H   LIG d   1       8.378   2.231  -3.878  0.00  0.00     0.027 H 
ATOM     26  H   LIG d   1       9.958   1.614  -4.437  0.00  0.00     0.027 H 
ATOM     27  H   LIG d   1       9.638   3.030  -2.063  0.00  0.00     0.027 H 
ATOM     28  H   LIG d   1      11.162   3.046  -3.008  0.00  0.00     0.027 H 
ATOM     29  H   LIG d   1       9.686   6.058  -6.557  0.00  0.00     0.027 H 
ATOM     30  H   LIG d   1       8.563   6.212  -5.178  0.00  0.00     0.027 H 
ATOM     31  H   LIG d   1      11.517   7.006  -5.206  0.00  0.00     0.027 H 
ATOM     32  H   LIG d   1      10.137   8.125  -5.216  0.00  0.00     0.027 H 
ATOM     33  H   LIG d   1      11.537   6.807   0.418  0.00  0.00     0.029 H 
ATOM     34  H   LIG d   1      12.660   6.559  -0.941  0.00  0.00     0.029 H 
ATOM     35  H   LIG d   1      11.729  10.297  -2.919  0.00  0.00     0.027 H 
ATOM     36  H   LIG d   1      11.135   9.542  -4.417  0.00  0.00     0.027 H 
ATOM     37  H   LIG d   1       9.351  10.873  -3.323  0.00  0.00     0.029 H 
ATOM     38  H   LIG d   1       8.936   9.143  -3.340  0.00  0.00     0.029 H 
ATOM     39  H   LIG d   1       9.155   7.767  -1.260  0.00  0.00     0.029 H 
ATOM     40  H   LIG d   1       9.728   8.523   0.246  0.00  0.00     0.029 H 
ENDROOT
BRANCH   1  41
ATOM     41  C   LIG d   1      10.042   2.857  -6.591  0.00  0.00    -0.040 C 
ATOM     42  H   LIG d   1      11.079   3.190  -6.623  0.00  0.00     0.030 H 
BRANCH  41  43
ATOM     43  C   LIG d   1       9.326   3.291  -7.871  0.00  0.00    -0.062 C 
ATOM     44  H   LIG d   1       8.270   3.030  -7.804  0.00  0.00     0.023 H 
ATOM     45  H   LIG d   1       9.427   4.369  -7.997  0.00  0.00     0.023 H 
ATOM     46  H   LIG d   1       9.772   2.783  -8.727  0.00  0.00     0.023 H 
ENDBRANCH  41  43
BRANCH  41  47
ATOM     47  C   LIG d   1      10.001   1.331  -6.476  0.00  0.00    -0.042 C 
ATOM     48  H   LIG d   1      11.001   0.929  -6.629  0.00  0.00     0.027 H 
ATOM     49  H   LIG d   1       9.645   1.052  -5.484  0.00  0.00     0.027 H 
BRANCH  47  50
ATOM     50  C   LIG d   1       9.053   0.765  -7.535  0.00  0.00     0.024 C 
ATOM     51  H   LIG d   1       8.442   1.570  -7.944  0.00  0.00     0.036 H 
ATOM     52  H   LIG d   1       9.636   0.308  -8.335  0.00  0.00     0.036 H 
BRANCH  50  53
ATOM     53  C   LIG d   1       8.160  -0.273  -6.907  0.00  0.00     0.213 C 
ATOM     54  O   LIG d   1       7.926  -0.231  -5.718  0.00  0.00    -0.276 OA
ATOM     55  N   LIG d   1       7.623  -1.249  -7.666  0.00  0.00    -0.315 N 
ATOM     56  H   LIG d   1       7.811  -1.282  -8.617  0.00  0.00     0.149 HD
BRANCH  55  57
ATOM     57  C   LIG d   1       6.755  -2.259  -7.055  0.00  0.00     0.016 C 
ATOM     58  H   LIG d   1       7.227  -3.238  -7.134  0.00  0.00     0.046 H 
ATOM     59  H   LIG d   1       6.599  -2.015  -6.004  0.00  0.00     0.046 H 
BRANCH  57  60
ATOM     60  C   LIG d   1       5.409  -2.280  -7.780  0.00  0.00    -0.010 C 
ATOM     61  H   LIG d   1       5.568  -2.138  -8.849  0.00  0.00     0.033 H 
ATOM     62  H   LIG d   1       4.921  -3.242  -7.611  0.00  0.00     0.033 H 
BRANCH  60  63
ATOM     63  C   LIG d   1       4.535  -1.174  -7.249  0.00  0.00    -0.021 A 
ATOM     64  C   LIG d   1       4.044  -1.036  -5.875  0.00  0.00     0.004 A 
ATOM     65  C   LIG d   1       3.276   0.143  -5.853  0.00  0.00     0.047 A 
ATOM     66  C   LIG d   1       4.194  -1.792  -4.711  0.00  0.00    -0.034 A 
ATOM     67  N   LIG d   1       3.300   0.665  -7.127  0.00  0.00    -0.360 N 
ATOM     68  C   LIG d   1       2.673   0.544  -4.666  0.00  0.00    -0.036 A 
ATOM     69  C   LIG d   1       4.054  -0.131  -7.944  0.00  0.00     0.006 A 
ATOM     70  H   LIG d   1       2.849   1.478  -7.404  0.00  0.00     0.165 HD
ATOM     71  H   LIG d   1       4.236   0.051  -8.992  0.00  0.00     0.081 H 
ATOM     72  C   LIG d   1       2.824  -0.217  -3.527  0.00  0.00    -0.041 A 
ATOM     73  H   LIG d   1       2.079   1.445  -4.639  0.00  0.00     0.064 H 
ATOM     74  C   LIG d   1       3.585  -1.379  -3.547  0.00  0.00     0.042 A 
ATOM     75  H   LIG d   1       2.351   0.097  -2.608  0.00  0.00     0.063 H 
ATOM     76 CL   LIG d   1       3.767  -2.315  -2.096  0.00  0.00    -0.084 Cl
ATOM     77  H   LIG d   1       4.784  -2.697  -4.723  0.00  0.00     0.064 H 
ENDBRANCH  60  63
ENDBRANCH  57  60
ENDBRANCH  55  57
ENDBRANCH  50  53
ENDBRANCH  47  50
ENDBRANCH  41  47
ENDBRANCH   1  41
BRANCH   7  78
ATOM     78  C   LIG d   1      11.586   4.570  -5.213  0.00  0.00    -0.059 C 
ATOM     79  H   LIG d   1      11.791   3.544  -5.518  0.00  0.00     0.024 H 
ATOM     80  H   LIG d   1      11.874   5.251  -6.014  0.00  0.00     0.024 H 
ATOM     81  H   LIG d   1      12.159   4.802  -4.315  0.00  0.00     0.024 H 
ENDBRANCH   7  78
BRANCH  14  82
ATOM     82  O   LIG d   1      11.027   4.462  -0.737  0.00  0.00    -0.392 OA
ATOM     83  H   LIG d   1      10.862   3.735  -1.353  0.00  0.00     0.210 HD
ENDBRANCH  14  82
BRANCH  19  84
ATOM     84  C   LIG d   1      12.851   7.817  -3.184  0.00  0.00    -0.059 C 
ATOM     85  H   LIG d   1      13.466   7.718  -2.290  0.00  0.00     0.024 H 
ATOM     86  H   LIG d   1      12.852   6.875  -3.732  0.00  0.00     0.024 H 
ATOM     87  H   LIG d   1      13.255   8.606  -3.818  0.00  0.00     0.024 H 
ENDBRANCH  19  84
BRANCH  22  88
ATOM     88  O   LIG d   1       8.155  10.220  -1.032  0.00  0.00    -0.392 OA
ATOM     89  H   LIG d   1       8.010  10.256  -0.077  0.00  0.00     0.210 HD
ENDBRANCH  22  88
TORSDOF 12
ENDMDL
MODEL 8
REMARK VINA RESULT:      -6.1      3.203      8.852
REMARK  12 active torsions:
REMARK  status: ('A' for Active; 'I' for Inactive)
REMARK    1  A    between atoms: C_1  and  C_2 
REMARK    2  A    between atoms: C_2  and  C_4 
REMARK    3  A    between atoms: C_2  and  C_22 
REMARK    4  A    between atoms: C_4  and  C_5 
REMARK    5  A    between atoms: C_5  and  C_6 
REMARK       I    between atoms: C_6  and  N_8 
REMARK    6  A    between atoms: N_8  and  C_9 
REMARK    7  A    between atoms: C_9  and  C_10 
REMARK    8  A    between atoms: C_10  and  C_11 
REMARK    9  A    between atoms: C_28  and  C_49 
REMARK   10  A    between atoms: C_35  and  O_48 
REMARK   11  A    between atoms: C_40  and  C_47 
REMARK   12  A    between atoms: C_43  and  O_46 
ROOT
ATOM      1  C   LIG d   1       3.975  -0.831  -9.277  0.00  0.00    -0.033 C 
ATOM      2  H   LIG d   1       4.895  -0.615  -9.820  0.00  0.00     0.031 H 
ATOM      3  C   LIG d   1       4.227  -1.925  -8.209  0.00  0.00    -0.049 C 
ATOM      4  C   LIG d   1       3.373  -3.152  -8.628  0.00  0.00    -0.049 C 
ATOM      5  C   LIG d   1       3.197  -2.948 -10.137  0.00  0.00    -0.030 C 
ATOM      6  H   LIG d   1       4.116  -3.203 -10.664  0.00  0.00     0.031 H 
ATOM      7  C   LIG d   1       2.930  -1.419 -10.220  0.00  0.00    -0.026 C 
ATOM      8  C   LIG d   1       3.030  -1.017 -11.678  0.00  0.00    -0.047 C 
ATOM      9  C   LIG d   1       1.895  -1.732 -12.429  0.00  0.00    -0.049 C 
ATOM     10  C   LIG d   1       1.977  -3.244 -12.253  0.00  0.00    -0.030 C 
ATOM     11  H   LIG d   1       2.896  -3.602 -12.717  0.00  0.00     0.031 H 
ATOM     12  C   LIG d   1       2.013  -3.658 -10.767  0.00  0.00    -0.008 C 
ATOM     13  H   LIG d   1       1.091  -3.339 -10.282  0.00  0.00     0.033 H 
ATOM     14  C   LIG d   1       2.181  -5.174 -10.657  0.00  0.00     0.059 C 
ATOM     15  H   LIG d   1       3.113  -5.472 -11.139  0.00  0.00     0.060 H 
ATOM     16  C   LIG d   1       1.005  -5.868 -11.345  0.00  0.00    -0.023 C 
ATOM     17  C   LIG d   1       0.968  -5.468 -12.822  0.00  0.00    -0.031 C 
ATOM     18  H   LIG d   1       0.131  -5.965 -13.313  0.00  0.00     0.031 H 
ATOM     19  C   LIG d   1       0.785  -3.916 -12.933  0.00  0.00    -0.026 C 
ATOM     20  C   LIG d   1       0.750  -3.518 -14.411  0.00  0.00    -0.045 C 
ATOM     21  C   LIG d   1       2.052  -3.954 -15.085  0.00  0.00    -0.026 C 
ATOM     22  C   LIG d   1       2.202  -5.472 -14.971  0.00  0.00     0.056 C 
ATOM     23  H   LIG d   1       1.360  -5.959 -15.462  0.00  0.00     0.059 H 
ATOM     24  C   LIG d   1       2.276  -5.885 -13.496  0.00  0.00    -0.023 C 
ATOM     25  H   LIG d   1       5.283  -2.193  -8.190  0.00  0.00     0.027 H 
ATOM     26  H   LIG d   1       3.914  -1.568  -7.228  0.00  0.00     0.027 H 
ATOM     27  H   LIG d   1       3.905  -4.080  -8.423  0.00  0.00     0.027 H 
ATOM     28  H   LIG d   1       2.407  -3.140  -8.123  0.00  0.00     0.027 H 
ATOM     29  H   LIG d   1       2.918   0.063 -11.774  0.00  0.00     0.027 H 
ATOM     30  H   LIG d   1       3.995  -1.327 -12.083  0.00  0.00     0.027 H 
ATOM     31  H   LIG d   1       0.937  -1.379 -12.045  0.00  0.00     0.027 H 
ATOM     32  H   LIG d   1       1.962  -1.491 -13.490  0.00  0.00     0.027 H 
ATOM     33  H   LIG d   1       1.125  -6.949 -11.266  0.00  0.00     0.029 H 
ATOM     34  H   LIG d   1       0.074  -5.569 -10.864  0.00  0.00     0.029 H 
ATOM     35  H   LIG d   1      -0.094  -4.005 -14.899  0.00  0.00     0.027 H 
ATOM     36  H   LIG d   1       0.642  -2.436 -14.493  0.00  0.00     0.027 H 
ATOM     37  H   LIG d   1       2.029  -3.669 -16.137  0.00  0.00     0.029 H 
ATOM     38  H   LIG d   1       2.895  -3.468 -14.596  0.00  0.00     0.029 H 
ATOM     39  H   LIG d   1       3.113  -5.388 -13.004  0.00  0.00     0.029 H 
ATOM     40  H   LIG d   1       2.398  -6.965 -13.415  0.00  0.00     0.029 H 
ENDROOT
BRANCH   1  41
ATOM     41  C   LIG d   1       3.438   0.440  -8.618  0.00  0.00    -0.040 C 
ATOM     42  H   LIG d   1       2.358   0.493  -8.755  0.00  0.00     0.030 H 
BRANCH  41  43
ATOM     43  C   LIG d   1       4.094   1.664  -9.260  0.00  0.00    -0.062 C 
ATOM     44  H   LIG d   1       4.045   1.575 -10.346  0.00  0.00     0.023 H 
ATOM     45  H   LIG d   1       3.568   2.566  -8.946  0.00  0.00     0.023 H 
ATOM     46  H   LIG d   1       5.137   1.724  -8.947  0.00  0.00     0.023 H 
ENDBRANCH  41  43
BRANCH  41  47
ATOM     47  C   LIG d   1       3.760   0.415  -7.122  0.00  0.00    -0.042 C 
ATOM     48  H   LIG d   1       4.323  -0.488  -6.887  0.00  0.00     0.027 H 
ATOM     49  H   LIG d   1       4.356   1.291  -6.865  0.00  0.00     0.027 H 
BRANCH  47  50
ATOM     50  C   LIG d   1       2.458   0.430  -6.319  0.00  0.00     0.024 C 
ATOM     51  H   LIG d   1       1.903   1.341  -6.544  0.00  0.00     0.036 H 
ATOM     52  H   LIG d   1       1.856  -0.439  -6.588  0.00  0.00     0.036 H 
BRANCH  50  53
ATOM     53  C   LIG d   1       2.776   0.386  -4.846  0.00  0.00     0.213 C 
ATOM     54  O   LIG d   1       3.204   1.373  -4.289  0.00  0.00    -0.276 OA
ATOM     55  N   LIG d   1       2.583  -0.752  -4.150  0.00  0.00    -0.315 N 
ATOM     56  H   LIG d   1       2.240  -1.541  -4.596  0.00  0.00     0.149 HD
BRANCH  55  57
ATOM     57  C   LIG d   1       2.892  -0.796  -2.718  0.00  0.00     0.016 C 
ATOM     58  H   LIG d   1       3.442   0.102  -2.438  0.00  0.00     0.046 H 
ATOM     59  H   LIG d   1       1.963  -0.846  -2.149  0.00  0.00     0.046 H 
BRANCH  57  60
ATOM     60  C   LIG d   1       3.742  -2.031  -2.418  0.00  0.00    -0.010 C 
ATOM     61  H   LIG d   1       4.004  -2.044  -1.359  0.00  0.00     0.033 H 
ATOM     62  H   LIG d   1       3.175  -2.931  -2.663  0.00  0.00     0.033 H 
BRANCH  60  63
ATOM     63  C   LIG d   1       4.999  -1.990  -3.247  0.00  0.00    -0.021 A 
ATOM     64  C   LIG d   1       5.362  -2.913  -4.325  0.00  0.00     0.004 A 
ATOM     65  C   LIG d   1       6.611  -2.480  -4.805  0.00  0.00     0.047 A 
ATOM     66  C   LIG d   1       4.743  -4.027  -4.897  0.00  0.00    -0.034 A 
ATOM     67  N   LIG d   1       6.974  -1.381  -4.057  0.00  0.00    -0.360 N 
ATOM     68  C   LIG d   1       7.220  -3.169  -5.848  0.00  0.00    -0.036 A 
ATOM     69  C   LIG d   1       6.002  -1.104  -3.136  0.00  0.00     0.006 A 
ATOM     70  H   LIG d   1       7.796  -0.878  -4.168  0.00  0.00     0.165 HD
ATOM     71  H   LIG d   1       6.035  -0.293  -2.424  0.00  0.00     0.081 H 
ATOM     72  C   LIG d   1       6.601  -4.271  -6.397  0.00  0.00    -0.041 A 
ATOM     73  H   LIG d   1       8.181  -2.848  -6.220  0.00  0.00     0.064 H 
ATOM     74  C   LIG d   1       5.366  -4.697  -5.927  0.00  0.00     0.042 A 
ATOM     75  H   LIG d   1       7.079  -4.806  -7.205  0.00  0.00     0.063 H 
ATOM     76 CL   LIG d   1       4.602  -6.083  -6.642  0.00  0.00    -0.084 Cl
ATOM     77  H   LIG d   1       3.783  -4.361  -4.534  0.00  0.00     0.064 H 
ENDBRANCH  60  63
ENDBRANCH  57  60
ENDBRANCH  55  57
ENDBRANCH  50  53
ENDBRANCH  47  50
ENDBRANCH  41  47
ENDBRANCH   1  41
BRANCH   7  78
ATOM     78  C   LIG d   1       1.527  -1.110  -9.695  0.00  0.00    -0.059 C 
ATOM     79  H   LIG d   1       0.893  -0.788 -10.520  0.00  0.00     0.024 H 
ATOM     80  H   LIG d   1       1.104  -2.006  -9.240  0.00  0.00     0.024 H 
ATOM     81  H   LIG d   1       1.585  -0.316  -8.949  0.00  0.00     0.024 H 
ENDBRANCH   7  78
BRANCH  14  82
ATOM     82  O   LIG d   1       2.217  -5.550  -9.280  0.00  0.00    -0.392 OA
ATOM     83  H   LIG d   1       2.678  -6.383  -9.111  0.00  0.00     0.210 HD
ENDBRANCH  14  82
BRANCH  19  84
ATOM     84  C   LIG d   1      -0.511  -3.473 -12.249  0.00  0.00    -0.059 C 
ATOM     85  H   LIG d   1      -1.311  -4.169 -12.502  0.00  0.00     0.024 H 
ATOM     86  H   LIG d   1      -0.366  -3.464 -11.169  0.00  0.00     0.024 H 
ATOM     87  H   LIG d   1      -0.778  -2.473 -12.588  0.00  0.00     0.024 H 
ENDBRANCH  19  84
BRANCH  22  88
ATOM     88  O   LIG d   1       3.420  -5.879 -15.599  0.00  0.00    -0.392 OA
ATOM     89  H   LIG d   1       3.860  -6.620 -15.161  0.00  0.00     0.210 HD
ENDBRANCH  22  88
TORSDOF 12
ENDMDL
MODEL 9
REMARK VINA RESULT:      -5.9      2.981      8.566
REMARK  12 active torsions:
REMARK  status: ('A' for Active; 'I' for Inactive)
REMARK    1  A    between atoms: C_1  and  C_2 
REMARK    2  A    between atoms: C_2  and  C_4 
REMARK    3  A    between atoms: C_2  and  C_22 
REMARK    4  A    between atoms: C_4  and  C_5 
REMARK    5  A    between atoms: C_5  and  C_6 
REMARK       I    between atoms: C_6  and  N_8 
REMARK    6  A    between atoms: N_8  and  C_9 
REMARK    7  A    between atoms: C_9  and  C_10 
REMARK    8  A    between atoms: C_10  and  C_11 
REMARK    9  A    between atoms: C_28  and  C_49 
REMARK   10  A    between atoms: C_35  and  O_48 
REMARK   11  A    between atoms: C_40  and  C_47 
REMARK   12  A    between atoms: C_43  and  O_46 
ROOT
ATOM      1  C   LIG d   1       3.290   0.409  -9.417  0.00  0.00    -0.033 C 
ATOM      2  H   LIG d   1       2.425   1.029  -9.181  0.00  0.00     0.031 H 
ATOM      3  C   LIG d   1       4.212   1.136 -10.428  0.00  0.00    -0.049 C 
ATOM      4  C   LIG d   1       4.199   0.282 -11.724  0.00  0.00    -0.049 C 
ATOM      5  C   LIG d   1       2.871  -0.477 -11.622  0.00  0.00    -0.030 C 
ATOM      6  H   LIG d   1       2.037   0.185 -11.855  0.00  0.00     0.031 H 
ATOM      7  C   LIG d   1       2.847  -0.871 -10.119  0.00  0.00    -0.026 C 
ATOM      8  C   LIG d   1       1.452  -1.371  -9.800  0.00  0.00    -0.047 C 
ATOM      9  C   LIG d   1       1.226  -2.650 -10.623  0.00  0.00    -0.049 C 
ATOM     10  C   LIG d   1       1.406  -2.391 -12.115  0.00  0.00    -0.030 C 
ATOM     11  H   LIG d   1       0.634  -1.698 -12.447  0.00  0.00     0.031 H 
ATOM     12  C   LIG d   1       2.774  -1.754 -12.436  0.00  0.00    -0.008 C 
ATOM     13  H   LIG d   1       3.569  -2.439 -12.142  0.00  0.00     0.033 H 
ATOM     14  C   LIG d   1       2.861  -1.441 -13.930  0.00  0.00     0.059 C 
ATOM     15  H   LIG d   1       2.065  -0.747 -14.202  0.00  0.00     0.060 H 
ATOM     16  C   LIG d   1       2.707  -2.735 -14.731  0.00  0.00    -0.023 C 
ATOM     17  C   LIG d   1       1.349  -3.369 -14.424  0.00  0.00    -0.031 C 
ATOM     18  H   LIG d   1       1.239  -4.290 -14.997  0.00  0.00     0.031 H 
ATOM     19  C   LIG d   1       1.266  -3.698 -12.894  0.00  0.00    -0.026 C 
ATOM     20  C   LIG d   1      -0.094  -4.331 -12.588  0.00  0.00    -0.045 C 
ATOM     21  C   LIG d   1      -1.207  -3.359 -12.988  0.00  0.00    -0.026 C 
ATOM     22  C   LIG d   1      -1.110  -3.061 -14.486  0.00  0.00     0.056 C 
ATOM     23  H   LIG d   1      -1.219  -3.988 -15.049  0.00  0.00     0.059 H 
ATOM     24  C   LIG d   1       0.233  -2.393 -14.804  0.00  0.00    -0.023 C 
ATOM     25  H   LIG d   1       3.828   2.135 -10.633  0.00  0.00     0.027 H 
ATOM     26  H   LIG d   1       5.225   1.198 -10.031  0.00  0.00     0.027 H 
ATOM     27  H   LIG d   1       4.211   0.921 -12.607  0.00  0.00     0.027 H 
ATOM     28  H   LIG d   1       5.039  -0.412 -11.739  0.00  0.00     0.027 H 
ATOM     29  H   LIG d   1       1.372  -1.594  -8.737  0.00  0.00     0.027 H 
ATOM     30  H   LIG d   1       0.715  -0.616 -10.078  0.00  0.00     0.027 H 
ATOM     31  H   LIG d   1       1.941  -3.410 -10.304  0.00  0.00     0.027 H 
ATOM     32  H   LIG d   1       0.215  -3.015 -10.444  0.00  0.00     0.027 H 
ATOM     33  H   LIG d   1       2.770  -2.511 -15.797  0.00  0.00     0.029 H 
ATOM     34  H   LIG d   1       3.502  -3.428 -14.458  0.00  0.00     0.029 H 
ATOM     35  H   LIG d   1      -0.200  -5.257 -13.152  0.00  0.00     0.027 H 
ATOM     36  H   LIG d   1      -0.164  -4.544 -11.521  0.00  0.00     0.027 H 
ATOM     37  H   LIG d   1      -2.176  -3.808 -12.770  0.00  0.00     0.029 H 
ATOM     38  H   LIG d   1      -1.100  -2.432 -12.426  0.00  0.00     0.029 H 
ATOM     39  H   LIG d   1       0.345  -1.472 -14.231  0.00  0.00     0.029 H 
ATOM     40  H   LIG d   1       0.296  -2.168 -15.869  0.00  0.00     0.029 H 
ENDROOT
BRANCH   1  41
ATOM     41  C   LIG d   1       4.064   0.072  -8.141  0.00  0.00    -0.040 C 
ATOM     42  H   LIG d   1       4.331  -0.984  -8.146  0.00  0.00     0.030 H 
BRANCH  41  43
ATOM     43  C   LIG d   1       3.191   0.372  -6.921  0.00  0.00    -0.062 C 
ATOM     44  H   LIG d   1       2.791  -0.561  -6.521  0.00  0.00     0.023 H 
ATOM     45  H   LIG d   1       3.791   0.866  -6.157  0.00  0.00     0.023 H 
ATOM     46  H   LIG d   1       2.368   1.024  -7.214  0.00  0.00     0.023 H 
ENDBRANCH  41  43
BRANCH  41  47
ATOM     47  C   LIG d   1       5.337   0.918  -8.077  0.00  0.00    -0.042 C 
ATOM     48  H   LIG d   1       5.381   1.575  -8.945  0.00  0.00     0.027 H 
ATOM     49  H   LIG d   1       5.329   1.519  -7.168  0.00  0.00     0.027 H 
BRANCH  47  50
ATOM     50  C   LIG d   1       6.561  -0.001  -8.070  0.00  0.00     0.024 C 
ATOM     51  H   LIG d   1       6.282  -0.980  -8.459  0.00  0.00     0.036 H 
ATOM     52  H   LIG d   1       7.342   0.431  -8.696  0.00  0.00     0.036 H 
BRANCH  50  53
ATOM     53  C   LIG d   1       7.070  -0.147  -6.659  0.00  0.00     0.213 C 
ATOM     54  O   LIG d   1       6.851   0.722  -5.843  0.00  0.00    -0.276 OA
ATOM     55  N   LIG d   1       7.770  -1.243  -6.305  0.00  0.00    -0.315 N 
ATOM     56  H   LIG d   1       7.945  -1.938  -6.959  0.00  0.00     0.149 HD
BRANCH  55  57
ATOM     57  C   LIG d   1       8.265  -1.386  -4.934  0.00  0.00     0.016 C 
ATOM     58  H   LIG d   1       9.352  -1.456  -4.947  0.00  0.00     0.046 H 
ATOM     59  H   LIG d   1       7.965  -0.517  -4.348  0.00  0.00     0.046 H 
BRANCH  57  60
ATOM     60  C   LIG d   1       7.678  -2.652  -4.308  0.00  0.00    -0.010 C 
ATOM     61  H   LIG d   1       8.040  -3.527  -4.848  0.00  0.00     0.033 H 
ATOM     62  H   LIG d   1       7.986  -2.716  -3.263  0.00  0.00     0.033 H 
BRANCH  60  63
ATOM     63  C   LIG d   1       6.175  -2.599  -4.385  0.00  0.00    -0.021 A 
ATOM     64  C   LIG d   1       5.299  -1.653  -3.688  0.00  0.00     0.004 A 
ATOM     65  C   LIG d   1       3.986  -1.985  -4.067  0.00  0.00     0.047 A 
ATOM     66  C   LIG d   1       5.524  -0.593  -2.807  0.00  0.00    -0.034 A 
ATOM     67  N   LIG d   1       4.072  -3.060  -4.924  0.00  0.00    -0.360 N 
ATOM     68  C   LIG d   1       2.921  -1.250  -3.560  0.00  0.00    -0.036 A 
ATOM     69  C   LIG d   1       5.382  -3.411  -5.102  0.00  0.00     0.006 A 
ATOM     70  H   LIG d   1       3.315  -3.503  -5.340  0.00  0.00     0.165 HD
ATOM     71  H   LIG d   1       5.727  -4.221  -5.726  0.00  0.00     0.081 H 
ATOM     72  C   LIG d   1       3.157  -0.210  -2.686  0.00  0.00    -0.041 A 
ATOM     73  H   LIG d   1       1.909  -1.499  -3.842  0.00  0.00     0.064 H 
ATOM     74  C   LIG d   1       4.454   0.120  -2.314  0.00  0.00     0.042 A 
ATOM     75  H   LIG d   1       2.326   0.356  -2.292  0.00  0.00     0.063 H 
ATOM     76 CL   LIG d   1       4.726   1.440  -1.218  0.00  0.00    -0.084 Cl
ATOM     77  H   LIG d   1       6.530  -0.333  -2.515  0.00  0.00     0.064 H 
ENDBRANCH  60  63
ENDBRANCH  57  60
ENDBRANCH  55  57
ENDBRANCH  50  53
ENDBRANCH  47  50
ENDBRANCH  41  47
ENDBRANCH   1  41
BRANCH   7  78
ATOM     78  C   LIG d   1       3.866  -1.982  -9.861  0.00  0.00    -0.059 C 
ATOM     79  H   LIG d   1       4.226  -2.373 -10.812  0.00  0.00     0.024 H 
ATOM     80  H   LIG d   1       4.705  -1.580  -9.292  0.00  0.00     0.024 H 
ATOM     81  H   LIG d   1       3.393  -2.784  -9.293  0.00  0.00     0.024 H 
ENDBRANCH   7  78
BRANCH  14  82
ATOM     82  O   LIG d   1       4.128  -0.848 -14.220  0.00  0.00    -0.392 OA
ATOM     83  H   LIG d   1       4.831  -1.103 -13.608  0.00  0.00     0.210 HD
ENDBRANCH  14  82
BRANCH  19  84
ATOM     84  C   LIG d   1       2.385  -4.660 -12.487  0.00  0.00    -0.059 C 
ATOM     85  H   LIG d   1       3.217  -4.092 -12.070  0.00  0.00     0.024 H 
ATOM     86  H   LIG d   1       2.010  -5.357 -11.738  0.00  0.00     0.024 H 
ATOM     87  H   LIG d   1       2.725  -5.214 -13.361  0.00  0.00     0.024 H 
ENDBRANCH  19  84
BRANCH  22  88
ATOM     88  O   LIG d   1      -2.148  -2.153 -14.859  0.00  0.00    -0.392 OA
ATOM     89  H   LIG d   1      -1.870  -1.477 -15.492  0.00  0.00     0.210 HD
ENDBRANCH  22  88
TORSDOF 12
ENDMDL
MODEL 10
REMARK VINA RESULT:      -5.8      8.298     11.047
REMARK  12 active torsions:
REMARK  status: ('A' for Active; 'I' for Inactive)
REMARK    1  A    between atoms: C_1  and  C_2 
REMARK    2  A    between atoms: C_2  and  C_4 
REMARK    3  A    between atoms: C_2  and  C_22 
REMARK    4  A    between atoms: C_4  and  C_5 
REMARK    5  A    between atoms: C_5  and  C_6 
REMARK       I    between atoms: C_6  and  N_8 
REMARK    6  A    between atoms: N_8  and  C_9 
REMARK    7  A    between atoms: C_9  and  C_10 
REMARK    8  A    between atoms: C_10  and  C_11 
REMARK    9  A    between atoms: C_28  and  C_49 
REMARK   10  A    between atoms: C_35  and  O_48 
REMARK   11  A    between atoms: C_40  and  C_47 
REMARK   12  A    between atoms: C_43  and  O_46 
ROOT
ATOM      1  C   LIG d   1       9.813   6.207  -3.273  0.00  0.00    -0.033 C 
ATOM      2  H   LIG d   1       8.787   6.531  -3.449  0.00  0.00     0.031 H 
ATOM      3  C   LIG d   1       9.870   5.238  -2.065  0.00  0.00    -0.049 C 
ATOM      4  C   LIG d   1      10.711   5.950  -0.972  0.00  0.00    -0.049 C 
ATOM      5  C   LIG d   1      10.556   7.432  -1.331  0.00  0.00    -0.030 C 
ATOM      6  H   LIG d   1       9.571   7.793  -1.038  0.00  0.00     0.031 H 
ATOM      7  C   LIG d   1      10.683   7.397  -2.879  0.00  0.00    -0.026 C 
ATOM      8  C   LIG d   1      10.255   8.753  -3.404  0.00  0.00    -0.047 C 
ATOM      9  C   LIG d   1      11.263   9.787  -2.876  0.00  0.00    -0.049 C 
ATOM     10  C   LIG d   1      11.333   9.766  -1.353  0.00  0.00    -0.030 C 
ATOM     11  H   LIG d   1      10.369  10.077  -0.952  0.00  0.00     0.031 H 
ATOM     12  C   LIG d   1      11.636   8.358  -0.801  0.00  0.00    -0.008 C 
ATOM     13  H   LIG d   1      12.611   8.031  -1.161  0.00  0.00     0.033 H 
ATOM     14  C   LIG d   1      11.610   8.385   0.728  0.00  0.00     0.059 C 
ATOM     15  H   LIG d   1      10.625   8.704   1.069  0.00  0.00     0.060 H 
ATOM     16  C   LIG d   1      12.669   9.364   1.238  0.00  0.00    -0.023 C 
ATOM     17  C   LIG d   1      12.371  10.765   0.700  0.00  0.00    -0.031 C 
ATOM     18  H   LIG d   1      13.125  11.463   1.066  0.00  0.00     0.031 H 
ATOM     19  C   LIG d   1      12.409  10.738  -0.865  0.00  0.00    -0.026 C 
ATOM     20  C   LIG d   1      12.109  12.140  -1.401  0.00  0.00    -0.045 C 
ATOM     21  C   LIG d   1      10.732  12.589  -0.905  0.00  0.00    -0.026 C 
ATOM     22  C   LIG d   1      10.725  12.616   0.625  0.00  0.00     0.056 C 
ATOM     23  H   LIG d   1      11.483  13.315   0.979  0.00  0.00     0.059 H 
ATOM     24  C   LIG d   1      10.988  11.211   1.178  0.00  0.00    -0.023 C 
ATOM     25  H   LIG d   1       8.864   5.041  -1.696  0.00  0.00     0.027 H 
ATOM     26  H   LIG d   1      10.350   4.305  -2.358  0.00  0.00     0.027 H 
ATOM     27  H   LIG d   1      10.305   5.749   0.019  0.00  0.00     0.027 H 
ATOM     28  H   LIG d   1      11.756   5.647  -1.029  0.00  0.00     0.027 H 
ATOM     29  H   LIG d   1      10.262   8.748  -4.493  0.00  0.00     0.027 H 
ATOM     30  H   LIG d   1       9.254   8.991  -3.041  0.00  0.00     0.027 H 
ATOM     31  H   LIG d   1      12.250   9.562  -3.282  0.00  0.00     0.027 H 
ATOM     32  H   LIG d   1      10.960  10.780  -3.206  0.00  0.00     0.027 H 
ATOM     33  H   LIG d   1      12.651   9.382   2.328  0.00  0.00     0.029 H 
ATOM     34  H   LIG d   1      13.654   9.045   0.896  0.00  0.00     0.029 H 
ATOM     35  H   LIG d   1      12.868  12.836  -1.045  0.00  0.00     0.027 H 
ATOM     36  H   LIG d   1      12.114  12.121  -2.491  0.00  0.00     0.027 H 
ATOM     37  H   LIG d   1      10.517  13.587  -1.287  0.00  0.00     0.029 H 
ATOM     38  H   LIG d   1       9.973  11.893  -1.259  0.00  0.00     0.029 H 
ATOM     39  H   LIG d   1      10.235  10.512   0.812  0.00  0.00     0.029 H 
ATOM     40  H   LIG d   1      10.968  11.228   2.267  0.00  0.00     0.029 H 
ENDROOT
BRANCH   1  41
ATOM     41  C   LIG d   1      10.375   5.530  -4.524  0.00  0.00    -0.040 C 
ATOM     42  H   LIG d   1      11.443   5.732  -4.597  0.00  0.00     0.030 H 
BRANCH  41  43
ATOM     43  C   LIG d   1       9.666   6.077  -5.763  0.00  0.00    -0.062 C 
ATOM     44  H   LIG d   1       8.982   5.323  -6.154  0.00  0.00     0.023 H 
ATOM     45  H   LIG d   1       9.105   6.973  -5.496  0.00  0.00     0.023 H 
ATOM     46  H   LIG d   1      10.405   6.326  -6.525  0.00  0.00     0.023 H 
ENDBRANCH  41  43
BRANCH  41  47
ATOM     47  C   LIG d   1      10.149   4.019  -4.432  0.00  0.00    -0.042 C 
ATOM     48  H   LIG d   1      10.939   3.500  -4.972  0.00  0.00     0.027 H 
ATOM     49  H   LIG d   1      10.163   3.713  -3.386  0.00  0.00     0.027 H 
BRANCH  47  50
ATOM     50  C   LIG d   1       8.792   3.668  -5.047  0.00  0.00     0.024 C 
ATOM     51  H   LIG d   1       8.038   3.621  -4.261  0.00  0.00     0.036 H 
ATOM     52  H   LIG d   1       8.514   4.433  -5.773  0.00  0.00     0.036 H 
BRANCH  50  53
ATOM     53  C   LIG d   1       8.884   2.331  -5.735  0.00  0.00     0.213 C 
ATOM     54  O   LIG d   1       9.890   2.030  -6.342  0.00  0.00    -0.276 OA
ATOM     55  N   LIG d   1       7.849   1.470  -5.677  0.00  0.00    -0.315 N 
ATOM     56  H   LIG d   1       7.045   1.711  -5.191  0.00  0.00     0.149 HD
BRANCH  55  57
ATOM     57  C   LIG d   1       7.938   0.170  -6.346  0.00  0.00     0.016 C 
ATOM     58  H   LIG d   1       6.955  -0.112  -6.723  0.00  0.00     0.046 H 
ATOM     59  H   LIG d   1       8.640   0.237  -7.177  0.00  0.00     0.046 H 
BRANCH  57  60
ATOM     60  C   LIG d   1       8.425  -0.885  -5.351  0.00  0.00    -0.010 C 
ATOM     61  H   LIG d   1       9.194  -1.499  -5.819  0.00  0.00     0.033 H 
ATOM     62  H   LIG d   1       8.841  -0.389  -4.472  0.00  0.00     0.033 H 
BRANCH  60  63
ATOM     63  C   LIG d   1       7.268  -1.755  -4.935  0.00  0.00    -0.021 A 
ATOM     64  C   LIG d   1       6.215  -1.406  -3.978  0.00  0.00     0.004 A 
ATOM     65  C   LIG d   1       5.361  -2.521  -3.915  0.00  0.00     0.047 A 
ATOM     66  C   LIG d   1       5.945  -0.276  -3.204  0.00  0.00    -0.034 A 
ATOM     67  N   LIG d   1       5.874  -3.473  -4.768  0.00  0.00    -0.360 N 
ATOM     68  C   LIG d   1       4.250  -2.486  -3.079  0.00  0.00    -0.036 A 
ATOM     69  C   LIG d   1       7.008  -3.000  -5.366  0.00  0.00     0.006 A 
ATOM     70  H   LIG d   1       5.488  -4.350  -4.921  0.00  0.00     0.165 HD
ATOM     71  H   LIG d   1       7.607  -3.545  -6.080  0.00  0.00     0.081 H 
ATOM     72  C   LIG d   1       4.000  -1.366  -2.315  0.00  0.00    -0.041 A 
ATOM     73  H   LIG d   1       3.590  -3.338  -3.020  0.00  0.00     0.064 H 
ATOM     74  C   LIG d   1       4.842  -0.263  -2.379  0.00  0.00     0.042 A 
ATOM     75  H   LIG d   1       3.139  -1.345  -1.665  0.00  0.00     0.063 H 
ATOM     76 CL   LIG d   1       4.500   1.140  -1.414  0.00  0.00    -0.084 Cl
ATOM     77  H   LIG d   1       6.597   0.584  -3.251  0.00  0.00     0.064 H 
ENDBRANCH  60  63
ENDBRANCH  57  60
ENDBRANCH  55  57
ENDBRANCH  50  53
ENDBRANCH  47  50
ENDBRANCH  41  47
ENDBRANCH   1  41
BRANCH   7  78
ATOM     78  C   LIG d   1      12.136   7.126  -3.273  0.00  0.00    -0.059 C 
ATOM     79  H   LIG d   1      12.524   7.975  -3.836  0.00  0.00     0.024 H 
ATOM     80  H   LIG d   1      12.735   6.983  -2.373  0.00  0.00     0.024 H 
ATOM     81  H   LIG d   1      12.185   6.228  -3.889  0.00  0.00     0.024 H 
ENDBRANCH   7  78
BRANCH  14  82
ATOM     82  O   LIG d   1      11.887   7.078   1.232  0.00  0.00    -0.392 OA
ATOM     83  H   LIG d   1      12.697   6.684   0.881  0.00  0.00     0.210 HD
ENDBRANCH  14  82
BRANCH  19  84
ATOM     84  C   LIG d   1      13.780  10.277  -1.366  0.00  0.00    -0.059 C 
ATOM     85  H   LIG d   1      13.742  10.133  -2.446  0.00  0.00     0.024 H 
ATOM     86  H   LIG d   1      14.527  11.033  -1.126  0.00  0.00     0.024 H 
ATOM     87  H   LIG d   1      14.046   9.337  -0.883  0.00  0.00     0.024 H 
ENDBRANCH  19  84
BRANCH  22  88
ATOM     88  O   LIG d   1       9.439  13.034   1.087  0.00  0.00    -0.392 OA
ATOM     89  H   LIG d   1       9.154  13.888   0.736  0.00  0.00     0.210 HD
ENDBRANCH  22  88
TORSDOF 12
ENDMDL
