MODEL 1
REMARK VINA RESULT:      -6.1      0.000      0.000
REMARK  4 active torsions:
REMARK  status: ('A' for Active; 'I' for Inactive)
REMARK    1  A    between atoms: C_4  and  C_7 
REMARK    2  A    between atoms: C_7  and  O_8 
REMARK    3  A    between atoms: O_8  and  C_9 
REMARK    4  A    between atoms: C_12  and  C_16 
ROOT
ATOM      1  C   LIG d   1       2.889   0.231  -5.545  0.00  0.00     0.115 C 
ATOM      2  H   LIG d   1       2.126  -0.519  -5.755  0.00  0.00     0.075 H 
ATOM      3  H   LIG d   1       2.455   1.226  -5.636  0.00  0.00     0.075 H 
ENDROOT
BRANCH   1   4
ATOM      4  C   LIG d   1       3.414   0.036  -4.146  0.00  0.00    -0.010 A 
ATOM      5  C   LIG d   1       3.539  -1.238  -3.625  0.00  0.00    -0.055 A 
ATOM      6  C   LIG d   1       4.020  -1.416  -2.341  0.00  0.00    -0.061 A 
ATOM      7  H   LIG d   1       3.261  -2.094  -4.221  0.00  0.00     0.062 H 
ATOM      8  C   LIG d   1       4.376  -0.318  -1.578  0.00  0.00    -0.062 A 
ATOM      9  H   LIG d   1       4.118  -2.410  -1.934  0.00  0.00     0.062 H 
ATOM     10  C   LIG d   1       4.251   0.956  -2.100  0.00  0.00    -0.061 A 
ATOM     11  H   LIG d   1       4.757  -0.458  -0.578  0.00  0.00     0.062 H 
ATOM     12  C   LIG d   1       3.770   1.134  -3.383  0.00  0.00    -0.055 A 
ATOM     13  H   LIG d   1       4.530   1.813  -1.504  0.00  0.00     0.062 H 
ATOM     14  H   LIG d   1       3.672   2.129  -3.790  0.00  0.00     0.062 H 
ENDBRANCH   1   4
BRANCH   1  15
ATOM     15  O   LIG d   1       3.962   0.091  -6.479  0.00  0.00    -0.485 OA
BRANCH  15  16
ATOM     16  C   LIG d   1       3.660  -0.449  -7.687  0.00  0.00     0.149 A 
ATOM     17  C   LIG d   1       3.121   0.351  -8.689  0.00  0.00     0.061 A 
ATOM     18  C   LIG d   1       2.814  -0.193  -9.917  0.00  0.00    -0.034 A 
ATOM     19 BR   LIG d   1       2.809   2.188  -8.366  0.00  0.00    -0.046 Br
ATOM     20  C   LIG d   1       3.046  -1.554 -10.154  0.00  0.00     0.017 A 
ATOM     21  H   LIG d   1       2.396   0.428 -10.694  0.00  0.00     0.064 H 
ATOM     22  C   LIG d   1       3.588  -2.354  -9.143  0.00  0.00    -0.034 A 
ATOM     23  C   LIG d   1       3.897  -1.800  -7.921  0.00  0.00     0.061 A 
ATOM     24  H   LIG d   1       3.768  -3.404  -9.321  0.00  0.00     0.064 H 
ATOM     25 BR   LIG d   1       4.639  -2.879  -6.555  0.00  0.00    -0.046 Br
BRANCH  20  26
ATOM     26  C   LIG d   1       2.719  -2.139 -11.462  0.00  0.00     0.150 C 
ATOM     27  O   LIG d   1       2.209  -1.453 -12.323  0.00  0.00    -0.296 OA
ATOM     28  H   LIG d   1       2.933  -3.179 -11.656  0.00  0.00     0.108 H 
ENDBRANCH  20  26
ENDBRANCH  15  16
ENDBRANCH   1  15
TORSDOF 4
ENDMDL
MODEL 2
REMARK VINA RESULT:      -6.1      0.059      2.211
REMARK  4 active torsions:
REMARK  status: ('A' for Active; 'I' for Inactive)
REMARK    1  A    between atoms: C_4  and  C_7 
REMARK    2  A    between atoms: C_7  and  O_8 
REMARK    3  A    between atoms: O_8  and  C_9 
REMARK    4  A    between atoms: C_12  and  C_16 
ROOT
ATOM      1  C   LIG d   1       2.899   0.259  -5.544  0.00  0.00     0.115 C 
ATOM      2  H   LIG d   1       2.117  -0.470  -5.756  0.00  0.00     0.075 H 
ATOM      3  H   LIG d   1       2.491   1.266  -5.633  0.00  0.00     0.075 H 
ENDROOT
BRANCH   1   4
ATOM      4  C   LIG d   1       3.418   0.048  -4.145  0.00  0.00    -0.010 A 
ATOM      5  C   LIG d   1       3.534  -1.232  -3.636  0.00  0.00    -0.055 A 
ATOM      6  C   LIG d   1       4.010  -1.425  -2.353  0.00  0.00    -0.061 A 
ATOM      7  H   LIG d   1       3.253  -2.080  -4.242  0.00  0.00     0.062 H 
ATOM      8  C   LIG d   1       4.371  -0.338  -1.579  0.00  0.00    -0.062 A 
ATOM      9  H   LIG d   1       4.101  -2.424  -1.956  0.00  0.00     0.062 H 
ATOM     10  C   LIG d   1       4.255   0.942  -2.088  0.00  0.00    -0.061 A 
ATOM     11  H   LIG d   1       4.747  -0.489  -0.579  0.00  0.00     0.062 H 
ATOM     12  C   LIG d   1       3.779   1.136  -3.371  0.00  0.00    -0.055 A 
ATOM     13  H   LIG d   1       4.537   1.792  -1.483  0.00  0.00     0.062 H 
ATOM     14  H   LIG d   1       3.688   2.136  -3.769  0.00  0.00     0.062 H 
ENDBRANCH   1   4
BRANCH   1  15
ATOM     15  O   LIG d   1       3.968   0.095  -6.479  0.00  0.00    -0.485 OA
BRANCH  15  16
ATOM     16  C   LIG d   1       3.654  -0.444  -7.684  0.00  0.00     0.149 A 
ATOM     17  C   LIG d   1       3.875  -1.797  -7.917  0.00  0.00     0.061 A 
ATOM     18  C   LIG d   1       3.558  -2.348  -9.139  0.00  0.00    -0.034 A 
ATOM     19 BR   LIG d   1       4.613  -2.882  -6.555  0.00  0.00    -0.046 Br
ATOM     20  C   LIG d   1       3.012  -1.543 -10.147  0.00  0.00     0.017 A 
ATOM     21  H   LIG d   1       3.729  -3.398  -9.319  0.00  0.00     0.064 H 
ATOM     22  C   LIG d   1       2.791  -0.182  -9.907  0.00  0.00    -0.034 A 
ATOM     23  C   LIG d   1       3.106   0.358  -8.680  0.00  0.00     0.061 A 
ATOM     24  H   LIG d   1       2.371   0.443 -10.681  0.00  0.00     0.064 H 
ATOM     25 BR   LIG d   1       2.801   2.196  -8.352  0.00  0.00    -0.046 Br
BRANCH  20  26
ATOM     26  C   LIG d   1       2.672  -2.126 -11.452  0.00  0.00     0.150 C 
ATOM     27  O   LIG d   1       2.420  -1.402 -12.392  0.00  0.00    -0.296 OA
ATOM     28  H   LIG d   1       2.647  -3.198 -11.574  0.00  0.00     0.108 H 
ENDBRANCH  20  26
ENDBRANCH  15  16
ENDBRANCH   1  15
TORSDOF 4
ENDMDL
MODEL 3
REMARK VINA RESULT:      -5.9      2.632      3.398
REMARK  4 active torsions:
REMARK  status: ('A' for Active; 'I' for Inactive)
REMARK    1  A    between atoms: C_4  and  C_7 
REMARK    2  A    between atoms: C_7  and  O_8 
REMARK    3  A    between atoms: O_8  and  C_9 
REMARK    4  A    between atoms: C_12  and  C_16 
ROOT
ATOM      1  C   LIG d   1       3.217  -0.011  -5.590  0.00  0.00     0.115 C 
ATOM      2  H   LIG d   1       2.180  -0.318  -5.727  0.00  0.00     0.075 H 
ATOM      3  H   LIG d   1       3.308   1.058  -5.784  0.00  0.00     0.075 H 
ENDROOT
BRANCH   1   4
ATOM      4  C   LIG d   1       3.646  -0.304  -4.175  0.00  0.00    -0.010 A 
ATOM      5  C   LIG d   1       3.573  -1.593  -3.684  0.00  0.00    -0.055 A 
ATOM      6  C   LIG d   1       3.967  -1.862  -2.386  0.00  0.00    -0.061 A 
ATOM      7  H   LIG d   1       3.210  -2.391  -4.314  0.00  0.00     0.062 H 
ATOM      8  C   LIG d   1       4.433  -0.839  -1.580  0.00  0.00    -0.062 A 
ATOM      9  H   LIG d   1       3.910  -2.869  -2.002  0.00  0.00     0.062 H 
ATOM     10  C   LIG d   1       4.506   0.450  -2.072  0.00  0.00    -0.061 A 
ATOM     11  H   LIG d   1       4.745  -1.050  -0.568  0.00  0.00     0.062 H 
ATOM     12  C   LIG d   1       4.112   0.719  -3.369  0.00  0.00    -0.055 A 
ATOM     13  H   LIG d   1       4.870   1.249  -1.442  0.00  0.00     0.062 H 
ATOM     14  H   LIG d   1       4.169   1.727  -3.754  0.00  0.00     0.062 H 
ENDBRANCH   1   4
BRANCH   1  15
ATOM     15  O   LIG d   1       4.051  -0.732  -6.499  0.00  0.00    -0.485 OA
BRANCH  15  16
ATOM     16  C   LIG d   1       5.004  -0.023  -7.154  0.00  0.00     0.149 A 
ATOM     17  C   LIG d   1       4.647   0.810  -8.209  0.00  0.00     0.061 A 
ATOM     18  C   LIG d   1       5.612   1.532  -8.876  0.00  0.00    -0.034 A 
ATOM     19 BR   LIG d   1       2.834   0.952  -8.728  0.00  0.00    -0.046 Br
ATOM     20  C   LIG d   1       6.954   1.425  -8.491  0.00  0.00     0.017 A 
ATOM     21  H   LIG d   1       5.334   2.179  -9.695  0.00  0.00     0.064 H 
ATOM     22  C   LIG d   1       7.309   0.586  -7.429  0.00  0.00    -0.034 A 
ATOM     23  C   LIG d   1       6.336  -0.128  -6.764  0.00  0.00     0.061 A 
ATOM     24  H   LIG d   1       8.342   0.500  -7.128  0.00  0.00     0.064 H 
ATOM     25 BR   LIG d   1       6.812  -1.256  -5.323  0.00  0.00    -0.046 Br
BRANCH  20  26
ATOM     26  C   LIG d   1       7.987   2.192  -9.200  0.00  0.00     0.150 C 
ATOM     27  O   LIG d   1       7.855   3.388  -9.354  0.00  0.00    -0.296 OA
ATOM     28  H   LIG d   1       8.863   1.692  -9.584  0.00  0.00     0.108 H 
ENDBRANCH  20  26
ENDBRANCH  15  16
ENDBRANCH   1  15
TORSDOF 4
ENDMDL
MODEL 4
REMARK VINA RESULT:      -5.7      1.842      1.968
REMARK  4 active torsions:
REMARK  status: ('A' for Active; 'I' for Inactive)
REMARK    1  A    between atoms: C_4  and  C_7 
REMARK    2  A    between atoms: C_7  and  O_8 
REMARK    3  A    between atoms: O_8  and  C_9 
REMARK    4  A    between atoms: C_12  and  C_16 
ROOT
ATOM      1  C   LIG d   1       5.956  -0.843  -5.611  0.00  0.00     0.115 C 
ATOM      2  H   LIG d   1       7.042  -0.760  -5.578  0.00  0.00     0.075 H 
ATOM      3  H   LIG d   1       5.677  -1.786  -6.081  0.00  0.00     0.075 H 
ENDROOT
BRANCH   1   4
ATOM      4  C   LIG d   1       5.406  -0.797  -4.209  0.00  0.00    -0.010 A 
ATOM      5  C   LIG d   1       4.758  -1.900  -3.684  0.00  0.00    -0.055 A 
ATOM      6  C   LIG d   1       4.253  -1.857  -2.398  0.00  0.00    -0.061 A 
ATOM      7  H   LIG d   1       4.648  -2.794  -4.278  0.00  0.00     0.062 H 
ATOM      8  C   LIG d   1       4.396  -0.712  -1.637  0.00  0.00    -0.062 A 
ATOM      9  H   LIG d   1       3.748  -2.718  -1.988  0.00  0.00     0.062 H 
ATOM     10  C   LIG d   1       5.043   0.391  -2.162  0.00  0.00    -0.061 A 
ATOM     11  H   LIG d   1       4.006  -0.680  -0.631  0.00  0.00     0.062 H 
ATOM     12  C   LIG d   1       5.548   0.349  -3.448  0.00  0.00    -0.055 A 
ATOM     13  H   LIG d   1       5.155   1.286  -1.567  0.00  0.00     0.062 H 
ATOM     14  H   LIG d   1       6.054   1.210  -3.858  0.00  0.00     0.062 H 
ENDBRANCH   1   4
BRANCH   1  15
ATOM     15  O   LIG d   1       5.419   0.243  -6.369  0.00  0.00    -0.485 OA
BRANCH  15  16
ATOM     16  C   LIG d   1       4.582  -0.072  -7.389  0.00  0.00     0.149 A 
ATOM     17  C   LIG d   1       3.206  -0.002  -7.204  0.00  0.00     0.061 A 
ATOM     18  C   LIG d   1       2.352  -0.321  -8.236  0.00  0.00    -0.034 A 
ATOM     19 BR   LIG d   1       2.504   0.531  -5.530  0.00  0.00    -0.046 Br
ATOM     20  C   LIG d   1       2.873  -0.716  -9.475  0.00  0.00     0.017 A 
ATOM     21  H   LIG d   1       1.283  -0.266  -8.092  0.00  0.00     0.064 H 
ATOM     22  C   LIG d   1       4.259  -0.785  -9.657  0.00  0.00    -0.034 A 
ATOM     23  C   LIG d   1       5.104  -0.459  -8.619  0.00  0.00     0.061 A 
ATOM     24  H   LIG d   1       4.665  -1.090 -10.609  0.00  0.00     0.064 H 
ATOM     25 BR   LIG d   1       6.977  -0.544  -8.867  0.00  0.00    -0.046 Br
BRANCH  20  26
ATOM     26  C   LIG d   1       1.967  -1.058 -10.579  0.00  0.00     0.150 C 
ATOM     27  O   LIG d   1       2.204  -0.664 -11.702  0.00  0.00    -0.296 OA
ATOM     28  H   LIG d   1       1.090  -1.660 -10.392  0.00  0.00     0.108 H 
ENDBRANCH  20  26
ENDBRANCH  15  16
ENDBRANCH   1  15
TORSDOF 4
ENDMDL
MODEL 5
REMARK VINA RESULT:      -5.6      1.922      2.338
REMARK  4 active torsions:
REMARK  status: ('A' for Active; 'I' for Inactive)
REMARK    1  A    between atoms: C_4  and  C_7 
REMARK    2  A    between atoms: C_7  and  O_8 
REMARK    3  A    between atoms: O_8  and  C_9 
REMARK    4  A    between atoms: C_12  and  C_16 
ROOT
ATOM      1  C   LIG d   1       6.065  -0.841  -5.588  0.00  0.00     0.115 C 
ATOM      2  H   LIG d   1       7.130  -0.648  -5.456  0.00  0.00     0.075 H 
ATOM      3  H   LIG d   1       5.930  -1.768  -6.143  0.00  0.00     0.075 H 
ENDROOT
BRANCH   1   4
ATOM      4  C   LIG d   1       5.405  -0.960  -4.239  0.00  0.00    -0.010 A 
ATOM      5  C   LIG d   1       4.707  -2.107  -3.910  0.00  0.00    -0.055 A 
ATOM      6  C   LIG d   1       4.101  -2.217  -2.673  0.00  0.00    -0.061 A 
ATOM      7  H   LIG d   1       4.636  -2.918  -4.620  0.00  0.00     0.062 H 
ATOM      8  C   LIG d   1       4.193  -1.179  -1.764  0.00  0.00    -0.062 A 
ATOM      9  H   LIG d   1       3.556  -3.112  -2.416  0.00  0.00     0.062 H 
ATOM     10  C   LIG d   1       4.890  -0.032  -2.093  0.00  0.00    -0.061 A 
ATOM     11  H   LIG d   1       3.724  -1.266  -0.795  0.00  0.00     0.062 H 
ATOM     12  C   LIG d   1       5.496   0.078  -3.330  0.00  0.00    -0.055 A 
ATOM     13  H   LIG d   1       4.962   0.779  -1.383  0.00  0.00     0.062 H 
ATOM     14  H   LIG d   1       6.042   0.974  -3.587  0.00  0.00     0.062 H 
ENDBRANCH   1   4
BRANCH   1  15
ATOM     15  O   LIG d   1       5.473   0.239  -6.314  0.00  0.00    -0.485 OA
BRANCH  15  16
ATOM     16  C   LIG d   1       4.667  -0.089  -7.356  0.00  0.00     0.149 A 
ATOM     17  C   LIG d   1       5.226  -0.486  -8.566  0.00  0.00     0.061 A 
ATOM     18  C   LIG d   1       4.413  -0.821  -9.625  0.00  0.00    -0.034 A 
ATOM     19 BR   LIG d   1       7.106  -0.568  -8.756  0.00  0.00    -0.046 Br
ATOM     20  C   LIG d   1       3.021  -0.759  -9.483  0.00  0.00     0.017 A 
ATOM     21  H   LIG d   1       4.847  -1.129 -10.564  0.00  0.00     0.064 H 
ATOM     22  C   LIG d   1       2.463  -0.359  -8.264  0.00  0.00    -0.034 A 
ATOM     23  C   LIG d   1       3.285  -0.032  -7.208  0.00  0.00     0.061 A 
ATOM     24  H   LIG d   1       1.391  -0.309  -8.149  0.00  0.00     0.064 H 
ATOM     25 BR   LIG d   1       2.533   0.501  -5.557  0.00  0.00    -0.046 Br
BRANCH  20  26
ATOM     26  C   LIG d   1       2.149  -1.114 -10.611  0.00  0.00     0.150 C 
ATOM     27  O   LIG d   1       0.989  -0.757 -10.617  0.00  0.00    -0.296 OA
ATOM     28  H   LIG d   1       2.540  -1.692 -11.435  0.00  0.00     0.108 H 
ENDBRANCH  20  26
ENDBRANCH  15  16
ENDBRANCH   1  15
TORSDOF 4
ENDMDL
MODEL 6
REMARK VINA RESULT:      -5.6      2.642      3.903
REMARK  4 active torsions:
REMARK  status: ('A' for Active; 'I' for Inactive)
REMARK    1  A    between atoms: C_4  and  C_7 
REMARK    2  A    between atoms: C_7  and  O_8 
REMARK    3  A    between atoms: O_8  and  C_9 
REMARK    4  A    between atoms: C_12  and  C_16 
ROOT
ATOM      1  C   LIG d   1       3.188   0.002  -5.592  0.00  0.00     0.115 C 
ATOM      2  H   LIG d   1       2.148  -0.296  -5.723  0.00  0.00     0.075 H 
ATOM      3  H   LIG d   1       3.287   1.070  -5.787  0.00  0.00     0.075 H 
ENDROOT
BRANCH   1   4
ATOM      4  C   LIG d   1       3.621  -0.293  -4.178  0.00  0.00    -0.010 A 
ATOM      5  C   LIG d   1       3.587  -1.590  -3.701  0.00  0.00    -0.055 A 
ATOM      6  C   LIG d   1       3.984  -1.860  -2.405  0.00  0.00    -0.061 A 
ATOM      7  H   LIG d   1       3.251  -2.391  -4.342  0.00  0.00     0.062 H 
ATOM      8  C   LIG d   1       4.414  -0.833  -1.586  0.00  0.00    -0.062 A 
ATOM      9  H   LIG d   1       3.958  -2.873  -2.033  0.00  0.00     0.062 H 
ATOM     10  C   LIG d   1       4.448   0.464  -2.063  0.00  0.00    -0.061 A 
ATOM     11  H   LIG d   1       4.729  -1.045  -0.575  0.00  0.00     0.062 H 
ATOM     12  C   LIG d   1       4.051   0.735  -3.359  0.00  0.00    -0.055 A 
ATOM     13  H   LIG d   1       4.784   1.266  -1.423  0.00  0.00     0.062 H 
ATOM     14  H   LIG d   1       4.077   1.748  -3.732  0.00  0.00     0.062 H 
ENDBRANCH   1   4
BRANCH   1  15
ATOM     15  O   LIG d   1       4.012  -0.727  -6.504  0.00  0.00    -0.485 OA
BRANCH  15  16
ATOM     16  C   LIG d   1       4.971  -0.028  -7.161  0.00  0.00     0.149 A 
ATOM     17  C   LIG d   1       6.302  -0.147  -6.775  0.00  0.00     0.061 A 
ATOM     18  C   LIG d   1       7.280   0.559  -7.440  0.00  0.00    -0.034 A 
ATOM     19 BR   LIG d   1       6.770  -1.282  -5.336  0.00  0.00    -0.046 Br
ATOM     20  C   LIG d   1       6.931   1.399  -8.505  0.00  0.00     0.017 A 
ATOM     21  H   LIG d   1       8.313   0.466  -7.140  0.00  0.00     0.064 H 
ATOM     22  C   LIG d   1       5.591   1.516  -8.889  0.00  0.00    -0.034 A 
ATOM     23  C   LIG d   1       4.621   0.800  -8.222  0.00  0.00     0.061 A 
ATOM     24  H   LIG d   1       5.317   2.162  -9.709  0.00  0.00     0.064 H 
ATOM     25 BR   LIG d   1       2.810   0.950  -8.746  0.00  0.00    -0.046 Br
BRANCH  20  26
ATOM     26  C   LIG d   1       7.970   2.156  -9.216  0.00  0.00     0.150 C 
ATOM     27  O   LIG d   1       9.071   1.672  -9.375  0.00  0.00    -0.296 OA
ATOM     28  H   LIG d   1       7.754   3.143  -9.597  0.00  0.00     0.108 H 
ENDBRANCH  20  26
ENDBRANCH  15  16
ENDBRANCH   1  15
TORSDOF 4
ENDMDL
MODEL 7
REMARK VINA RESULT:      -5.6      2.548      3.525
REMARK  4 active torsions:
REMARK  status: ('A' for Active; 'I' for Inactive)
REMARK    1  A    between atoms: C_4  and  C_7 
REMARK    2  A    between atoms: C_7  and  O_8 
REMARK    3  A    between atoms: O_8  and  C_9 
REMARK    4  A    between atoms: C_12  and  C_16 
ROOT
ATOM      1  C   LIG d   1       3.086   0.194  -5.572  0.00  0.00     0.115 C 
ATOM      2  H   LIG d   1       2.024  -0.027  -5.675  0.00  0.00     0.075 H 
ATOM      3  H   LIG d   1       3.260   1.248  -5.786  0.00  0.00     0.075 H 
ENDROOT
BRANCH   1   4
ATOM      4  C   LIG d   1       3.530  -0.114  -4.165  0.00  0.00    -0.010 A 
ATOM      5  C   LIG d   1       3.975   0.903  -3.342  0.00  0.00    -0.055 A 
ATOM      6  C   LIG d   1       4.383   0.620  -2.052  0.00  0.00    -0.061 A 
ATOM      7  H   LIG d   1       4.003   1.919  -3.707  0.00  0.00     0.062 H 
ATOM      8  C   LIG d   1       4.346  -0.681  -1.585  0.00  0.00    -0.062 A 
ATOM      9  H   LIG d   1       4.730   1.414  -1.409  0.00  0.00     0.062 H 
ATOM     10  C   LIG d   1       3.901  -1.699  -2.409  0.00  0.00    -0.061 A 
ATOM     11  H   LIG d   1       4.659  -0.902  -0.576  0.00  0.00     0.062 H 
ATOM     12  C   LIG d   1       3.493  -1.416  -3.699  0.00  0.00    -0.055 A 
ATOM     13  H   LIG d   1       3.872  -2.715  -2.044  0.00  0.00     0.062 H 
ATOM     14  H   LIG d   1       3.146  -2.211  -4.342  0.00  0.00     0.062 H 
ENDBRANCH   1   4
BRANCH   1  15
ATOM     15  O   LIG d   1       3.830  -0.607  -6.492  0.00  0.00    -0.485 OA
BRANCH  15  16
ATOM     16  C   LIG d   1       4.828   0.007  -7.176  0.00  0.00     0.149 A 
ATOM     17  C   LIG d   1       4.524   0.852  -8.237  0.00  0.00     0.061 A 
ATOM     18  C   LIG d   1       5.535   1.479  -8.932  0.00  0.00    -0.034 A 
ATOM     19 BR   LIG d   1       2.721   1.143  -8.726  0.00  0.00    -0.046 Br
ATOM     20  C   LIG d   1       6.870   1.262  -8.570  0.00  0.00     0.017 A 
ATOM     21  H   LIG d   1       5.298   2.135  -9.756  0.00  0.00     0.064 H 
ATOM     22  C   LIG d   1       7.171   0.410  -7.501  0.00  0.00    -0.034 A 
ATOM     23  C   LIG d   1       6.153  -0.206  -6.808  0.00  0.00     0.061 A 
ATOM     24  H   LIG d   1       8.199   0.240  -7.218  0.00  0.00     0.064 H 
ATOM     25 BR   LIG d   1       6.558  -1.351  -5.358  0.00  0.00    -0.046 Br
BRANCH  20  26
ATOM     26  C   LIG d   1       7.951   1.927  -9.309  0.00  0.00     0.150 C 
ATOM     27  O   LIG d   1       9.093   1.859  -8.906  0.00  0.00    -0.296 OA
ATOM     28  H   LIG d   1       7.729   2.477 -10.212  0.00  0.00     0.108 H 
ENDBRANCH  20  26
ENDBRANCH  15  16
ENDBRANCH   1  15
TORSDOF 4
ENDMDL
MODEL 8
REMARK VINA RESULT:      -5.5      2.142      3.456
REMARK  4 active torsions:
REMARK  status: ('A' for Active; 'I' for Inactive)
REMARK    1  A    between atoms: C_4  and  C_7 
REMARK    2  A    between atoms: C_7  and  O_8 
REMARK    3  A    between atoms: O_8  and  C_9 
REMARK    4  A    between atoms: C_12  and  C_16 
ROOT
ATOM      1  C   LIG d   1       4.591  -3.025  -3.988  0.00  0.00     0.115 C 
ATOM      2  H   LIG d   1       5.090  -3.685  -3.279  0.00  0.00     0.075 H 
ATOM      3  H   LIG d   1       3.606  -3.426  -4.226  0.00  0.00     0.075 H 
ENDROOT
BRANCH   1   4
ATOM      4  C   LIG d   1       4.442  -1.654  -3.382  0.00  0.00    -0.010 A 
ATOM      5  C   LIG d   1       3.184  -1.120  -3.178  0.00  0.00    -0.055 A 
ATOM      6  C   LIG d   1       3.048   0.138  -2.622  0.00  0.00    -0.061 A 
ATOM      7  H   LIG d   1       2.307  -1.687  -3.453  0.00  0.00     0.062 H 
ATOM      8  C   LIG d   1       4.171   0.863  -2.269  0.00  0.00    -0.062 A 
ATOM      9  H   LIG d   1       2.065   0.554  -2.462  0.00  0.00     0.062 H 
ATOM     10  C   LIG d   1       5.430   0.329  -2.473  0.00  0.00    -0.061 A 
ATOM     11  H   LIG d   1       4.065   1.843  -1.830  0.00  0.00     0.062 H 
ATOM     12  C   LIG d   1       5.566  -0.929  -3.029  0.00  0.00    -0.055 A 
ATOM     13  H   LIG d   1       6.308   0.895  -2.197  0.00  0.00     0.062 H 
ATOM     14  H   LIG d   1       6.550  -1.346  -3.188  0.00  0.00     0.062 H 
ENDBRANCH   1   4
BRANCH   1  15
ATOM     15  O   LIG d   1       5.370  -2.935  -5.183  0.00  0.00    -0.485 OA
BRANCH  15  16
ATOM     16  C   LIG d   1       4.727  -3.166  -6.356  0.00  0.00     0.149 A 
ATOM     17  C   LIG d   1       4.384  -4.466  -6.714  0.00  0.00     0.061 A 
ATOM     18  C   LIG d   1       3.730  -4.705  -7.902  0.00  0.00    -0.034 A 
ATOM     19 BR   LIG d   1       4.815  -5.906  -5.567  0.00  0.00    -0.046 Br
ATOM     20  C   LIG d   1       3.412  -3.638  -8.751  0.00  0.00     0.017 A 
ATOM     21  H   LIG d   1       3.464  -5.714  -8.179  0.00  0.00     0.064 H 
ATOM     22  C   LIG d   1       3.759  -2.332  -8.386  0.00  0.00    -0.034 A 
ATOM     23  C   LIG d   1       4.407  -2.102  -7.193  0.00  0.00     0.061 A 
ATOM     24  H   LIG d   1       3.517  -1.505  -9.037  0.00  0.00     0.064 H 
ATOM     25 BR   LIG d   1       4.870  -0.337  -6.695  0.00  0.00    -0.046 Br
BRANCH  20  26
ATOM     26  C   LIG d   1       2.716  -3.888 -10.020  0.00  0.00     0.150 C 
ATOM     27  O   LIG d   1       2.940  -3.185 -10.983  0.00  0.00    -0.296 OA
ATOM     28  H   LIG d   1       2.006  -4.697 -10.096  0.00  0.00     0.108 H 
ENDBRANCH  20  26
ENDBRANCH  15  16
ENDBRANCH   1  15
TORSDOF 4
ENDMDL
MODEL 9
REMARK VINA RESULT:      -5.3      5.430      6.428
REMARK  4 active torsions:
REMARK  status: ('A' for Active; 'I' for Inactive)
REMARK    1  A    between atoms: C_4  and  C_7 
REMARK    2  A    between atoms: C_7  and  O_8 
REMARK    3  A    between atoms: O_8  and  C_9 
REMARK    4  A    between atoms: C_12  and  C_16 
ROOT
ATOM      1  C   LIG d   1       7.596   0.399  -4.174  0.00  0.00     0.115 C 
ATOM      2  H   LIG d   1       8.472   0.440  -3.526  0.00  0.00     0.075 H 
ATOM      3  H   LIG d   1       7.751  -0.353  -4.947  0.00  0.00     0.075 H 
ENDROOT
BRANCH   1   4
ATOM      4  C   LIG d   1       6.383   0.037  -3.356  0.00  0.00    -0.010 A 
ATOM      5  C   LIG d   1       6.014  -1.288  -3.214  0.00  0.00    -0.055 A 
ATOM      6  C   LIG d   1       4.902  -1.619  -2.465  0.00  0.00    -0.061 A 
ATOM      7  H   LIG d   1       6.597  -2.063  -3.689  0.00  0.00     0.062 H 
ATOM      8  C   LIG d   1       4.157  -0.625  -1.856  0.00  0.00    -0.062 A 
ATOM      9  H   LIG d   1       4.614  -2.653  -2.354  0.00  0.00     0.062 H 
ATOM     10  C   LIG d   1       4.526   0.699  -1.997  0.00  0.00    -0.061 A 
ATOM     11  H   LIG d   1       3.291  -0.884  -1.266  0.00  0.00     0.062 H 
ATOM     12  C   LIG d   1       5.639   1.031  -2.747  0.00  0.00    -0.055 A 
ATOM     13  H   LIG d   1       3.945   1.476  -1.522  0.00  0.00     0.062 H 
ATOM     14  H   LIG d   1       5.927   2.066  -2.858  0.00  0.00     0.062 H 
ENDBRANCH   1   4
BRANCH   1  15
ATOM     15  O   LIG d   1       7.396   1.675  -4.784  0.00  0.00    -0.485 OA
BRANCH  15  16
ATOM     16  C   LIG d   1       8.322   2.076  -5.691  0.00  0.00     0.149 A 
ATOM     17  C   LIG d   1       8.198   1.696  -7.023  0.00  0.00     0.061 A 
ATOM     18  C   LIG d   1       9.135   2.102  -7.947  0.00  0.00    -0.034 A 
ATOM     19 BR   LIG d   1       6.741   0.620  -7.566  0.00  0.00    -0.046 Br
ATOM     20  C   LIG d   1      10.214   2.899  -7.543  0.00  0.00     0.017 A 
ATOM     21  H   LIG d   1       9.038   1.807  -8.981  0.00  0.00     0.064 H 
ATOM     22  C   LIG d   1      10.334   3.279  -6.201  0.00  0.00    -0.034 A 
ATOM     23  C   LIG d   1       9.388   2.873  -5.286  0.00  0.00     0.061 A 
ATOM     24  H   LIG d   1      11.164   3.892  -5.885  0.00  0.00     0.064 H 
ATOM     25 BR   LIG d   1       9.545   3.393  -3.474  0.00  0.00    -0.046 Br
BRANCH  20  26
ATOM     26  C   LIG d   1      11.217   3.333  -8.525  0.00  0.00     0.150 C 
ATOM     27  O   LIG d   1      12.024   4.189  -8.229  0.00  0.00    -0.296 OA
ATOM     28  H   LIG d   1      11.235   2.891  -9.509  0.00  0.00     0.108 H 
ENDBRANCH  20  26
ENDBRANCH  15  16
ENDBRANCH   1  15
TORSDOF 4
ENDMDL
