MODEL 1
REMARK VINA RESULT:      -6.4      0.000      0.000
REMARK  2 active torsions:
REMARK  status: ('A' for Active; 'I' for Inactive)
REMARK    1  A    between atoms: C_1  and  C_2 
REMARK    2  A    between atoms: C_17  and  C_27 
ROOT
ATOM      1  C   LIG d   1       4.569  -1.189  -4.823  0.00  0.00    -0.008 C 
ATOM      2  C   LIG d   1       5.920  -0.816  -4.211  0.00  0.00    -0.042 C 
ATOM      3  C   LIG d   1       5.868  -0.849  -2.687  0.00  0.00    -0.036 C 
ATOM      4  C   LIG d   1       4.820   0.137  -2.171  0.00  0.00     0.038 C 
ATOM      5  H   LIG d   1       4.831   0.144  -1.081  0.00  0.00     0.047 H 
ATOM      6  C   LIG d   1       3.436  -0.296  -2.667  0.00  0.00    -0.015 C 
ATOM      7  C   LIG d   1       3.479  -0.369  -4.183  0.00  0.00    -0.066 C 
ATOM      8  C   LIG d   1       2.572   0.290  -4.849  0.00  0.00    -0.084 C 
ATOM      9  C   LIG d   1       2.478   0.319  -6.353  0.00  0.00    -0.031 C 
ATOM     10  C   LIG d   1       3.192  -0.917  -6.891  0.00  0.00    -0.030 C 
ATOM     11  H   LIG d   1       2.658  -1.804  -6.501  0.00  0.00     0.031 H 
ATOM     12  C   LIG d   1       4.612  -0.920  -6.318  0.00  0.00    -0.029 C 
ATOM     13  H   LIG d   1       5.026   0.090  -6.413  0.00  0.00     0.031 H 
ATOM     14  C   LIG d   1       5.495  -1.873  -7.102  0.00  0.00    -0.049 C 
ATOM     15  C   LIG d   1       5.743  -1.318  -8.517  0.00  0.00    -0.042 C 
ATOM     16  C   LIG d   1       4.559  -0.510  -8.988  0.00  0.00     0.025 C 
ATOM     17  C   LIG d   1       3.240  -1.030  -8.382  0.00  0.00    -0.027 C 
ATOM     18  H   LIG d   1       3.124  -2.101  -8.654  0.00  0.00     0.031 H 
ATOM     19  C   LIG d   1       2.189  -0.242  -9.180  0.00  0.00    -0.044 C 
ATOM     20  C   LIG d   1       2.758  -0.287 -10.626  0.00  0.00     0.002 C 
ATOM     21  C   LIG d   1       4.258  -0.630 -10.494  0.00  0.00     0.176 C 
ATOM     22  O   LIG d   1       4.514  -1.953 -10.965  0.00  0.00    -0.346 OA
ATOM     23  C   LIG d   1       5.093  -1.785 -12.282  0.00  0.00     0.074 C 
ATOM     24  C   LIG d   1       5.883  -0.460 -12.120  0.00  0.00     0.074 C 
ATOM     25  O   LIG d   1       5.043   0.308 -11.232  0.00  0.00    -0.346 OA
ATOM     26 CL   LIG d   1       5.189   1.790  -2.788  0.00  0.00    -0.121 Cl
ATOM     27  H   LIG d   1       6.200   0.187  -4.545  0.00  0.00     0.027 H 
ATOM     28  H   LIG d   1       6.678  -1.521  -4.562  0.00  0.00     0.027 H 
ATOM     29  H   LIG d   1       6.848  -0.564  -2.291  0.00  0.00     0.028 H 
ATOM     30  H   LIG d   1       5.632  -1.851  -2.336  0.00  0.00     0.028 H 
ATOM     31  H   LIG d   1       3.186  -1.270  -2.251  0.00  0.00     0.032 H 
ATOM     32  H   LIG d   1       2.691   0.437  -2.354  0.00  0.00     0.032 H 
ATOM     33  H   LIG d   1       1.839   0.851  -4.287  0.00  0.00     0.057 H 
ATOM     34  H   LIG d   1       2.953   1.228  -6.717  0.00  0.00     0.031 H 
ATOM     35  H   LIG d   1       1.430   0.308  -6.650  0.00  0.00     0.031 H 
ATOM     36  H   LIG d   1       6.456  -1.990  -6.594  0.00  0.00     0.027 H 
ATOM     37  H   LIG d   1       5.021  -2.854  -7.186  0.00  0.00     0.027 H 
ATOM     38  H   LIG d   1       5.935  -2.147  -9.204  0.00  0.00     0.027 H 
ATOM     39  H   LIG d   1       6.635  -0.679  -8.497  0.00  0.00     0.027 H 
ATOM     40  H   LIG d   1       1.221  -0.745  -9.137  0.00  0.00     0.027 H 
ATOM     41  H   LIG d   1       2.100   0.781  -8.825  0.00  0.00     0.027 H 
ATOM     42  H   LIG d   1       2.633   0.681 -11.108  0.00  0.00     0.032 H 
ATOM     43  H   LIG d   1       2.248  -1.061 -11.203  0.00  0.00     0.032 H 
ATOM     44  H   LIG d   1       4.317  -1.684 -13.041  0.00  0.00     0.058 H 
ATOM     45  H   LIG d   1       5.765  -2.609 -12.522  0.00  0.00     0.058 H 
ATOM     46  H   LIG d   1       5.994   0.044 -13.079  0.00  0.00     0.058 H 
ATOM     47  H   LIG d   1       6.857  -0.644 -11.666  0.00  0.00     0.058 H 
ENDROOT
BRANCH  16  48
ATOM     48  C   LIG d   1       4.783   0.980  -8.710  0.00  0.00    -0.054 C 
ATOM     49  H   LIG d   1       5.317   1.097  -7.766  0.00  0.00     0.024 H 
ATOM     50  H   LIG d   1       5.371   1.415  -9.517  0.00  0.00     0.024 H 
ATOM     51  H   LIG d   1       3.820   1.487  -8.648  0.00  0.00     0.024 H 
ENDBRANCH  16  48
BRANCH   1  52
ATOM     52  C   LIG d   1       4.293  -2.668  -4.574  0.00  0.00    -0.056 C 
ATOM     53  H   LIG d   1       3.885  -3.119  -5.478  0.00  0.00     0.024 H 
ATOM     54  H   LIG d   1       5.221  -3.170  -4.304  0.00  0.00     0.024 H 
ATOM     55  H   LIG d   1       3.574  -2.771  -3.760  0.00  0.00     0.024 H 
ENDBRANCH   1  52
TORSDOF 2
ENDMDL
MODEL 2
REMARK VINA RESULT:      -6.0      2.868      3.978
REMARK  2 active torsions:
REMARK  status: ('A' for Active; 'I' for Inactive)
REMARK    1  A    between atoms: C_1  and  C_2 
REMARK    2  A    between atoms: C_17  and  C_27 
ROOT
ATOM      1  C   LIG d   1       5.999  -0.904  -4.045  0.00  0.00    -0.008 C 
ATOM      2  C   LIG d   1       5.335   0.209  -3.234  0.00  0.00    -0.042 C 
ATOM      3  C   LIG d   1       4.573  -0.353  -2.038  0.00  0.00    -0.036 C 
ATOM      4  C   LIG d   1       3.485  -1.318  -2.508  0.00  0.00     0.038 C 
ATOM      5  H   LIG d   1       2.913  -1.669  -1.649  0.00  0.00     0.047 H 
ATOM      6  C   LIG d   1       4.140  -2.511  -3.211  0.00  0.00    -0.015 C 
ATOM      7  C   LIG d   1       4.988  -1.979  -4.353  0.00  0.00    -0.066 C 
ATOM      8  C   LIG d   1       4.790  -2.477  -5.541  0.00  0.00    -0.084 C 
ATOM      9  C   LIG d   1       5.546  -2.058  -6.774  0.00  0.00    -0.031 C 
ATOM     10  C   LIG d   1       6.867  -1.440  -6.326  0.00  0.00    -0.030 C 
ATOM     11  H   LIG d   1       7.434  -2.225  -5.789  0.00  0.00     0.031 H 
ATOM     12  C   LIG d   1       6.544  -0.318  -5.337  0.00  0.00    -0.029 C 
ATOM     13  H   LIG d   1       5.721   0.279  -5.747  0.00  0.00     0.031 H 
ATOM     14  C   LIG d   1       7.747   0.589  -5.156  0.00  0.00    -0.049 C 
ATOM     15  C   LIG d   1       8.001   1.390  -6.447  0.00  0.00    -0.042 C 
ATOM     16  C   LIG d   1       7.579   0.596  -7.658  0.00  0.00     0.025 C 
ATOM     17  C   LIG d   1       7.736  -0.920  -7.427  0.00  0.00    -0.027 C 
ATOM     18  H   LIG d   1       8.795  -1.129  -7.164  0.00  0.00     0.031 H 
ATOM     19  C   LIG d   1       7.499  -1.484  -8.836  0.00  0.00    -0.044 C 
ATOM     20  C   LIG d   1       8.276  -0.484  -9.738  0.00  0.00     0.002 C 
ATOM     21  C   LIG d   1       8.469   0.799  -8.900  0.00  0.00     0.176 C 
ATOM     22  O   LIG d   1       9.839   0.954  -8.529  0.00  0.00    -0.346 OA
ATOM     23  C   LIG d   1      10.366   1.960  -9.429  0.00  0.00     0.074 C 
ATOM     24  C   LIG d   1       9.134   2.874  -9.648  0.00  0.00     0.074 C 
ATOM     25  O   LIG d   1       8.034   1.940  -9.641  0.00  0.00    -0.346 OA
ATOM     26 CL   LIG d   1       2.385  -0.473  -3.659  0.00  0.00    -0.121 Cl
ATOM     27  H   LIG d   1       4.645   0.760  -3.879  0.00  0.00     0.027 H 
ATOM     28  H   LIG d   1       6.104   0.900  -2.880  0.00  0.00     0.027 H 
ATOM     29  H   LIG d   1       4.104   0.474  -1.494  0.00  0.00     0.028 H 
ATOM     30  H   LIG d   1       5.253  -0.869  -1.362  0.00  0.00     0.028 H 
ATOM     31  H   LIG d   1       4.763  -3.056  -2.504  0.00  0.00     0.032 H 
ATOM     32  H   LIG d   1       3.367  -3.172  -3.604  0.00  0.00     0.032 H 
ATOM     33  H   LIG d   1       4.033  -3.243  -5.649  0.00  0.00     0.057 H 
ATOM     34  H   LIG d   1       4.949  -1.334  -7.324  0.00  0.00     0.031 H 
ATOM     35  H   LIG d   1       5.732  -2.931  -7.399  0.00  0.00     0.031 H 
ATOM     36  H   LIG d   1       7.563   1.288  -4.336  0.00  0.00     0.027 H 
ATOM     37  H   LIG d   1       8.638   0.001  -4.924  0.00  0.00     0.027 H 
ATOM     38  H   LIG d   1       9.062   1.648  -6.511  0.00  0.00     0.027 H 
ATOM     39  H   LIG d   1       7.426   2.324  -6.404  0.00  0.00     0.027 H 
ATOM     40  H   LIG d   1       7.926  -2.485  -8.923  0.00  0.00     0.027 H 
ATOM     41  H   LIG d   1       6.442  -1.501  -9.088  0.00  0.00     0.027 H 
ATOM     42  H   LIG d   1       7.700  -0.265 -10.636  0.00  0.00     0.032 H 
ATOM     43  H   LIG d   1       9.246  -0.903 -10.008  0.00  0.00     0.032 H 
ATOM     44  H   LIG d   1      10.690   1.512 -10.369  0.00  0.00     0.058 H 
ATOM     45  H   LIG d   1      11.181   2.512  -8.962  0.00  0.00     0.058 H 
ATOM     46  H   LIG d   1       9.198   3.388 -10.606  0.00  0.00     0.058 H 
ATOM     47  H   LIG d   1       9.035   3.592  -8.833  0.00  0.00     0.058 H 
ENDROOT
BRANCH  16  48
ATOM     48  C   LIG d   1       6.157   0.979  -8.080  0.00  0.00    -0.054 C 
ATOM     49  H   LIG d   1       5.794   0.266  -8.821  0.00  0.00     0.024 H 
ATOM     50  H   LIG d   1       5.503   0.964  -7.209  0.00  0.00     0.024 H 
ATOM     51  H   LIG d   1       6.163   1.980  -8.512  0.00  0.00     0.024 H 
ENDBRANCH  16  48
BRANCH   1  52
ATOM     52  C   LIG d   1       7.139  -1.509  -3.233  0.00  0.00    -0.056 C 
ATOM     53  H   LIG d   1       6.800  -1.700  -2.215  0.00  0.00     0.024 H 
ATOM     54  H   LIG d   1       7.456  -2.445  -3.692  0.00  0.00     0.024 H 
ATOM     55  H   LIG d   1       7.979  -0.813  -3.212  0.00  0.00     0.024 H 
ENDBRANCH   1  52
TORSDOF 2
ENDMDL
MODEL 3
REMARK VINA RESULT:      -5.9      3.136      4.078
REMARK  2 active torsions:
REMARK  status: ('A' for Active; 'I' for Inactive)
REMARK    1  A    between atoms: C_1  and  C_2 
REMARK    2  A    between atoms: C_17  and  C_27 
ROOT
ATOM      1  C   LIG d   1       6.064  -1.178  -3.798  0.00  0.00    -0.008 C 
ATOM      2  C   LIG d   1       6.048   0.281  -4.256  0.00  0.00    -0.042 C 
ATOM      3  C   LIG d   1       5.931   1.234  -3.070  0.00  0.00    -0.036 C 
ATOM      4  C   LIG d   1       4.642   0.960  -2.296  0.00  0.00     0.038 C 
ATOM      5  H   LIG d   1       4.543   1.683  -1.485  0.00  0.00     0.047 H 
ATOM      6  C   LIG d   1       4.696  -0.457  -1.716  0.00  0.00    -0.015 C 
ATOM      7  C   LIG d   1       4.910  -1.429  -2.862  0.00  0.00    -0.066 C 
ATOM      8  C   LIG d   1       4.078  -2.425  -2.979  0.00  0.00    -0.084 C 
ATOM      9  C   LIG d   1       4.154  -3.473  -4.058  0.00  0.00    -0.031 C 
ATOM     10  C   LIG d   1       5.586  -3.502  -4.583  0.00  0.00    -0.030 C 
ATOM     11  H   LIG d   1       6.242  -3.788  -3.738  0.00  0.00     0.031 H 
ATOM     12  C   LIG d   1       5.952  -2.080  -5.016  0.00  0.00    -0.029 C 
ATOM     13  H   LIG d   1       5.118  -1.670  -5.597  0.00  0.00     0.031 H 
ATOM     14  C   LIG d   1       7.185  -2.098  -5.900  0.00  0.00    -0.049 C 
ATOM     15  C   LIG d   1       6.852  -2.749  -7.255  0.00  0.00    -0.042 C 
ATOM     16  C   LIG d   1       5.780  -3.797  -7.094  0.00  0.00     0.025 C 
ATOM     17  C   LIG d   1       5.838  -4.461  -5.704  0.00  0.00    -0.027 C 
ATOM     18  H   LIG d   1       6.849  -4.901  -5.564  0.00  0.00     0.031 H 
ATOM     19  C   LIG d   1       4.852  -5.628  -5.864  0.00  0.00    -0.044 C 
ATOM     20  C   LIG d   1       5.187  -6.162  -7.285  0.00  0.00     0.002 C 
ATOM     21  C   LIG d   1       5.938  -5.025  -8.012  0.00  0.00     0.176 C 
ATOM     22  O   LIG d   1       7.314  -5.362  -8.185  0.00  0.00    -0.346 OA
ATOM     23  C   LIG d   1       7.437  -5.768  -9.570  0.00  0.00     0.074 C 
ATOM     24  C   LIG d   1       6.390  -4.861 -10.266  0.00  0.00     0.074 C 
ATOM     25  O   LIG d   1       5.337  -4.773  -9.283  0.00  0.00    -0.346 OA
ATOM     26 CL   LIG d   1       3.229   1.102  -3.405  0.00  0.00    -0.121 Cl
ATOM     27  H   LIG d   1       5.203   0.435  -4.933  0.00  0.00     0.027 H 
ATOM     28  H   LIG d   1       6.971   0.494  -4.801  0.00  0.00     0.027 H 
ATOM     29  H   LIG d   1       5.910   2.264  -3.442  0.00  0.00     0.028 H 
ATOM     30  H   LIG d   1       6.787   1.124  -2.408  0.00  0.00     0.028 H 
ATOM     31  H   LIG d   1       5.515  -0.530  -1.003  0.00  0.00     0.032 H 
ATOM     32  H   LIG d   1       3.753  -0.681  -1.214  0.00  0.00     0.032 H 
ATOM     33  H   LIG d   1       3.281  -2.506  -2.253  0.00  0.00     0.057 H 
ATOM     34  H   LIG d   1       3.458  -3.211  -4.853  0.00  0.00     0.031 H 
ATOM     35  H   LIG d   1       3.886  -4.443  -3.641  0.00  0.00     0.031 H 
ATOM     36  H   LIG d   1       7.531  -1.076  -6.074  0.00  0.00     0.027 H 
ATOM     37  H   LIG d   1       7.989  -2.665  -5.424  0.00  0.00     0.027 H 
ATOM     38  H   LIG d   1       7.758  -3.194  -7.678  0.00  0.00     0.027 H 
ATOM     39  H   LIG d   1       6.500  -1.972  -7.946  0.00  0.00     0.027 H 
ATOM     40  H   LIG d   1       5.047  -6.398  -5.114  0.00  0.00     0.027 H 
ATOM     41  H   LIG d   1       3.821  -5.293  -5.803  0.00  0.00     0.027 H 
ATOM     42  H   LIG d   1       4.270  -6.409  -7.818  0.00  0.00     0.032 H 
ATOM     43  H   LIG d   1       5.826  -7.043  -7.211  0.00  0.00     0.032 H 
ATOM     44  H   LIG d   1       7.182  -6.821  -9.693  0.00  0.00     0.058 H 
ATOM     45  H   LIG d   1       8.439  -5.565  -9.949  0.00  0.00     0.058 H 
ATOM     46  H   LIG d   1       6.026  -5.323 -11.183  0.00  0.00     0.058 H 
ATOM     47  H   LIG d   1       6.809  -3.875 -10.471  0.00  0.00     0.058 H 
ENDROOT
BRANCH  16  48
ATOM     48  C   LIG d   1       4.400  -3.204  -7.401  0.00  0.00    -0.054 C 
ATOM     49  H   LIG d   1       4.508  -2.386  -8.113  0.00  0.00     0.024 H 
ATOM     50  H   LIG d   1       3.760  -3.976  -7.828  0.00  0.00     0.024 H 
ATOM     51  H   LIG d   1       3.953  -2.830  -6.481  0.00  0.00     0.024 H 
ENDBRANCH  16  48
BRANCH   1  52
ATOM     52  C   LIG d   1       7.372  -1.463  -3.066  0.00  0.00    -0.056 C 
ATOM     53  H   LIG d   1       7.155  -1.875  -2.081  0.00  0.00     0.024 H 
ATOM     54  H   LIG d   1       7.960  -2.181  -3.638  0.00  0.00     0.024 H 
ATOM     55  H   LIG d   1       7.937  -0.536  -2.957  0.00  0.00     0.024 H 
ENDBRANCH   1  52
TORSDOF 2
ENDMDL
MODEL 4
REMARK VINA RESULT:      -5.9      4.605      6.918
REMARK  2 active torsions:
REMARK  status: ('A' for Active; 'I' for Inactive)
REMARK    1  A    between atoms: C_1  and  C_2 
REMARK    2  A    between atoms: C_17  and  C_27 
ROOT
ATOM      1  C   LIG d   1       9.661   1.960  -4.751  0.00  0.00    -0.008 C 
ATOM      2  C   LIG d   1      10.386   2.232  -3.433  0.00  0.00    -0.042 C 
ATOM      3  C   LIG d   1      11.710   2.952  -3.665  0.00  0.00    -0.036 C 
ATOM      4  C   LIG d   1      12.626   2.105  -4.550  0.00  0.00     0.038 C 
ATOM      5  H   LIG d   1      13.588   2.605  -4.663  0.00  0.00     0.047 H 
ATOM      6  C   LIG d   1      11.974   1.931  -5.925  0.00  0.00    -0.015 C 
ATOM      7  C   LIG d   1      10.606   1.303  -5.724  0.00  0.00    -0.066 C 
ATOM      8  C   LIG d   1      10.327   0.224  -6.399  0.00  0.00    -0.084 C 
ATOM      9  C   LIG d   1       9.018  -0.517  -6.313  0.00  0.00    -0.031 C 
ATOM     10  C   LIG d   1       7.962   0.457  -5.800  0.00  0.00    -0.030 C 
ATOM     11  H   LIG d   1       7.879   1.275  -6.541  0.00  0.00     0.031 H 
ATOM     12  C   LIG d   1       8.474   1.049  -4.484  0.00  0.00    -0.029 C 
ATOM     13  H   LIG d   1       8.874   0.234  -3.870  0.00  0.00     0.031 H 
ATOM     14  C   LIG d   1       7.337   1.707  -3.724  0.00  0.00    -0.049 C 
ATOM     15  C   LIG d   1       6.358   0.634  -3.210  0.00  0.00    -0.042 C 
ATOM     16  C   LIG d   1       6.320  -0.546  -4.148  0.00  0.00     0.025 C 
ATOM     17  C   LIG d   1       6.596  -0.123  -5.605  0.00  0.00    -0.027 C 
ATOM     18  H   LIG d   1       5.847   0.643  -5.899  0.00  0.00     0.031 H 
ATOM     19  C   LIG d   1       6.262  -1.407  -6.380  0.00  0.00    -0.044 C 
ATOM     20  C   LIG d   1       4.972  -1.906  -5.669  0.00  0.00     0.002 C 
ATOM     21  C   LIG d   1       4.936  -1.208  -4.292  0.00  0.00     0.176 C 
ATOM     22  O   LIG d   1       3.894  -0.233  -4.250  0.00  0.00    -0.346 OA
ATOM     23  C   LIG d   1       2.820  -0.853  -3.502  0.00  0.00     0.074 C 
ATOM     24  C   LIG d   1       3.598  -1.732  -2.490  0.00  0.00     0.074 C 
ATOM     25  O   LIG d   1       4.738  -2.173  -3.257  0.00  0.00    -0.346 OA
ATOM     26 CL   LIG d   1      12.872   0.488  -3.792  0.00  0.00    -0.121 Cl
ATOM     27  H   LIG d   1      10.571   1.282  -2.923  0.00  0.00     0.027 H 
ATOM     28  H   LIG d   1       9.747   2.848  -2.795  0.00  0.00     0.027 H 
ATOM     29  H   LIG d   1      12.202   3.115  -2.700  0.00  0.00     0.028 H 
ATOM     30  H   LIG d   1      11.541   3.919  -4.133  0.00  0.00     0.028 H 
ATOM     31  H   LIG d   1      11.874   2.901  -6.410  0.00  0.00     0.032 H 
ATOM     32  H   LIG d   1      12.592   1.276  -6.541  0.00  0.00     0.032 H 
ATOM     33  H   LIG d   1      11.083  -0.166  -7.067  0.00  0.00     0.057 H 
ATOM     34  H   LIG d   1       9.132  -1.355  -5.629  0.00  0.00     0.031 H 
ATOM     35  H   LIG d   1       8.743  -0.884  -7.301  0.00  0.00     0.031 H 
ATOM     36  H   LIG d   1       7.735   2.261  -2.869  0.00  0.00     0.027 H 
ATOM     37  H   LIG d   1       6.794   2.400  -4.370  0.00  0.00     0.027 H 
ATOM     38  H   LIG d   1       5.361   1.071  -3.108  0.00  0.00     0.027 H 
ATOM     39  H   LIG d   1       6.686   0.300  -2.217  0.00  0.00     0.027 H 
ATOM     40  H   LIG d   1       6.054  -1.177  -7.427  0.00  0.00     0.027 H 
ATOM     41  H   LIG d   1       7.060  -2.140  -6.305  0.00  0.00     0.027 H 
ATOM     42  H   LIG d   1       5.008  -2.987  -5.544  0.00  0.00     0.032 H 
ATOM     43  H   LIG d   1       4.093  -1.626  -6.252  0.00  0.00     0.032 H 
ATOM     44  H   LIG d   1       2.195  -1.467  -4.151  0.00  0.00     0.058 H 
ATOM     45  H   LIG d   1       2.222  -0.103  -2.984  0.00  0.00     0.058 H 
ATOM     46  H   LIG d   1       2.995  -2.582  -2.172  0.00  0.00     0.058 H 
ATOM     47  H   LIG d   1       3.917  -1.143  -1.630  0.00  0.00     0.058 H 
ENDROOT
BRANCH  16  48
ATOM     48  C   LIG d   1       7.275  -1.644  -3.667  0.00  0.00    -0.054 C 
ATOM     49  H   LIG d   1       8.079  -1.195  -3.084  0.00  0.00     0.024 H 
ATOM     50  H   LIG d   1       6.729  -2.354  -3.047  0.00  0.00     0.024 H 
ATOM     51  H   LIG d   1       7.695  -2.163  -4.529  0.00  0.00     0.024 H 
ENDBRANCH  16  48
BRANCH   1  52
ATOM     52  C   LIG d   1       9.174   3.280  -5.342  0.00  0.00    -0.056 C 
ATOM     53  H   LIG d   1       9.235   4.061  -4.584  0.00  0.00     0.024 H 
ATOM     54  H   LIG d   1       9.799   3.549  -6.193  0.00  0.00     0.024 H 
ATOM     55  H   LIG d   1       8.140   3.171  -5.670  0.00  0.00     0.024 H 
ENDBRANCH   1  52
TORSDOF 2
ENDMDL
MODEL 5
REMARK VINA RESULT:      -5.9      3.168      6.582
REMARK  2 active torsions:
REMARK  status: ('A' for Active; 'I' for Inactive)
REMARK    1  A    between atoms: C_1  and  C_2 
REMARK    2  A    between atoms: C_17  and  C_27 
ROOT
ATOM      1  C   LIG d   1       4.188  -0.067 -10.242  0.00  0.00    -0.008 C 
ATOM      2  C   LIG d   1       5.176  -0.903 -11.057  0.00  0.00    -0.042 C 
ATOM      3  C   LIG d   1       4.813  -0.907 -12.538  0.00  0.00    -0.036 C 
ATOM      4  C   LIG d   1       3.413  -1.488 -12.739  0.00  0.00     0.038 C 
ATOM      5  H   LIG d   1       3.188  -1.535 -13.804  0.00  0.00     0.047 H 
ATOM      6  C   LIG d   1       2.390  -0.588 -12.038  0.00  0.00    -0.015 C 
ATOM      7  C   LIG d   1       2.778  -0.483 -10.574  0.00  0.00    -0.066 C 
ATOM      8  C   LIG d   1       1.870  -0.765  -9.682  0.00  0.00    -0.084 C 
ATOM      9  C   LIG d   1       2.096  -0.709  -8.194  0.00  0.00    -0.031 C 
ATOM     10  C   LIG d   1       3.276   0.223  -7.934  0.00  0.00    -0.030 C 
ATOM     11  H   LIG d   1       2.993   1.226  -8.307  0.00  0.00     0.031 H 
ATOM     12  C   LIG d   1       4.460  -0.283  -8.762  0.00  0.00    -0.029 C 
ATOM     13  H   LIG d   1       4.528  -1.370  -8.642  0.00  0.00     0.031 H 
ATOM     14  C   LIG d   1       5.754   0.334  -8.265  0.00  0.00    -0.049 C 
ATOM     15  C   LIG d   1       6.102  -0.223  -6.872  0.00  0.00    -0.042 C 
ATOM     16  C   LIG d   1       4.848  -0.557  -6.103  0.00  0.00     0.025 C 
ATOM     17  C   LIG d   1       3.676   0.364  -6.499  0.00  0.00    -0.027 C 
ATOM     18  H   LIG d   1       3.981   1.418  -6.324  0.00  0.00     0.031 H 
ATOM     19  C   LIG d   1       2.622   0.014  -5.438  0.00  0.00    -0.044 C 
ATOM     20  C   LIG d   1       3.470  -0.090  -4.139  0.00  0.00     0.002 C 
ATOM     21  C   LIG d   1       4.933  -0.290  -4.588  0.00  0.00     0.176 C 
ATOM     22  O   LIG d   1       5.706   0.879  -4.317  0.00  0.00    -0.346 OA
ATOM     23  C   LIG d   1       6.465   0.567  -3.123  0.00  0.00     0.074 C 
ATOM     24  C   LIG d   1       6.719  -0.953  -3.292  0.00  0.00     0.074 C 
ATOM     25  O   LIG d   1       5.504  -1.415  -3.918  0.00  0.00    -0.346 OA
ATOM     26 CL   LIG d   1       3.340  -3.144 -12.032  0.00  0.00    -0.121 Cl
ATOM     27  H   LIG d   1       5.175  -1.930 -10.678  0.00  0.00     0.027 H 
ATOM     28  H   LIG d   1       6.181  -0.490 -10.932  0.00  0.00     0.027 H 
ATOM     29  H   LIG d   1       5.535  -1.525 -13.081  0.00  0.00     0.028 H 
ATOM     30  H   LIG d   1       4.852   0.103 -12.942  0.00  0.00     0.028 H 
ATOM     31  H   LIG d   1       2.393   0.398 -12.499  0.00  0.00     0.032 H 
ATOM     32  H   LIG d   1       1.397  -1.030 -12.125  0.00  0.00     0.032 H 
ATOM     33  H   LIG d   1       0.891  -1.058 -10.033  0.00  0.00     0.057 H 
ATOM     34  H   LIG d   1       2.311  -1.712  -7.832  0.00  0.00     0.031 H 
ATOM     35  H   LIG d   1       1.200  -0.326  -7.706  0.00  0.00     0.031 H 
ATOM     36  H   LIG d   1       6.567   0.095  -8.956  0.00  0.00     0.027 H 
ATOM     37  H   LIG d   1       5.659   1.420  -8.197  0.00  0.00     0.027 H 
ATOM     38  H   LIG d   1       6.699   0.511  -6.325  0.00  0.00     0.027 H 
ATOM     39  H   LIG d   1       6.707  -1.131  -6.994  0.00  0.00     0.027 H 
ATOM     40  H   LIG d   1       1.888   0.818  -5.350  0.00  0.00     0.027 H 
ATOM     41  H   LIG d   1       2.127  -0.927  -5.660  0.00  0.00     0.027 H 
ATOM     42  H   LIG d   1       3.138  -0.939  -3.543  0.00  0.00     0.032 H 
ATOM     43  H   LIG d   1       3.379   0.831  -3.561  0.00  0.00     0.032 H 
ATOM     44  H   LIG d   1       5.880   0.766  -2.225  0.00  0.00     0.058 H 
ATOM     45  H   LIG d   1       7.406   1.117  -3.103  0.00  0.00     0.058 H 
ATOM     46  H   LIG d   1       6.861  -1.432  -2.323  0.00  0.00     0.058 H 
ATOM     47  H   LIG d   1       7.578  -1.132  -3.939  0.00  0.00     0.058 H 
ENDROOT
BRANCH  16  48
ATOM     48  C   LIG d   1       4.502  -2.042  -6.260  0.00  0.00    -0.054 C 
ATOM     49  H   LIG d   1       3.434  -2.185  -6.097  0.00  0.00     0.024 H 
ATOM     50  H   LIG d   1       4.764  -2.372  -7.265  0.00  0.00     0.024 H 
ATOM     51  H   LIG d   1       5.063  -2.624  -5.529  0.00  0.00     0.024 H 
ENDBRANCH  16  48
BRANCH   1  52
ATOM     52  C   LIG d   1       4.369   1.407 -10.589  0.00  0.00    -0.056 C 
ATOM     53  H   LIG d   1       5.364   1.732 -10.287  0.00  0.00     0.024 H 
ATOM     54  H   LIG d   1       4.252   1.545 -11.663  0.00  0.00     0.024 H 
ATOM     55  H   LIG d   1       3.619   1.999 -10.063  0.00  0.00     0.024 H 
ENDBRANCH   1  52
TORSDOF 2
ENDMDL
MODEL 6
REMARK VINA RESULT:      -5.8      4.437      6.836
REMARK  2 active torsions:
REMARK  status: ('A' for Active; 'I' for Inactive)
REMARK    1  A    between atoms: C_1  and  C_2 
REMARK    2  A    between atoms: C_17  and  C_27 
ROOT
ATOM      1  C   LIG d   1       7.703  -4.903  -5.653  0.00  0.00    -0.008 C 
ATOM      2  C   LIG d   1       8.228  -5.823  -4.550  0.00  0.00    -0.042 C 
ATOM      3  C   LIG d   1       8.875  -7.075  -5.132  0.00  0.00    -0.036 C 
ATOM      4  C   LIG d   1       7.862  -7.857  -5.967  0.00  0.00     0.038 C 
ATOM      5  H   LIG d   1       8.321  -8.776  -6.331  0.00  0.00     0.047 H 
ATOM      6  C   LIG d   1       7.420  -6.998  -7.156  0.00  0.00    -0.015 C 
ATOM      7  C   LIG d   1       6.857  -5.696  -6.615  0.00  0.00    -0.066 C 
ATOM      8  C   LIG d   1       5.666  -5.339  -7.008  0.00  0.00    -0.084 C 
ATOM      9  C   LIG d   1       4.968  -4.079  -6.565  0.00  0.00    -0.031 C 
ATOM     10  C   LIG d   1       6.034  -3.095  -6.092  0.00  0.00    -0.030 C 
ATOM     11  H   LIG d   1       6.688  -2.875  -6.958  0.00  0.00     0.031 H 
ATOM     12  C   LIG d   1       6.873  -3.797  -5.021  0.00  0.00    -0.029 C 
ATOM     13  H   LIG d   1       6.195  -4.310  -4.330  0.00  0.00     0.031 H 
ATOM     14  C   LIG d   1       7.679  -2.780  -4.232  0.00  0.00    -0.049 C 
ATOM     15  C   LIG d   1       6.739  -1.923  -3.364  0.00  0.00    -0.042 C 
ATOM     16  C   LIG d   1       5.395  -1.765  -4.030  0.00  0.00     0.025 C 
ATOM     17  C   LIG d   1       5.515  -1.794  -5.567  0.00  0.00    -0.027 C 
ATOM     18  H   LIG d   1       6.212  -0.988  -5.882  0.00  0.00     0.031 H 
ATOM     19  C   LIG d   1       4.105  -1.371  -6.006  0.00  0.00    -0.044 C 
ATOM     20  C   LIG d   1       3.769  -0.225  -5.011  0.00  0.00     0.002 C 
ATOM     21  C   LIG d   1       4.729  -0.393  -3.813  0.00  0.00     0.176 C 
ATOM     22  O   LIG d   1       5.701   0.653  -3.798  0.00  0.00    -0.346 OA
ATOM     23  C   LIG d   1       5.252   1.578  -2.778  0.00  0.00     0.074 C 
ATOM     24  C   LIG d   1       4.587   0.626  -1.750  0.00  0.00     0.074 C 
ATOM     25  O   LIG d   1       3.992  -0.387  -2.589  0.00  0.00    -0.346 OA
ATOM     26 CL   LIG d   1       6.427  -8.261  -4.953  0.00  0.00    -0.121 Cl
ATOM     27  H   LIG d   1       7.398  -6.111  -3.898  0.00  0.00     0.027 H 
ATOM     28  H   LIG d   1       8.964  -5.279  -3.952  0.00  0.00     0.027 H 
ATOM     29  H   LIG d   1       9.225  -7.710  -4.311  0.00  0.00     0.028 H 
ATOM     30  H   LIG d   1       9.731  -6.808  -5.750  0.00  0.00     0.028 H 
ATOM     31  H   LIG d   1       8.274  -6.798  -7.801  0.00  0.00     0.032 H 
ATOM     32  H   LIG d   1       6.651  -7.526  -7.721  0.00  0.00     0.032 H 
ATOM     33  H   LIG d   1       5.145  -5.988  -7.698  0.00  0.00     0.057 H 
ATOM     34  H   LIG d   1       4.283  -4.323  -5.755  0.00  0.00     0.031 H 
ATOM     35  H   LIG d   1       4.413  -3.659  -7.402  0.00  0.00     0.031 H 
ATOM     36  H   LIG d   1       8.390  -3.297  -3.582  0.00  0.00     0.027 H 
ATOM     37  H   LIG d   1       8.233  -2.124  -4.907  0.00  0.00     0.027 H 
ATOM     38  H   LIG d   1       7.195  -0.945  -3.191  0.00  0.00     0.027 H 
ATOM     39  H   LIG d   1       6.608  -2.415  -2.391  0.00  0.00     0.027 H 
ATOM     40  H   LIG d   1       4.122  -0.992  -7.030  0.00  0.00     0.027 H 
ATOM     41  H   LIG d   1       3.395  -2.189  -5.917  0.00  0.00     0.027 H 
ATOM     42  H   LIG d   1       2.734  -0.307  -4.680  0.00  0.00     0.032 H 
ATOM     43  H   LIG d   1       3.933   0.743  -5.488  0.00  0.00     0.032 H 
ATOM     44  H   LIG d   1       4.525   2.283  -3.181  0.00  0.00     0.058 H 
ATOM     45  H   LIG d   1       6.095   2.104  -2.329  0.00  0.00     0.058 H 
ATOM     46  H   LIG d   1       3.823   1.149  -1.176  0.00  0.00     0.058 H 
ATOM     47  H   LIG d   1       5.334   0.188  -1.088  0.00  0.00     0.058 H 
ENDROOT
BRANCH  16  48
ATOM     48  C   LIG d   1       4.408  -2.811  -3.501  0.00  0.00    -0.054 C 
ATOM     49  H   LIG d   1       4.266  -3.588  -4.253  0.00  0.00     0.024 H 
ATOM     50  H   LIG d   1       4.804  -3.256  -2.589  0.00  0.00     0.024 H 
ATOM     51  H   LIG d   1       3.452  -2.333  -3.287  0.00  0.00     0.024 H 
ENDBRANCH  16  48
BRANCH   1  52
ATOM     52  C   LIG d   1       8.881  -4.295  -6.407  0.00  0.00    -0.056 C 
ATOM     53  H   LIG d   1       8.510  -3.648  -7.201  0.00  0.00     0.024 H 
ATOM     54  H   LIG d   1       9.492  -3.712  -5.718  0.00  0.00     0.024 H 
ATOM     55  H   LIG d   1       9.485  -5.094  -6.841  0.00  0.00     0.024 H 
ENDBRANCH   1  52
TORSDOF 2
ENDMDL
MODEL 7
REMARK VINA RESULT:      -5.8      3.745      5.147
REMARK  2 active torsions:
REMARK  status: ('A' for Active; 'I' for Inactive)
REMARK    1  A    between atoms: C_1  and  C_2 
REMARK    2  A    between atoms: C_17  and  C_27 
ROOT
ATOM      1  C   LIG d   1       5.314  -1.860  -4.055  0.00  0.00    -0.008 C 
ATOM      2  C   LIG d   1       5.438  -1.458  -2.584  0.00  0.00    -0.042 C 
ATOM      3  C   LIG d   1       4.072  -1.174  -1.968  0.00  0.00    -0.036 C 
ATOM      4  C   LIG d   1       3.379  -0.037  -2.718  0.00  0.00     0.038 C 
ATOM      5  H   LIG d   1       2.429   0.193  -2.235  0.00  0.00     0.047 H 
ATOM      6  C   LIG d   1       3.126  -0.471  -4.166  0.00  0.00    -0.015 C 
ATOM      7  C   LIG d   1       4.458  -0.856  -4.784  0.00  0.00    -0.066 C 
ATOM      8  C   LIG d   1       4.793  -0.291  -5.909  0.00  0.00    -0.084 C 
ATOM      9  C   LIG d   1       6.077  -0.564  -6.648  0.00  0.00    -0.031 C 
ATOM     10  C   LIG d   1       6.593  -1.929  -6.200  0.00  0.00    -0.030 C 
ATOM     11  H   LIG d   1       5.831  -2.680  -6.485  0.00  0.00     0.031 H 
ATOM     12  C   LIG d   1       6.701  -1.907  -4.673  0.00  0.00    -0.029 C 
ATOM     13  H   LIG d   1       7.178  -0.967  -4.373  0.00  0.00     0.031 H 
ATOM     14  C   LIG d   1       7.566  -3.057  -4.189  0.00  0.00    -0.049 C 
ATOM     15  C   LIG d   1       9.032  -2.822  -4.598  0.00  0.00    -0.042 C 
ATOM     16  C   LIG d   1       9.107  -2.052  -5.893  0.00  0.00     0.025 C 
ATOM     17  C   LIG d   1       7.897  -2.348  -6.801  0.00  0.00    -0.027 C 
ATOM     18  H   LIG d   1       7.857  -3.442  -6.991  0.00  0.00     0.031 H 
ATOM     19  C   LIG d   1       8.313  -1.674  -8.118  0.00  0.00    -0.044 C 
ATOM     20  C   LIG d   1       9.817  -2.053  -8.233  0.00  0.00     0.002 C 
ATOM     21  C   LIG d   1      10.273  -2.458  -6.814  0.00  0.00     0.176 C 
ATOM     22  O   LIG d   1      10.514  -3.864  -6.747  0.00  0.00    -0.346 OA
ATOM     23  C   LIG d   1      11.955  -4.008  -6.803  0.00  0.00     0.074 C 
ATOM     24  C   LIG d   1      12.435  -2.733  -6.063  0.00  0.00     0.074 C 
ATOM     25  O   LIG d   1      11.459  -1.746  -6.457  0.00  0.00    -0.346 OA
ATOM     26 CL   LIG d   1       4.431   1.426  -2.705  0.00  0.00    -0.121 Cl
ATOM     27  H   LIG d   1       6.066  -0.566  -2.508  0.00  0.00     0.027 H 
ATOM     28  H   LIG d   1       5.922  -2.269  -2.033  0.00  0.00     0.027 H 
ATOM     29  H   LIG d   1       4.207  -0.879  -0.922  0.00  0.00     0.028 H 
ATOM     30  H   LIG d   1       3.449  -2.066  -1.997  0.00  0.00     0.028 H 
ATOM     31  H   LIG d   1       2.445  -1.321  -4.180  0.00  0.00     0.032 H 
ATOM     32  H   LIG d   1       2.687   0.358  -4.723  0.00  0.00     0.032 H 
ATOM     33  H   LIG d   1       4.104   0.421  -6.343  0.00  0.00     0.057 H 
ATOM     34  H   LIG d   1       6.795   0.217  -6.407  0.00  0.00     0.031 H 
ATOM     35  H   LIG d   1       5.884  -0.568  -7.720  0.00  0.00     0.031 H 
ATOM     36  H   LIG d   1       7.509  -3.129  -3.100  0.00  0.00     0.027 H 
ATOM     37  H   LIG d   1       7.225  -4.001  -4.622  0.00  0.00     0.027 H 
ATOM     38  H   LIG d   1       9.540  -3.785  -4.698  0.00  0.00     0.027 H 
ATOM     39  H   LIG d   1       9.534  -2.252  -3.806  0.00  0.00     0.027 H 
ATOM     40  H   LIG d   1       7.751  -2.093  -8.955  0.00  0.00     0.027 H 
ATOM     41  H   LIG d   1       8.181  -0.597  -8.076  0.00  0.00     0.027 H 
ATOM     42  H   LIG d   1      10.392  -1.198  -8.584  0.00  0.00     0.032 H 
ATOM     43  H   LIG d   1       9.938  -2.893  -8.918  0.00  0.00     0.032 H 
ATOM     44  H   LIG d   1      12.307  -4.014  -7.835  0.00  0.00     0.058 H 
ATOM     45  H   LIG d   1      12.278  -4.906  -6.277  0.00  0.00     0.058 H 
ATOM     46  H   LIG d   1      13.432  -2.445  -6.395  0.00  0.00     0.058 H 
ATOM     47  H   LIG d   1      12.417  -2.883  -4.983  0.00  0.00     0.058 H 
ENDROOT
BRANCH  16  48
ATOM     48  C   LIG d   1       9.278  -0.554  -5.617  0.00  0.00    -0.054 C 
ATOM     49  H   LIG d   1      10.332  -0.289  -5.697  0.00  0.00     0.024 H 
ATOM     50  H   LIG d   1       8.703   0.017  -6.344  0.00  0.00     0.024 H 
ATOM     51  H   LIG d   1       8.921  -0.327  -4.612  0.00  0.00     0.024 H 
ENDBRANCH  16  48
BRANCH   1  52
ATOM     52  C   LIG d   1       4.661  -3.235  -4.149  0.00  0.00    -0.056 C 
ATOM     53  H   LIG d   1       3.640  -3.180  -3.772  0.00  0.00     0.024 H 
ATOM     54  H   LIG d   1       4.647  -3.560  -5.189  0.00  0.00     0.024 H 
ATOM     55  H   LIG d   1       5.231  -3.949  -3.553  0.00  0.00     0.024 H 
ENDBRANCH   1  52
TORSDOF 2
ENDMDL
MODEL 8
REMARK VINA RESULT:      -5.8      4.476      6.741
REMARK  2 active torsions:
REMARK  status: ('A' for Active; 'I' for Inactive)
REMARK    1  A    between atoms: C_1  and  C_2 
REMARK    2  A    between atoms: C_17  and  C_27 
ROOT
ATOM      1  C   LIG d   1       9.007  -3.852  -4.398  0.00  0.00    -0.008 C 
ATOM      2  C   LIG d   1       9.237  -4.654  -3.117  0.00  0.00    -0.042 C 
ATOM      3  C   LIG d   1      10.449  -5.571  -3.246  0.00  0.00    -0.036 C 
ATOM      4  C   LIG d   1      10.249  -6.556  -4.398  0.00  0.00     0.038 C 
ATOM      5  H   LIG d   1      11.097  -7.240  -4.444  0.00  0.00     0.047 H 
ATOM      6  C   LIG d   1      10.147  -5.776  -5.713  0.00  0.00    -0.015 C 
ATOM      7  C   LIG d   1       9.007  -4.781  -5.585  0.00  0.00    -0.066 C 
ATOM      8  C   LIG d   1       8.086  -4.790  -6.507  0.00  0.00    -0.084 C 
ATOM      9  C   LIG d   1       6.894  -3.869  -6.525  0.00  0.00    -0.031 C 
ATOM     10  C   LIG d   1       7.237  -2.644  -5.683  0.00  0.00    -0.030 C 
ATOM     11  H   LIG d   1       8.101  -2.145  -6.162  0.00  0.00     0.031 H 
ATOM     12  C   LIG d   1       7.670  -3.136  -4.300  0.00  0.00    -0.029 C 
ATOM     13  H   LIG d   1       6.961  -3.902  -3.967  0.00  0.00     0.031 H 
ATOM     14  C   LIG d   1       7.642  -1.993  -3.301  0.00  0.00    -0.049 C 
ATOM     15  C   LIG d   1       6.187  -1.569  -3.027  0.00  0.00    -0.042 C 
ATOM     16  C   LIG d   1       5.329  -1.789  -4.247  0.00  0.00     0.025 C 
ATOM     17  C   LIG d   1       6.141  -1.633  -5.549  0.00  0.00    -0.027 C 
ATOM     18  H   LIG d   1       6.598  -0.621  -5.561  0.00  0.00     0.031 H 
ATOM     19  C   LIG d   1       5.038  -1.647  -6.618  0.00  0.00    -0.044 C 
ATOM     20  C   LIG d   1       3.929  -0.768  -5.973  0.00  0.00     0.002 C 
ATOM     21  C   LIG d   1       4.229  -0.730  -4.458  0.00  0.00     0.176 C 
ATOM     22  O   LIG d   1       4.684   0.566  -4.069  0.00  0.00    -0.346 OA
ATOM     23  C   LIG d   1       3.543   1.197  -3.438  0.00  0.00     0.074 C 
ATOM     24  C   LIG d   1       2.835  -0.010  -2.771  0.00  0.00     0.074 C 
ATOM     25  O   LIG d   1       3.059  -1.077  -3.717  0.00  0.00    -0.346 OA
ATOM     26 CL   LIG d   1       8.732  -7.492  -4.135  0.00  0.00    -0.121 Cl
ATOM     27  H   LIG d   1       8.347  -5.254  -2.904  0.00  0.00     0.027 H 
ATOM     28  H   LIG d   1       9.394  -3.961  -2.286  0.00  0.00     0.027 H 
ATOM     29  H   LIG d   1      10.570  -6.135  -2.314  0.00  0.00     0.028 H 
ATOM     30  H   LIG d   1      11.352  -4.987  -3.415  0.00  0.00     0.028 H 
ATOM     31  H   LIG d   1      11.083  -5.253  -5.902  0.00  0.00     0.032 H 
ATOM     32  H   LIG d   1       9.943  -6.468  -6.531  0.00  0.00     0.032 H 
ATOM     33  H   LIG d   1       8.184  -5.504  -7.313  0.00  0.00     0.057 H 
ATOM     34  H   LIG d   1       6.037  -4.395  -6.109  0.00  0.00     0.031 H 
ATOM     35  H   LIG d   1       6.681  -3.573  -7.551  0.00  0.00     0.031 H 
ATOM     36  H   LIG d   1       8.101  -2.313  -2.361  0.00  0.00     0.027 H 
ATOM     37  H   LIG d   1       8.194  -1.133  -3.687  0.00  0.00     0.027 H 
ATOM     38  H   LIG d   1       6.165  -0.517  -2.731  0.00  0.00     0.027 H 
ATOM     39  H   LIG d   1       5.794  -2.166  -2.193  0.00  0.00     0.027 H 
ATOM     40  H   LIG d   1       5.396  -1.188  -7.542  0.00  0.00     0.027 H 
ATOM     41  H   LIG d   1       4.678  -2.654  -6.810  0.00  0.00     0.027 H 
ATOM     42  H   LIG d   1       2.950  -1.209  -6.152  0.00  0.00     0.032 H 
ATOM     43  H   LIG d   1       3.967   0.241  -6.386  0.00  0.00     0.032 H 
ATOM     44  H   LIG d   1       2.896   1.666  -4.179  0.00  0.00     0.058 H 
ATOM     45  H   LIG d   1       3.863   1.921  -2.688  0.00  0.00     0.058 H 
ATOM     46  H   LIG d   1       1.770   0.184  -2.652  0.00  0.00     0.058 H 
ATOM     47  H   LIG d   1       3.293  -0.244  -1.810  0.00  0.00     0.058 H 
ENDROOT
BRANCH  16  48
ATOM     48  C   LIG d   1       4.614  -3.142  -4.163  0.00  0.00    -0.054 C 
ATOM     49  H   LIG d   1       4.350  -3.476  -5.167  0.00  0.00     0.024 H 
ATOM     50  H   LIG d   1       5.274  -3.873  -3.698  0.00  0.00     0.024 H 
ATOM     51  H   LIG d   1       3.708  -3.037  -3.565  0.00  0.00     0.024 H 
ENDBRANCH  16  48
BRANCH   1  52
ATOM     52  C   LIG d   1      10.127  -2.831  -4.563  0.00  0.00    -0.056 C 
ATOM     53  H   LIG d   1      10.709  -2.777  -3.643  0.00  0.00     0.024 H 
ATOM     54  H   LIG d   1      10.775  -3.131  -5.386  0.00  0.00     0.024 H 
ATOM     55  H   LIG d   1       9.697  -1.851  -4.779  0.00  0.00     0.024 H 
ENDBRANCH   1  52
TORSDOF 2
ENDMDL
MODEL 9
REMARK VINA RESULT:      -5.7      3.476      5.210
REMARK  2 active torsions:
REMARK  status: ('A' for Active; 'I' for Inactive)
REMARK    1  A    between atoms: C_1  and  C_2 
REMARK    2  A    between atoms: C_17  and  C_27 
ROOT
ATOM      1  C   LIG d   1       5.327  -1.421  -5.199  0.00  0.00    -0.008 C 
ATOM      2  C   LIG d   1       3.960  -0.986  -4.669  0.00  0.00    -0.042 C 
ATOM      3  C   LIG d   1       4.063   0.302  -3.858  0.00  0.00    -0.036 C 
ATOM      4  C   LIG d   1       4.998   0.104  -2.665  0.00  0.00     0.038 C 
ATOM      5  H   LIG d   1       5.020   1.013  -2.064  0.00  0.00     0.047 H 
ATOM      6  C   LIG d   1       6.408  -0.205  -3.179  0.00  0.00    -0.015 C 
ATOM      7  C   LIG d   1       6.328  -1.429  -4.073  0.00  0.00    -0.066 C 
ATOM      8  C   LIG d   1       7.127  -2.426  -3.813  0.00  0.00    -0.084 C 
ATOM      9  C   LIG d   1       7.170  -3.708  -4.603  0.00  0.00    -0.031 C 
ATOM     10  C   LIG d   1       6.596  -3.424  -5.987  0.00  0.00    -0.030 C 
ATOM     11  H   LIG d   1       7.246  -2.668  -6.467  0.00  0.00     0.031 H 
ATOM     12  C   LIG d   1       5.205  -2.813  -5.798  0.00  0.00    -0.029 C 
ATOM     13  H   LIG d   1       4.668  -3.400  -5.044  0.00  0.00     0.031 H 
ATOM     14  C   LIG d   1       4.421  -2.872  -7.096  0.00  0.00    -0.049 C 
ATOM     15  C   LIG d   1       4.064  -4.332  -7.429  0.00  0.00    -0.042 C 
ATOM     16  C   LIG d   1       5.126  -5.271  -6.913  0.00  0.00     0.025 C 
ATOM     17  C   LIG d   1       6.516  -4.606  -6.902  0.00  0.00    -0.027 C 
ATOM     18  H   LIG d   1       6.754  -4.265  -7.932  0.00  0.00     0.031 H 
ATOM     19  C   LIG d   1       7.438  -5.796  -6.593  0.00  0.00    -0.044 C 
ATOM     20  C   LIG d   1       6.835  -6.929  -7.471  0.00  0.00     0.002 C 
ATOM     21  C   LIG d   1       5.392  -6.495  -7.811  0.00  0.00     0.176 C 
ATOM     22  O   LIG d   1       5.285  -6.150  -9.193  0.00  0.00    -0.346 OA
ATOM     23  C   LIG d   1       4.649  -7.289  -9.823  0.00  0.00     0.074 C 
ATOM     24  C   LIG d   1       3.710  -7.796  -8.699  0.00  0.00     0.074 C 
ATOM     25  O   LIG d   1       4.477  -7.546  -7.502  0.00  0.00    -0.346 OA
ATOM     26 CL   LIG d   1       4.412  -1.271  -1.659  0.00  0.00    -0.121 Cl
ATOM     27  H   LIG d   1       3.549  -1.781  -4.040  0.00  0.00     0.027 H 
ATOM     28  H   LIG d   1       3.283  -0.828  -5.513  0.00  0.00     0.027 H 
ATOM     29  H   LIG d   1       3.067   0.570  -3.487  0.00  0.00     0.028 H 
ATOM     30  H   LIG d   1       4.429   1.116  -4.480  0.00  0.00     0.028 H 
ATOM     31  H   LIG d   1       6.788   0.647  -3.742  0.00  0.00     0.032 H 
ATOM     32  H   LIG d   1       7.068  -0.408  -2.334  0.00  0.00     0.032 H 
ATOM     33  H   LIG d   1       7.803  -2.327  -2.975  0.00  0.00     0.057 H 
ATOM     34  H   LIG d   1       6.577  -4.460  -4.087  0.00  0.00     0.031 H 
ATOM     35  H   LIG d   1       8.202  -4.047  -4.686  0.00  0.00     0.031 H 
ATOM     36  H   LIG d   1       3.497  -2.295  -6.996  0.00  0.00     0.027 H 
ATOM     37  H   LIG d   1       5.008  -2.455  -7.917  0.00  0.00     0.027 H 
ATOM     38  H   LIG d   1       3.953  -4.441  -8.512  0.00  0.00     0.027 H 
ATOM     39  H   LIG d   1       3.102  -4.578  -6.962  0.00  0.00     0.027 H 
ATOM     40  H   LIG d   1       8.461  -5.577  -6.906  0.00  0.00     0.027 H 
ATOM     41  H   LIG d   1       7.412  -6.060  -5.540  0.00  0.00     0.027 H 
ATOM     42  H   LIG d   1       6.826  -7.867  -6.917  0.00  0.00     0.032 H 
ATOM     43  H   LIG d   1       7.417  -7.040  -8.387  0.00  0.00     0.032 H 
ATOM     44  H   LIG d   1       5.384  -8.049 -10.088  0.00  0.00     0.058 H 
ATOM     45  H   LIG d   1       4.076  -6.982 -10.697  0.00  0.00     0.058 H 
ATOM     46  H   LIG d   1       3.508  -8.860  -8.813  0.00  0.00     0.058 H 
ATOM     47  H   LIG d   1       2.780  -7.227  -8.686  0.00  0.00     0.058 H 
ENDROOT
BRANCH  16  48
ATOM     48  C   LIG d   1       4.730  -5.824  -5.539  0.00  0.00    -0.054 C 
ATOM     49  H   LIG d   1       3.680  -6.115  -5.554  0.00  0.00     0.024 H 
ATOM     50  H   LIG d   1       5.345  -6.692  -5.307  0.00  0.00     0.024 H 
ATOM     51  H   LIG d   1       4.885  -5.056  -4.781  0.00  0.00     0.024 H 
ENDBRANCH  16  48
BRANCH   1  52
ATOM     52  C   LIG d   1       5.788  -0.439  -6.271  0.00  0.00    -0.056 C 
ATOM     53  H   LIG d   1       6.787  -0.077  -6.027  0.00  0.00     0.024 H 
ATOM     54  H   LIG d   1       5.810  -0.940  -7.238  0.00  0.00     0.024 H 
ATOM     55  H   LIG d   1       5.097   0.404  -6.314  0.00  0.00     0.024 H 
ENDBRANCH   1  52
TORSDOF 2
ENDMDL
MODEL 10
REMARK VINA RESULT:      -5.6      2.213      3.062
REMARK  2 active torsions:
REMARK  status: ('A' for Active; 'I' for Inactive)
REMARK    1  A    between atoms: C_1  and  C_2 
REMARK    2  A    between atoms: C_17  and  C_27 
ROOT
ATOM      1  C   LIG d   1       5.753  -2.971  -5.477  0.00  0.00    -0.008 C 
ATOM      2  C   LIG d   1       6.863  -3.927  -5.919  0.00  0.00    -0.042 C 
ATOM      3  C   LIG d   1       7.679  -4.420  -4.729  0.00  0.00    -0.036 C 
ATOM      4  C   LIG d   1       8.324  -3.239  -4.003  0.00  0.00     0.038 C 
ATOM      5  H   LIG d   1       8.948  -3.608  -3.189  0.00  0.00     0.047 H 
ATOM      6  C   LIG d   1       7.224  -2.335  -3.437  0.00  0.00    -0.015 C 
ATOM      7  C   LIG d   1       6.331  -1.902  -4.585  0.00  0.00    -0.066 C 
ATOM      8  C   LIG d   1       6.117  -0.626  -4.742  0.00  0.00    -0.084 C 
ATOM      9  C   LIG d   1       5.257  -0.036  -5.829  0.00  0.00    -0.031 C 
ATOM     10  C   LIG d   1       4.293  -1.119  -6.303  0.00  0.00    -0.030 C 
ATOM     11  H   LIG d   1       3.661  -1.400  -5.439  0.00  0.00     0.031 H 
ATOM     12  C   LIG d   1       5.125  -2.338  -6.708  0.00  0.00    -0.029 C 
ATOM     13  H   LIG d   1       5.972  -1.995  -7.314  0.00  0.00     0.031 H 
ATOM     14  C   LIG d   1       4.293  -3.290  -7.548  0.00  0.00    -0.049 C 
ATOM     15  C   LIG d   1       3.997  -2.659  -8.921  0.00  0.00    -0.042 C 
ATOM     16  C   LIG d   1       3.905  -1.158  -8.809  0.00  0.00     0.025 C 
ATOM     17  C   LIG d   1       3.385  -0.722  -7.424  0.00  0.00    -0.027 C 
ATOM     18  H   LIG d   1       2.394  -1.195  -7.254  0.00  0.00     0.031 H 
ATOM     19  C   LIG d   1       3.141   0.781  -7.632  0.00  0.00    -0.044 C 
ATOM     20  C   LIG d   1       2.497   0.827  -9.046  0.00  0.00     0.002 C 
ATOM     21  C   LIG d   1       2.858  -0.508  -9.734  0.00  0.00     0.176 C 
ATOM     22  O   LIG d   1       1.702  -1.335  -9.861  0.00  0.00    -0.346 OA
ATOM     23  C   LIG d   1       1.293  -1.210 -11.245  0.00  0.00     0.074 C 
ATOM     24  C   LIG d   1       2.653  -1.033 -11.968  0.00  0.00     0.074 C 
ATOM     25  O   LIG d   1       3.421  -0.260 -11.023  0.00  0.00    -0.346 OA
ATOM     26 CL   LIG d   1       9.337  -2.299  -5.161  0.00  0.00    -0.121 Cl
ATOM     27  H   LIG d   1       7.521  -3.410  -6.624  0.00  0.00     0.027 H 
ATOM     28  H   LIG d   1       6.413  -4.783  -6.429  0.00  0.00     0.027 H 
ATOM     29  H   LIG d   1       8.468  -5.088  -5.090  0.00  0.00     0.028 H 
ATOM     30  H   LIG d   1       7.047  -4.974  -4.037  0.00  0.00     0.028 H 
ATOM     31  H   LIG d   1       6.644  -2.884  -2.696  0.00  0.00     0.032 H 
ATOM     32  H   LIG d   1       7.677  -1.459  -2.971  0.00  0.00     0.032 H 
ATOM     33  H   LIG d   1       6.587   0.055  -4.046  0.00  0.00     0.057 H 
ATOM     34  H   LIG d   1       5.898   0.293  -6.645  0.00  0.00     0.031 H 
ATOM     35  H   LIG d   1       4.703   0.814  -5.432  0.00  0.00     0.031 H 
ATOM     36  H   LIG d   1       4.840  -4.225  -7.698  0.00  0.00     0.027 H 
ATOM     37  H   LIG d   1       3.347  -3.513  -7.050  0.00  0.00     0.027 H 
ATOM     38  H   LIG d   1       3.063  -3.069  -9.315  0.00  0.00     0.027 H 
ATOM     39  H   LIG d   1       4.805  -2.923  -9.615  0.00  0.00     0.027 H 
ATOM     40  H   LIG d   1       2.443   1.161  -6.884  0.00  0.00     0.027 H 
ATOM     41  H   LIG d   1       4.070   1.345  -7.605  0.00  0.00     0.027 H 
ATOM     42  H   LIG d   1       2.900   1.665  -9.614  0.00  0.00     0.032 H 
ATOM     43  H   LIG d   1       1.414   0.921  -8.959  0.00  0.00     0.032 H 
ATOM     44  H   LIG d   1       0.660  -0.334 -11.388  0.00  0.00     0.058 H 
ATOM     45  H   LIG d   1       0.788  -2.114 -11.586  0.00  0.00     0.058 H 
ATOM     46  H   LIG d   1       2.527  -0.487 -12.902  0.00  0.00     0.058 H 
ATOM     47  H   LIG d   1       3.124  -2.000 -12.148  0.00  0.00     0.058 H 
ENDROOT
BRANCH  16  48
ATOM     48  C   LIG d   1       5.250  -0.511  -9.158  0.00  0.00    -0.054 C 
ATOM     49  H   LIG d   1       5.620  -0.929 -10.095  0.00  0.00     0.024 H 
ATOM     50  H   LIG d   1       5.118   0.565  -9.267  0.00  0.00     0.024 H 
ATOM     51  H   LIG d   1       5.966  -0.711  -8.362  0.00  0.00     0.024 H 
ENDBRANCH  16  48
BRANCH   1  52
ATOM     52  C   LIG d   1       4.695  -3.750  -4.702  0.00  0.00    -0.056 C 
ATOM     53  H   LIG d   1       4.563  -3.303  -3.717  0.00  0.00     0.024 H 
ATOM     54  H   LIG d   1       3.751  -3.719  -5.245  0.00  0.00     0.024 H 
ATOM     55  H   LIG d   1       5.016  -4.787  -4.591  0.00  0.00     0.024 H 
ENDBRANCH   1  52
TORSDOF 2
ENDMDL
