MODEL 1
REMARK VINA RESULT:      -6.5      0.000      0.000
REMARK  3 active torsions:
REMARK  status: ('A' for Active; 'I' for Inactive)
REMARK    1  A    between atoms: C_1  and  C_2 
REMARK    2  A    between atoms: C_18  and  C_26 
REMARK    3  A    between atoms: C_23  and  O_25 
ROOT
ATOM      1  C   LIG d   1       4.549  -1.058  -4.164  0.00  0.00    -0.025 C 
ATOM      2  C   LIG d   1       5.799  -1.056  -3.285  0.00  0.00    -0.040 C 
ATOM      3  C   LIG d   1       6.126   0.381  -2.861  0.00  0.00     0.006 C 
ATOM      4  C   LIG d   1       4.900   0.977  -2.204  0.00  0.00     0.134 C 
ATOM      5  O   LIG d   1       4.971   1.500  -1.118  0.00  0.00    -0.297 OA
ATOM      6  C   LIG d   1       3.583   0.898  -2.943  0.00  0.00     0.009 C 
ATOM      7  C   LIG d   1       3.346  -0.540  -3.371  0.00  0.00    -0.029 C 
ATOM      8  H   LIG d   1       3.195  -1.158  -2.486  0.00  0.00     0.031 H 
ATOM      9  C   LIG d   1       2.102  -0.582  -4.264  0.00  0.00    -0.049 C 
ATOM     10  C   LIG d   1       2.327   0.307  -5.489  0.00  0.00    -0.049 C 
ATOM     11  C   LIG d   1       3.533  -0.204  -6.277  0.00  0.00    -0.034 C 
ATOM     12  H   LIG d   1       3.351  -1.228  -6.605  0.00  0.00     0.031 H 
ATOM     13  C   LIG d   1       4.780  -0.162  -5.379  0.00  0.00    -0.032 C 
ATOM     14  H   LIG d   1       4.935   0.863  -5.039  0.00  0.00     0.031 H 
ATOM     15  C   LIG d   1       6.027  -0.611  -6.132  0.00  0.00    -0.049 C 
ATOM     16  C   LIG d   1       6.232   0.208  -7.418  0.00  0.00    -0.045 C 
ATOM     17  C   LIG d   1       4.980   0.051  -8.259  0.00  0.00    -0.003 C 
ATOM     18  C   LIG d   1       3.793   0.679  -7.482  0.00  0.00    -0.030 C 
ATOM     19  H   LIG d   1       4.053   1.689  -7.163  0.00  0.00     0.031 H 
ATOM     20  C   LIG d   1       2.688   0.706  -8.543  0.00  0.00    -0.047 C 
ATOM     21  C   LIG d   1       3.446   1.151  -9.824  0.00  0.00    -0.026 C 
ATOM     22  C   LIG d   1       4.955   0.793  -9.591  0.00  0.00     0.061 C 
ATOM     23  H   LIG d   1       5.583   1.682  -9.539  0.00  0.00     0.060 H 
ATOM     24  H   LIG d   1       5.621  -1.664  -2.399  0.00  0.00     0.028 H 
ATOM     25  H   LIG d   1       6.638  -1.468  -3.845  0.00  0.00     0.028 H 
ATOM     26  H   LIG d   1       6.955   0.374  -2.154  0.00  0.00     0.034 H 
ATOM     27  H   LIG d   1       6.395   0.970  -3.738  0.00  0.00     0.034 H 
ATOM     28  H   LIG d   1       2.776   1.227  -2.287  0.00  0.00     0.034 H 
ATOM     29  H   LIG d   1       3.622   1.535  -3.827  0.00  0.00     0.034 H 
ATOM     30  H   LIG d   1       1.921  -1.608  -4.587  0.00  0.00     0.027 H 
ATOM     31  H   LIG d   1       1.240  -0.219  -3.704  0.00  0.00     0.027 H 
ATOM     32  H   LIG d   1       1.441   0.282  -6.123  0.00  0.00     0.027 H 
ATOM     33  H   LIG d   1       2.512   1.331  -5.165  0.00  0.00     0.027 H 
ATOM     34  H   LIG d   1       6.896  -0.488  -5.488  0.00  0.00     0.027 H 
ATOM     35  H   LIG d   1       5.925  -1.665  -6.394  0.00  0.00     0.027 H 
ATOM     36  H   LIG d   1       6.380   1.260  -7.167  0.00  0.00     0.027 H 
ATOM     37  H   LIG d   1       7.096  -0.170  -7.964  0.00  0.00     0.027 H 
ATOM     38  H   LIG d   1       2.257  -0.286  -8.675  0.00  0.00     0.027 H 
ATOM     39  H   LIG d   1       1.917   1.430  -8.280  0.00  0.00     0.027 H 
ATOM     40  H   LIG d   1       3.046   0.632 -10.694  0.00  0.00     0.029 H 
ATOM     41  H   LIG d   1       3.356   2.229  -9.957  0.00  0.00     0.029 H 
ENDROOT
BRANCH   1  42
ATOM     42  C   LIG d   1       4.265  -2.485  -4.635  0.00  0.00    -0.059 C 
ATOM     43  H   LIG d   1       5.148  -3.104  -4.474  0.00  0.00     0.024 H 
ATOM     44  H   LIG d   1       3.427  -2.894  -4.070  0.00  0.00     0.024 H 
ATOM     45  H   LIG d   1       4.017  -2.475  -5.696  0.00  0.00     0.024 H 
ENDBRANCH   1  42
BRANCH  17  46
ATOM     46  C   LIG d   1       4.696  -1.435  -8.489  0.00  0.00    -0.057 C 
ATOM     47  H   LIG d   1       4.082  -1.553  -9.382  0.00  0.00     0.024 H 
ATOM     48  H   LIG d   1       5.638  -1.967  -8.624  0.00  0.00     0.024 H 
ATOM     49  H   LIG d   1       4.169  -1.842  -7.628  0.00  0.00     0.024 H 
ENDBRANCH  17  46
BRANCH  22  50
ATOM     50  O   LIG d   1       5.396  -0.066 -10.644  0.00  0.00    -0.391 OA
ATOM     51  H   LIG d   1       5.206   0.270 -11.531  0.00  0.00     0.210 HD
ENDBRANCH  22  50
TORSDOF 3
ENDMDL
MODEL 2
REMARK VINA RESULT:      -6.0      2.357      5.636
REMARK  3 active torsions:
REMARK  status: ('A' for Active; 'I' for Inactive)
REMARK    1  A    between atoms: C_1  and  C_2 
REMARK    2  A    between atoms: C_18  and  C_26 
REMARK    3  A    between atoms: C_23  and  O_25 
ROOT
ATOM      1  C   LIG d   1       5.942  -3.057  -6.179  0.00  0.00    -0.025 C 
ATOM      2  C   LIG d   1       6.315  -4.493  -5.813  0.00  0.00    -0.040 C 
ATOM      3  C   LIG d   1       5.040  -5.317  -5.603  0.00  0.00     0.006 C 
ATOM      4  C   LIG d   1       4.179  -5.192  -6.841  0.00  0.00     0.134 C 
ATOM      5  O   LIG d   1       3.752  -6.173  -7.401  0.00  0.00    -0.297 OA
ATOM      6  C   LIG d   1       3.869  -3.806  -7.359  0.00  0.00     0.009 C 
ATOM      7  C   LIG d   1       5.170  -3.033  -7.500  0.00  0.00    -0.029 C 
ATOM      8  H   LIG d   1       5.773  -3.485  -8.287  0.00  0.00     0.031 H 
ATOM      9  C   LIG d   1       4.835  -1.581  -7.859  0.00  0.00    -0.049 C 
ATOM     10  C   LIG d   1       3.972  -0.972  -6.752  0.00  0.00    -0.049 C 
ATOM     11  C   LIG d   1       4.740  -1.003  -5.429  0.00  0.00    -0.034 C 
ATOM     12  H   LIG d   1       5.660  -0.427  -5.525  0.00  0.00     0.031 H 
ATOM     13  C   LIG d   1       5.074  -2.460  -5.073  0.00  0.00    -0.032 C 
ATOM     14  H   LIG d   1       4.146  -3.029  -5.005  0.00  0.00     0.031 H 
ATOM     15  C   LIG d   1       5.794  -2.556  -3.732  0.00  0.00    -0.049 C 
ATOM     16  C   LIG d   1       4.990  -1.874  -2.613  0.00  0.00    -0.045 C 
ATOM     17  C   LIG d   1       4.767  -0.433  -3.030  0.00  0.00    -0.003 C 
ATOM     18  C   LIG d   1       3.892  -0.429  -4.311  0.00  0.00    -0.030 C 
ATOM     19  H   LIG d   1       3.004  -1.043  -4.153  0.00  0.00     0.031 H 
ATOM     20  C   LIG d   1       3.519   1.051  -4.445  0.00  0.00    -0.047 C 
ATOM     21  C   LIG d   1       3.221   1.470  -2.979  0.00  0.00    -0.026 C 
ATOM     22  C   LIG d   1       3.974   0.442  -2.065  0.00  0.00     0.061 C 
ATOM     23  H   LIG d   1       3.286  -0.168  -1.481  0.00  0.00     0.060 H 
ATOM     24  H   LIG d   1       6.902  -4.932  -6.620  0.00  0.00     0.028 H 
ATOM     25  H   LIG d   1       6.902  -4.493  -4.896  0.00  0.00     0.028 H 
ATOM     26  H   LIG d   1       5.302  -6.363  -5.442  0.00  0.00     0.034 H 
ATOM     27  H   LIG d   1       4.496  -4.938  -4.738  0.00  0.00     0.034 H 
ATOM     28  H   LIG d   1       3.376  -3.880  -8.329  0.00  0.00     0.034 H 
ATOM     29  H   LIG d   1       3.218  -3.289  -6.653  0.00  0.00     0.034 H 
ATOM     30  H   LIG d   1       5.759  -1.010  -7.957  0.00  0.00     0.027 H 
ATOM     31  H   LIG d   1       4.289  -1.556  -8.802  0.00  0.00     0.027 H 
ATOM     32  H   LIG d   1       3.730   0.060  -7.007  0.00  0.00     0.027 H 
ATOM     33  H   LIG d   1       3.051  -1.547  -6.651  0.00  0.00     0.027 H 
ATOM     34  H   LIG d   1       5.938  -3.606  -3.479  0.00  0.00     0.027 H 
ATOM     35  H   LIG d   1       6.769  -2.074  -3.815  0.00  0.00     0.027 H 
ATOM     36  H   LIG d   1       4.029  -2.375  -2.488  0.00  0.00     0.027 H 
ATOM     37  H   LIG d   1       5.551  -1.908  -1.679  0.00  0.00     0.027 H 
ATOM     38  H   LIG d   1       4.355   1.624  -4.848  0.00  0.00     0.027 H 
ATOM     39  H   LIG d   1       2.633   1.172  -5.069  0.00  0.00     0.027 H 
ATOM     40  H   LIG d   1       3.569   2.487  -2.803  0.00  0.00     0.029 H 
ATOM     41  H   LIG d   1       2.152   1.400  -2.780  0.00  0.00     0.029 H 
ENDROOT
BRANCH   1  42
ATOM     42  C   LIG d   1       7.217  -2.226  -6.325  0.00  0.00    -0.059 C 
ATOM     43  H   LIG d   1       7.986  -2.619  -5.662  0.00  0.00     0.024 H 
ATOM     44  H   LIG d   1       7.567  -2.274  -7.357  0.00  0.00     0.024 H 
ATOM     45  H   LIG d   1       7.006  -1.189  -6.062  0.00  0.00     0.024 H 
ENDBRANCH   1  42
BRANCH  17  46
ATOM     46  C   LIG d   1       6.112   0.228  -3.341  0.00  0.00    -0.057 C 
ATOM     47  H   LIG d   1       6.741   0.207  -2.451  0.00  0.00     0.024 H 
ATOM     48  H   LIG d   1       6.606  -0.316  -4.147  0.00  0.00     0.024 H 
ATOM     49  H   LIG d   1       5.948   1.260  -3.646  0.00  0.00     0.024 H 
ENDBRANCH  17  46
BRANCH  22  50
ATOM     50  O   LIG d   1       4.862   1.155  -1.200  0.00  0.00    -0.391 OA
ATOM     51  H   LIG d   1       4.413   1.723  -0.558  0.00  0.00     0.210 HD
ENDBRANCH  22  50
TORSDOF 3
ENDMDL
MODEL 3
REMARK VINA RESULT:      -6.0      1.807      5.886
REMARK  3 active torsions:
REMARK  status: ('A' for Active; 'I' for Inactive)
REMARK    1  A    between atoms: C_1  and  C_2 
REMARK    2  A    between atoms: C_18  and  C_26 
REMARK    3  A    between atoms: C_23  and  O_25 
ROOT
ATOM      1  C   LIG d   1       4.254  -0.649  -8.784  0.00  0.00    -0.025 C 
ATOM      2  C   LIG d   1       4.466  -1.851  -9.704  0.00  0.00    -0.040 C 
ATOM      3  C   LIG d   1       3.174  -2.672  -9.781  0.00  0.00     0.006 C 
ATOM      4  C   LIG d   1       2.048  -1.754 -10.203  0.00  0.00     0.134 C 
ATOM      5  O   LIG d   1       1.329  -2.040 -11.130  0.00  0.00    -0.297 OA
ATOM      6  C   LIG d   1       1.847  -0.468  -9.434  0.00  0.00     0.009 C 
ATOM      7  C   LIG d   1       3.172   0.270  -9.358  0.00  0.00    -0.029 C 
ATOM      8  H   LIG d   1       3.460   0.596 -10.357  0.00  0.00     0.031 H 
ATOM      9  C   LIG d   1       3.002   1.481  -8.435  0.00  0.00    -0.049 C 
ATOM     10  C   LIG d   1       2.580   1.002  -7.044  0.00  0.00    -0.049 C 
ATOM     11  C   LIG d   1       3.656   0.077  -6.473  0.00  0.00    -0.034 C 
ATOM     12  H   LIG d   1       4.600   0.616  -6.396  0.00  0.00     0.031 H 
ATOM     13  C   LIG d   1       3.825  -1.136  -7.401  0.00  0.00    -0.032 C 
ATOM     14  H   LIG d   1       2.867  -1.650  -7.489  0.00  0.00     0.031 H 
ATOM     15  C   LIG d   1       4.850  -2.122  -6.852  0.00  0.00    -0.049 C 
ATOM     16  C   LIG d   1       4.499  -2.556  -5.418  0.00  0.00    -0.045 C 
ATOM     17  C   LIG d   1       4.418  -1.299  -4.573  0.00  0.00    -0.003 C 
ATOM     18  C   LIG d   1       3.246  -0.433  -5.105  0.00  0.00    -0.030 C 
ATOM     19  H   LIG d   1       2.342  -1.039  -5.181  0.00  0.00     0.031 H 
ATOM     20  C   LIG d   1       3.103   0.630  -4.010  0.00  0.00    -0.047 C 
ATOM     21  C   LIG d   1       3.281  -0.192  -2.703  0.00  0.00    -0.026 C 
ATOM     22  C   LIG d   1       4.068  -1.489  -3.101  0.00  0.00     0.061 C 
ATOM     23  H   LIG d   1       3.468  -2.389  -2.968  0.00  0.00     0.060 H 
ATOM     24  H   LIG d   1       4.734  -1.502 -10.700  0.00  0.00     0.028 H 
ATOM     25  H   LIG d   1       5.268  -2.474  -9.309  0.00  0.00     0.028 H 
ATOM     26  H   LIG d   1       3.290  -3.471 -10.513  0.00  0.00     0.034 H 
ATOM     27  H   LIG d   1       2.952  -3.100  -8.803  0.00  0.00     0.034 H 
ATOM     28  H   LIG d   1       1.107   0.151  -9.943  0.00  0.00     0.034 H 
ATOM     29  H   LIG d   1       1.503  -0.696  -8.424  0.00  0.00     0.034 H 
ATOM     30  H   LIG d   1       3.948   2.018  -8.363  0.00  0.00     0.027 H 
ATOM     31  H   LIG d   1       2.237   2.142  -8.840  0.00  0.00     0.027 H 
ATOM     32  H   LIG d   1       2.454   1.862  -6.386  0.00  0.00     0.027 H 
ATOM     33  H   LIG d   1       1.637   0.460  -7.117  0.00  0.00     0.027 H 
ATOM     34  H   LIG d   1       4.879  -3.001  -7.494  0.00  0.00     0.027 H 
ATOM     35  H   LIG d   1       5.833  -1.650  -6.850  0.00  0.00     0.027 H 
ATOM     36  H   LIG d   1       3.537  -3.069  -5.411  0.00  0.00     0.027 H 
ATOM     37  H   LIG d   1       5.275  -3.215  -5.030  0.00  0.00     0.027 H 
ATOM     38  H   LIG d   1       3.885   1.384  -4.101  0.00  0.00     0.027 H 
ATOM     39  H   LIG d   1       2.116   1.090  -4.044  0.00  0.00     0.027 H 
ATOM     40  H   LIG d   1       3.829   0.393  -1.966  0.00  0.00     0.029 H 
ATOM     41  H   LIG d   1       2.308  -0.479  -2.306  0.00  0.00     0.029 H 
ENDROOT
BRANCH   1  42
ATOM     42  C   LIG d   1       5.564   0.130  -8.662  0.00  0.00    -0.059 C 
ATOM     43  H   LIG d   1       6.031   0.215  -9.643  0.00  0.00     0.024 H 
ATOM     44  H   LIG d   1       5.359   1.126  -8.269  0.00  0.00     0.024 H 
ATOM     45  H   LIG d   1       6.237  -0.395  -7.983  0.00  0.00     0.024 H 
ENDBRANCH   1  42
BRANCH  17  46
ATOM     46  C   LIG d   1       5.722  -0.508  -4.698  0.00  0.00    -0.057 C 
ATOM     47  H   LIG d   1       6.559  -1.138  -4.396  0.00  0.00     0.024 H 
ATOM     48  H   LIG d   1       5.858  -0.194  -5.732  0.00  0.00     0.024 H 
ATOM     49  H   LIG d   1       5.677   0.370  -4.054  0.00  0.00     0.024 H 
ENDBRANCH  17  46
BRANCH  22  50
ATOM     50  O   LIG d   1       5.260  -1.566  -2.315  0.00  0.00    -0.391 OA
ATOM     51  H   LIG d   1       5.759  -2.386  -2.438  0.00  0.00     0.210 HD
ENDBRANCH  22  50
TORSDOF 3
ENDMDL
MODEL 4
REMARK VINA RESULT:      -5.5      2.935      5.665
REMARK  3 active torsions:
REMARK  status: ('A' for Active; 'I' for Inactive)
REMARK    1  A    between atoms: C_1  and  C_2 
REMARK    2  A    between atoms: C_18  and  C_26 
REMARK    3  A    between atoms: C_23  and  O_25 
ROOT
ATOM      1  C   LIG d   1       8.050  -2.274  -5.272  0.00  0.00    -0.025 C 
ATOM      2  C   LIG d   1       8.868  -3.285  -4.470  0.00  0.00    -0.040 C 
ATOM      3  C   LIG d   1       8.178  -4.653  -4.512  0.00  0.00     0.006 C 
ATOM      4  C   LIG d   1       7.958  -5.035  -5.959  0.00  0.00     0.134 C 
ATOM      5  O   LIG d   1       8.320  -6.108  -6.379  0.00  0.00    -0.297 OA
ATOM      6  C   LIG d   1       7.275  -4.037  -6.867  0.00  0.00     0.009 C 
ATOM      7  C   LIG d   1       7.981  -2.698  -6.741  0.00  0.00    -0.029 C 
ATOM      8  H   LIG d   1       8.989  -2.783  -7.146  0.00  0.00     0.031 H 
ATOM      9  C   LIG d   1       7.182  -1.653  -7.527  0.00  0.00    -0.049 C 
ATOM     10  C   LIG d   1       5.766  -1.562  -6.955  0.00  0.00    -0.049 C 
ATOM     11  C   LIG d   1       5.833  -1.148  -5.485  0.00  0.00    -0.034 C 
ATOM     12  H   LIG d   1       6.317  -0.175  -5.399  0.00  0.00     0.031 H 
ATOM     13  C   LIG d   1       6.635  -2.198  -4.699  0.00  0.00    -0.032 C 
ATOM     14  H   LIG d   1       6.153  -3.169  -4.815  0.00  0.00     0.031 H 
ATOM     15  C   LIG d   1       6.689  -1.862  -3.213  0.00  0.00    -0.049 C 
ATOM     16  C   LIG d   1       5.278  -1.679  -2.628  0.00  0.00    -0.045 C 
ATOM     17  C   LIG d   1       4.596  -0.585  -3.426  0.00  0.00    -0.003 C 
ATOM     18  C   LIG d   1       4.440  -1.080  -4.889  0.00  0.00    -0.030 C 
ATOM     19  H   LIG d   1       3.974  -2.066  -4.898  0.00  0.00     0.031 H 
ATOM     20  C   LIG d   1       3.506  -0.024  -5.490  0.00  0.00    -0.047 C 
ATOM     21  C   LIG d   1       2.471   0.212  -4.355  0.00  0.00    -0.026 C 
ATOM     22  C   LIG d   1       3.167  -0.237  -3.024  0.00  0.00     0.061 C 
ATOM     23  H   LIG d   1       2.678  -1.103  -2.578  0.00  0.00     0.060 H 
ATOM     24  H   LIG d   1       9.865  -3.369  -4.903  0.00  0.00     0.028 H 
ATOM     25  H   LIG d   1       8.947  -2.951  -3.437  0.00  0.00     0.028 H 
ATOM     26  H   LIG d   1       8.810  -5.398  -4.028  0.00  0.00     0.034 H 
ATOM     27  H   LIG d   1       7.218  -4.596  -3.998  0.00  0.00     0.034 H 
ATOM     28  H   LIG d   1       7.326  -4.387  -7.898  0.00  0.00     0.034 H 
ATOM     29  H   LIG d   1       6.233  -3.924  -6.567  0.00  0.00     0.034 H 
ATOM     30  H   LIG d   1       7.672  -0.682  -7.441  0.00  0.00     0.027 H 
ATOM     31  H   LIG d   1       7.133  -1.945  -8.576  0.00  0.00     0.027 H 
ATOM     32  H   LIG d   1       5.194  -0.822  -7.516  0.00  0.00     0.027 H 
ATOM     33  H   LIG d   1       5.278  -2.534  -7.037  0.00  0.00     0.027 H 
ATOM     34  H   LIG d   1       7.193  -2.670  -2.683  0.00  0.00     0.027 H 
ATOM     35  H   LIG d   1       7.254  -0.940  -3.075  0.00  0.00     0.027 H 
ATOM     36  H   LIG d   1       4.716  -2.609  -2.718  0.00  0.00     0.027 H 
ATOM     37  H   LIG d   1       5.347  -1.386  -1.580  0.00  0.00     0.027 H 
ATOM     38  H   LIG d   1       4.052   0.892  -5.712  0.00  0.00     0.027 H 
ATOM     39  H   LIG d   1       3.015  -0.408  -6.385  0.00  0.00     0.027 H 
ATOM     40  H   LIG d   1       2.189   1.264  -4.320  0.00  0.00     0.029 H 
ATOM     41  H   LIG d   1       1.590  -0.407  -4.518  0.00  0.00     0.029 H 
ENDROOT
BRANCH   1  42
ATOM     42  C   LIG d   1       8.710  -0.898  -5.174  0.00  0.00    -0.059 C 
ATOM     43  H   LIG d   1       8.372  -0.396  -4.268  0.00  0.00     0.024 H 
ATOM     44  H   LIG d   1       9.793  -1.017  -5.142  0.00  0.00     0.024 H 
ATOM     45  H   LIG d   1       8.436  -0.301  -6.044  0.00  0.00     0.024 H 
ENDBRANCH   1  42
BRANCH  17  46
ATOM     46  C   LIG d   1       5.460   0.678  -3.414  0.00  0.00    -0.057 C 
ATOM     47  H   LIG d   1       6.229   0.599  -4.183  0.00  0.00     0.024 H 
ATOM     48  H   LIG d   1       4.834   1.547  -3.615  0.00  0.00     0.024 H 
ATOM     49  H   LIG d   1       5.931   0.787  -2.438  0.00  0.00     0.024 H 
ENDBRANCH  17  46
BRANCH  22  50
ATOM     50  O   LIG d   1       3.165   0.860  -2.107  0.00  0.00    -0.391 OA
ATOM     51  H   LIG d   1       2.384   1.427  -2.174  0.00  0.00     0.210 HD
ENDBRANCH  22  50
TORSDOF 3
ENDMDL
MODEL 5
REMARK VINA RESULT:      -5.5      1.680      2.229
REMARK  3 active torsions:
REMARK  status: ('A' for Active; 'I' for Inactive)
REMARK    1  A    between atoms: C_1  and  C_2 
REMARK    2  A    between atoms: C_18  and  C_26 
REMARK    3  A    between atoms: C_23  and  O_25 
ROOT
ATOM      1  C   LIG d   1       6.617  -1.011  -4.146  0.00  0.00    -0.025 C 
ATOM      2  C   LIG d   1       7.258   0.235  -3.537  0.00  0.00    -0.040 C 
ATOM      3  C   LIG d   1       6.176   1.282  -3.249  0.00  0.00     0.006 C 
ATOM      4  C   LIG d   1       5.110   0.643  -2.386  0.00  0.00     0.134 C 
ATOM      5  O   LIG d   1       4.747   1.166  -1.360  0.00  0.00    -0.297 OA
ATOM      6  C   LIG d   1       4.511  -0.668  -2.842  0.00  0.00     0.009 C 
ATOM      7  C   LIG d   1       5.638  -1.639  -3.151  0.00  0.00    -0.029 C 
ATOM      8  H   LIG d   1       6.161  -1.889  -2.229  0.00  0.00     0.031 H 
ATOM      9  C   LIG d   1       5.032  -2.902  -3.774  0.00  0.00    -0.049 C 
ATOM     10  C   LIG d   1       4.287  -2.528  -5.057  0.00  0.00    -0.049 C 
ATOM     11  C   LIG d   1       5.262  -1.891  -6.048  0.00  0.00    -0.034 C 
ATOM     12  H   LIG d   1       6.055  -2.598  -6.288  0.00  0.00     0.031 H 
ATOM     13  C   LIG d   1       5.867  -0.625  -5.420  0.00  0.00    -0.032 C 
ATOM     14  H   LIG d   1       5.060   0.062  -5.163  0.00  0.00     0.031 H 
ATOM     15  C   LIG d   1       6.809   0.082  -6.388  0.00  0.00    -0.049 C 
ATOM     16  C   LIG d   1       6.111   0.395  -7.723  0.00  0.00    -0.045 C 
ATOM     17  C   LIG d   1       5.607  -0.918  -8.288  0.00  0.00    -0.003 C 
ATOM     18  C   LIG d   1       4.538  -1.484  -7.317  0.00  0.00    -0.030 C 
ATOM     19  H   LIG d   1       3.792  -0.719  -7.101  0.00  0.00     0.031 H 
ATOM     20  C   LIG d   1       3.929  -2.628  -8.135  0.00  0.00    -0.047 C 
ATOM     21  C   LIG d   1       3.822  -2.018  -9.560  0.00  0.00    -0.026 C 
ATOM     22  C   LIG d   1       4.865  -0.849  -9.619  0.00  0.00     0.061 C 
ATOM     23  H   LIG d   1       4.385   0.123  -9.733  0.00  0.00     0.060 H 
ATOM     24  H   LIG d   1       7.759  -0.033  -2.608  0.00  0.00     0.028 H 
ATOM     25  H   LIG d   1       7.985   0.648  -4.236  0.00  0.00     0.028 H 
ATOM     26  H   LIG d   1       6.615   2.129  -2.723  0.00  0.00     0.034 H 
ATOM     27  H   LIG d   1       5.734   1.621  -4.187  0.00  0.00     0.034 H 
ATOM     28  H   LIG d   1       3.878  -1.075  -2.052  0.00  0.00     0.034 H 
ATOM     29  H   LIG d   1       3.918  -0.506  -3.742  0.00  0.00     0.034 H 
ATOM     30  H   LIG d   1       5.830  -3.608  -4.010  0.00  0.00     0.027 H 
ATOM     31  H   LIG d   1       4.338  -3.358  -3.069  0.00  0.00     0.027 H 
ATOM     32  H   LIG d   1       3.851  -3.423  -5.499  0.00  0.00     0.027 H 
ATOM     33  H   LIG d   1       3.493  -1.817  -4.821  0.00  0.00     0.027 H 
ATOM     34  H   LIG d   1       7.150   1.013  -5.937  0.00  0.00     0.027 H 
ATOM     35  H   LIG d   1       7.671  -0.557  -6.579  0.00  0.00     0.027 H 
ATOM     36  H   LIG d   1       5.272   1.072  -7.553  0.00  0.00     0.027 H 
ATOM     37  H   LIG d   1       6.821   0.849  -8.414  0.00  0.00     0.027 H 
ATOM     38  H   LIG d   1       4.588  -3.496  -8.135  0.00  0.00     0.027 H 
ATOM     39  H   LIG d   1       2.942  -2.893  -7.755  0.00  0.00     0.027 H 
ATOM     40  H   LIG d   1       4.038  -2.779 -10.309  0.00  0.00     0.029 H 
ATOM     41  H   LIG d   1       2.825  -1.609  -9.718  0.00  0.00     0.029 H 
ENDROOT
BRANCH   1  42
ATOM     42  C   LIG d   1       7.708  -2.025  -4.489  0.00  0.00    -0.059 C 
ATOM     43  H   LIG d   1       7.778  -2.767  -3.694  0.00  0.00     0.024 H 
ATOM     44  H   LIG d   1       7.461  -2.521  -5.428  0.00  0.00     0.024 H 
ATOM     45  H   LIG d   1       8.664  -1.510  -4.591  0.00  0.00     0.024 H 
ENDBRANCH   1  42
BRANCH  17  46
ATOM     46  C   LIG d   1       6.765  -1.913  -8.393  0.00  0.00    -0.057 C 
ATOM     47  H   LIG d   1       7.259  -1.794  -9.358  0.00  0.00     0.024 H 
ATOM     48  H   LIG d   1       7.480  -1.723  -7.593  0.00  0.00     0.024 H 
ATOM     49  H   LIG d   1       6.381  -2.929  -8.304  0.00  0.00     0.024 H 
ENDBRANCH  17  46
BRANCH  22  50
ATOM     50  O   LIG d   1       5.768  -1.086 -10.701  0.00  0.00    -0.391 OA
ATOM     51  H   LIG d   1       6.319  -1.873 -10.588  0.00  0.00     0.210 HD
ENDBRANCH  22  50
TORSDOF 3
ENDMDL
MODEL 6
REMARK VINA RESULT:      -5.5      2.555      5.924
REMARK  3 active torsions:
REMARK  status: ('A' for Active; 'I' for Inactive)
REMARK    1  A    between atoms: C_1  and  C_2 
REMARK    2  A    between atoms: C_18  and  C_26 
REMARK    3  A    between atoms: C_23  and  O_25 
ROOT
ATOM      1  C   LIG d   1       8.385  -0.239  -6.433  0.00  0.00    -0.025 C 
ATOM      2  C   LIG d   1       8.359  -0.709  -7.887  0.00  0.00    -0.040 C 
ATOM      3  C   LIG d   1       7.472   0.229  -8.714  0.00  0.00     0.006 C 
ATOM      4  C   LIG d   1       7.966   1.646  -8.525  0.00  0.00     0.134 C 
ATOM      5  O   LIG d   1       8.206   2.352  -9.475  0.00  0.00    -0.297 OA
ATOM      6  C   LIG d   1       8.154   2.156  -7.114  0.00  0.00     0.009 C 
ATOM      7  C   LIG d   1       9.001   1.159  -6.341  0.00  0.00    -0.029 C 
ATOM      8  H   LIG d   1      10.008   1.144  -6.758  0.00  0.00     0.031 H 
ATOM      9  C   LIG d   1       9.043   1.593  -4.872  0.00  0.00    -0.049 C 
ATOM     10  C   LIG d   1       7.619   1.625  -4.313  0.00  0.00    -0.049 C 
ATOM     11  C   LIG d   1       6.998   0.231  -4.412  0.00  0.00    -0.034 C 
ATOM     12  H   LIG d   1       7.593  -0.477  -3.837  0.00  0.00     0.031 H 
ATOM     13  C   LIG d   1       6.958  -0.201  -5.887  0.00  0.00    -0.032 C 
ATOM     14  H   LIG d   1       6.381   0.530  -6.453  0.00  0.00     0.031 H 
ATOM     15  C   LIG d   1       6.298  -1.565  -6.051  0.00  0.00    -0.049 C 
ATOM     16  C   LIG d   1       4.895  -1.590  -5.420  0.00  0.00    -0.045 C 
ATOM     17  C   LIG d   1       5.050  -1.212  -3.959  0.00  0.00    -0.003 C 
ATOM     18  C   LIG d   1       5.575   0.246  -3.889  0.00  0.00    -0.030 C 
ATOM     19  H   LIG d   1       4.950   0.894  -4.506  0.00  0.00     0.031 H 
ATOM     20  C   LIG d   1       5.412   0.579  -2.402  0.00  0.00    -0.047 C 
ATOM     21  C   LIG d   1       4.034  -0.050  -2.054  0.00  0.00    -0.026 C 
ATOM     22  C   LIG d   1       3.772  -1.161  -3.128  0.00  0.00     0.061 C 
ATOM     23  H   LIG d   1       2.918  -0.925  -3.763  0.00  0.00     0.060 H 
ATOM     24  H   LIG d   1       9.372  -0.698  -8.289  0.00  0.00     0.028 H 
ATOM     25  H   LIG d   1       7.960  -1.721  -7.935  0.00  0.00     0.028 H 
ATOM     26  H   LIG d   1       7.534  -0.043  -9.768  0.00  0.00     0.034 H 
ATOM     27  H   LIG d   1       6.440   0.152  -8.374  0.00  0.00     0.034 H 
ATOM     28  H   LIG d   1       8.653   3.125  -7.138  0.00  0.00     0.034 H 
ATOM     29  H   LIG d   1       7.183   2.254  -6.629  0.00  0.00     0.034 H 
ATOM     30  H   LIG d   1       9.642   0.882  -4.301  0.00  0.00     0.027 H 
ATOM     31  H   LIG d   1       9.486   2.586  -4.799  0.00  0.00     0.027 H 
ATOM     32  H   LIG d   1       7.646   1.938  -3.269  0.00  0.00     0.027 H 
ATOM     33  H   LIG d   1       7.019   2.332  -4.887  0.00  0.00     0.027 H 
ATOM     34  H   LIG d   1       6.215  -1.796  -7.112  0.00  0.00     0.027 H 
ATOM     35  H   LIG d   1       6.918  -2.322  -5.570  0.00  0.00     0.027 H 
ATOM     36  H   LIG d   1       4.250  -0.868  -5.922  0.00  0.00     0.027 H 
ATOM     37  H   LIG d   1       4.469  -2.589  -5.502  0.00  0.00     0.027 H 
ATOM     38  H   LIG d   1       6.206   0.118  -1.815  0.00  0.00     0.027 H 
ATOM     39  H   LIG d   1       5.393   1.658  -2.247  0.00  0.00     0.027 H 
ATOM     40  H   LIG d   1       4.058  -0.468  -1.049  0.00  0.00     0.029 H 
ATOM     41  H   LIG d   1       3.250   0.703  -2.128  0.00  0.00     0.029 H 
ENDROOT
BRANCH   1  42
ATOM     42  C   LIG d   1       9.219  -1.214  -5.602  0.00  0.00    -0.059 C 
ATOM     43  H   LIG d   1       9.689  -0.679  -4.777  0.00  0.00     0.024 H 
ATOM     44  H   LIG d   1       8.573  -1.998  -5.206  0.00  0.00     0.024 H 
ATOM     45  H   LIG d   1       9.989  -1.661  -6.231  0.00  0.00     0.024 H 
ENDBRANCH   1  42
BRANCH  17  46
ATOM     46  C   LIG d   1       6.065  -2.142  -3.291  0.00  0.00    -0.057 C 
ATOM     47  H   LIG d   1       6.989  -2.146  -3.869  0.00  0.00     0.024 H 
ATOM     48  H   LIG d   1       6.271  -1.788  -2.281  0.00  0.00     0.024 H 
ATOM     49  H   LIG d   1       5.659  -3.152  -3.247  0.00  0.00     0.024 H 
ENDBRANCH  17  46
BRANCH  22  50
ATOM     50  O   LIG d   1       3.565  -2.410  -2.463  0.00  0.00    -0.391 OA
ATOM     51  H   LIG d   1       3.185  -3.097  -3.026  0.00  0.00     0.210 HD
ENDBRANCH  22  50
TORSDOF 3
ENDMDL
MODEL 7
REMARK VINA RESULT:      -5.4      3.202      5.992
REMARK  3 active torsions:
REMARK  status: ('A' for Active; 'I' for Inactive)
REMARK    1  A    between atoms: C_1  and  C_2 
REMARK    2  A    between atoms: C_18  and  C_26 
REMARK    3  A    between atoms: C_23  and  O_25 
ROOT
ATOM      1  C   LIG d   1       8.137  -1.368  -6.312  0.00  0.00    -0.025 C 
ATOM      2  C   LIG d   1       9.351  -0.448  -6.431  0.00  0.00    -0.040 C 
ATOM      3  C   LIG d   1      10.360  -0.782  -5.325  0.00  0.00     0.006 C 
ATOM      4  C   LIG d   1      10.684  -2.258  -5.403  0.00  0.00     0.134 C 
ATOM      5  O   LIG d   1      11.829  -2.639  -5.445  0.00  0.00    -0.297 OA
ATOM      6  C   LIG d   1       9.537  -3.242  -5.428  0.00  0.00     0.009 C 
ATOM      7  C   LIG d   1       8.558  -2.826  -6.513  0.00  0.00    -0.029 C 
ATOM      8  H   LIG d   1       9.032  -2.940  -7.488  0.00  0.00     0.031 H 
ATOM      9  C   LIG d   1       7.319  -3.723  -6.419  0.00  0.00    -0.049 C 
ATOM     10  C   LIG d   1       6.681  -3.562  -5.038  0.00  0.00    -0.049 C 
ATOM     11  C   LIG d   1       6.268  -2.105  -4.831  0.00  0.00    -0.034 C 
ATOM     12  H   LIG d   1       5.547  -1.816  -5.595  0.00  0.00     0.031 H 
ATOM     13  C   LIG d   1       7.513  -1.208  -4.927  0.00  0.00    -0.032 C 
ATOM     14  H   LIG d   1       8.235  -1.525  -4.173  0.00  0.00     0.031 H 
ATOM     15  C   LIG d   1       7.167   0.256  -4.674  0.00  0.00    -0.049 C 
ATOM     16  C   LIG d   1       6.444   0.438  -3.328  0.00  0.00    -0.045 C 
ATOM     17  C   LIG d   1       5.205  -0.435  -3.359  0.00  0.00    -0.003 C 
ATOM     18  C   LIG d   1       5.659  -1.916  -3.456  0.00  0.00    -0.030 C 
ATOM     19  H   LIG d   1       6.396  -2.128  -2.681  0.00  0.00     0.031 H 
ATOM     20  C   LIG d   1       4.352  -2.673  -3.193  0.00  0.00    -0.047 C 
ATOM     21  C   LIG d   1       3.702  -1.857  -2.042  0.00  0.00    -0.026 C 
ATOM     22  C   LIG d   1       4.330  -0.422  -2.110  0.00  0.00     0.061 C 
ATOM     23  H   LIG d   1       4.931  -0.195  -1.230  0.00  0.00     0.060 H 
ATOM     24  H   LIG d   1       9.820  -0.591  -7.404  0.00  0.00     0.028 H 
ATOM     25  H   LIG d   1       9.033   0.588  -6.330  0.00  0.00     0.028 H 
ATOM     26  H   LIG d   1      11.269  -0.198  -5.470  0.00  0.00     0.034 H 
ATOM     27  H   LIG d   1       9.926  -0.553  -4.352  0.00  0.00     0.034 H 
ATOM     28  H   LIG d   1       9.918  -4.242  -5.638  0.00  0.00     0.034 H 
ATOM     29  H   LIG d   1       9.029  -3.236  -4.464  0.00  0.00     0.034 H 
ATOM     30  H   LIG d   1       6.602  -3.432  -7.188  0.00  0.00     0.027 H 
ATOM     31  H   LIG d   1       7.611  -4.762  -6.567  0.00  0.00     0.027 H 
ATOM     32  H   LIG d   1       5.802  -4.203  -4.967  0.00  0.00     0.027 H 
ATOM     33  H   LIG d   1       7.401  -3.848  -4.270  0.00  0.00     0.027 H 
ATOM     34  H   LIG d   1       8.084   0.843  -4.669  0.00  0.00     0.027 H 
ATOM     35  H   LIG d   1       6.521   0.613  -5.476  0.00  0.00     0.027 H 
ATOM     36  H   LIG d   1       7.097   0.126  -2.512  0.00  0.00     0.027 H 
ATOM     37  H   LIG d   1       6.160   1.482  -3.199  0.00  0.00     0.027 H 
ATOM     38  H   LIG d   1       3.717  -2.665  -4.079  0.00  0.00     0.027 H 
ATOM     39  H   LIG d   1       4.556  -3.696  -2.873  0.00  0.00     0.027 H 
ATOM     40  H   LIG d   1       2.621  -1.823  -2.173  0.00  0.00     0.029 H 
ATOM     41  H   LIG d   1       3.949  -2.304  -1.080  0.00  0.00     0.029 H 
ENDROOT
BRANCH   1  42
ATOM     42  C   LIG d   1       7.109  -0.988  -7.377  0.00  0.00    -0.059 C 
ATOM     43  H   LIG d   1       7.371  -0.023  -7.809  0.00  0.00     0.024 H 
ATOM     44  H   LIG d   1       7.100  -1.746  -8.161  0.00  0.00     0.024 H 
ATOM     45  H   LIG d   1       6.120  -0.926  -6.922  0.00  0.00     0.024 H 
ENDBRANCH   1  42
BRANCH  17  46
ATOM     46  C   LIG d   1       4.360  -0.089  -4.587  0.00  0.00    -0.057 C 
ATOM     47  H   LIG d   1       4.814  -0.529  -5.475  0.00  0.00     0.024 H 
ATOM     48  H   LIG d   1       3.354  -0.487  -4.459  0.00  0.00     0.024 H 
ATOM     49  H   LIG d   1       4.312   0.993  -4.702  0.00  0.00     0.024 H 
ENDBRANCH  17  46
BRANCH  22  50
ATOM     50  O   LIG d   1       3.279   0.537  -2.254  0.00  0.00    -0.391 OA
ATOM     51  H   LIG d   1       2.433   0.252  -1.883  0.00  0.00     0.210 HD
ENDBRANCH  22  50
TORSDOF 3
ENDMDL
MODEL 8
REMARK VINA RESULT:      -5.4      3.052      5.141
REMARK  3 active torsions:
REMARK  status: ('A' for Active; 'I' for Inactive)
REMARK    1  A    between atoms: C_1  and  C_2 
REMARK    2  A    between atoms: C_18  and  C_26 
REMARK    3  A    between atoms: C_23  and  O_25 
ROOT
ATOM      1  C   LIG d   1       5.207  -0.612  -5.204  0.00  0.00    -0.025 C 
ATOM      2  C   LIG d   1       3.722  -0.256  -5.192  0.00  0.00    -0.040 C 
ATOM      3  C   LIG d   1       3.120  -0.606  -3.826  0.00  0.00     0.006 C 
ATOM      4  C   LIG d   1       3.936   0.082  -2.753  0.00  0.00     0.134 C 
ATOM      5  O   LIG d   1       3.403   0.762  -1.910  0.00  0.00    -0.297 OA
ATOM      6  C   LIG d   1       5.436  -0.102  -2.767  0.00  0.00     0.009 C 
ATOM      7  C   LIG d   1       5.957   0.217  -4.158  0.00  0.00    -0.029 C 
ATOM      8  H   LIG d   1       5.815   1.278  -4.360  0.00  0.00     0.031 H 
ATOM      9  C   LIG d   1       7.447  -0.137  -4.212  0.00  0.00    -0.049 C 
ATOM     10  C   LIG d   1       7.626  -1.626  -3.907  0.00  0.00    -0.049 C 
ATOM     11  C   LIG d   1       6.870  -2.456  -4.945  0.00  0.00    -0.034 C 
ATOM     12  H   LIG d   1       7.262  -2.244  -5.940  0.00  0.00     0.031 H 
ATOM     13  C   LIG d   1       5.376  -2.098  -4.889  0.00  0.00    -0.032 C 
ATOM     14  H   LIG d   1       5.005  -2.291  -3.882  0.00  0.00     0.031 H 
ATOM     15  C   LIG d   1       4.564  -2.937  -5.870  0.00  0.00    -0.049 C 
ATOM     16  C   LIG d   1       4.791  -4.441  -5.644  0.00  0.00    -0.045 C 
ATOM     17  C   LIG d   1       6.279  -4.699  -5.781  0.00  0.00    -0.003 C 
ATOM     18  C   LIG d   1       7.009  -3.935  -4.646  0.00  0.00    -0.030 C 
ATOM     19  H   LIG d   1       6.551  -4.173  -3.685  0.00  0.00     0.031 H 
ATOM     20  C   LIG d   1       8.430  -4.505  -4.733  0.00  0.00    -0.047 C 
ATOM     21  C   LIG d   1       8.183  -6.019  -4.977  0.00  0.00    -0.026 C 
ATOM     22  C   LIG d   1       6.742  -6.139  -5.584  0.00  0.00     0.061 C 
ATOM     23  H   LIG d   1       6.060  -6.668  -4.919  0.00  0.00     0.060 H 
ATOM     24  H   LIG d   1       3.603   0.811  -5.377  0.00  0.00     0.028 H 
ATOM     25  H   LIG d   1       3.207  -0.819  -5.969  0.00  0.00     0.028 H 
ATOM     26  H   LIG d   1       2.088  -0.260  -3.780  0.00  0.00     0.034 H 
ATOM     27  H   LIG d   1       3.154  -1.685  -3.676  0.00  0.00     0.034 H 
ATOM     28  H   LIG d   1       5.894   0.568  -2.038  0.00  0.00     0.034 H 
ATOM     29  H   LIG d   1       5.680  -1.136  -2.520  0.00  0.00     0.034 H 
ATOM     30  H   LIG d   1       7.835   0.080  -5.208  0.00  0.00     0.027 H 
ATOM     31  H   LIG d   1       7.988   0.454  -3.473  0.00  0.00     0.027 H 
ATOM     32  H   LIG d   1       8.685  -1.879  -3.940  0.00  0.00     0.027 H 
ATOM     33  H   LIG d   1       7.232  -1.842  -2.913  0.00  0.00     0.027 H 
ATOM     34  H   LIG d   1       3.506  -2.712  -5.740  0.00  0.00     0.027 H 
ATOM     35  H   LIG d   1       4.859  -2.681  -6.888  0.00  0.00     0.027 H 
ATOM     36  H   LIG d   1       4.458  -4.720  -4.643  0.00  0.00     0.027 H 
ATOM     37  H   LIG d   1       4.244  -5.015  -6.391  0.00  0.00     0.027 H 
ATOM     38  H   LIG d   1       8.972  -4.062  -5.568  0.00  0.00     0.027 H 
ATOM     39  H   LIG d   1       8.967  -4.348  -3.797  0.00  0.00     0.027 H 
ATOM     40  H   LIG d   1       8.935  -6.414  -5.660  0.00  0.00     0.029 H 
ATOM     41  H   LIG d   1       8.213  -6.560  -4.032  0.00  0.00     0.029 H 
ENDROOT
BRANCH   1  42
ATOM     42  C   LIG d   1       5.786  -0.320  -6.589  0.00  0.00    -0.059 C 
ATOM     43  H   LIG d   1       6.251   0.665  -6.588  0.00  0.00     0.024 H 
ATOM     44  H   LIG d   1       6.533  -1.074  -6.837  0.00  0.00     0.024 H 
ATOM     45  H   LIG d   1       4.986  -0.344  -7.329  0.00  0.00     0.024 H 
ENDBRANCH   1  42
BRANCH  17  46
ATOM     46  C   LIG d   1       6.771  -4.178  -7.133  0.00  0.00    -0.057 C 
ATOM     47  H   LIG d   1       7.687  -4.698  -7.411  0.00  0.00     0.024 H 
ATOM     48  H   LIG d   1       6.007  -4.356  -7.890  0.00  0.00     0.024 H 
ATOM     49  H   LIG d   1       6.967  -3.109  -7.060  0.00  0.00     0.024 H 
ENDBRANCH  17  46
BRANCH  22  50
ATOM     50  O   LIG d   1       6.825  -6.808  -6.845  0.00  0.00    -0.391 OA
ATOM     51  H   LIG d   1       6.213  -7.551  -6.937  0.00  0.00     0.210 HD
ENDBRANCH  22  50
TORSDOF 3
ENDMDL
MODEL 9
REMARK VINA RESULT:      -5.4      2.902      4.372
REMARK  3 active torsions:
REMARK  status: ('A' for Active; 'I' for Inactive)
REMARK    1  A    between atoms: C_1  and  C_2 
REMARK    2  A    between atoms: C_18  and  C_26 
REMARK    3  A    between atoms: C_23  and  O_25 
ROOT
ATOM      1  C   LIG d   1       5.969  -1.116  -3.938  0.00  0.00    -0.025 C 
ATOM      2  C   LIG d   1       5.323  -0.926  -2.567  0.00  0.00    -0.040 C 
ATOM      3  C   LIG d   1       4.182   0.092  -2.673  0.00  0.00     0.006 C 
ATOM      4  C   LIG d   1       3.229  -0.369  -3.754  0.00  0.00     0.134 C 
ATOM      5  O   LIG d   1       2.044  -0.460  -3.538  0.00  0.00    -0.297 OA
ATOM      6  C   LIG d   1       3.798  -0.713  -5.111  0.00  0.00     0.009 C 
ATOM      7  C   LIG d   1       4.949  -1.687  -4.927  0.00  0.00    -0.029 C 
ATOM      8  H   LIG d   1       4.562  -2.633  -4.550  0.00  0.00     0.031 H 
ATOM      9  C   LIG d   1       5.630  -1.897  -6.283  0.00  0.00    -0.049 C 
ATOM     10  C   LIG d   1       6.149  -0.554  -6.803  0.00  0.00    -0.049 C 
ATOM     11  C   LIG d   1       7.161   0.022  -5.812  0.00  0.00    -0.034 C 
ATOM     12  H   LIG d   1       7.998  -0.667  -5.700  0.00  0.00     0.031 H 
ATOM     13  C   LIG d   1       6.476   0.230  -4.452  0.00  0.00    -0.032 C 
ATOM     14  H   LIG d   1       5.626   0.901  -4.585  0.00  0.00     0.031 H 
ATOM     15  C   LIG d   1       7.427   0.854  -3.437  0.00  0.00    -0.049 C 
ATOM     16  C   LIG d   1       8.033   2.165  -3.968  0.00  0.00    -0.045 C 
ATOM     17  C   LIG d   1       8.736   1.842  -5.272  0.00  0.00    -0.003 C 
ATOM     18  C   LIG d   1       7.668   1.368  -6.292  0.00  0.00    -0.030 C 
ATOM     19  H   LIG d   1       6.851   2.088  -6.335  0.00  0.00     0.031 H 
ATOM     20  C   LIG d   1       8.458   1.355  -7.606  0.00  0.00    -0.047 C 
ATOM     21  C   LIG d   1       9.306   2.653  -7.515  0.00  0.00    -0.026 C 
ATOM     22  C   LIG d   1       9.410   3.006  -5.990  0.00  0.00     0.061 C 
ATOM     23  H   LIG d   1       8.903   3.941  -5.751  0.00  0.00     0.060 H 
ATOM     24  H   LIG d   1       4.927  -1.879  -2.217  0.00  0.00     0.028 H 
ATOM     25  H   LIG d   1       6.068  -0.562  -1.861  0.00  0.00     0.028 H 
ATOM     26  H   LIG d   1       3.655   0.153  -1.721  0.00  0.00     0.034 H 
ATOM     27  H   LIG d   1       4.586   1.070  -2.933  0.00  0.00     0.034 H 
ATOM     28  H   LIG d   1       3.023  -1.168  -5.728  0.00  0.00     0.034 H 
ATOM     29  H   LIG d   1       4.168   0.193  -5.593  0.00  0.00     0.034 H 
ATOM     30  H   LIG d   1       6.465  -2.589  -6.167  0.00  0.00     0.027 H 
ATOM     31  H   LIG d   1       4.911  -2.308  -6.992  0.00  0.00     0.027 H 
ATOM     32  H   LIG d   1       6.630  -0.700  -7.770  0.00  0.00     0.027 H 
ATOM     33  H   LIG d   1       5.315   0.139  -6.914  0.00  0.00     0.027 H 
ATOM     34  H   LIG d   1       6.881   1.061  -2.517  0.00  0.00     0.027 H 
ATOM     35  H   LIG d   1       8.232   0.151  -3.222  0.00  0.00     0.027 H 
ATOM     36  H   LIG d   1       7.242   2.894  -4.144  0.00  0.00     0.027 H 
ATOM     37  H   LIG d   1       8.749   2.560  -3.248  0.00  0.00     0.027 H 
ATOM     38  H   LIG d   1       9.100   0.477  -7.661  0.00  0.00     0.027 H 
ATOM     39  H   LIG d   1       7.784   1.394  -8.462  0.00  0.00     0.027 H 
ATOM     40  H   LIG d   1      10.290   2.487  -7.951  0.00  0.00     0.029 H 
ATOM     41  H   LIG d   1       8.800   3.468  -8.031  0.00  0.00     0.029 H 
ENDROOT
BRANCH   1  42
ATOM     42  C   LIG d   1       7.146  -2.085  -3.812  0.00  0.00    -0.059 C 
ATOM     43  H   LIG d   1       6.860  -3.058  -4.210  0.00  0.00     0.024 H 
ATOM     44  H   LIG d   1       7.997  -1.697  -4.373  0.00  0.00     0.024 H 
ATOM     45  H   LIG d   1       7.421  -2.188  -2.762  0.00  0.00     0.024 H 
ENDBRANCH   1  42
BRANCH  17  46
ATOM     46  C   LIG d   1       9.748   0.717  -5.047  0.00  0.00    -0.057 C 
ATOM     47  H   LIG d   1      10.296   0.901  -4.123  0.00  0.00     0.024 H 
ATOM     48  H   LIG d   1       9.223  -0.235  -4.974  0.00  0.00     0.024 H 
ATOM     49  H   LIG d   1      10.446   0.683  -5.883  0.00  0.00     0.024 H 
ENDBRANCH  17  46
BRANCH  22  50
ATOM     50  O   LIG d   1      10.790   3.081  -5.625  0.00  0.00    -0.391 OA
ATOM     51  H   LIG d   1      11.258   3.834  -6.010  0.00  0.00     0.210 HD
ENDBRANCH  22  50
TORSDOF 3
ENDMDL
MODEL 10
REMARK VINA RESULT:      -5.3      4.125      8.118
REMARK  3 active torsions:
REMARK  status: ('A' for Active; 'I' for Inactive)
REMARK    1  A    between atoms: C_1  and  C_2 
REMARK    2  A    between atoms: C_18  and  C_26 
REMARK    3  A    between atoms: C_23  and  O_25 
ROOT
ATOM      1  C   LIG d   1       2.818  -2.805 -12.191  0.00  0.00    -0.025 C 
ATOM      2  C   LIG d   1       1.538  -3.615 -12.395  0.00  0.00    -0.040 C 
ATOM      3  C   LIG d   1       0.567  -2.828 -13.282  0.00  0.00     0.006 C 
ATOM      4  C   LIG d   1       1.282  -2.459 -14.564  0.00  0.00     0.134 C 
ATOM      5  O   LIG d   1       0.794  -2.706 -15.640  0.00  0.00    -0.297 OA
ATOM      6  C   LIG d   1       2.626  -1.773 -14.461  0.00  0.00     0.009 C 
ATOM      7  C   LIG d   1       3.518  -2.580 -13.534  0.00  0.00    -0.029 C 
ATOM      8  H   LIG d   1       3.742  -3.541 -13.996  0.00  0.00     0.031 H 
ATOM      9  C   LIG d   1       4.812  -1.793 -13.298  0.00  0.00    -0.049 C 
ATOM     10  C   LIG d   1       4.475  -0.441 -12.666  0.00  0.00    -0.049 C 
ATOM     11  C   LIG d   1       3.766  -0.663 -11.329  0.00  0.00    -0.034 C 
ATOM     12  H   LIG d   1       4.418  -1.221 -10.657  0.00  0.00     0.031 H 
ATOM     13  C   LIG d   1       2.470  -1.454 -11.569  0.00  0.00    -0.032 C 
ATOM     14  H   LIG d   1       1.840  -0.896 -12.262  0.00  0.00     0.031 H 
ATOM     15  C   LIG d   1       1.693  -1.659 -10.273  0.00  0.00    -0.049 C 
ATOM     16  C   LIG d   1       1.414  -0.320  -9.568  0.00  0.00    -0.045 C 
ATOM     17  C   LIG d   1       2.752   0.349  -9.322  0.00  0.00    -0.003 C 
ATOM     18  C   LIG d   1       3.396   0.664 -10.697  0.00  0.00    -0.030 C 
ATOM     19  H   LIG d   1       2.683   1.199 -11.326  0.00  0.00     0.031 H 
ATOM     20  C   LIG d   1       4.570   1.570 -10.307  0.00  0.00    -0.047 C 
ATOM     21  C   LIG d   1       3.954   2.484  -9.211  0.00  0.00    -0.026 C 
ATOM     22  C   LIG d   1       2.718   1.710  -8.634  0.00  0.00     0.061 C 
ATOM     23  H   LIG d   1       1.779   2.219  -8.850  0.00  0.00     0.060 H 
ATOM     24  H   LIG d   1       1.782  -4.562 -12.875  0.00  0.00     0.028 H 
ATOM     25  H   LIG d   1       1.072  -3.806 -11.429  0.00  0.00     0.028 H 
ATOM     26  H   LIG d   1      -0.302  -3.445 -13.512  0.00  0.00     0.034 H 
ATOM     27  H   LIG d   1       0.249  -1.923 -12.766  0.00  0.00     0.034 H 
ATOM     28  H   LIG d   1       3.081  -1.710 -15.450  0.00  0.00     0.034 H 
ATOM     29  H   LIG d   1       2.494  -0.771 -14.051  0.00  0.00     0.034 H 
ATOM     30  H   LIG d   1       5.462  -2.356 -12.627  0.00  0.00     0.027 H 
ATOM     31  H   LIG d   1       5.319  -1.634 -14.249  0.00  0.00     0.027 H 
ATOM     32  H   LIG d   1       5.393   0.123 -12.502  0.00  0.00     0.027 H 
ATOM     33  H   LIG d   1       3.820   0.119 -13.335  0.00  0.00     0.027 H 
ATOM     34  H   LIG d   1       0.746  -2.147 -10.498  0.00  0.00     0.027 H 
ATOM     35  H   LIG d   1       2.273  -2.298  -9.606  0.00  0.00     0.027 H 
ATOM     36  H   LIG d   1       0.795   0.313 -10.206  0.00  0.00     0.027 H 
ATOM     37  H   LIG d   1       0.908  -0.499  -8.620  0.00  0.00     0.027 H 
ATOM     38  H   LIG d   1       5.392   0.981  -9.901  0.00  0.00     0.027 H 
ATOM     39  H   LIG d   1       4.902   2.161 -11.160  0.00  0.00     0.027 H 
ATOM     40  H   LIG d   1       4.692   2.686  -8.436  0.00  0.00     0.029 H 
ATOM     41  H   LIG d   1       3.610   3.418  -9.653  0.00  0.00     0.029 H 
ENDROOT
BRANCH   1  42
ATOM     42  C   LIG d   1       3.755  -3.567 -11.254  0.00  0.00    -0.059 C 
ATOM     43  H   LIG d   1       3.222  -4.408 -10.812  0.00  0.00     0.024 H 
ATOM     44  H   LIG d   1       4.612  -3.935 -11.818  0.00  0.00     0.024 H 
ATOM     45  H   LIG d   1       4.101  -2.899 -10.464  0.00  0.00     0.024 H 
ENDBRANCH   1  42
BRANCH  17  46
ATOM     46  C   LIG d   1       3.668  -0.600  -8.546  0.00  0.00    -0.057 C 
ATOM     47  H   LIG d   1       4.559  -0.061  -8.223  0.00  0.00     0.024 H 
ATOM     48  H   LIG d   1       3.139  -0.982  -7.673  0.00  0.00     0.024 H 
ATOM     49  H   LIG d   1       3.958  -1.431  -9.188  0.00  0.00     0.024 H 
ENDBRANCH  17  46
BRANCH  22  50
ATOM     50  O   LIG d   1       2.886   1.555  -7.223  0.00  0.00    -0.391 OA
ATOM     51  H   LIG d   1       3.659   2.015  -6.866  0.00  0.00     0.210 HD
ENDBRANCH  22  50
TORSDOF 3
ENDMDL
