MODEL 1
REMARK VINA RESULT:      -5.9      0.000      0.000
REMARK  8 active torsions:
REMARK  status: ('A' for Active; 'I' for Inactive)
REMARK    1  A    between atoms: C_1  and  O_2 
REMARK    2  A    between atoms: O_2  and  C_3 
REMARK    3  A    between atoms: C_6  and  C_10 
REMARK    4  A    between atoms: C_8  and  O_9 
REMARK    5  A    between atoms: C_10  and  C_11 
REMARK    6  A    between atoms: C_19  and  O_22 
REMARK    7  A    between atoms: C_20  and  O_21 
REMARK    8  A    between atoms: O_22  and  C_23 
ROOT
ATOM      1  C   LIG d   1       8.704   1.153  -4.337  0.00  0.00     0.029 C 
ATOM      2  H   LIG d   1       9.378   1.306  -3.494  0.00  0.00     0.040 H 
ATOM      3  C   LIG d   1       9.359   0.209  -5.346  0.00  0.00    -0.026 C 
ATOM      4  C   LIG d   1       8.071  -1.721  -4.692  0.00  0.00    -0.004 C 
ATOM      5  C   LIG d   1       7.119  -0.778  -4.004  0.00  0.00     0.046 A 
ATOM      6  C   LIG d   1       7.408   0.561  -3.844  0.00  0.00    -0.027 A 
ATOM      7  C   LIG d   1       6.499   1.397  -3.215  0.00  0.00    -0.054 A 
ATOM      8  C   LIG d   1       5.299   0.900  -2.746  0.00  0.00    -0.016 A 
ATOM      9  C   LIG d   1       5.005  -0.446  -2.896  0.00  0.00     0.162 A 
ATOM     10  C   LIG d   1       5.915  -1.284  -3.528  0.00  0.00     0.167 A 
ATOM     11  H   LIG d   1       8.768   0.183  -6.262  0.00  0.00     0.082 H 
ATOM     12  H   LIG d   1      10.369   0.553  -5.568  0.00  0.00     0.082 H 
ATOM     13  H   LIG d   1       8.111  -2.659  -4.138  0.00  0.00     0.087 H 
ATOM     14  H   LIG d   1       7.715  -1.916  -5.704  0.00  0.00     0.087 H 
ATOM     15  H   LIG d   1       6.729   2.445  -3.093  0.00  0.00     0.062 H 
ATOM     16  H   LIG d   1       4.593   1.557  -2.261  0.00  0.00     0.066 H 
ATOM     17  N   LIG d   1       9.420  -1.141  -4.754  0.00  0.00     0.231 N 
ATOM     18  H   LIG d   1       9.807  -1.079  -3.805  0.00  0.00     0.202 HD
ATOM     19  H   LIG d   1      10.021  -1.740  -5.331  0.00  0.00     0.202 HD
ENDROOT
BRANCH   1  20
ATOM     20  C   LIG d   1       8.424   2.498  -5.013  0.00  0.00    -0.016 C 
ATOM     21  H   LIG d   1       8.753   2.458  -6.051  0.00  0.00     0.032 H 
ATOM     22  H   LIG d   1       7.354   2.705  -4.979  0.00  0.00     0.032 H 
BRANCH  20  23
ATOM     23  C   LIG d   1       9.170   3.588  -4.290  0.00  0.00    -0.043 A 
ATOM     24  C   LIG d   1       9.195   4.869  -4.811  0.00  0.00    -0.055 A 
ATOM     25  C   LIG d   1       9.873   5.875  -4.148  0.00  0.00    -0.016 A 
ATOM     26  H   LIG d   1       8.680   5.085  -5.735  0.00  0.00     0.062 H 
ATOM     27  C   LIG d   1      10.539   5.598  -2.965  0.00  0.00     0.161 A 
ATOM     28  H   LIG d   1       9.888   6.875  -4.554  0.00  0.00     0.066 H 
ATOM     29  C   LIG d   1      10.519   4.308  -2.444  0.00  0.00     0.159 A 
ATOM     30  C   LIG d   1       9.832   3.306  -3.110  0.00  0.00    -0.013 A 
ATOM     31  H   LIG d   1       9.815   2.304  -2.708  0.00  0.00     0.066 H 
BRANCH  27  32
ATOM     32  O   LIG d   1      11.212   6.586  -2.315  0.00  0.00    -0.491 OA
BRANCH  32  33
ATOM     33  C   LIG d   1      10.431   7.524  -1.572  0.00  0.00     0.079 C 
ATOM     34  H   LIG d   1      10.194   7.105  -0.594  0.00  0.00     0.066 H 
ATOM     35  H   LIG d   1      10.996   8.447  -1.445  0.00  0.00     0.066 H 
ATOM     36  H   LIG d   1       9.508   7.734  -2.111  0.00  0.00     0.066 H 
ENDBRANCH  32  33
ENDBRANCH  27  32
BRANCH  29  37
ATOM     37  O   LIG d   1      11.171   4.031  -1.283  0.00  0.00    -0.503 OA
ATOM     38  H   LIG d   1      11.906   3.411  -1.383  0.00  0.00     0.292 HD
ENDBRANCH  29  37
ENDBRANCH  20  23
ENDBRANCH   1  20
BRANCH  10  39
ATOM     39  O   LIG d   1       5.628  -2.604  -3.681  0.00  0.00    -0.503 OA
ATOM     40  H   LIG d   1       4.959  -2.785  -4.356  0.00  0.00     0.292 HD
ENDBRANCH  10  39
BRANCH   9  41
ATOM     41  O   LIG d   1       3.827  -0.943  -2.431  0.00  0.00    -0.491 OA
BRANCH  41  42
ATOM     42  C   LIG d   1       2.661  -0.692  -3.218  0.00  0.00     0.079 C 
ATOM     43  H   LIG d   1       2.529  -1.498  -3.941  0.00  0.00     0.066 H 
ATOM     44  H   LIG d   1       1.788  -0.642  -2.568  0.00  0.00     0.066 H 
ATOM     45  H   LIG d   1       2.775   0.253  -3.747  0.00  0.00     0.066 H 
ENDBRANCH  41  42
ENDBRANCH   9  41
TORSDOF 8
ENDMDL
MODEL 2
REMARK VINA RESULT:      -5.4      5.540      7.822
REMARK  8 active torsions:
REMARK  status: ('A' for Active; 'I' for Inactive)
REMARK    1  A    between atoms: C_1  and  O_2 
REMARK    2  A    between atoms: O_2  and  C_3 
REMARK    3  A    between atoms: C_6  and  C_10 
REMARK    4  A    between atoms: C_8  and  O_9 
REMARK    5  A    between atoms: C_10  and  C_11 
REMARK    6  A    between atoms: C_19  and  O_22 
REMARK    7  A    between atoms: C_20  and  O_21 
REMARK    8  A    between atoms: O_22  and  C_23 
ROOT
ATOM      1  C   LIG d   1       9.841   7.323  -5.608  0.00  0.00     0.029 C 
ATOM      2  H   LIG d   1      10.870   7.146  -5.297  0.00  0.00     0.040 H 
ATOM      3  C   LIG d   1       9.519   8.811  -5.472  0.00  0.00    -0.026 C 
ATOM      4  C   LIG d   1       9.719   9.284  -7.827  0.00  0.00    -0.004 C 
ATOM      5  C   LIG d   1       9.618   7.802  -8.073  0.00  0.00     0.046 A 
ATOM      6  C   LIG d   1       9.668   6.888  -7.041  0.00  0.00    -0.027 A 
ATOM      7  C   LIG d   1       9.560   5.532  -7.310  0.00  0.00    -0.054 A 
ATOM      8  C   LIG d   1       9.401   5.086  -8.607  0.00  0.00    -0.016 A 
ATOM      9  C   LIG d   1       9.358   5.998  -9.650  0.00  0.00     0.162 A 
ATOM     10  C   LIG d   1       9.464   7.357  -9.381  0.00  0.00     0.167 A 
ATOM     11  H   LIG d   1       8.450   8.970  -5.621  0.00  0.00     0.082 H 
ATOM     12  H   LIG d   1       9.809   9.160  -4.481  0.00  0.00     0.082 H 
ATOM     13  H   LIG d   1      10.365   9.732  -8.583  0.00  0.00     0.087 H 
ATOM     14  H   LIG d   1       8.726   9.728  -7.896  0.00  0.00     0.087 H 
ATOM     15  H   LIG d   1       9.597   4.820  -6.500  0.00  0.00     0.062 H 
ATOM     16  H   LIG d   1       9.312   4.029  -8.809  0.00  0.00     0.066 H 
ATOM     17  N   LIG d   1      10.280   9.552  -6.495  0.00  0.00     0.231 N 
ATOM     18  H   LIG d   1      11.261   9.251  -6.474  0.00  0.00     0.202 HD
ATOM     19  H   LIG d   1      10.226  10.558  -6.299  0.00  0.00     0.202 HD
ENDROOT
BRANCH   1  20
ATOM     20  C   LIG d   1       8.895   6.518  -4.715  0.00  0.00    -0.016 C 
ATOM     21  H   LIG d   1       8.012   7.116  -4.488  0.00  0.00     0.032 H 
ATOM     22  H   LIG d   1       8.593   5.607  -5.233  0.00  0.00     0.032 H 
BRANCH  20  23
ATOM     23  C   LIG d   1       9.600   6.156  -3.434  0.00  0.00    -0.043 A 
ATOM     24  C   LIG d   1       9.801   7.118  -2.461  0.00  0.00    -0.055 A 
ATOM     25  C   LIG d   1      10.442   6.789  -1.282  0.00  0.00    -0.016 A 
ATOM     26  H   LIG d   1       9.452   8.127  -2.622  0.00  0.00     0.062 H 
ATOM     27  C   LIG d   1      10.895   5.496  -1.076  0.00  0.00     0.161 A 
ATOM     28  H   LIG d   1      10.595   7.541  -0.522  0.00  0.00     0.066 H 
ATOM     29  C   LIG d   1      10.698   4.529  -2.057  0.00  0.00     0.159 A 
ATOM     30  C   LIG d   1      10.049   4.864  -3.235  0.00  0.00    -0.013 A 
ATOM     31  H   LIG d   1       9.895   4.115  -3.998  0.00  0.00     0.066 H 
BRANCH  27  32
ATOM     32  O   LIG d   1      11.532   5.173   0.082  0.00  0.00    -0.491 OA
BRANCH  32  33
ATOM     33  C   LIG d   1      11.107   5.848   1.267  0.00  0.00     0.079 C 
ATOM     34  H   LIG d   1      10.026   5.988   1.238  0.00  0.00     0.066 H 
ATOM     35  H   LIG d   1      11.374   5.253   2.140  0.00  0.00     0.066 H 
ATOM     36  H   LIG d   1      11.598   6.820   1.326  0.00  0.00     0.066 H 
ENDBRANCH  32  33
ENDBRANCH  27  32
BRANCH  29  37
ATOM     37  O   LIG d   1      11.140   3.258  -1.860  0.00  0.00    -0.503 OA
ATOM     38  H   LIG d   1      11.979   3.061  -2.300  0.00  0.00     0.292 HD
ENDBRANCH  29  37
ENDBRANCH  20  23
ENDBRANCH   1  20
BRANCH  10  39
ATOM     39  O   LIG d   1       9.418   8.256 -10.401  0.00  0.00    -0.503 OA
ATOM     40  H   LIG d   1       8.761   8.955 -10.278  0.00  0.00     0.292 HD
ENDBRANCH  10  39
BRANCH   9  41
ATOM     41  O   LIG d   1       9.207   5.565 -10.930  0.00  0.00    -0.491 OA
BRANCH  41  42
ATOM     42  C   LIG d   1      10.291   4.828 -11.498  0.00  0.00     0.079 C 
ATOM     43  H   LIG d   1       9.995   4.438 -12.472  0.00  0.00     0.066 H 
ATOM     44  H   LIG d   1      11.153   5.484 -11.616  0.00  0.00     0.066 H 
ATOM     45  H   LIG d   1      10.552   4.000 -10.840  0.00  0.00     0.066 H 
ENDBRANCH  41  42
ENDBRANCH   9  41
TORSDOF 8
ENDMDL
MODEL 3
REMARK VINA RESULT:      -5.3      5.186      7.736
REMARK  8 active torsions:
REMARK  status: ('A' for Active; 'I' for Inactive)
REMARK    1  A    between atoms: C_1  and  O_2 
REMARK    2  A    between atoms: O_2  and  C_3 
REMARK    3  A    between atoms: C_6  and  C_10 
REMARK    4  A    between atoms: C_8  and  O_9 
REMARK    5  A    between atoms: C_10  and  C_11 
REMARK    6  A    between atoms: C_19  and  O_22 
REMARK    7  A    between atoms: C_20  and  O_21 
REMARK    8  A    between atoms: O_22  and  C_23 
ROOT
ATOM      1  C   LIG d   1      10.253   5.892  -4.394  0.00  0.00     0.029 C 
ATOM      2  H   LIG d   1      11.136   6.174  -4.967  0.00  0.00     0.040 H 
ATOM      3  C   LIG d   1      10.007   4.391  -4.546  0.00  0.00    -0.026 C 
ATOM      4  C   LIG d   1      10.901   3.813  -2.383  0.00  0.00    -0.004 C 
ATOM      5  C   LIG d   1      10.775   5.267  -2.009  0.00  0.00     0.046 A 
ATOM      6  C   LIG d   1      10.467   6.235  -2.941  0.00  0.00    -0.027 A 
ATOM      7  C   LIG d   1      10.348   7.560  -2.552  0.00  0.00    -0.054 A 
ATOM      8  C   LIG d   1      10.535   7.922  -1.233  0.00  0.00    -0.016 A 
ATOM      9  C   LIG d   1      10.853   6.956  -0.292  0.00  0.00     0.162 A 
ATOM     10  C   LIG d   1      10.970   5.627  -0.680  0.00  0.00     0.167 A 
ATOM     11  H   LIG d   1       9.038   4.133  -4.116  0.00  0.00     0.082 H 
ATOM     12  H   LIG d   1      10.026   4.121  -5.601  0.00  0.00     0.082 H 
ATOM     13  H   LIG d   1      11.765   3.384  -1.874  0.00  0.00     0.087 H 
ATOM     14  H   LIG d   1      10.002   3.282  -2.073  0.00  0.00     0.087 H 
ATOM     15  H   LIG d   1      10.104   8.315  -3.285  0.00  0.00     0.062 H 
ATOM     16  H   LIG d   1      10.436   8.955  -0.935  0.00  0.00     0.066 H 
ATOM     17  N   LIG d   1      11.076   3.666  -3.835  0.00  0.00     0.231 N 
ATOM     18  H   LIG d   1      11.988   4.051  -4.108  0.00  0.00     0.202 HD
ATOM     19  H   LIG d   1      11.037   2.670  -4.083  0.00  0.00     0.202 HD
ENDROOT
BRANCH   1  20
ATOM     20  C   LIG d   1       9.039   6.659  -4.924  0.00  0.00    -0.016 C 
ATOM     21  H   LIG d   1       8.209   5.968  -5.071  0.00  0.00     0.032 H 
ATOM     22  H   LIG d   1       8.750   7.424  -4.203  0.00  0.00     0.032 H 
BRANCH  20  23
ATOM     23  C   LIG d   1       9.390   7.311  -6.235  0.00  0.00    -0.043 A 
ATOM     24  C   LIG d   1       9.830   6.539  -7.295  0.00  0.00    -0.055 A 
ATOM     25  C   LIG d   1      10.147   7.133  -8.502  0.00  0.00    -0.016 A 
ATOM     26  H   LIG d   1       9.920   5.469  -7.180  0.00  0.00     0.062 H 
ATOM     27  C   LIG d   1      10.036   8.506  -8.649  0.00  0.00     0.161 A 
ATOM     28  H   LIG d   1      10.486   6.527  -9.329  0.00  0.00     0.066 H 
ATOM     29  C   LIG d   1       9.600   9.284  -7.581  0.00  0.00     0.159 A 
ATOM     30  C   LIG d   1       9.277   8.682  -6.375  0.00  0.00    -0.013 A 
ATOM     31  H   LIG d   1       8.938   9.284  -5.545  0.00  0.00     0.066 H 
BRANCH  27  32
ATOM     32  O   LIG d   1      10.354   9.092  -9.835  0.00  0.00    -0.491 OA
BRANCH  32  33
ATOM     33  C   LIG d   1      10.366   8.254 -10.991  0.00  0.00     0.079 C 
ATOM     34  H   LIG d   1      10.226   7.216 -10.689  0.00  0.00     0.066 H 
ATOM     35  H   LIG d   1       9.560   8.549 -11.662  0.00  0.00     0.066 H 
ATOM     36  H   LIG d   1      11.323   8.357 -11.504  0.00  0.00     0.066 H 
ENDBRANCH  32  33
ENDBRANCH  27  32
BRANCH  29  37
ATOM     37  O   LIG d   1       9.489  10.632  -7.720  0.00  0.00    -0.503 OA
ATOM     38  H   LIG d   1       9.088  11.075  -6.960  0.00  0.00     0.292 HD
ENDBRANCH  29  37
ENDBRANCH  20  23
ENDBRANCH   1  20
BRANCH  10  39
ATOM     39  O   LIG d   1      11.278   4.675   0.241  0.00  0.00    -0.503 OA
ATOM     40  H   LIG d   1      12.052   4.888   0.781  0.00  0.00     0.292 HD
ENDBRANCH  10  39
BRANCH   9  41
ATOM     41  O   LIG d   1      11.044   7.306   1.008  0.00  0.00    -0.491 OA
BRANCH  41  42
ATOM     42  C   LIG d   1      11.518   8.630   1.261  0.00  0.00     0.079 C 
ATOM     43  H   LIG d   1      12.560   8.709   0.949  0.00  0.00     0.066 H 
ATOM     44  H   LIG d   1      10.916   9.345   0.701  0.00  0.00     0.066 H 
ATOM     45  H   LIG d   1      11.441   8.847   2.326  0.00  0.00     0.066 H 
ENDBRANCH  41  42
ENDBRANCH   9  41
TORSDOF 8
ENDMDL
MODEL 4
REMARK VINA RESULT:      -5.3      5.473      7.644
REMARK  8 active torsions:
REMARK  status: ('A' for Active; 'I' for Inactive)
REMARK    1  A    between atoms: C_1  and  O_2 
REMARK    2  A    between atoms: O_2  and  C_3 
REMARK    3  A    between atoms: C_6  and  C_10 
REMARK    4  A    between atoms: C_8  and  O_9 
REMARK    5  A    between atoms: C_10  and  C_11 
REMARK    6  A    between atoms: C_19  and  O_22 
REMARK    7  A    between atoms: C_20  and  O_21 
REMARK    8  A    between atoms: O_22  and  C_23 
ROOT
ATOM      1  C   LIG d   1      10.330   6.235  -4.520  0.00  0.00     0.029 C 
ATOM      2  H   LIG d   1      11.161   6.764  -4.987  0.00  0.00     0.040 H 
ATOM      3  C   LIG d   1      10.374   4.761  -4.925  0.00  0.00    -0.026 C 
ATOM      4  C   LIG d   1      11.299   3.998  -2.834  0.00  0.00    -0.004 C 
ATOM      5  C   LIG d   1      10.891   5.321  -2.239  0.00  0.00     0.046 A 
ATOM      6  C   LIG d   1      10.434   6.361  -3.021  0.00  0.00    -0.027 A 
ATOM      7  C   LIG d   1      10.058   7.558  -2.432  0.00  0.00    -0.054 A 
ATOM      8  C   LIG d   1      10.136   7.719  -1.063  0.00  0.00    -0.016 A 
ATOM      9  C   LIG d   1      10.602   6.682  -0.272  0.00  0.00     0.162 A 
ATOM     10  C   LIG d   1      10.977   5.481  -0.861  0.00  0.00     0.167 A 
ATOM     11  H   LIG d   1       9.460   4.264  -4.601  0.00  0.00     0.082 H 
ATOM     12  H   LIG d   1      10.474   4.681  -6.007  0.00  0.00     0.082 H 
ATOM     13  H   LIG d   1      12.213   3.652  -2.350  0.00  0.00     0.087 H 
ATOM     14  H   LIG d   1      10.506   3.269  -2.667  0.00  0.00     0.087 H 
ATOM     15  H   LIG d   1       9.698   8.369  -3.048  0.00  0.00     0.062 H 
ATOM     16  H   LIG d   1       9.836   8.653  -0.610  0.00  0.00     0.066 H 
ATOM     17  N   LIG d   1      11.540   4.132  -4.278  0.00  0.00     0.231 N 
ATOM     18  H   LIG d   1      12.371   4.715  -4.430  0.00  0.00     0.202 HD
ATOM     19  H   LIG d   1      11.696   3.202  -4.684  0.00  0.00     0.202 HD
ENDROOT
BRANCH   1  20
ATOM     20  C   LIG d   1       9.010   6.849  -4.992  0.00  0.00    -0.016 C 
ATOM     21  H   LIG d   1       8.452   6.110  -5.567  0.00  0.00     0.032 H 
ATOM     22  H   LIG d   1       8.422   7.154  -4.125  0.00  0.00     0.032 H 
BRANCH  20  23
ATOM     23  C   LIG d   1       9.294   8.050  -5.854  0.00  0.00    -0.043 A 
ATOM     24  C   LIG d   1       9.587   9.268  -5.267  0.00  0.00    -0.055 A 
ATOM     25  C   LIG d   1       9.854  10.371  -6.055  0.00  0.00    -0.016 A 
ATOM     26  H   LIG d   1       9.613   9.354  -4.192  0.00  0.00     0.062 H 
ATOM     27  C   LIG d   1       9.816  10.263  -7.436  0.00  0.00     0.161 A 
ATOM     28  H   LIG d   1      10.087  11.320  -5.595  0.00  0.00     0.066 H 
ATOM     29  C   LIG d   1       9.515   9.040  -8.027  0.00  0.00     0.159 A 
ATOM     30  C   LIG d   1       9.254   7.935  -7.231  0.00  0.00    -0.013 A 
ATOM     31  H   LIG d   1       9.020   6.985  -7.688  0.00  0.00     0.066 H 
BRANCH  27  32
ATOM     32  O   LIG d   1      10.072  11.350  -8.213  0.00  0.00    -0.491 OA
BRANCH  32  33
ATOM     33  C   LIG d   1      10.010  12.629  -7.579  0.00  0.00     0.079 C 
ATOM     34  H   LIG d   1      10.659  12.634  -6.704  0.00  0.00     0.066 H 
ATOM     35  H   LIG d   1      10.337  13.398  -8.279  0.00  0.00     0.066 H 
ATOM     36  H   LIG d   1       8.983  12.832  -7.272  0.00  0.00     0.066 H 
ENDBRANCH  32  33
ENDBRANCH  27  32
BRANCH  29  37
ATOM     37  O   LIG d   1       9.477   8.928  -9.382  0.00  0.00    -0.503 OA
ATOM     38  H   LIG d   1       9.038   8.126  -9.698  0.00  0.00     0.292 HD
ENDBRANCH  29  37
ENDBRANCH  20  23
ENDBRANCH   1  20
BRANCH  10  39
ATOM     39  O   LIG d   1      11.431   4.459  -0.087  0.00  0.00    -0.503 OA
ATOM     40  H   LIG d   1      11.933   4.746   0.688  0.00  0.00     0.292 HD
ENDBRANCH  10  39
BRANCH   9  41
ATOM     41  O   LIG d   1      10.686   6.837   1.076  0.00  0.00    -0.491 OA
BRANCH  41  42
ATOM     42  C   LIG d   1      11.359   8.003   1.555  0.00  0.00     0.079 C 
ATOM     43  H   LIG d   1      10.653   8.633   2.097  0.00  0.00     0.066 H 
ATOM     44  H   LIG d   1      12.168   7.707   2.222  0.00  0.00     0.066 H 
ATOM     45  H   LIG d   1      11.768   8.558   0.712  0.00  0.00     0.066 H 
ENDBRANCH  41  42
ENDBRANCH   9  41
TORSDOF 8
ENDMDL
MODEL 5
REMARK VINA RESULT:      -5.3      6.426      8.794
REMARK  8 active torsions:
REMARK  status: ('A' for Active; 'I' for Inactive)
REMARK    1  A    between atoms: C_1  and  O_2 
REMARK    2  A    between atoms: O_2  and  C_3 
REMARK    3  A    between atoms: C_6  and  C_10 
REMARK    4  A    between atoms: C_8  and  O_9 
REMARK    5  A    between atoms: C_10  and  C_11 
REMARK    6  A    between atoms: C_19  and  O_22 
REMARK    7  A    between atoms: C_20  and  O_21 
REMARK    8  A    between atoms: O_22  and  C_23 
ROOT
ATOM      1  C   LIG d   1       3.726  -0.007  -8.898  0.00  0.00     0.029 C 
ATOM      2  H   LIG d   1       4.405  -0.683  -8.380  0.00  0.00     0.040 H 
ATOM      3  C   LIG d   1       4.529   1.127  -9.538  0.00  0.00    -0.026 C 
ATOM      4  C   LIG d   1       4.428   0.220 -11.769  0.00  0.00    -0.004 C 
ATOM      5  C   LIG d   1       3.306  -0.665 -11.295  0.00  0.00     0.046 A 
ATOM      6  C   LIG d   1       2.973  -0.767  -9.960  0.00  0.00    -0.027 A 
ATOM      7  C   LIG d   1       1.925  -1.585  -9.568  0.00  0.00    -0.054 A 
ATOM      8  C   LIG d   1       1.207  -2.302 -10.504  0.00  0.00    -0.016 A 
ATOM      9  C   LIG d   1       1.541  -2.210 -11.846  0.00  0.00     0.162 A 
ATOM     10  C   LIG d   1       2.590  -1.389 -12.241  0.00  0.00     0.167 A 
ATOM     11  H   LIG d   1       3.848   1.892  -9.913  0.00  0.00     0.082 H 
ATOM     12  H   LIG d   1       5.202   1.562  -8.799  0.00  0.00     0.082 H 
ATOM     13  H   LIG d   1       5.004  -0.305 -12.532  0.00  0.00     0.087 H 
ATOM     14  H   LIG d   1       4.011   1.131 -12.198  0.00  0.00     0.087 H 
ATOM     15  H   LIG d   1       1.667  -1.661  -8.522  0.00  0.00     0.062 H 
ATOM     16  H   LIG d   1       0.389  -2.933 -10.192  0.00  0.00     0.066 H 
ATOM     17  N   LIG d   1       5.318   0.572 -10.653  0.00  0.00     0.231 N 
ATOM     18  H   LIG d   1       5.812  -0.270 -10.335  0.00  0.00     0.202 HD
ATOM     19  H   LIG d   1       6.001   1.270 -10.969  0.00  0.00     0.202 HD
ENDROOT
BRANCH   1  20
ATOM     20  C   LIG d   1       2.733   0.583  -7.894  0.00  0.00    -0.016 C 
ATOM     21  H   LIG d   1       2.787   1.671  -7.926  0.00  0.00     0.032 H 
ATOM     22  H   LIG d   1       1.723   0.261  -8.152  0.00  0.00     0.032 H 
BRANCH  20  23
ATOM     23  C   LIG d   1       3.074   0.102  -6.508  0.00  0.00    -0.043 A 
ATOM     24  C   LIG d   1       2.360   0.570  -5.420  0.00  0.00    -0.055 A 
ATOM     25  C   LIG d   1       2.667   0.127  -4.147  0.00  0.00    -0.016 A 
ATOM     26  H   LIG d   1       1.559   1.278  -5.566  0.00  0.00     0.062 H 
ATOM     27  C   LIG d   1       3.698  -0.778  -3.958  0.00  0.00     0.161 A 
ATOM     28  H   LIG d   1       2.105   0.490  -3.299  0.00  0.00     0.066 H 
ATOM     29  C   LIG d   1       4.421  -1.244  -5.051  0.00  0.00     0.159 A 
ATOM     30  C   LIG d   1       4.105  -0.801  -6.326  0.00  0.00    -0.013 A 
ATOM     31  H   LIG d   1       4.664  -1.161  -7.177  0.00  0.00     0.066 H 
BRANCH  27  32
ATOM     32  O   LIG d   1       4.005  -1.210  -2.704  0.00  0.00    -0.491 OA
BRANCH  32  33
ATOM     33  C   LIG d   1       4.459  -0.227  -1.772  0.00  0.00     0.079 C 
ATOM     34  H   LIG d   1       3.706   0.555  -1.672  0.00  0.00     0.066 H 
ATOM     35  H   LIG d   1       4.628  -0.696  -0.803  0.00  0.00     0.066 H 
ATOM     36  H   LIG d   1       5.391   0.210  -2.131  0.00  0.00     0.066 H 
ENDBRANCH  32  33
ENDBRANCH  27  32
BRANCH  29  37
ATOM     37  O   LIG d   1       5.434  -2.133  -4.871  0.00  0.00    -0.503 OA
ATOM     38  H   LIG d   1       5.174  -3.056  -4.991  0.00  0.00     0.292 HD
ENDBRANCH  29  37
ENDBRANCH  20  23
ENDBRANCH   1  20
BRANCH  10  39
ATOM     39  O   LIG d   1       2.918  -1.294 -13.557  0.00  0.00    -0.503 OA
ATOM     40  H   LIG d   1       2.324  -1.780 -14.146  0.00  0.00     0.292 HD
ENDBRANCH  10  39
BRANCH   9  41
ATOM     41  O   LIG d   1       0.841  -2.918 -12.773  0.00  0.00    -0.491 OA
BRANCH  41  42
ATOM     42  C   LIG d   1      -0.437  -2.404 -13.153  0.00  0.00     0.079 C 
ATOM     43  H   LIG d   1      -0.469  -1.331 -12.963  0.00  0.00     0.066 H 
ATOM     44  H   LIG d   1      -0.602  -2.590 -14.214  0.00  0.00     0.066 H 
ATOM     45  H   LIG d   1      -1.215  -2.898 -12.572  0.00  0.00     0.066 H 
ENDBRANCH  41  42
ENDBRANCH   9  41
TORSDOF 8
ENDMDL
MODEL 6
REMARK VINA RESULT:      -5.3      5.545      8.953
REMARK  8 active torsions:
REMARK  status: ('A' for Active; 'I' for Inactive)
REMARK    1  A    between atoms: C_1  and  O_2 
REMARK    2  A    between atoms: O_2  and  C_3 
REMARK    3  A    between atoms: C_6  and  C_10 
REMARK    4  A    between atoms: C_8  and  O_9 
REMARK    5  A    between atoms: C_10  and  C_11 
REMARK    6  A    between atoms: C_19  and  O_22 
REMARK    7  A    between atoms: C_20  and  O_21 
REMARK    8  A    between atoms: O_22  and  C_23 
ROOT
ATOM      1  C   LIG d   1       3.135  -0.034  -6.525  0.00  0.00     0.029 C 
ATOM      2  H   LIG d   1       2.678  -0.944  -6.911  0.00  0.00     0.040 H 
ATOM      3  C   LIG d   1       2.316   0.484  -5.342  0.00  0.00    -0.026 C 
ATOM      4  C   LIG d   1       3.842  -0.326  -3.661  0.00  0.00    -0.004 C 
ATOM      5  C   LIG d   1       4.871  -0.472  -4.751  0.00  0.00     0.046 A 
ATOM      6  C   LIG d   1       4.546  -0.330  -6.083  0.00  0.00    -0.027 A 
ATOM      7  C   LIG d   1       5.527  -0.460  -7.054  0.00  0.00    -0.054 A 
ATOM      8  C   LIG d   1       6.833  -0.732  -6.698  0.00  0.00    -0.016 A 
ATOM      9  C   LIG d   1       7.166  -0.883  -5.361  0.00  0.00     0.162 A 
ATOM     10  C   LIG d   1       6.184  -0.751  -4.388  0.00  0.00     0.167 A 
ATOM     11  H   LIG d   1       2.668   1.476  -5.058  0.00  0.00     0.082 H 
ATOM     12  H   LIG d   1       1.263   0.531  -5.618  0.00  0.00     0.082 H 
ATOM     13  H   LIG d   1       3.995  -1.105  -2.914  0.00  0.00     0.087 H 
ATOM     14  H   LIG d   1       3.953   0.651  -3.189  0.00  0.00     0.087 H 
ATOM     15  H   LIG d   1       5.269  -0.347  -8.096  0.00  0.00     0.062 H 
ATOM     16  H   LIG d   1       7.593  -0.827  -7.459  0.00  0.00     0.066 H 
ATOM     17  N   LIG d   1       2.484  -0.448  -4.211  0.00  0.00     0.231 N 
ATOM     18  H   LIG d   1       2.335  -1.409  -4.537  0.00  0.00     0.202 HD
ATOM     19  H   LIG d   1       1.800  -0.224  -3.480  0.00  0.00     0.202 HD
ENDROOT
BRANCH   1  20
ATOM     20  C   LIG d   1       3.159   1.029  -7.626  0.00  0.00    -0.016 C 
ATOM     21  H   LIG d   1       2.400   1.783  -7.419  0.00  0.00     0.032 H 
ATOM     22  H   LIG d   1       4.142   1.501  -7.653  0.00  0.00     0.032 H 
BRANCH  20  23
ATOM     23  C   LIG d   1       2.877   0.381  -8.956  0.00  0.00    -0.043 A 
ATOM     24  C   LIG d   1       3.559   0.796 -10.085  0.00  0.00    -0.055 A 
ATOM     25  C   LIG d   1       3.308   0.200 -11.306  0.00  0.00    -0.016 A 
ATOM     26  H   LIG d   1       4.294   1.584 -10.010  0.00  0.00     0.062 H 
ATOM     27  C   LIG d   1       2.361  -0.807 -11.404  0.00  0.00     0.161 A 
ATOM     28  H   LIG d   1       3.845   0.523 -12.186  0.00  0.00     0.066 H 
ATOM     29  C   LIG d   1       1.670  -1.221 -10.270  0.00  0.00     0.159 A 
ATOM     30  C   LIG d   1       1.931  -0.623  -9.047  0.00  0.00    -0.013 A 
ATOM     31  H   LIG d   1       1.396  -0.943  -8.165  0.00  0.00     0.066 H 
BRANCH  27  32
ATOM     32  O   LIG d   1       2.108  -1.390 -12.607  0.00  0.00    -0.491 OA
BRANCH  32  33
ATOM     33  C   LIG d   1       3.223  -1.591 -13.479  0.00  0.00     0.079 C 
ATOM     34  H   LIG d   1       3.087  -2.520 -14.033  0.00  0.00     0.066 H 
ATOM     35  H   LIG d   1       3.293  -0.758 -14.177  0.00  0.00     0.066 H 
ATOM     36  H   LIG d   1       4.138  -1.649 -12.889  0.00  0.00     0.066 H 
ENDBRANCH  32  33
ENDBRANCH  27  32
BRANCH  29  37
ATOM     37  O   LIG d   1       0.741  -2.209 -10.360  0.00  0.00    -0.503 OA
ATOM     38  H   LIG d   1      -0.098  -2.002  -9.926  0.00  0.00     0.292 HD
ENDBRANCH  29  37
ENDBRANCH  20  23
ENDBRANCH   1  20
BRANCH  10  39
ATOM     39  O   LIG d   1       6.507  -0.895  -3.074  0.00  0.00    -0.503 OA
ATOM     40  H   LIG d   1       7.417  -1.185  -2.924  0.00  0.00     0.292 HD
ENDBRANCH  10  39
BRANCH   9  41
ATOM     41  O   LIG d   1       8.449  -1.156  -5.004  0.00  0.00    -0.491 OA
BRANCH  41  42
ATOM     42  C   LIG d   1       9.439  -0.185  -5.348  0.00  0.00     0.079 C 
ATOM     43  H   LIG d   1       8.952   0.708  -5.741  0.00  0.00     0.066 H 
ATOM     44  H   LIG d   1      10.016   0.076  -4.461  0.00  0.00     0.066 H 
ATOM     45  H   LIG d   1      10.105  -0.598  -6.105  0.00  0.00     0.066 H 
ENDBRANCH  41  42
ENDBRANCH   9  41
TORSDOF 8
ENDMDL
MODEL 7
REMARK VINA RESULT:      -5.2      5.564      9.427
REMARK  8 active torsions:
REMARK  status: ('A' for Active; 'I' for Inactive)
REMARK    1  A    between atoms: C_1  and  O_2 
REMARK    2  A    between atoms: O_2  and  C_3 
REMARK    3  A    between atoms: C_6  and  C_10 
REMARK    4  A    between atoms: C_8  and  O_9 
REMARK    5  A    between atoms: C_10  and  C_11 
REMARK    6  A    between atoms: C_19  and  O_22 
REMARK    7  A    between atoms: C_20  and  O_21 
REMARK    8  A    between atoms: O_22  and  C_23 
ROOT
ATOM      1  C   LIG d   1       5.083  -3.420  -6.164  0.00  0.00     0.029 C 
ATOM      2  H   LIG d   1       4.367  -4.241  -6.187  0.00  0.00     0.040 H 
ATOM      3  C   LIG d   1       5.154  -2.769  -7.546  0.00  0.00    -0.026 C 
ATOM      4  C   LIG d   1       3.801  -0.865  -6.949  0.00  0.00    -0.004 C 
ATOM      5  C   LIG d   1       4.046  -1.219  -5.506  0.00  0.00     0.046 A 
ATOM      6  C   LIG d   1       4.648  -2.404  -5.138  0.00  0.00    -0.027 A 
ATOM      7  C   LIG d   1       4.865  -2.685  -3.798  0.00  0.00    -0.054 A 
ATOM      8  C   LIG d   1       4.483  -1.785  -2.823  0.00  0.00    -0.016 A 
ATOM      9  C   LIG d   1       3.870  -0.596  -3.184  0.00  0.00     0.162 A 
ATOM     10  C   LIG d   1       3.654  -0.312  -4.527  0.00  0.00     0.167 A 
ATOM     11  H   LIG d   1       5.982  -2.060  -7.576  0.00  0.00     0.082 H 
ATOM     12  H   LIG d   1       5.297  -3.537  -8.306  0.00  0.00     0.082 H 
ATOM     13  H   LIG d   1       2.809  -0.424  -7.049  0.00  0.00     0.087 H 
ATOM     14  H   LIG d   1       4.549  -0.141  -7.273  0.00  0.00     0.087 H 
ATOM     15  H   LIG d   1       5.338  -3.613  -3.515  0.00  0.00     0.062 H 
ATOM     16  H   LIG d   1       4.659  -2.009  -1.782  0.00  0.00     0.066 H 
ATOM     17  N   LIG d   1       3.884  -2.062  -7.797  0.00  0.00     0.231 N 
ATOM     18  H   LIG d   1       3.098  -2.687  -7.580  0.00  0.00     0.202 HD
ATOM     19  H   LIG d   1       3.838  -1.784  -8.784  0.00  0.00     0.202 HD
ENDROOT
BRANCH   1  20
ATOM     20  C   LIG d   1       6.465  -3.960  -5.790  0.00  0.00    -0.016 C 
ATOM     21  H   LIG d   1       7.179  -3.704  -6.572  0.00  0.00     0.032 H 
ATOM     22  H   LIG d   1       6.785  -3.517  -4.846  0.00  0.00     0.032 H 
BRANCH  20  23
ATOM     23  C   LIG d   1       6.396  -5.458  -5.643  0.00  0.00    -0.043 A 
ATOM     24  C   LIG d   1       7.503  -6.160  -5.202  0.00  0.00    -0.055 A 
ATOM     25  C   LIG d   1       7.442  -7.533  -5.060  0.00  0.00    -0.016 A 
ATOM     26  H   LIG d   1       8.415  -5.633  -4.964  0.00  0.00     0.062 H 
ATOM     27  C   LIG d   1       6.274  -8.211  -5.371  0.00  0.00     0.161 A 
ATOM     28  H   LIG d   1       8.306  -8.080  -4.712  0.00  0.00     0.066 H 
ATOM     29  C   LIG d   1       5.162  -7.506  -5.820  0.00  0.00     0.159 A 
ATOM     30  C   LIG d   1       5.228  -6.128  -5.954  0.00  0.00    -0.013 A 
ATOM     31  H   LIG d   1       4.366  -5.578  -6.303  0.00  0.00     0.066 H 
BRANCH  27  32
ATOM     32  O   LIG d   1       6.215  -9.564  -5.238  0.00  0.00    -0.491 OA
BRANCH  32  33
ATOM     33  C   LIG d   1       6.084 -10.081  -3.912  0.00  0.00     0.079 C 
ATOM     34  H   LIG d   1       7.066 -10.120  -3.439  0.00  0.00     0.066 H 
ATOM     35  H   LIG d   1       5.427  -9.434  -3.333  0.00  0.00     0.066 H 
ATOM     36  H   LIG d   1       5.661 -11.085  -3.954  0.00  0.00     0.066 H 
ENDBRANCH  32  33
ENDBRANCH  27  32
BRANCH  29  37
ATOM     37  O   LIG d   1       4.013  -8.166  -6.126  0.00  0.00    -0.503 OA
ATOM     38  H   LIG d   1       3.280  -7.979  -5.524  0.00  0.00     0.292 HD
ENDBRANCH  29  37
ENDBRANCH  20  23
ENDBRANCH   1  20
BRANCH  10  39
ATOM     39  O   LIG d   1       3.057   0.855  -4.886  0.00  0.00    -0.503 OA
ATOM     40  H   LIG d   1       2.332   1.121  -4.302  0.00  0.00     0.292 HD
ENDBRANCH  10  39
BRANCH   9  41
ATOM     41  O   LIG d   1       3.486   0.292  -2.228  0.00  0.00    -0.491 OA
BRANCH  41  42
ATOM     42  C   LIG d   1       4.512   1.091  -1.635  0.00  0.00     0.079 C 
ATOM     43  H   LIG d   1       5.055   1.624  -2.416  0.00  0.00     0.066 H 
ATOM     44  H   LIG d   1       4.062   1.809  -0.950  0.00  0.00     0.066 H 
ATOM     45  H   LIG d   1       5.201   0.449  -1.087  0.00  0.00     0.066 H 
ENDBRANCH  41  42
ENDBRANCH   9  41
TORSDOF 8
ENDMDL
MODEL 8
REMARK VINA RESULT:      -5.2      6.038      8.426
REMARK  8 active torsions:
REMARK  status: ('A' for Active; 'I' for Inactive)
REMARK    1  A    between atoms: C_1  and  O_2 
REMARK    2  A    between atoms: O_2  and  C_3 
REMARK    3  A    between atoms: C_6  and  C_10 
REMARK    4  A    between atoms: C_8  and  O_9 
REMARK    5  A    between atoms: C_10  and  C_11 
REMARK    6  A    between atoms: C_19  and  O_22 
REMARK    7  A    between atoms: C_20  and  O_21 
REMARK    8  A    between atoms: O_22  and  C_23 
ROOT
ATOM      1  C   LIG d   1      10.364   6.038  -2.894  0.00  0.00     0.029 C 
ATOM      2  H   LIG d   1      11.203   6.101  -3.588  0.00  0.00     0.040 H 
ATOM      3  C   LIG d   1      10.316   4.638  -2.282  0.00  0.00    -0.026 C 
ATOM      4  C   LIG d   1      11.283   5.299  -0.174  0.00  0.00    -0.004 C 
ATOM      5  C   LIG d   1      10.968   6.725  -0.545  0.00  0.00     0.046 A 
ATOM      6  C   LIG d   1      10.534   7.070  -1.808  0.00  0.00    -0.027 A 
ATOM      7  C   LIG d   1      10.244   8.393  -2.104  0.00  0.00    -0.054 A 
ATOM      8  C   LIG d   1      10.385   9.373  -1.142  0.00  0.00    -0.016 A 
ATOM      9  C   LIG d   1      10.828   9.035   0.127  0.00  0.00     0.162 A 
ATOM     10  C   LIG d   1      11.117   7.709   0.425  0.00  0.00     0.167 A 
ATOM     11  H   LIG d   1       9.391   4.516  -1.718  0.00  0.00     0.082 H 
ATOM     12  H   LIG d   1      10.368   3.890  -3.072  0.00  0.00     0.082 H 
ATOM     13  H   LIG d   1      12.196   5.275   0.421  0.00  0.00     0.087 H 
ATOM     14  H   LIG d   1      10.460   4.891   0.413  0.00  0.00     0.087 H 
ATOM     15  H   LIG d   1       9.903   8.659  -3.094  0.00  0.00     0.062 H 
ATOM     16  H   LIG d   1      10.153  10.401  -1.378  0.00  0.00     0.066 H 
ATOM     17  N   LIG d   1      11.473   4.480  -1.380  0.00  0.00     0.231 N 
ATOM     18  H   LIG d   1      12.326   4.783  -1.865  0.00  0.00     0.202 HD
ATOM     19  H   LIG d   1      11.563   3.494  -1.110  0.00  0.00     0.202 HD
ENDROOT
BRANCH   1  20
ATOM     20  C   LIG d   1       9.060   6.304  -3.649  0.00  0.00    -0.016 C 
ATOM     21  H   LIG d   1       8.417   5.427  -3.582  0.00  0.00     0.032 H 
ATOM     22  H   LIG d   1       8.552   7.161  -3.205  0.00  0.00     0.032 H 
BRANCH  20  23
ATOM     23  C   LIG d   1       9.366   6.595  -5.095  0.00  0.00    -0.043 A 
ATOM     24  C   LIG d   1       9.888   5.602  -5.903  0.00  0.00    -0.055 A 
ATOM     25  C   LIG d   1      10.165   5.863  -7.232  0.00  0.00    -0.016 A 
ATOM     26  H   LIG d   1      10.075   4.619  -5.496  0.00  0.00     0.062 H 
ATOM     27  C   LIG d   1       9.930   7.125  -7.754  0.00  0.00     0.161 A 
ATOM     28  H   LIG d   1      10.569   5.085  -7.862  0.00  0.00     0.066 H 
ATOM     29  C   LIG d   1       9.411   8.126  -6.939  0.00  0.00     0.159 A 
ATOM     30  C   LIG d   1       9.130   7.856  -5.609  0.00  0.00    -0.013 A 
ATOM     31  H   LIG d   1       8.726   8.631  -4.975  0.00  0.00     0.066 H 
BRANCH  27  32
ATOM     32  O   LIG d   1      10.208   7.384  -9.060  0.00  0.00    -0.491 OA
BRANCH  32  33
ATOM     33  C   LIG d   1       9.600   6.535 -10.035  0.00  0.00     0.079 C 
ATOM     34  H   LIG d   1      10.375   6.051 -10.630  0.00  0.00     0.066 H 
ATOM     35  H   LIG d   1       9.000   5.776  -9.532  0.00  0.00     0.066 H 
ATOM     36  H   LIG d   1       8.960   7.131 -10.686  0.00  0.00     0.066 H 
ENDBRANCH  32  33
ENDBRANCH  27  32
BRANCH  29  37
ATOM     37  O   LIG d   1       9.178   9.366  -7.447  0.00  0.00    -0.503 OA
ATOM     38  H   LIG d   1       8.539   9.381  -8.172  0.00  0.00     0.292 HD
ENDBRANCH  29  37
ENDBRANCH  20  23
ENDBRANCH   1  20
BRANCH  10  39
ATOM     39  O   LIG d   1      11.548   7.373   1.670  0.00  0.00    -0.503 OA
ATOM     40  H   LIG d   1      12.487   7.143   1.712  0.00  0.00     0.292 HD
ENDBRANCH  10  39
BRANCH   9  41
ATOM     41  O   LIG d   1      10.974   9.996   1.077  0.00  0.00    -0.491 OA
BRANCH  41  42
ATOM     42  C   LIG d   1      10.564  11.321   0.730  0.00  0.00     0.079 C 
ATOM     43  H   LIG d   1      10.463  11.398  -0.353  0.00  0.00     0.066 H 
ATOM     44  H   LIG d   1       9.607  11.540   1.202  0.00  0.00     0.066 H 
ATOM     45  H   LIG d   1      11.311  12.034   1.076  0.00  0.00     0.066 H 
ENDBRANCH  41  42
ENDBRANCH   9  41
TORSDOF 8
ENDMDL
MODEL 9
REMARK VINA RESULT:      -5.2      5.620      7.839
REMARK  8 active torsions:
REMARK  status: ('A' for Active; 'I' for Inactive)
REMARK    1  A    between atoms: C_1  and  O_2 
REMARK    2  A    between atoms: O_2  and  C_3 
REMARK    3  A    between atoms: C_6  and  C_10 
REMARK    4  A    between atoms: C_8  and  O_9 
REMARK    5  A    between atoms: C_10  and  C_11 
REMARK    6  A    between atoms: C_19  and  O_22 
REMARK    7  A    between atoms: C_20  and  O_21 
REMARK    8  A    between atoms: O_22  and  C_23 
ROOT
ATOM      1  C   LIG d   1       6.840  -3.401  -5.003  0.00  0.00     0.029 C 
ATOM      2  H   LIG d   1       6.556  -4.421  -4.745  0.00  0.00     0.040 H 
ATOM      3  C   LIG d   1       6.896  -3.260  -6.525  0.00  0.00    -0.026 C 
ATOM      4  C   LIG d   1       4.781  -2.117  -6.705  0.00  0.00    -0.004 C 
ATOM      5  C   LIG d   1       4.868  -1.848  -5.225  0.00  0.00     0.046 A 
ATOM      6  C   LIG d   1       5.829  -2.439  -4.433  0.00  0.00    -0.027 A 
ATOM      7  C   LIG d   1       5.881  -2.155  -3.077  0.00  0.00    -0.054 A 
ATOM      8  C   LIG d   1       4.976  -1.280  -2.510  0.00  0.00    -0.016 A 
ATOM      9  C   LIG d   1       4.002  -0.689  -3.298  0.00  0.00     0.162 A 
ATOM     10  C   LIG d   1       3.950  -0.971  -4.657  0.00  0.00     0.167 A 
ATOM     11  H   LIG d   1       7.337  -2.298  -6.787  0.00  0.00     0.082 H 
ATOM     12  H   LIG d   1       7.493  -4.067  -6.947  0.00  0.00     0.082 H 
ATOM     13  H   LIG d   1       3.735  -2.241  -6.988  0.00  0.00     0.087 H 
ATOM     14  H   LIG d   1       5.202  -1.272  -7.249  0.00  0.00     0.087 H 
ATOM     15  H   LIG d   1       6.637  -2.619  -2.461  0.00  0.00     0.062 H 
ATOM     16  H   LIG d   1       5.025  -1.059  -1.454  0.00  0.00     0.066 H 
ATOM     17  N   LIG d   1       5.521  -3.338  -7.054  0.00  0.00     0.231 N 
ATOM     18  H   LIG d   1       5.046  -4.151  -6.647  0.00  0.00     0.202 HD
ATOM     19  H   LIG d   1       5.554  -3.436  -8.075  0.00  0.00     0.202 HD
ENDROOT
BRANCH   1  20
ATOM     20  C   LIG d   1       8.220  -3.095  -4.417  0.00  0.00    -0.016 C 
ATOM     21  H   LIG d   1       8.889  -2.771  -5.214  0.00  0.00     0.032 H 
ATOM     22  H   LIG d   1       8.131  -2.303  -3.673  0.00  0.00     0.032 H 
BRANCH  20  23
ATOM     23  C   LIG d   1       8.776  -4.335  -3.766  0.00  0.00    -0.043 A 
ATOM     24  C   LIG d   1       9.401  -4.247  -2.535  0.00  0.00    -0.055 A 
ATOM     25  C   LIG d   1       9.907  -5.383  -1.932  0.00  0.00    -0.016 A 
ATOM     26  H   LIG d   1       9.488  -3.290  -2.043  0.00  0.00     0.062 H 
ATOM     27  C   LIG d   1       9.799  -6.611  -2.565  0.00  0.00     0.161 A 
ATOM     28  H   LIG d   1      10.390  -5.313  -0.968  0.00  0.00     0.066 H 
ATOM     29  C   LIG d   1       9.177  -6.698  -3.806  0.00  0.00     0.159 A 
ATOM     30  C   LIG d   1       8.666  -5.557  -4.403  0.00  0.00    -0.013 A 
ATOM     31  H   LIG d   1       8.182  -5.622  -5.366  0.00  0.00     0.066 H 
BRANCH  27  32
ATOM     32  O   LIG d   1      10.303  -7.728  -1.974  0.00  0.00    -0.491 OA
BRANCH  32  33
ATOM     33  C   LIG d   1      10.942  -7.561  -0.707  0.00  0.00     0.079 C 
ATOM     34  H   LIG d   1      11.951  -7.970  -0.752  0.00  0.00     0.066 H 
ATOM     35  H   LIG d   1      10.989  -6.501  -0.461  0.00  0.00     0.066 H 
ATOM     36  H   LIG d   1      10.371  -8.087   0.059  0.00  0.00     0.066 H 
ENDBRANCH  32  33
ENDBRANCH  27  32
BRANCH  29  37
ATOM     37  O   LIG d   1       9.069  -7.901  -4.431  0.00  0.00    -0.503 OA
ATOM     38  H   LIG d   1       8.464  -7.899  -5.186  0.00  0.00     0.292 HD
ENDBRANCH  29  37
ENDBRANCH  20  23
ENDBRANCH   1  20
BRANCH  10  39
ATOM     39  O   LIG d   1       2.999  -0.389  -5.435  0.00  0.00    -0.503 OA
ATOM     40  H   LIG d   1       2.679  -0.954  -6.152  0.00  0.00     0.292 HD
ENDBRANCH  10  39
BRANCH   9  41
ATOM     41  O   LIG d   1       3.104   0.169  -2.745  0.00  0.00    -0.491 OA
BRANCH  41  42
ATOM     42  C   LIG d   1       3.584   1.466  -2.381  0.00  0.00     0.079 C 
ATOM     43  H   LIG d   1       3.237   2.199  -3.109  0.00  0.00     0.066 H 
ATOM     44  H   LIG d   1       3.206   1.728  -1.393  0.00  0.00     0.066 H 
ATOM     45  H   LIG d   1       4.673   1.458  -2.362  0.00  0.00     0.066 H 
ENDBRANCH  41  42
ENDBRANCH   9  41
TORSDOF 8
ENDMDL
MODEL 10
REMARK VINA RESULT:      -5.2      9.712     12.810
REMARK  8 active torsions:
REMARK  status: ('A' for Active; 'I' for Inactive)
REMARK    1  A    between atoms: C_1  and  O_2 
REMARK    2  A    between atoms: O_2  and  C_3 
REMARK    3  A    between atoms: C_6  and  C_10 
REMARK    4  A    between atoms: C_8  and  O_9 
REMARK    5  A    between atoms: C_10  and  C_11 
REMARK    6  A    between atoms: C_19  and  O_22 
REMARK    7  A    between atoms: C_20  and  O_21 
REMARK    8  A    between atoms: O_22  and  C_23 
ROOT
ATOM      1  C   LIG d   1       8.047 -10.556  -0.796  0.00  0.00     0.029 C 
ATOM      2  H   LIG d   1       7.872  -9.901   0.057  0.00  0.00     0.040 H 
ATOM      3  C   LIG d   1       7.164 -11.798  -0.671  0.00  0.00    -0.026 C 
ATOM      4  C   LIG d   1       5.535 -11.059  -2.288  0.00  0.00    -0.004 C 
ATOM      5  C   LIG d   1       6.549 -10.049  -2.759  0.00  0.00     0.046 A 
ATOM      6  C   LIG d   1       7.721  -9.819  -2.070  0.00  0.00    -0.027 A 
ATOM      7  C   LIG d   1       8.633  -8.889  -2.545  0.00  0.00    -0.054 A 
ATOM      8  C   LIG d   1       8.378  -8.189  -3.708  0.00  0.00    -0.016 A 
ATOM      9  C   LIG d   1       7.199  -8.410  -4.401  0.00  0.00     0.162 A 
ATOM     10  C   LIG d   1       6.285  -9.343  -3.927  0.00  0.00     0.167 A 
ATOM     11  H   LIG d   1       7.451 -12.530  -1.427  0.00  0.00     0.082 H 
ATOM     12  H   LIG d   1       7.276 -12.230   0.323  0.00  0.00     0.082 H 
ATOM     13  H   LIG d   1       4.534 -10.643  -2.401  0.00  0.00     0.087 H 
ATOM     14  H   LIG d   1       5.619 -11.962  -2.893  0.00  0.00     0.087 H 
ATOM     15  H   LIG d   1       9.551  -8.712  -2.004  0.00  0.00     0.062 H 
ATOM     16  H   LIG d   1       9.095  -7.469  -4.075  0.00  0.00     0.066 H 
ATOM     17  N   LIG d   1       5.759 -11.397  -0.875  0.00  0.00     0.231 N 
ATOM     18  H   LIG d   1       5.551 -10.578  -0.293  0.00  0.00     0.202 HD
ATOM     19  H   LIG d   1       5.141 -12.172  -0.609  0.00  0.00     0.202 HD
ENDROOT
BRANCH   1  20
ATOM     20  C   LIG d   1       9.517 -10.982  -0.817  0.00  0.00    -0.016 C 
ATOM     21  H   LIG d   1       9.579 -12.062  -0.946  0.00  0.00     0.032 H 
ATOM     22  H   LIG d   1      10.026 -10.487  -1.644  0.00  0.00     0.032 H 
BRANCH  20  23
ATOM     23  C   LIG d   1      10.171 -10.592   0.482  0.00  0.00    -0.043 A 
ATOM     24  C   LIG d   1      10.404 -11.549   1.453  0.00  0.00    -0.055 A 
ATOM     25  C   LIG d   1      11.010 -11.196   2.644  0.00  0.00    -0.016 A 
ATOM     26  H   LIG d   1      10.117 -12.575   1.277  0.00  0.00     0.062 H 
ATOM     27  C   LIG d   1      11.375  -9.879   2.873  0.00  0.00     0.161 A 
ATOM     28  H   LIG d   1      11.195 -11.946   3.399  0.00  0.00     0.066 H 
ATOM     29  C   LIG d   1      11.135  -8.915   1.899  0.00  0.00     0.159 A 
ATOM     30  C   LIG d   1      10.532  -9.276   0.705  0.00  0.00    -0.013 A 
ATOM     31  H   LIG d   1      10.345  -8.529  -0.053  0.00  0.00     0.066 H 
BRANCH  27  32
ATOM     32  O   LIG d   1      11.965  -9.530   4.048  0.00  0.00    -0.491 OA
BRANCH  32  33
ATOM     33  C   LIG d   1      13.353  -9.835   4.193  0.00  0.00     0.079 C 
ATOM     34  H   LIG d   1      13.949  -9.003   3.817  0.00  0.00     0.066 H 
ATOM     35  H   LIG d   1      13.581  -9.998   5.246  0.00  0.00     0.066 H 
ATOM     36  H   LIG d   1      13.588 -10.736   3.626  0.00  0.00     0.066 H 
ENDBRANCH  32  33
ENDBRANCH  27  32
BRANCH  29  37
ATOM     37  O   LIG d   1      11.491  -7.621   2.119  0.00  0.00    -0.503 OA
ATOM     38  H   LIG d   1      12.016  -7.231   1.407  0.00  0.00     0.292 HD
ENDBRANCH  29  37
ENDBRANCH  20  23
ENDBRANCH   1  20
BRANCH  10  39
ATOM     39  O   LIG d   1       5.128  -9.565  -4.606  0.00  0.00    -0.503 OA
ATOM     40  H   LIG d   1       4.564 -10.243  -4.209  0.00  0.00     0.292 HD
ENDBRANCH  10  39
BRANCH   9  41
ATOM     41  O   LIG d   1       6.939  -7.719  -5.543  0.00  0.00    -0.491 OA
BRANCH  41  42
ATOM     42  C   LIG d   1       7.325  -6.344  -5.573  0.00  0.00     0.079 C 
ATOM     43  H   LIG d   1       7.273  -5.929  -4.566  0.00  0.00     0.066 H 
ATOM     44  H   LIG d   1       8.345  -6.261  -5.948  0.00  0.00     0.066 H 
ATOM     45  H   LIG d   1       6.653  -5.791  -6.228  0.00  0.00     0.066 H 
ENDBRANCH  41  42
ENDBRANCH   9  41
TORSDOF 8
ENDMDL
