MODEL 1
REMARK VINA RESULT:      -6.3      0.000      0.000
REMARK  11 active torsions:
REMARK  status: ('A' for Active; 'I' for Inactive)
REMARK    1  A    between atoms: C_1  and  C_2 
REMARK    2  A    between atoms: C_2  and  C_3 
REMARK    3  A    between atoms: C_3  and  C_4 
REMARK    4  A    between atoms: C_4  and  CA_5 
REMARK    5  A    between atoms: CA_5  and  C_7 
REMARK    6  A    between atoms: CA_5  and  N_9 
REMARK       I    between atoms: N_9  and  C_10 
REMARK    7  A    between atoms: C_10  and  C_12 
REMARK    8  A    between atoms: C_12  and  C_13 
REMARK    9  A    between atoms: C_14  and  C_29 
REMARK   10  A    between atoms: C_18  and  C_25 
REMARK   11  A    between atoms: C_23  and  C_24 
ROOT
ATOM      1  C   LIG d   1       6.251  -1.419  -6.586  0.00  0.00     0.049 A 
ATOM      2  C   LIG d   1       5.503  -2.382  -7.186  0.00  0.00    -0.026 A 
ATOM      3  C   LIG d   1       4.417  -1.963  -8.072  0.00  0.00     0.064 A 
ATOM      4  C   LIG d   1       4.185  -0.592  -8.268  0.00  0.00     0.143 A 
ATOM      5  C   LIG d   1       3.156  -0.175  -9.108  0.00  0.00    -0.015 A 
ATOM      6  C   LIG d   1       2.366  -1.089  -9.744  0.00  0.00    -0.036 A 
ATOM      7  C   LIG d   1       2.579  -2.459  -9.561  0.00  0.00     0.027 A 
ATOM      8  C   LIG d   1       3.607  -2.910  -8.723  0.00  0.00     0.146 A 
ATOM      9  O   LIG d   1       3.578  -4.254  -8.737  0.00  0.00    -0.462 OA
ATOM     10  C   LIG d   1       2.593  -4.705  -9.534  0.00  0.00     0.096 A 
ATOM     11  C   LIG d   1       1.934  -3.672 -10.077  0.00  0.00    -0.005 A 
ATOM     12  O   LIG d   1       4.966   0.316  -7.641  0.00  0.00    -0.422 OA
ATOM     13  C   LIG d   1       5.960  -0.060  -6.824  0.00  0.00     0.341 A 
ATOM     14  O   LIG d   1       6.634   0.795  -6.276  0.00  0.00    -0.245 OA
ATOM     15  H   LIG d   1       2.981   0.880  -9.258  0.00  0.00     0.066 H 
ATOM     16  H   LIG d   1       2.368  -5.746  -9.711  0.00  0.00     0.103 H 
ENDROOT
BRANCH   1  17
ATOM     17  C   LIG d   1       7.381  -1.802  -5.665  0.00  0.00     0.056 C 
ATOM     18  H   LIG d   1       7.655  -2.842  -5.840  0.00  0.00     0.041 H 
ATOM     19  H   LIG d   1       8.242  -1.162  -5.860  0.00  0.00     0.041 H 
BRANCH  17  20
ATOM     20  C   LIG d   1       6.942  -1.631  -4.234  0.00  0.00     0.218 C 
ATOM     21  N   LIG d   1       5.923  -0.801  -3.937  0.00  0.00    -0.307 N 
ATOM     22  H   LIG d   1       5.472  -0.313  -4.644  0.00  0.00     0.149 HD
ATOM     23  O   LIG d   1       7.504  -2.242  -3.350  0.00  0.00    -0.275 OA
BRANCH  21  24
ATOM     24  CA  LIG d   1       5.495  -0.636  -2.545  0.00  0.00     0.063 C 
ATOM     25  HA  LIG d   1       6.264  -1.025  -1.879  0.00  0.00     0.056 H 
BRANCH  24  26
ATOM     26  C   LIG d   1       4.189  -1.401  -2.319  0.00  0.00    -0.029 C 
ATOM     27  H   LIG d   1       4.414  -2.400  -1.945  0.00  0.00     0.029 H 
ATOM     28  H   LIG d   1       3.578  -0.869  -1.590  0.00  0.00     0.029 H 
BRANCH  26  29
ATOM     29  C   LIG d   1       3.427  -1.511  -3.641  0.00  0.00    -0.051 C 
ATOM     30  H   LIG d   1       4.121  -1.392  -4.472  0.00  0.00     0.027 H 
ATOM     31  H   LIG d   1       2.949  -2.489  -3.705  0.00  0.00     0.027 H 
BRANCH  29  32
ATOM     32  C   LIG d   1       2.360  -0.417  -3.707  0.00  0.00    -0.056 C 
ATOM     33  H   LIG d   1       1.371  -0.874  -3.732  0.00  0.00     0.026 H 
ATOM     34  H   LIG d   1       2.442   0.224  -2.829  0.00  0.00     0.026 H 
BRANCH  32  35
ATOM     35  C   LIG d   1       2.566   0.421  -4.971  0.00  0.00    -0.065 C 
ATOM     36  H   LIG d   1       3.106   1.332  -4.719  0.00  0.00     0.023 H 
ATOM     37  H   LIG d   1       3.142  -0.154  -5.697  0.00  0.00     0.023 H 
ATOM     38  H   LIG d   1       1.596   0.678  -5.398  0.00  0.00     0.023 H 
ENDBRANCH  32  35
ENDBRANCH  29  32
ENDBRANCH  26  29
ENDBRANCH  24  26
BRANCH  24  39
ATOM     39  C   LIG d   1       5.275   0.827  -2.258  0.00  0.00     0.062 C 
ATOM     40  O   LIG d   1       4.639   1.162  -1.287  0.00  0.00    -0.548 OA
ATOM     41  OXT LIG d   1       5.785   1.757  -3.080  0.00  0.00    -0.548 OA
ENDBRANCH  24  39
ENDBRANCH  21  24
ENDBRANCH  17  20
ENDBRANCH   1  17
BRANCH   2  42
ATOM     42  C   LIG d   1       5.787  -3.843  -6.946  0.00  0.00    -0.038 C 
ATOM     43  H   LIG d   1       6.865  -4.008  -6.947  0.00  0.00     0.028 H 
ATOM     44  H   LIG d   1       5.375  -4.138  -5.981  0.00  0.00     0.028 H 
ATOM     45  H   LIG d   1       5.327  -4.437  -7.736  0.00  0.00     0.028 H 
ENDBRANCH   2  42
BRANCH   6  46
ATOM     46  C   LIG d   1       1.256  -0.619 -10.649  0.00  0.00    -0.039 C 
ATOM     47  H   LIG d   1       1.511  -0.848 -11.685  0.00  0.00     0.028 H 
ATOM     48  H   LIG d   1       0.330  -1.126 -10.382  0.00  0.00     0.028 H 
ATOM     49  H   LIG d   1       1.128   0.457 -10.537  0.00  0.00     0.028 H 
ENDBRANCH   6  46
BRANCH  11  50
ATOM     50  C   LIG d   1       0.766  -3.743 -11.026  0.00  0.00    -0.036 C 
ATOM     51  H   LIG d   1       0.023  -2.997 -10.744  0.00  0.00     0.028 H 
ATOM     52  H   LIG d   1       1.109  -3.547 -12.042  0.00  0.00     0.028 H 
ATOM     53  H   LIG d   1       0.319  -4.736 -10.979  0.00  0.00     0.028 H 
ENDBRANCH  11  50
TORSDOF 11
ENDMDL
MODEL 2
REMARK VINA RESULT:      -6.1      4.332      6.538
REMARK  11 active torsions:
REMARK  status: ('A' for Active; 'I' for Inactive)
REMARK    1  A    between atoms: C_1  and  C_2 
REMARK    2  A    between atoms: C_2  and  C_3 
REMARK    3  A    between atoms: C_3  and  C_4 
REMARK    4  A    between atoms: C_4  and  CA_5 
REMARK    5  A    between atoms: CA_5  and  C_7 
REMARK    6  A    between atoms: CA_5  and  N_9 
REMARK       I    between atoms: N_9  and  C_10 
REMARK    7  A    between atoms: C_10  and  C_12 
REMARK    8  A    between atoms: C_12  and  C_13 
REMARK    9  A    between atoms: C_14  and  C_29 
REMARK   10  A    between atoms: C_18  and  C_25 
REMARK   11  A    between atoms: C_23  and  C_24 
ROOT
ATOM      1  C   LIG d   1       6.299  -5.032  -5.643  0.00  0.00     0.049 A 
ATOM      2  C   LIG d   1       7.163  -6.075  -5.536  0.00  0.00    -0.026 A 
ATOM      3  C   LIG d   1       6.614  -7.407  -5.289  0.00  0.00     0.064 A 
ATOM      4  C   LIG d   1       5.223  -7.562  -5.169  0.00  0.00     0.143 A 
ATOM      5  C   LIG d   1       4.682  -8.823  -4.933  0.00  0.00    -0.015 A 
ATOM      6  C   LIG d   1       5.494  -9.915  -4.816  0.00  0.00    -0.036 A 
ATOM      7  C   LIG d   1       6.881  -9.783  -4.931  0.00  0.00     0.027 A 
ATOM      8  C   LIG d   1       7.455  -8.527  -5.168  0.00  0.00     0.146 A 
ATOM      9  O   LIG d   1       8.788  -8.699  -5.231  0.00  0.00    -0.462 OA
ATOM     10  C   LIG d   1       9.114  -9.990  -5.049  0.00  0.00     0.096 A 
ATOM     11  C   LIG d   1       8.007 -10.721  -4.859  0.00  0.00    -0.005 A 
ATOM     12  O   LIG d   1       4.417  -6.483  -5.286  0.00  0.00    -0.422 OA
ATOM     13  C   LIG d   1       4.913  -5.257  -5.508  0.00  0.00     0.341 A 
ATOM     14  O   LIG d   1       4.147  -4.314  -5.599  0.00  0.00    -0.245 OA
ATOM     15  H   LIG d   1       3.613  -8.939  -4.843  0.00  0.00     0.066 H 
ATOM     16  H   LIG d   1      10.121 -10.381  -5.056  0.00  0.00     0.103 H 
ENDROOT
BRANCH   1  17
ATOM     17  C   LIG d   1       6.818  -3.640  -5.899  0.00  0.00     0.056 C 
ATOM     18  H   LIG d   1       7.823  -3.699  -6.316  0.00  0.00     0.041 H 
ATOM     19  H   LIG d   1       6.161  -3.130  -6.603  0.00  0.00     0.041 H 
BRANCH  17  20
ATOM     20  C   LIG d   1       6.857  -2.874  -4.602  0.00  0.00     0.218 C 
ATOM     21  N   LIG d   1       5.907  -1.956  -4.333  0.00  0.00    -0.307 N 
ATOM     22  H   LIG d   1       5.199  -1.789  -4.974  0.00  0.00     0.149 HD
ATOM     23  O   LIG d   1       7.742  -3.083  -3.799  0.00  0.00    -0.275 OA
BRANCH  21  24
ATOM     24  CA  LIG d   1       5.944  -1.211  -3.072  0.00  0.00     0.063 C 
ATOM     25  HA  LIG d   1       6.824  -1.506  -2.501  0.00  0.00     0.056 H 
BRANCH  24  26
ATOM     26  C   LIG d   1       4.683  -1.520  -2.261  0.00  0.00    -0.029 C 
ATOM     27  H   LIG d   1       4.848  -2.414  -1.659  0.00  0.00     0.029 H 
ATOM     28  H   LIG d   1       4.459  -0.678  -1.605  0.00  0.00     0.029 H 
BRANCH  26  29
ATOM     29  C   LIG d   1       3.509  -1.753  -3.212  0.00  0.00    -0.051 C 
ATOM     30  H   LIG d   1       3.879  -1.833  -4.234  0.00  0.00     0.027 H 
ATOM     31  H   LIG d   1       2.997  -2.677  -2.939  0.00  0.00     0.027 H 
BRANCH  29  32
ATOM     32  C   LIG d   1       2.532  -0.581  -3.114  0.00  0.00    -0.056 C 
ATOM     33  H   LIG d   1       1.535  -0.957  -2.881  0.00  0.00     0.026 H 
ATOM     34  H   LIG d   1       2.857   0.098  -2.326  0.00  0.00     0.026 H 
BRANCH  32  35
ATOM     35  C   LIG d   1       2.495   0.166  -4.449  0.00  0.00    -0.065 C 
ATOM     36  H   LIG d   1       3.044   1.102  -4.356  0.00  0.00     0.023 H 
ATOM     37  H   LIG d   1       2.955  -0.450  -5.222  0.00  0.00     0.023 H 
ATOM     38  H   LIG d   1       1.460   0.376  -4.719  0.00  0.00     0.023 H 
ENDBRANCH  32  35
ENDBRANCH  29  32
ENDBRANCH  26  29
ENDBRANCH  24  26
BRANCH  24  39
ATOM     39  C   LIG d   1       6.005   0.266  -3.362  0.00  0.00     0.062 C 
ATOM     40  O   LIG d   1       6.325   0.652  -4.462  0.00  0.00    -0.548 OA
ATOM     41  OXT LIG d   1       5.704   1.152  -2.401  0.00  0.00    -0.548 OA
ENDBRANCH  24  39
ENDBRANCH  21  24
ENDBRANCH  17  20
ENDBRANCH   1  17
BRANCH   2  42
ATOM     42  C   LIG d   1       8.650  -5.863  -5.671  0.00  0.00    -0.038 C 
ATOM     43  H   LIG d   1       8.895  -5.660  -6.714  0.00  0.00     0.028 H 
ATOM     44  H   LIG d   1       8.953  -5.015  -5.055  0.00  0.00     0.028 H 
ATOM     45  H   LIG d   1       9.176  -6.758  -5.342  0.00  0.00     0.028 H 
ENDBRANCH   2  42
BRANCH   6  46
ATOM     46  C   LIG d   1       4.890 -11.272  -4.561  0.00  0.00    -0.039 C 
ATOM     47  H   LIG d   1       4.147 -11.489  -5.329  0.00  0.00     0.028 H 
ATOM     48  H   LIG d   1       5.673 -12.029  -4.588  0.00  0.00     0.028 H 
ATOM     49  H   LIG d   1       4.413 -11.279  -3.581  0.00  0.00     0.028 H 
ENDBRANCH   6  46
BRANCH  11  50
ATOM     50  C   LIG d   1       7.934 -12.207  -4.619  0.00  0.00    -0.036 C 
ATOM     51  H   LIG d   1       7.724 -12.395  -3.566  0.00  0.00     0.028 H 
ATOM     52  H   LIG d   1       7.139 -12.635  -5.229  0.00  0.00     0.028 H 
ATOM     53  H   LIG d   1       8.886 -12.666  -4.887  0.00  0.00     0.028 H 
ENDBRANCH  11  50
TORSDOF 11
ENDMDL
MODEL 3
REMARK VINA RESULT:      -5.9      2.826      4.194
REMARK  11 active torsions:
REMARK  status: ('A' for Active; 'I' for Inactive)
REMARK    1  A    between atoms: C_1  and  C_2 
REMARK    2  A    between atoms: C_2  and  C_3 
REMARK    3  A    between atoms: C_3  and  C_4 
REMARK    4  A    between atoms: C_4  and  CA_5 
REMARK    5  A    between atoms: CA_5  and  C_7 
REMARK    6  A    between atoms: CA_5  and  N_9 
REMARK       I    between atoms: N_9  and  C_10 
REMARK    7  A    between atoms: C_10  and  C_12 
REMARK    8  A    between atoms: C_12  and  C_13 
REMARK    9  A    between atoms: C_14  and  C_29 
REMARK   10  A    between atoms: C_18  and  C_25 
REMARK   11  A    between atoms: C_23  and  C_24 
ROOT
ATOM      1  C   LIG d   1       3.499   0.480  -9.456  0.00  0.00     0.049 A 
ATOM      2  C   LIG d   1       2.628  -0.232 -10.218  0.00  0.00    -0.026 A 
ATOM      3  C   LIG d   1       3.020  -0.570 -11.585  0.00  0.00     0.064 A 
ATOM      4  C   LIG d   1       4.271  -0.148 -12.062  0.00  0.00     0.143 A 
ATOM      5  C   LIG d   1       4.662  -0.460 -13.362  0.00  0.00    -0.015 A 
ATOM      6  C   LIG d   1       3.836  -1.175 -14.180  0.00  0.00    -0.036 A 
ATOM      7  C   LIG d   1       2.585  -1.604 -13.726  0.00  0.00     0.027 A 
ATOM      8  C   LIG d   1       2.164  -1.305 -12.424  0.00  0.00     0.146 A 
ATOM      9  O   LIG d   1       0.938  -1.836 -12.265  0.00  0.00    -0.462 OA
ATOM     10  C   LIG d   1       0.536  -2.461 -13.386  0.00  0.00     0.096 A 
ATOM     11  C   LIG d   1       1.484  -2.367 -14.328  0.00  0.00    -0.005 A 
ATOM     12  O   LIG d   1       5.092   0.559 -11.253  0.00  0.00    -0.422 OA
ATOM     13  C   LIG d   1       4.738   0.877  -9.999  0.00  0.00     0.341 A 
ATOM     14  O   LIG d   1       5.509   1.521  -9.310  0.00  0.00    -0.245 OA
ATOM     15  H   LIG d   1       5.625  -0.135 -13.725  0.00  0.00     0.066 H 
ATOM     16  H   LIG d   1      -0.411  -2.966 -13.508  0.00  0.00     0.103 H 
ENDROOT
BRANCH   1  17
ATOM     17  C   LIG d   1       3.139   0.852  -8.040  0.00  0.00     0.056 C 
ATOM     18  H   LIG d   1       3.503   1.856  -7.825  0.00  0.00     0.041 H 
ATOM     19  H   LIG d   1       2.056   0.825  -7.921  0.00  0.00     0.041 H 
BRANCH  17  20
ATOM     20  C   LIG d   1       3.774  -0.128  -7.088  0.00  0.00     0.218 C 
ATOM     21  N   LIG d   1       4.180   0.282  -5.870  0.00  0.00    -0.307 N 
ATOM     22  H   LIG d   1       4.064   1.208  -5.606  0.00  0.00     0.149 HD
ATOM     23  O   LIG d   1       3.918  -1.287  -7.417  0.00  0.00    -0.275 OA
BRANCH  21  24
ATOM     24  CA  LIG d   1       4.797  -0.671  -4.944  0.00  0.00     0.063 C 
ATOM     25  HA  LIG d   1       4.782  -1.667  -5.384  0.00  0.00     0.056 H 
BRANCH  24  26
ATOM     26  C   LIG d   1       4.014  -0.683  -3.629  0.00  0.00    -0.029 C 
ATOM     27  H   LIG d   1       3.379  -1.568  -3.592  0.00  0.00     0.029 H 
ATOM     28  H   LIG d   1       4.712  -0.702  -2.791  0.00  0.00     0.029 H 
BRANCH  26  29
ATOM     29  C   LIG d   1       3.145   0.574  -3.541  0.00  0.00    -0.051 C 
ATOM     30  H   LIG d   1       3.256   1.157  -4.455  0.00  0.00     0.027 H 
ATOM     31  H   LIG d   1       2.101   0.286  -3.418  0.00  0.00     0.027 H 
BRANCH  29  32
ATOM     32  C   LIG d   1       3.586   1.415  -2.342  0.00  0.00    -0.056 C 
ATOM     33  H   LIG d   1       3.986   2.366  -2.692  0.00  0.00     0.026 H 
ATOM     34  H   LIG d   1       2.731   1.598  -1.692  0.00  0.00     0.026 H 
BRANCH  32  35
ATOM     35  C   LIG d   1       4.668   0.664  -1.562  0.00  0.00    -0.065 C 
ATOM     36  H   LIG d   1       4.900   1.208  -0.647  0.00  0.00     0.023 H 
ATOM     37  H   LIG d   1       4.307  -0.334  -1.310  0.00  0.00     0.023 H 
ATOM     38  H   LIG d   1       5.566   0.581  -2.175  0.00  0.00     0.023 H 
ENDBRANCH  32  35
ENDBRANCH  29  32
ENDBRANCH  26  29
ENDBRANCH  24  26
BRANCH  24  39
ATOM     39  C   LIG d   1       6.221  -0.261  -4.676  0.00  0.00     0.062 C 
ATOM     40  O   LIG d   1       7.073  -1.104  -4.523  0.00  0.00    -0.548 OA
ATOM     41  OXT LIG d   1       6.544   1.040  -4.608  0.00  0.00    -0.548 OA
ENDBRANCH  24  39
ENDBRANCH  21  24
ENDBRANCH  17  20
ENDBRANCH   1  17
BRANCH   2  42
ATOM     42  C   LIG d   1       1.293  -0.665  -9.665  0.00  0.00    -0.038 C 
ATOM     43  H   LIG d   1       0.577   0.152  -9.764  0.00  0.00     0.028 H 
ATOM     44  H   LIG d   1       0.935  -1.532 -10.221  0.00  0.00     0.028 H 
ATOM     45  H   LIG d   1       1.403  -0.927  -8.613  0.00  0.00     0.028 H 
ENDBRANCH   2  42
BRANCH   6  46
ATOM     46  C   LIG d   1       4.275  -1.504 -15.584  0.00  0.00    -0.039 C 
ATOM     47  H   LIG d   1       4.130  -2.569 -15.770  0.00  0.00     0.028 H 
ATOM     48  H   LIG d   1       3.683  -0.927 -16.295  0.00  0.00     0.028 H 
ATOM     49  H   LIG d   1       5.329  -1.255 -15.703  0.00  0.00     0.028 H 
ENDBRANCH   6  46
BRANCH  11  50
ATOM     50  C   LIG d   1       1.431  -2.930 -15.725  0.00  0.00    -0.036 C 
ATOM     51  H   LIG d   1       2.283  -3.591 -15.883  0.00  0.00     0.028 H 
ATOM     52  H   LIG d   1       0.507  -3.493 -15.855  0.00  0.00     0.028 H 
ATOM     53  H   LIG d   1       1.465  -2.114 -16.447  0.00  0.00     0.028 H 
ENDBRANCH  11  50
TORSDOF 11
ENDMDL
MODEL 4
REMARK VINA RESULT:      -5.9      6.157      9.402
REMARK  11 active torsions:
REMARK  status: ('A' for Active; 'I' for Inactive)
REMARK    1  A    between atoms: C_1  and  C_2 
REMARK    2  A    between atoms: C_2  and  C_3 
REMARK    3  A    between atoms: C_3  and  C_4 
REMARK    4  A    between atoms: C_4  and  CA_5 
REMARK    5  A    between atoms: CA_5  and  C_7 
REMARK    6  A    between atoms: CA_5  and  N_9 
REMARK       I    between atoms: N_9  and  C_10 
REMARK    7  A    between atoms: C_10  and  C_12 
REMARK    8  A    between atoms: C_12  and  C_13 
REMARK    9  A    between atoms: C_14  and  C_29 
REMARK   10  A    between atoms: C_18  and  C_25 
REMARK   11  A    between atoms: C_23  and  C_24 
ROOT
ATOM      1  C   LIG d   1       9.868   3.433  -4.914  0.00  0.00     0.049 A 
ATOM      2  C   LIG d   1       9.752   4.578  -5.637  0.00  0.00    -0.026 A 
ATOM      3  C   LIG d   1       9.813   5.854  -4.925  0.00  0.00     0.064 A 
ATOM      4  C   LIG d   1       9.984   5.853  -3.531  0.00  0.00     0.143 A 
ATOM      5  C   LIG d   1      10.044   7.058  -2.837  0.00  0.00    -0.015 A 
ATOM      6  C   LIG d   1       9.936   8.246  -3.501  0.00  0.00    -0.036 A 
ATOM      7  C   LIG d   1       9.764   8.270  -4.888  0.00  0.00     0.027 A 
ATOM      8  C   LIG d   1       9.700   7.074  -5.615  0.00  0.00     0.146 A 
ATOM      9  O   LIG d   1       9.533   7.397  -6.910  0.00  0.00    -0.462 OA
ATOM     10  C   LIG d   1       9.484   8.732  -7.069  0.00  0.00     0.096 A 
ATOM     11  C   LIG d   1       9.617   9.340  -5.882  0.00  0.00    -0.005 A 
ATOM     12  O   LIG d   1      10.093   4.678  -2.871  0.00  0.00    -0.422 OA
ATOM     13  C   LIG d   1      10.033   3.503  -3.516  0.00  0.00     0.341 A 
ATOM     14  O   LIG d   1      10.130   2.470  -2.877  0.00  0.00    -0.245 OA
ATOM     15  H   LIG d   1      10.177   7.054  -1.766  0.00  0.00     0.066 H 
ATOM     16  H   LIG d   1       9.356   9.238  -8.014  0.00  0.00     0.103 H 
ENDROOT
BRANCH   1  17
ATOM     17  C   LIG d   1       9.812   2.093  -5.604  0.00  0.00     0.056 C 
ATOM     18  H   LIG d   1      10.084   2.213  -6.652  0.00  0.00     0.041 H 
ATOM     19  H   LIG d   1      10.510   1.408  -5.123  0.00  0.00     0.041 H 
BRANCH  17  20
ATOM     20  C   LIG d   1       8.415   1.538  -5.507  0.00  0.00     0.218 C 
ATOM     21  N   LIG d   1       8.054   0.804  -4.436  0.00  0.00    -0.307 N 
ATOM     22  H   LIG d   1       8.693   0.634  -3.727  0.00  0.00     0.149 HD
ATOM     23  O   LIG d   1       7.615   1.752  -6.394  0.00  0.00    -0.275 OA
BRANCH  21  24
ATOM     24  CA  LIG d   1       6.695   0.265  -4.343  0.00  0.00     0.063 C 
ATOM     25  HA  LIG d   1       6.086   0.669  -5.151  0.00  0.00     0.056 H 
BRANCH  24  26
ATOM     26  C   LIG d   1       6.082   0.658  -2.996  0.00  0.00    -0.029 C 
ATOM     27  H   LIG d   1       6.592   0.124  -2.195  0.00  0.00     0.029 H 
ATOM     28  H   LIG d   1       6.195   1.732  -2.846  0.00  0.00     0.029 H 
BRANCH  26  29
ATOM     29  C   LIG d   1       4.596   0.296  -2.987  0.00  0.00    -0.051 C 
ATOM     30  H   LIG d   1       4.001   1.202  -2.878  0.00  0.00     0.027 H 
ATOM     31  H   LIG d   1       4.336  -0.198  -3.924  0.00  0.00     0.027 H 
BRANCH  29  32
ATOM     32  C   LIG d   1       4.308  -0.647  -1.818  0.00  0.00    -0.056 C 
ATOM     33  H   LIG d   1       5.218  -0.792  -1.235  0.00  0.00     0.026 H 
ATOM     34  H   LIG d   1       3.535  -0.214  -1.183  0.00  0.00     0.026 H 
BRANCH  32  35
ATOM     35  C   LIG d   1       3.828  -1.997  -2.357  0.00  0.00    -0.065 C 
ATOM     36  H   LIG d   1       2.739  -2.025  -2.347  0.00  0.00     0.023 H 
ATOM     37  H   LIG d   1       4.186  -2.127  -3.379  0.00  0.00     0.023 H 
ATOM     38  H   LIG d   1       4.219  -2.798  -1.730  0.00  0.00     0.023 H 
ENDBRANCH  32  35
ENDBRANCH  29  32
ENDBRANCH  26  29
ENDBRANCH  24  26
BRANCH  24  39
ATOM     39  C   LIG d   1       6.742  -1.237  -4.452  0.00  0.00     0.062 C 
ATOM     40  O   LIG d   1       6.279  -1.786  -5.425  0.00  0.00    -0.548 OA
ATOM     41  OXT LIG d   1       7.297  -1.965  -3.471  0.00  0.00    -0.548 OA
ENDBRANCH  24  39
ENDBRANCH  21  24
ENDBRANCH  17  20
ENDBRANCH   1  17
BRANCH   2  42
ATOM     42  C   LIG d   1       9.569   4.533  -7.132  0.00  0.00    -0.038 C 
ATOM     43  H   LIG d   1      10.441   4.066  -7.591  0.00  0.00     0.028 H 
ATOM     44  H   LIG d   1       8.678   3.952  -7.371  0.00  0.00     0.028 H 
ATOM     45  H   LIG d   1       9.456   5.547  -7.515  0.00  0.00     0.028 H 
ENDBRANCH   2  42
BRANCH   6  46
ATOM     46  C   LIG d   1      10.003   9.542  -2.733  0.00  0.00    -0.039 C 
ATOM     47  H   LIG d   1       9.007   9.983  -2.678  0.00  0.00     0.028 H 
ATOM     48  H   LIG d   1      10.372   9.349  -1.726  0.00  0.00     0.028 H 
ATOM     49  H   LIG d   1      10.677  10.231  -3.242  0.00  0.00     0.028 H 
ENDBRANCH   6  46
BRANCH  11  50
ATOM     50  C   LIG d   1       9.617  10.825  -5.622  0.00  0.00    -0.036 C 
ATOM     51  H   LIG d   1       9.608  11.360  -6.572  0.00  0.00     0.028 H 
ATOM     52  H   LIG d   1       8.731  11.093  -5.047  0.00  0.00     0.028 H 
ATOM     53  H   LIG d   1      10.511  11.095  -5.060  0.00  0.00     0.028 H 
ENDBRANCH  11  50
TORSDOF 11
ENDMDL
MODEL 5
REMARK VINA RESULT:      -5.9      5.661      8.555
REMARK  11 active torsions:
REMARK  status: ('A' for Active; 'I' for Inactive)
REMARK    1  A    between atoms: C_1  and  C_2 
REMARK    2  A    between atoms: C_2  and  C_3 
REMARK    3  A    between atoms: C_3  and  C_4 
REMARK    4  A    between atoms: C_4  and  CA_5 
REMARK    5  A    between atoms: CA_5  and  C_7 
REMARK    6  A    between atoms: CA_5  and  N_9 
REMARK       I    between atoms: N_9  and  C_10 
REMARK    7  A    between atoms: C_10  and  C_12 
REMARK    8  A    between atoms: C_12  and  C_13 
REMARK    9  A    between atoms: C_14  and  C_29 
REMARK   10  A    between atoms: C_18  and  C_25 
REMARK   11  A    between atoms: C_23  and  C_24 
ROOT
ATOM      1  C   LIG d   1       9.333   2.817  -5.162  0.00  0.00     0.049 A 
ATOM      2  C   LIG d   1       9.479   4.131  -4.846  0.00  0.00    -0.026 A 
ATOM      3  C   LIG d   1       9.596   5.096  -5.939  0.00  0.00     0.064 A 
ATOM      4  C   LIG d   1       9.557   4.636  -7.265  0.00  0.00     0.143 A 
ATOM      5  C   LIG d   1       9.668   5.540  -8.318  0.00  0.00    -0.015 A 
ATOM      6  C   LIG d   1       9.815   6.875  -8.072  0.00  0.00    -0.036 A 
ATOM      7  C   LIG d   1       9.857   7.354  -6.759  0.00  0.00     0.027 A 
ATOM      8  C   LIG d   1       9.749   6.469  -5.679  0.00  0.00     0.146 A 
ATOM      9  O   LIG d   1       9.821   7.199  -4.551  0.00  0.00    -0.462 OA
ATOM     10  C   LIG d   1       9.970   8.505  -4.833  0.00  0.00     0.096 A 
ATOM     11  C   LIG d   1      10.002   8.687  -6.161  0.00  0.00    -0.005 A 
ATOM     12  O   LIG d   1       9.410   3.315  -7.511  0.00  0.00    -0.422 OA
ATOM     13  C   LIG d   1       9.307   2.423  -6.515  0.00  0.00     0.341 A 
ATOM     14  O   LIG d   1       9.182   1.242  -6.787  0.00  0.00    -0.245 OA
ATOM     15  H   LIG d   1       9.636   5.184  -9.336  0.00  0.00     0.066 H 
ATOM     16  H   LIG d   1      10.052   9.292  -4.098  0.00  0.00     0.103 H 
ENDROOT
BRANCH   1  17
ATOM     17  C   LIG d   1       9.207   1.785  -4.070  0.00  0.00     0.056 C 
ATOM     18  H   LIG d   1       9.807   0.912  -4.325  0.00  0.00     0.041 H 
ATOM     19  H   LIG d   1       9.561   2.207  -3.129  0.00  0.00     0.041 H 
BRANCH  17  20
ATOM     20  C   LIG d   1       7.764   1.379  -3.927  0.00  0.00     0.218 C 
ATOM     21  N   LIG d   1       7.366   0.153  -4.323  0.00  0.00    -0.307 N 
ATOM     22  H   LIG d   1       8.010  -0.468  -4.699  0.00  0.00     0.149 HD
ATOM     23  O   LIG d   1       6.959   2.154  -3.456  0.00  0.00    -0.275 OA
BRANCH  21  24
ATOM     24  CA  LIG d   1       5.963  -0.242  -4.184  0.00  0.00     0.063 C 
ATOM     25  HA  LIG d   1       5.369   0.622  -3.888  0.00  0.00     0.056 H 
BRANCH  24  26
ATOM     26  C   LIG d   1       5.844  -1.332  -3.116  0.00  0.00    -0.029 C 
ATOM     27  H   LIG d   1       5.769  -2.307  -3.599  0.00  0.00     0.029 H 
ATOM     28  H   LIG d   1       6.726  -1.311  -2.476  0.00  0.00     0.029 H 
BRANCH  26  29
ATOM     29  C   LIG d   1       4.593  -1.083  -2.270  0.00  0.00    -0.051 C 
ATOM     30  H   LIG d   1       3.705  -1.205  -2.890  0.00  0.00     0.027 H 
ATOM     31  H   LIG d   1       4.562  -1.798  -1.448  0.00  0.00     0.027 H 
BRANCH  29  32
ATOM     32  C   LIG d   1       4.633   0.339  -1.708  0.00  0.00    -0.056 C 
ATOM     33  H   LIG d   1       4.492   0.307  -0.628  0.00  0.00     0.026 H 
ATOM     34  H   LIG d   1       5.597   0.793  -1.936  0.00  0.00     0.026 H 
BRANCH  32  35
ATOM     35  C   LIG d   1       3.515   1.169  -2.343  0.00  0.00    -0.065 C 
ATOM     36  H   LIG d   1       3.360   0.843  -3.371  0.00  0.00     0.023 H 
ATOM     37  H   LIG d   1       2.594   1.033  -1.775  0.00  0.00     0.023 H 
ATOM     38  H   LIG d   1       3.796   2.223  -2.334  0.00  0.00     0.023 H 
ENDBRANCH  32  35
ENDBRANCH  29  32
ENDBRANCH  26  29
ENDBRANCH  24  26
BRANCH  24  39
ATOM     39  C   LIG d   1       5.458  -0.773  -5.500  0.00  0.00     0.062 C 
ATOM     40  O   LIG d   1       5.199  -1.947  -5.619  0.00  0.00    -0.548 OA
ATOM     41  OXT LIG d   1       5.296   0.058  -6.542  0.00  0.00    -0.548 OA
ENDBRANCH  24  39
ENDBRANCH  21  24
ENDBRANCH  17  20
ENDBRANCH   1  17
BRANCH   2  42
ATOM     42  C   LIG d   1       9.516   4.580  -3.408  0.00  0.00    -0.038 C 
ATOM     43  H   LIG d   1       8.633   4.209  -2.888  0.00  0.00     0.028 H 
ATOM     44  H   LIG d   1      10.412   4.187  -2.928  0.00  0.00     0.028 H 
ATOM     45  H   LIG d   1       9.531   5.669  -3.368  0.00  0.00     0.028 H 
ENDBRANCH   2  42
BRANCH   6  46
ATOM     46  C   LIG d   1       9.933   7.840  -9.224  0.00  0.00    -0.039 C 
ATOM     47  H   LIG d   1       9.650   7.337 -10.149  0.00  0.00     0.028 H 
ATOM     48  H   LIG d   1       9.273   8.690  -9.056  0.00  0.00     0.028 H 
ATOM     49  H   LIG d   1      10.963   8.189  -9.301  0.00  0.00     0.028 H 
ENDBRANCH   6  46
BRANCH  11  50
ATOM     50  C   LIG d   1      10.156   9.996  -6.891  0.00  0.00    -0.036 C 
ATOM     51  H   LIG d   1       9.229  10.565  -6.815  0.00  0.00     0.028 H 
ATOM     52  H   LIG d   1      10.969  10.568  -6.446  0.00  0.00     0.028 H 
ATOM     53  H   LIG d   1      10.378   9.802  -7.941  0.00  0.00     0.028 H 
ENDBRANCH  11  50
TORSDOF 11
ENDMDL
MODEL 6
REMARK VINA RESULT:      -5.8      5.512      9.025
REMARK  11 active torsions:
REMARK  status: ('A' for Active; 'I' for Inactive)
REMARK    1  A    between atoms: C_1  and  C_2 
REMARK    2  A    between atoms: C_2  and  C_3 
REMARK    3  A    between atoms: C_3  and  C_4 
REMARK    4  A    between atoms: C_4  and  CA_5 
REMARK    5  A    between atoms: CA_5  and  C_7 
REMARK    6  A    between atoms: CA_5  and  N_9 
REMARK       I    between atoms: N_9  and  C_10 
REMARK    7  A    between atoms: C_10  and  C_12 
REMARK    8  A    between atoms: C_12  and  C_13 
REMARK    9  A    between atoms: C_14  and  C_29 
REMARK   10  A    between atoms: C_18  and  C_25 
REMARK   11  A    between atoms: C_23  and  C_24 
ROOT
ATOM      1  C   LIG d   1       9.596   2.888  -5.847  0.00  0.00     0.049 A 
ATOM      2  C   LIG d   1       9.664   3.567  -4.672  0.00  0.00    -0.026 A 
ATOM      3  C   LIG d   1       9.709   5.028  -4.718  0.00  0.00     0.064 A 
ATOM      4  C   LIG d   1       9.683   5.674  -5.965  0.00  0.00     0.143 A 
ATOM      5  C   LIG d   1       9.725   7.065  -6.028  0.00  0.00    -0.015 A 
ATOM      6  C   LIG d   1       9.792   7.809  -4.886  0.00  0.00    -0.036 A 
ATOM      7  C   LIG d   1       9.819   7.186  -3.634  0.00  0.00     0.027 A 
ATOM      8  C   LIG d   1       9.778   5.789  -3.538  0.00  0.00     0.146 A 
ATOM      9  O   LIG d   1       9.818   5.473  -2.231  0.00  0.00    -0.462 OA
ATOM     10  C   LIG d   1       9.883   6.581  -1.472  0.00  0.00     0.096 A 
ATOM     11  C   LIG d   1       9.888   7.671  -2.251  0.00  0.00    -0.005 A 
ATOM     12  O   LIG d   1       9.615   4.940  -7.098  0.00  0.00    -0.422 OA
ATOM     13  C   LIG d   1       9.579   3.600  -7.065  0.00  0.00     0.341 A 
ATOM     14  O   LIG d   1       9.524   2.981  -8.113  0.00  0.00    -0.245 OA
ATOM     15  H   LIG d   1       9.704   7.558  -6.988  0.00  0.00     0.066 H 
ATOM     16  H   LIG d   1       9.924   6.591  -0.392  0.00  0.00     0.103 H 
ENDROOT
BRANCH   1  17
ATOM     17  C   LIG d   1       9.548   1.382  -5.850  0.00  0.00     0.056 C 
ATOM     18  H   LIG d   1       9.906   1.009  -6.809  0.00  0.00     0.041 H 
ATOM     19  H   LIG d   1      10.180   0.996  -5.051  0.00  0.00     0.041 H 
BRANCH  17  20
ATOM     20  C   LIG d   1       8.128   0.925  -5.633  0.00  0.00     0.218 C 
ATOM     21  N   LIG d   1       7.849   0.026  -4.669  0.00  0.00    -0.307 N 
ATOM     22  H   LIG d   1       8.562  -0.327  -4.114  0.00  0.00     0.149 HD
ATOM     23  O   LIG d   1       7.236   1.367  -6.326  0.00  0.00    -0.275 OA
BRANCH  21  24
ATOM     24  CA  LIG d   1       6.469  -0.417  -4.457  0.00  0.00     0.063 C 
ATOM     25  HA  LIG d   1       5.799   0.165  -5.090  0.00  0.00     0.056 H 
BRANCH  24  26
ATOM     26  C   LIG d   1       6.088  -0.214  -2.989  0.00  0.00    -0.029 C 
ATOM     27  H   LIG d   1       5.372  -0.981  -2.690  0.00  0.00     0.029 H 
ATOM     28  H   LIG d   1       6.981  -0.290  -2.368  0.00  0.00     0.029 H 
BRANCH  26  29
ATOM     29  C   LIG d   1       5.459   1.169  -2.812  0.00  0.00    -0.051 C 
ATOM     30  H   LIG d   1       6.168   1.830  -2.314  0.00  0.00     0.027 H 
ATOM     31  H   LIG d   1       5.204   1.581  -3.789  0.00  0.00     0.027 H 
BRANCH  29  32
ATOM     32  C   LIG d   1       4.192   1.048  -1.963  0.00  0.00    -0.056 C 
ATOM     33  H   LIG d   1       4.451   0.669  -0.975  0.00  0.00     0.026 H 
ATOM     34  H   LIG d   1       3.725   2.028  -1.866  0.00  0.00     0.026 H 
BRANCH  32  35
ATOM     35  C   LIG d   1       3.216   0.083  -2.639  0.00  0.00    -0.065 C 
ATOM     36  H   LIG d   1       2.215   0.512  -2.630  0.00  0.00     0.023 H 
ATOM     37  H   LIG d   1       3.529  -0.087  -3.670  0.00  0.00     0.023 H 
ATOM     38  H   LIG d   1       3.211  -0.865  -2.100  0.00  0.00     0.023 H 
ENDBRANCH  32  35
ENDBRANCH  29  32
ENDBRANCH  26  29
ENDBRANCH  24  26
BRANCH  24  39
ATOM     39  C   LIG d   1       6.351  -1.877  -4.809  0.00  0.00     0.062 C 
ATOM     40  O   LIG d   1       5.625  -2.596  -4.165  0.00  0.00    -0.548 OA
ATOM     41  OXT LIG d   1       7.052  -2.379  -5.837  0.00  0.00    -0.548 OA
ENDBRANCH  24  39
ENDBRANCH  21  24
ENDBRANCH  17  20
ENDBRANCH   1  17
BRANCH   2  42
ATOM     42  C   LIG d   1       9.689   2.833  -3.356  0.00  0.00    -0.038 C 
ATOM     43  H   LIG d   1       8.991   3.303  -2.664  0.00  0.00     0.028 H 
ATOM     44  H   LIG d   1       9.399   1.794  -3.515  0.00  0.00     0.028 H 
ATOM     45  H   LIG d   1      10.696   2.869  -2.939  0.00  0.00     0.028 H 
ENDBRANCH   2  42
BRANCH   6  46
ATOM     46  C   LIG d   1       9.837   9.313  -4.973  0.00  0.00    -0.039 C 
ATOM     47  H   LIG d   1      10.547   9.698  -4.241  0.00  0.00     0.028 H 
ATOM     48  H   LIG d   1      10.149   9.610  -5.974  0.00  0.00     0.028 H 
ATOM     49  H   LIG d   1       8.846   9.718  -4.766  0.00  0.00     0.028 H 
ENDBRANCH   6  46
BRANCH  11  50
ATOM     50  C   LIG d   1       9.951   9.107  -1.797  0.00  0.00    -0.036 C 
ATOM     51  H   LIG d   1       9.188   9.283  -1.040  0.00  0.00     0.028 H 
ATOM     52  H   LIG d   1      10.935   9.312  -1.374  0.00  0.00     0.028 H 
ATOM     53  H   LIG d   1       9.777   9.765  -2.649  0.00  0.00     0.028 H 
ENDBRANCH  11  50
TORSDOF 11
ENDMDL
MODEL 7
REMARK VINA RESULT:      -5.7      2.481      3.603
REMARK  11 active torsions:
REMARK  status: ('A' for Active; 'I' for Inactive)
REMARK    1  A    between atoms: C_1  and  C_2 
REMARK    2  A    between atoms: C_2  and  C_3 
REMARK    3  A    between atoms: C_3  and  C_4 
REMARK    4  A    between atoms: C_4  and  CA_5 
REMARK    5  A    between atoms: CA_5  and  C_7 
REMARK    6  A    between atoms: CA_5  and  N_9 
REMARK       I    between atoms: N_9  and  C_10 
REMARK    7  A    between atoms: C_10  and  C_12 
REMARK    8  A    between atoms: C_12  and  C_13 
REMARK    9  A    between atoms: C_14  and  C_29 
REMARK   10  A    between atoms: C_18  and  C_25 
REMARK   11  A    between atoms: C_23  and  C_24 
ROOT
ATOM      1  C   LIG d   1       4.463   0.644  -9.173  0.00  0.00     0.049 A 
ATOM      2  C   LIG d   1       4.620   0.008 -10.363  0.00  0.00    -0.026 A 
ATOM      3  C   LIG d   1       3.429  -0.522 -11.027  0.00  0.00     0.064 A 
ATOM      4  C   LIG d   1       2.175  -0.358 -10.415  0.00  0.00     0.143 A 
ATOM      5  C   LIG d   1       1.030  -0.856 -11.032  0.00  0.00    -0.015 A 
ATOM      6  C   LIG d   1       1.115  -1.505 -12.230  0.00  0.00    -0.036 A 
ATOM      7  C   LIG d   1       2.353  -1.679 -12.856  0.00  0.00     0.027 A 
ATOM      8  C   LIG d   1       3.523  -1.190 -12.260  0.00  0.00     0.146 A 
ATOM      9  O   LIG d   1       4.549  -1.497 -13.074  0.00  0.00    -0.462 OA
ATOM     10  C   LIG d   1       4.116  -2.157 -14.163  0.00  0.00     0.096 A 
ATOM     11  C   LIG d   1       2.786  -2.310 -14.108  0.00  0.00    -0.005 A 
ATOM     12  O   LIG d   1       2.088   0.285  -9.229  0.00  0.00    -0.422 OA
ATOM     13  C   LIG d   1       3.176   0.769  -8.612  0.00  0.00     0.341 A 
ATOM     14  O   LIG d   1       3.048   1.336  -7.541  0.00  0.00    -0.245 OA
ATOM     15  H   LIG d   1       0.068  -0.728 -10.559  0.00  0.00     0.066 H 
ATOM     16  H   LIG d   1       4.749  -2.511 -14.964  0.00  0.00     0.103 H 
ENDROOT
BRANCH   1  17
ATOM     17  C   LIG d   1       5.662   1.207  -8.452  0.00  0.00     0.056 C 
ATOM     18  H   LIG d   1       6.470   1.369  -9.164  0.00  0.00     0.041 H 
ATOM     19  H   LIG d   1       5.393   2.154  -7.985  0.00  0.00     0.041 H 
BRANCH  17  20
ATOM     20  C   LIG d   1       6.111   0.235  -7.393  0.00  0.00     0.218 C 
ATOM     21  N   LIG d   1       5.480   0.194  -6.203  0.00  0.00    -0.307 N 
ATOM     22  H   LIG d   1       4.735   0.791  -6.028  0.00  0.00     0.149 HD
ATOM     23  O   LIG d   1       7.042  -0.513  -7.611  0.00  0.00    -0.275 OA
BRANCH  21  24
ATOM     24  CA  LIG d   1       5.917  -0.752  -5.173  0.00  0.00     0.063 C 
ATOM     25  HA  LIG d   1       6.671  -1.419  -5.589  0.00  0.00     0.056 H 
BRANCH  24  26
ATOM     26  C   LIG d   1       4.718  -1.573  -4.694  0.00  0.00    -0.029 C 
ATOM     27  H   LIG d   1       4.419  -2.271  -5.476  0.00  0.00     0.029 H 
ATOM     28  H   LIG d   1       4.994  -2.129  -3.797  0.00  0.00     0.029 H 
BRANCH  26  29
ATOM     29  C   LIG d   1       3.552  -0.636  -4.374  0.00  0.00    -0.051 C 
ATOM     30  H   LIG d   1       3.905   0.396  -4.374  0.00  0.00     0.027 H 
ATOM     31  H   LIG d   1       2.774  -0.753  -5.128  0.00  0.00     0.027 H 
BRANCH  29  32
ATOM     32  C   LIG d   1       2.984  -0.980  -2.996  0.00  0.00    -0.056 C 
ATOM     33  H   LIG d   1       3.023  -0.100  -2.356  0.00  0.00     0.026 H 
ATOM     34  H   LIG d   1       1.949  -1.308  -3.101  0.00  0.00     0.026 H 
BRANCH  32  35
ATOM     35  C   LIG d   1       3.813  -2.104  -2.369  0.00  0.00    -0.065 C 
ATOM     36  H   LIG d   1       3.502  -3.061  -2.786  0.00  0.00     0.023 H 
ATOM     37  H   LIG d   1       4.869  -1.939  -2.584  0.00  0.00     0.023 H 
ATOM     38  H   LIG d   1       3.658  -2.109  -1.290  0.00  0.00     0.023 H 
ENDBRANCH  32  35
ENDBRANCH  29  32
ENDBRANCH  26  29
ENDBRANCH  24  26
BRANCH  24  39
ATOM     39  C   LIG d   1       6.503   0.007  -4.011  0.00  0.00     0.062 C 
ATOM     40  O   LIG d   1       6.952  -0.594  -3.063  0.00  0.00    -0.548 OA
ATOM     41  OXT LIG d   1       6.525   1.348  -4.027  0.00  0.00    -0.548 OA
ENDBRANCH  24  39
ENDBRANCH  21  24
ENDBRANCH  17  20
ENDBRANCH   1  17
BRANCH   2  42
ATOM     42  C   LIG d   1       5.985  -0.146 -10.984  0.00  0.00    -0.038 C 
ATOM     43  H   LIG d   1       5.878  -0.450 -12.026  0.00  0.00     0.028 H 
ATOM     44  H   LIG d   1       6.514   0.807 -10.937  0.00  0.00     0.028 H 
ATOM     45  H   LIG d   1       6.549  -0.902 -10.440  0.00  0.00     0.028 H 
ENDBRANCH   2  42
BRANCH   6  46
ATOM     46  C   LIG d   1      -0.135  -2.037 -12.883  0.00  0.00    -0.039 C 
ATOM     47  H   LIG d   1      -0.233  -3.101 -12.667  0.00  0.00     0.028 H 
ATOM     48  H   LIG d   1      -1.003  -1.505 -12.495  0.00  0.00     0.028 H 
ATOM     49  H   LIG d   1      -0.071  -1.890 -13.962  0.00  0.00     0.028 H 
ENDBRANCH   6  46
BRANCH  11  50
ATOM     50  C   LIG d   1       1.911  -2.993 -15.128  0.00  0.00    -0.036 C 
ATOM     51  H   LIG d   1       2.475  -3.789 -15.615  0.00  0.00     0.028 H 
ATOM     52  H   LIG d   1       1.039  -3.418 -14.632  0.00  0.00     0.028 H 
ATOM     53  H   LIG d   1       1.589  -2.267 -15.875  0.00  0.00     0.028 H 
ENDBRANCH  11  50
TORSDOF 11
ENDMDL
MODEL 8
REMARK VINA RESULT:      -5.5      3.034      7.465
REMARK  11 active torsions:
REMARK  status: ('A' for Active; 'I' for Inactive)
REMARK    1  A    between atoms: C_1  and  C_2 
REMARK    2  A    between atoms: C_2  and  C_3 
REMARK    3  A    between atoms: C_3  and  C_4 
REMARK    4  A    between atoms: C_4  and  CA_5 
REMARK    5  A    between atoms: CA_5  and  C_7 
REMARK    6  A    between atoms: CA_5  and  N_9 
REMARK       I    between atoms: N_9  and  C_10 
REMARK    7  A    between atoms: C_10  and  C_12 
REMARK    8  A    between atoms: C_12  and  C_13 
REMARK    9  A    between atoms: C_14  and  C_29 
REMARK   10  A    between atoms: C_18  and  C_25 
REMARK   11  A    between atoms: C_23  and  C_24 
ROOT
ATOM      1  C   LIG d   1       5.671  -0.864  -4.478  0.00  0.00     0.049 A 
ATOM      2  C   LIG d   1       6.410   0.204  -4.077  0.00  0.00    -0.026 A 
ATOM      3  C   LIG d   1       7.818   0.258  -4.468  0.00  0.00     0.064 A 
ATOM      4  C   LIG d   1       8.355  -0.787  -5.237  0.00  0.00     0.143 A 
ATOM      5  C   LIG d   1       9.693  -0.752  -5.619  0.00  0.00    -0.015 A 
ATOM      6  C   LIG d   1      10.492   0.292  -5.252  0.00  0.00    -0.036 A 
ATOM      7  C   LIG d   1       9.978   1.343  -4.486  0.00  0.00     0.027 A 
ATOM      8  C   LIG d   1       8.635   1.336  -4.086  0.00  0.00     0.146 A 
ATOM      9  O   LIG d   1       8.422   2.455  -3.370  0.00  0.00    -0.462 OA
ATOM     10  C   LIG d   1       9.545   3.189  -3.281  0.00  0.00     0.096 A 
ATOM     11  C   LIG d   1      10.544   2.580  -3.935  0.00  0.00    -0.005 A 
ATOM     12  O   LIG d   1       7.566  -1.822  -5.603  0.00  0.00    -0.422 OA
ATOM     13  C   LIG d   1       6.275  -1.882  -5.244  0.00  0.00     0.341 A 
ATOM     14  O   LIG d   1       5.606  -2.838  -5.593  0.00  0.00    -0.245 OA
ATOM     15  H   LIG d   1      10.103  -1.557  -6.211  0.00  0.00     0.066 H 
ATOM     16  H   LIG d   1       9.630   4.131  -2.759  0.00  0.00     0.103 H 
ENDROOT
BRANCH   1  17
ATOM     17  C   LIG d   1       4.216  -0.965  -4.099  0.00  0.00     0.056 C 
ATOM     18  H   LIG d   1       3.939  -2.013  -3.995  0.00  0.00     0.041 H 
ATOM     19  H   LIG d   1       4.051  -0.450  -3.152  0.00  0.00     0.041 H 
BRANCH  17  20
ATOM     20  C   LIG d   1       3.373  -0.326  -5.172  0.00  0.00     0.218 C 
ATOM     21  N   LIG d   1       3.585  -0.633  -6.467  0.00  0.00    -0.307 N 
ATOM     22  H   LIG d   1       4.279  -1.266  -6.708  0.00  0.00     0.149 HD
ATOM     23  O   LIG d   1       2.504   0.464  -4.870  0.00  0.00    -0.275 OA
BRANCH  21  24
ATOM     24  CA  LIG d   1       2.765  -0.013  -7.510  0.00  0.00     0.063 C 
ATOM     25  HA  LIG d   1       1.766   0.182  -7.121  0.00  0.00     0.056 H 
BRANCH  24  26
ATOM     26  C   LIG d   1       2.668  -0.957  -8.711  0.00  0.00    -0.029 C 
ATOM     27  H   LIG d   1       3.584  -0.893  -9.298  0.00  0.00     0.029 H 
ATOM     28  H   LIG d   1       2.533  -1.980  -8.359  0.00  0.00     0.029 H 
BRANCH  26  29
ATOM     29  C   LIG d   1       1.475  -0.555  -9.581  0.00  0.00    -0.051 C 
ATOM     30  H   LIG d   1       0.610  -1.161  -9.314  0.00  0.00     0.027 H 
ATOM     31  H   LIG d   1       1.244   0.498  -9.417  0.00  0.00     0.027 H 
BRANCH  29  32
ATOM     32  C   LIG d   1       1.820  -0.777 -11.054  0.00  0.00    -0.056 C 
ATOM     33  H   LIG d   1       1.732  -1.837 -11.292  0.00  0.00     0.026 H 
ATOM     34  H   LIG d   1       1.134  -0.206 -11.679  0.00  0.00     0.026 H 
BRANCH  32  35
ATOM     35  C   LIG d   1       3.255  -0.314 -11.318  0.00  0.00    -0.065 C 
ATOM     36  H   LIG d   1       3.605   0.281 -10.475  0.00  0.00     0.023 H 
ATOM     37  H   LIG d   1       3.900  -1.185 -11.441  0.00  0.00     0.023 H 
ATOM     38  H   LIG d   1       3.281   0.289 -12.226  0.00  0.00     0.023 H 
ENDBRANCH  32  35
ENDBRANCH  29  32
ENDBRANCH  26  29
ENDBRANCH  24  26
BRANCH  24  39
ATOM     39  C   LIG d   1       3.398   1.284  -7.942  0.00  0.00     0.062 C 
ATOM     40  O   LIG d   1       2.755   2.307  -7.919  0.00  0.00    -0.548 OA
ATOM     41  OXT LIG d   1       4.676   1.304  -8.352  0.00  0.00    -0.548 OA
ENDBRANCH  24  39
ENDBRANCH  21  24
ENDBRANCH  17  20
ENDBRANCH   1  17
BRANCH   2  42
ATOM     42  C   LIG d   1       5.792   1.304  -3.252  0.00  0.00    -0.038 C 
ATOM     43  H   LIG d   1       4.813   0.984  -2.895  0.00  0.00     0.028 H 
ATOM     44  H   LIG d   1       6.436   1.523  -2.399  0.00  0.00     0.028 H 
ATOM     45  H   LIG d   1       5.682   2.199  -3.863  0.00  0.00     0.028 H 
ENDBRANCH   2  42
BRANCH   6  46
ATOM     46  C   LIG d   1      11.939   0.313  -5.674  0.00  0.00    -0.039 C 
ATOM     47  H   LIG d   1      12.060  -0.274  -6.585  0.00  0.00     0.028 H 
ATOM     48  H   LIG d   1      12.248   1.341  -5.860  0.00  0.00     0.028 H 
ATOM     49  H   LIG d   1      12.554  -0.113  -4.882  0.00  0.00     0.028 H 
ENDBRANCH   6  46
BRANCH  11  50
ATOM     50  C   LIG d   1      11.963   3.069  -4.077  0.00  0.00    -0.036 C 
ATOM     51  H   LIG d   1      12.335   2.820  -5.071  0.00  0.00     0.028 H 
ATOM     52  H   LIG d   1      11.991   4.149  -3.940  0.00  0.00     0.028 H 
ATOM     53  H   LIG d   1      12.589   2.589  -3.324  0.00  0.00     0.028 H 
ENDBRANCH  11  50
TORSDOF 11
ENDMDL
MODEL 9
REMARK VINA RESULT:      -5.3      4.471      8.221
REMARK  11 active torsions:
REMARK  status: ('A' for Active; 'I' for Inactive)
REMARK    1  A    between atoms: C_1  and  C_2 
REMARK    2  A    between atoms: C_2  and  C_3 
REMARK    3  A    between atoms: C_3  and  C_4 
REMARK    4  A    between atoms: C_4  and  CA_5 
REMARK    5  A    between atoms: CA_5  and  C_7 
REMARK    6  A    between atoms: CA_5  and  N_9 
REMARK       I    between atoms: N_9  and  C_10 
REMARK    7  A    between atoms: C_10  and  C_12 
REMARK    8  A    between atoms: C_12  and  C_13 
REMARK    9  A    between atoms: C_14  and  C_29 
REMARK   10  A    between atoms: C_18  and  C_25 
REMARK   11  A    between atoms: C_23  and  C_24 
ROOT
ATOM      1  C   LIG d   1       7.921   1.068  -6.150  0.00  0.00     0.049 A 
ATOM      2  C   LIG d   1       8.571   2.194  -6.545  0.00  0.00    -0.026 A 
ATOM      3  C   LIG d   1       9.123   3.072  -5.515  0.00  0.00     0.064 A 
ATOM      4  C   LIG d   1       8.963   2.726  -4.163  0.00  0.00     0.143 A 
ATOM      5  C   LIG d   1       9.482   3.550  -3.168  0.00  0.00    -0.015 A 
ATOM      6  C   LIG d   1      10.148   4.696  -3.495  0.00  0.00    -0.036 A 
ATOM      7  C   LIG d   1      10.318   5.060  -4.834  0.00  0.00     0.027 A 
ATOM      8  C   LIG d   1       9.807   4.251  -5.858  0.00  0.00     0.146 A 
ATOM      9  O   LIG d   1      10.115   4.839  -7.028  0.00  0.00    -0.462 OA
ATOM     10  C   LIG d   1      10.796   5.982  -6.826  0.00  0.00     0.096 A 
ATOM     11  C   LIG d   1      10.963   6.190  -5.513  0.00  0.00    -0.005 A 
ATOM     12  O   LIG d   1       8.305   1.591  -3.836  0.00  0.00    -0.422 OA
ATOM     13  C   LIG d   1       7.791   0.783  -4.775  0.00  0.00     0.341 A 
ATOM     14  O   LIG d   1       7.201  -0.226  -4.432  0.00  0.00    -0.245 OA
ATOM     15  H   LIG d   1       9.358   3.280  -2.130  0.00  0.00     0.066 H 
ATOM     16  H   LIG d   1      11.155   6.634  -7.608  0.00  0.00     0.103 H 
ENDROOT
BRANCH   1  17
ATOM     17  C   LIG d   1       7.335   0.132  -7.176  0.00  0.00     0.056 C 
ATOM     18  H   LIG d   1       7.891   0.222  -8.109  0.00  0.00     0.041 H 
ATOM     19  H   LIG d   1       7.399  -0.893  -6.812  0.00  0.00     0.041 H 
BRANCH  17  20
ATOM     20  C   LIG d   1       5.891   0.491  -7.416  0.00  0.00     0.218 C 
ATOM     21  N   LIG d   1       4.921  -0.099  -6.690  0.00  0.00    -0.307 N 
ATOM     22  H   LIG d   1       5.151  -0.754  -6.013  0.00  0.00     0.149 HD
ATOM     23  O   LIG d   1       5.602   1.311  -8.261  0.00  0.00    -0.275 OA
BRANCH  21  24
ATOM     24  CA  LIG d   1       3.517   0.251  -6.922  0.00  0.00     0.063 C 
ATOM     25  HA  LIG d   1       3.450   1.286  -7.255  0.00  0.00     0.056 H 
BRANCH  24  26
ATOM     26  C   LIG d   1       2.728   0.082  -5.622  0.00  0.00    -0.029 C 
ATOM     27  H   LIG d   1       2.217   1.014  -5.383  0.00  0.00     0.029 H 
ATOM     28  H   LIG d   1       1.992  -0.714  -5.745  0.00  0.00     0.029 H 
BRANCH  26  29
ATOM     29  C   LIG d   1       3.686  -0.281  -4.486  0.00  0.00    -0.051 C 
ATOM     30  H   LIG d   1       4.359  -1.072  -4.817  0.00  0.00     0.027 H 
ATOM     31  H   LIG d   1       4.269   0.597  -4.208  0.00  0.00     0.027 H 
BRANCH  29  32
ATOM     32  C   LIG d   1       2.885  -0.764  -3.277  0.00  0.00    -0.056 C 
ATOM     33  H   LIG d   1       2.708   0.071  -2.600  0.00  0.00     0.026 H 
ATOM     34  H   LIG d   1       1.930  -1.169  -3.611  0.00  0.00     0.026 H 
BRANCH  32  35
ATOM     35  C   LIG d   1       3.672  -1.854  -2.545  0.00  0.00    -0.065 C 
ATOM     36  H   LIG d   1       3.212  -2.047  -1.577  0.00  0.00     0.023 H 
ATOM     37  H   LIG d   1       3.665  -2.768  -3.140  0.00  0.00     0.023 H 
ATOM     38  H   LIG d   1       4.701  -1.524  -2.401  0.00  0.00     0.023 H 
ENDBRANCH  32  35
ENDBRANCH  29  32
ENDBRANCH  26  29
ENDBRANCH  24  26
BRANCH  24  39
ATOM     39  C   LIG d   1       2.942  -0.655  -7.980  0.00  0.00     0.062 C 
ATOM     40  O   LIG d   1       3.368  -1.779  -8.108  0.00  0.00    -0.548 OA
ATOM     41  OXT LIG d   1       1.959  -0.214  -8.779  0.00  0.00    -0.548 OA
ENDBRANCH  24  39
ENDBRANCH  21  24
ENDBRANCH  17  20
ENDBRANCH   1  17
BRANCH   2  42
ATOM     42  C   LIG d   1       8.720   2.527  -8.008  0.00  0.00    -0.038 C 
ATOM     43  H   LIG d   1       9.723   2.911  -8.192  0.00  0.00     0.028 H 
ATOM     44  H   LIG d   1       8.560   1.627  -8.603  0.00  0.00     0.028 H 
ATOM     45  H   LIG d   1       7.985   3.282  -8.286  0.00  0.00     0.028 H 
ENDBRANCH   2  42
BRANCH   6  46
ATOM     46  C   LIG d   1      10.703   5.576  -2.405  0.00  0.00    -0.039 C 
ATOM     47  H   LIG d   1      10.551   5.096  -1.437  0.00  0.00     0.028 H 
ATOM     48  H   LIG d   1      11.769   5.732  -2.570  0.00  0.00     0.028 H 
ATOM     49  H   LIG d   1      10.189   6.537  -2.417  0.00  0.00     0.028 H 
ENDBRANCH   6  46
BRANCH  11  50
ATOM     50  C   LIG d   1      11.670   7.353  -4.864  0.00  0.00    -0.036 C 
ATOM     51  H   LIG d   1      12.745   7.174  -4.873  0.00  0.00     0.028 H 
ATOM     52  H   LIG d   1      11.449   8.266  -5.416  0.00  0.00     0.028 H 
ATOM     53  H   LIG d   1      11.327   7.458  -3.835  0.00  0.00     0.028 H 
ENDBRANCH  11  50
TORSDOF 11
ENDMDL
