MODEL 1
REMARK VINA RESULT:      -6.7      0.000      0.000
REMARK  2 active torsions:
REMARK  status: ('A' for Active; 'I' for Inactive)
REMARK    1  A    between atoms: C_1  and  C_2 
REMARK    2  A    between atoms: N_21  and  C_24 
ROOT
ATOM      1  C   LIG d   1       4.588  -1.809  -7.432  0.00  0.00     0.064 C 
ATOM      2  H   LIG d   1       5.536  -1.515  -7.883  0.00  0.00     0.056 H 
ATOM      3  C   LIG d   1       4.540  -1.351  -5.991  0.00  0.00     0.041 A 
ATOM      4  C   LIG d   1       4.631  -2.193  -4.938  0.00  0.00    -0.015 A 
ATOM      5  C   LIG d   1       4.548  -1.383  -3.741  0.00  0.00     0.003 A 
ATOM      6  C   LIG d   1       4.585  -1.698  -2.379  0.00  0.00    -0.052 A 
ATOM      7  C   LIG d   1       4.475  -0.651  -1.496  0.00  0.00    -0.061 A 
ATOM      8  C   LIG d   1       4.335   0.659  -1.923  0.00  0.00    -0.060 A 
ATOM      9  C   LIG d   1       4.296   1.000  -3.264  0.00  0.00    -0.038 A 
ATOM     10  C   LIG d   1       4.404  -0.042  -4.183  0.00  0.00     0.047 A 
ATOM     11  N   LIG d   1       4.403  -0.064  -5.548  0.00  0.00    -0.356 N 
ATOM     12  H   LIG d   1       4.317   0.717  -6.118  0.00  0.00     0.166 HD
ATOM     13  C   LIG d   1       4.789  -3.688  -5.046  0.00  0.00     0.002 C 
ATOM     14  C   LIG d   1       5.263  -4.034  -6.465  0.00  0.00     0.107 A 
ATOM     15  H   LIG d   1       6.308  -3.743  -6.568  0.00  0.00     0.060 H 
ATOM     16  N   LIG d   1       4.466  -3.283  -7.433  0.00  0.00    -0.280 N 
ATOM     17  C   LIG d   1       3.648  -3.864  -8.313  0.00  0.00     0.234 A 
ATOM     18  O   LIG d   1       2.980  -3.145  -9.025  0.00  0.00    -0.274 OA
ATOM     19  C   LIG d   1       3.499  -5.341  -8.479  0.00  0.00     0.091 A 
ATOM     20  N   LIG d   1       4.373  -6.083  -7.584  0.00  0.00    -0.294 N 
ATOM     21  C   LIG d   1       5.148  -5.507  -6.688  0.00  0.00     0.237 A 
ATOM     22  O   LIG d   1       5.826  -6.240  -5.998  0.00  0.00    -0.274 OA
ATOM     23  H   LIG d   1       4.695  -2.716  -2.037  0.00  0.00     0.062 H 
ATOM     24  H   LIG d   1       4.499  -0.857  -0.437  0.00  0.00     0.062 H 
ATOM     25  H   LIG d   1       4.254   1.443  -1.184  0.00  0.00     0.062 H 
ATOM     26  H   LIG d   1       4.186   2.026  -3.584  0.00  0.00     0.064 H 
ATOM     27  H   LIG d   1       3.832  -4.171  -4.853  0.00  0.00     0.034 H 
ATOM     28  H   LIG d   1       5.527  -4.031  -4.321  0.00  0.00     0.034 H 
ATOM     29  H   LIG d   1       2.465  -5.618  -8.276  0.00  0.00     0.056 H 
ATOM     30  H   LIG d   1       3.741  -5.608  -9.508  0.00  0.00     0.056 H 
ENDROOT
BRANCH   1  31
ATOM     31  C   LIG d   1       3.426  -1.191  -8.213  0.00  0.00    -0.041 C 
ATOM     32  H   LIG d   1       3.092  -0.284  -7.709  0.00  0.00     0.025 H 
ATOM     33  H   LIG d   1       3.758  -0.945  -9.222  0.00  0.00     0.025 H 
ATOM     34  H   LIG d   1       2.603  -1.903  -8.265  0.00  0.00     0.025 H 
ENDBRANCH   1  31
BRANCH  20  35
ATOM     35  C   LIG d   1       4.380  -7.544  -7.682  0.00  0.00     0.004 C 
ATOM     36  H   LIG d   1       3.452  -7.882  -8.144  0.00  0.00     0.043 H 
ATOM     37  H   LIG d   1       5.226  -7.863  -8.290  0.00  0.00     0.043 H 
ATOM     38  H   LIG d   1       4.466  -7.975  -6.684  0.00  0.00     0.043 H 
ENDBRANCH  20  35
TORSDOF 2
ENDMDL
MODEL 2
REMARK VINA RESULT:      -6.6      1.041      1.056
REMARK  2 active torsions:
REMARK  status: ('A' for Active; 'I' for Inactive)
REMARK    1  A    between atoms: C_1  and  C_2 
REMARK    2  A    between atoms: N_21  and  C_24 
ROOT
ATOM      1  C   LIG d   1       4.017  -0.920  -7.682  0.00  0.00     0.064 C 
ATOM      2  H   LIG d   1       4.861  -0.417  -8.155  0.00  0.00     0.056 H 
ATOM      3  C   LIG d   1       4.101  -0.764  -6.180  0.00  0.00     0.041 A 
ATOM      4  C   LIG d   1       4.421  -1.774  -5.342  0.00  0.00    -0.015 A 
ATOM      5  C   LIG d   1       4.400  -1.233  -3.999  0.00  0.00     0.003 A 
ATOM      6  C   LIG d   1       4.645  -1.800  -2.745  0.00  0.00    -0.052 A 
ATOM      7  C   LIG d   1       4.530  -0.971  -1.656  0.00  0.00    -0.061 A 
ATOM      8  C   LIG d   1       4.190   0.365  -1.781  0.00  0.00    -0.060 A 
ATOM      9  C   LIG d   1       3.943   0.953  -3.010  0.00  0.00    -0.038 A 
ATOM     10  C   LIG d   1       4.050   0.136  -4.133  0.00  0.00     0.047 A 
ATOM     11  N   LIG d   1       3.877   0.381  -5.465  0.00  0.00    -0.356 N 
ATOM     12  H   LIG d   1       3.631   1.239  -5.846  0.00  0.00     0.166 HD
ATOM     13  C   LIG d   1       4.731  -3.184  -5.777  0.00  0.00     0.002 C 
ATOM     14  C   LIG d   1       5.057  -3.177  -7.278  0.00  0.00     0.107 A 
ATOM     15  H   LIG d   1       6.041  -2.732  -7.423  0.00  0.00     0.060 H 
ATOM     16  N   LIG d   1       4.064  -2.367  -7.981  0.00  0.00    -0.280 N 
ATOM     17  C   LIG d   1       3.211  -2.872  -8.875  0.00  0.00     0.234 A 
ATOM     18  O   LIG d   1       2.381  -2.125  -9.349  0.00  0.00    -0.274 OA
ATOM     19  C   LIG d   1       3.210  -4.294  -9.332  0.00  0.00     0.091 A 
ATOM     20  N   LIG d   1       4.269  -5.070  -8.706  0.00  0.00    -0.294 N 
ATOM     21  C   LIG d   1       5.082  -4.580  -7.792  0.00  0.00     0.237 A 
ATOM     22  O   LIG d   1       5.920  -5.334  -7.344  0.00  0.00    -0.274 OA
ATOM     23  H   LIG d   1       4.911  -2.841  -2.637  0.00  0.00     0.062 H 
ATOM     24  H   LIG d   1       4.712  -1.375  -0.671  0.00  0.00     0.062 H 
ATOM     25  H   LIG d   1       4.116   0.971  -0.890  0.00  0.00     0.062 H 
ATOM     26  H   LIG d   1       3.677   1.997  -3.094  0.00  0.00     0.064 H 
ATOM     27  H   LIG d   1       3.867  -3.821  -5.593  0.00  0.00     0.034 H 
ATOM     28  H   LIG d   1       5.589  -3.558  -5.219  0.00  0.00     0.034 H 
ATOM     29  H   LIG d   1       2.248  -4.744  -9.087  0.00  0.00     0.056 H 
ATOM     30  H   LIG d   1       3.348  -4.319 -10.413  0.00  0.00     0.056 H 
ENDROOT
BRANCH   1  31
ATOM     31  C   LIG d   1       2.703  -0.326  -8.194  0.00  0.00    -0.041 C 
ATOM     32  H   LIG d   1       2.568  -0.591  -9.242  0.00  0.00     0.025 H 
ATOM     33  H   LIG d   1       1.873  -0.723  -7.608  0.00  0.00     0.025 H 
ATOM     34  H   LIG d   1       2.732   0.759  -8.093  0.00  0.00     0.025 H 
ENDBRANCH   1  31
BRANCH  20  35
ATOM     35  C   LIG d   1       4.428  -6.469  -9.109  0.00  0.00     0.004 C 
ATOM     36  H   LIG d   1       3.675  -7.080  -8.610  0.00  0.00     0.043 H 
ATOM     37  H   LIG d   1       4.307  -6.552 -10.189  0.00  0.00     0.043 H 
ATOM     38  H   LIG d   1       5.422  -6.817  -8.827  0.00  0.00     0.043 H 
ENDBRANCH  20  35
TORSDOF 2
ENDMDL
MODEL 3
REMARK VINA RESULT:      -6.4      3.281      4.179
REMARK  2 active torsions:
REMARK  status: ('A' for Active; 'I' for Inactive)
REMARK    1  A    between atoms: C_1  and  C_2 
REMARK    2  A    between atoms: N_21  and  C_24 
ROOT
ATOM      1  C   LIG d   1       6.337  -0.090  -7.685  0.00  0.00     0.064 C 
ATOM      2  H   LIG d   1       7.010  -0.944  -7.775  0.00  0.00     0.056 H 
ATOM      3  C   LIG d   1       5.704  -0.076  -6.312  0.00  0.00     0.041 A 
ATOM      4  C   LIG d   1       4.406  -0.377  -6.086  0.00  0.00    -0.015 A 
ATOM      5  C   LIG d   1       4.185  -0.255  -4.660  0.00  0.00     0.003 A 
ATOM      6  C   LIG d   1       3.056  -0.441  -3.857  0.00  0.00    -0.052 A 
ATOM      7  C   LIG d   1       3.213  -0.231  -2.509  0.00  0.00    -0.061 A 
ATOM      8  C   LIG d   1       4.426   0.146  -1.959  0.00  0.00    -0.060 A 
ATOM      9  C   LIG d   1       5.560   0.337  -2.730  0.00  0.00    -0.038 A 
ATOM     10  C   LIG d   1       5.431   0.133  -4.102  0.00  0.00     0.047 A 
ATOM     11  N   LIG d   1       6.323   0.230  -5.131  0.00  0.00    -0.356 N 
ATOM     12  H   LIG d   1       7.256   0.481  -5.037  0.00  0.00     0.166 HD
ATOM     13  C   LIG d   1       3.416  -0.761  -7.156  0.00  0.00     0.002 C 
ATOM     14  C   LIG d   1       4.188  -1.179  -8.416  0.00  0.00     0.107 A 
ATOM     15  H   LIG d   1       4.643  -2.154  -8.244  0.00  0.00     0.060 H 
ATOM     16  N   LIG d   1       5.246  -0.204  -8.676  0.00  0.00    -0.280 N 
ATOM     17  C   LIG d   1       5.272   0.573  -9.760  0.00  0.00     0.234 A 
ATOM     18  O   LIG d   1       6.158   1.398  -9.844  0.00  0.00    -0.274 OA
ATOM     19  C   LIG d   1       4.283   0.498 -10.877  0.00  0.00     0.091 A 
ATOM     20  N   LIG d   1       3.293  -0.545 -10.661  0.00  0.00    -0.294 N 
ATOM     21  C   LIG d   1       3.245  -1.284  -9.571  0.00  0.00     0.237 A 
ATOM     22  O   LIG d   1       2.366  -2.117  -9.512  0.00  0.00    -0.274 OA
ATOM     23  H   LIG d   1       2.106  -0.735  -4.277  0.00  0.00     0.062 H 
ATOM     24  H   LIG d   1       2.362  -0.365  -1.858  0.00  0.00     0.062 H 
ATOM     25  H   LIG d   1       4.491   0.296  -0.891  0.00  0.00     0.062 H 
ATOM     26  H   LIG d   1       6.501   0.631  -2.288  0.00  0.00     0.064 H 
ATOM     27  H   LIG d   1       2.777   0.090  -7.385  0.00  0.00     0.034 H 
ATOM     28  H   LIG d   1       2.808  -1.596  -6.808  0.00  0.00     0.034 H 
ATOM     29  H   LIG d   1       3.773   1.457 -10.965  0.00  0.00     0.056 H 
ATOM     30  H   LIG d   1       4.813   0.293 -11.807  0.00  0.00     0.056 H 
ENDROOT
BRANCH   1  31
ATOM     31  C   LIG d   1       7.113   1.209  -7.913  0.00  0.00    -0.041 C 
ATOM     32  H   LIG d   1       6.746   1.698  -8.816  0.00  0.00     0.025 H 
ATOM     33  H   LIG d   1       6.972   1.871  -7.058  0.00  0.00     0.025 H 
ATOM     34  H   LIG d   1       8.174   0.984  -8.027  0.00  0.00     0.025 H 
ENDBRANCH   1  31
BRANCH  20  35
ATOM     35  C   LIG d   1       2.296  -0.777 -11.709  0.00  0.00     0.004 C 
ATOM     36  H   LIG d   1       2.591  -0.249 -12.616  0.00  0.00     0.043 H 
ATOM     37  H   LIG d   1       2.228  -1.845 -11.916  0.00  0.00     0.043 H 
ATOM     38  H   LIG d   1       1.325  -0.410 -11.374  0.00  0.00     0.043 H 
ENDBRANCH  20  35
TORSDOF 2
ENDMDL
MODEL 4
REMARK VINA RESULT:      -6.3      2.363      4.086
REMARK  2 active torsions:
REMARK  status: ('A' for Active; 'I' for Inactive)
REMARK    1  A    between atoms: C_1  and  C_2 
REMARK    2  A    between atoms: N_21  and  C_24 
ROOT
ATOM      1  C   LIG d   1       4.851  -2.736  -6.850  0.00  0.00     0.064 C 
ATOM      2  H   LIG d   1       4.175  -3.591  -6.836  0.00  0.00     0.056 H 
ATOM      3  C   LIG d   1       4.637  -1.890  -5.615  0.00  0.00     0.041 A 
ATOM      4  C   LIG d   1       4.042  -0.678  -5.636  0.00  0.00    -0.015 A 
ATOM      5  C   LIG d   1       4.022  -0.193  -4.271  0.00  0.00     0.003 A 
ATOM      6  C   LIG d   1       3.539   0.984  -3.691  0.00  0.00    -0.052 A 
ATOM      7  C   LIG d   1       3.692   1.113  -2.332  0.00  0.00    -0.061 A 
ATOM      8  C   LIG d   1       4.293   0.132  -1.562  0.00  0.00    -0.060 A 
ATOM      9  C   LIG d   1       4.779  -1.043  -2.110  0.00  0.00    -0.038 A 
ATOM     10  C   LIG d   1       4.639  -1.202  -3.487  0.00  0.00     0.047 A 
ATOM     11  N   LIG d   1       4.997  -2.211  -4.334  0.00  0.00    -0.356 N 
ATOM     12  H   LIG d   1       5.442  -3.031  -4.067  0.00  0.00     0.166 HD
ATOM     13  C   LIG d   1       3.517  -0.001  -6.876  0.00  0.00     0.002 C 
ATOM     14  C   LIG d   1       3.362  -1.052  -7.985  0.00  0.00     0.107 A 
ATOM     15  H   LIG d   1       2.503  -1.682  -7.755  0.00  0.00     0.060 H 
ATOM     16  N   LIG d   1       4.561  -1.887  -8.025  0.00  0.00    -0.280 N 
ATOM     17  C   LIG d   1       5.393  -1.919  -9.068  0.00  0.00     0.234 A 
ATOM     18  O   LIG d   1       6.397  -2.593  -8.972  0.00  0.00    -0.274 OA
ATOM     19  C   LIG d   1       5.172  -1.180 -10.348  0.00  0.00     0.091 A 
ATOM     20  N   LIG d   1       3.923  -0.435 -10.340  0.00  0.00    -0.294 N 
ATOM     21  C   LIG d   1       3.125  -0.371  -9.293  0.00  0.00     0.237 A 
ATOM     22  O   LIG d   1       2.115   0.290  -9.414  0.00  0.00    -0.274 OA
ATOM     23  H   LIG d   1       3.069   1.754  -4.282  0.00  0.00     0.062 H 
ATOM     24  H   LIG d   1       3.332   2.010  -1.849  0.00  0.00     0.062 H 
ATOM     25  H   LIG d   1       4.385   0.287  -0.497  0.00  0.00     0.062 H 
ATOM     26  H   LIG d   1       5.246  -1.801  -1.498  0.00  0.00     0.064 H 
ATOM     27  H   LIG d   1       4.219   0.768  -7.197  0.00  0.00     0.034 H 
ATOM     28  H   LIG d   1       2.548   0.451  -6.663  0.00  0.00     0.034 H 
ATOM     29  H   LIG d   1       5.998  -0.487 -10.504  0.00  0.00     0.056 H 
ATOM     30  H   LIG d   1       5.149  -1.895 -11.170  0.00  0.00     0.056 H 
ENDROOT
BRANCH   1  31
ATOM     31  C   LIG d   1       6.302  -3.220  -6.904  0.00  0.00    -0.041 C 
ATOM     32  H   LIG d   1       6.333  -4.230  -7.313  0.00  0.00     0.025 H 
ATOM     33  H   LIG d   1       6.884  -2.552  -7.539  0.00  0.00     0.025 H 
ATOM     34  H   LIG d   1       6.722  -3.222  -5.898  0.00  0.00     0.025 H 
ENDBRANCH   1  31
BRANCH  20  35
ATOM     35  C   LIG d   1       3.544   0.288 -11.556  0.00  0.00     0.004 C 
ATOM     36  H   LIG d   1       4.268   1.079 -11.750  0.00  0.00     0.043 H 
ATOM     37  H   LIG d   1       3.526  -0.404 -12.398  0.00  0.00     0.043 H 
ATOM     38  H   LIG d   1       2.554   0.726 -11.424  0.00  0.00     0.043 H 
ENDBRANCH  20  35
TORSDOF 2
ENDMDL
MODEL 5
REMARK VINA RESULT:      -6.3      5.374      7.486
REMARK  2 active torsions:
REMARK  status: ('A' for Active; 'I' for Inactive)
REMARK    1  A    between atoms: C_1  and  C_2 
REMARK    2  A    between atoms: N_21  and  C_24 
ROOT
ATOM      1  C   LIG d   1       8.996  -0.499  -5.505  0.00  0.00     0.064 C 
ATOM      2  H   LIG d   1       8.699  -0.539  -6.553  0.00  0.00     0.056 H 
ATOM      3  C   LIG d   1       7.769  -0.535  -4.621  0.00  0.00     0.041 A 
ATOM      4  C   LIG d   1       7.319   0.534  -3.927  0.00  0.00    -0.015 A 
ATOM      5  C   LIG d   1       6.135   0.106  -3.212  0.00  0.00     0.003 A 
ATOM      6  C   LIG d   1       5.259   0.769  -2.348  0.00  0.00    -0.052 A 
ATOM      7  C   LIG d   1       4.215   0.036  -1.839  0.00  0.00    -0.061 A 
ATOM      8  C   LIG d   1       4.029  -1.299  -2.159  0.00  0.00    -0.060 A 
ATOM      9  C   LIG d   1       4.880  -1.980  -3.013  0.00  0.00    -0.038 A 
ATOM     10  C   LIG d   1       5.949  -1.261  -3.544  0.00  0.00     0.047 A 
ATOM     11  N   LIG d   1       6.956  -1.612  -4.397  0.00  0.00    -0.356 N 
ATOM     12  H   LIG d   1       7.076  -2.494  -4.783  0.00  0.00     0.166 HD
ATOM     13  C   LIG d   1       7.968   1.895  -3.932  0.00  0.00     0.002 C 
ATOM     14  C   LIG d   1       8.906   1.991  -5.144  0.00  0.00     0.107 A 
ATOM     15  H   LIG d   1       8.305   2.083  -6.048  0.00  0.00     0.060 H 
ATOM     16  N   LIG d   1       9.704   0.769  -5.231  0.00  0.00    -0.280 N 
ATOM     17  C   LIG d   1      11.030   0.751  -5.082  0.00  0.00     0.234 A 
ATOM     18  O   LIG d   1      11.588  -0.326  -5.103  0.00  0.00    -0.274 OA
ATOM     19  C   LIG d   1      11.874   1.968  -4.889  0.00  0.00     0.091 A 
ATOM     20  N   LIG d   1      11.085   3.190  -4.909  0.00  0.00    -0.294 N 
ATOM     21  C   LIG d   1       9.772   3.202  -5.014  0.00  0.00     0.237 A 
ATOM     22  O   LIG d   1       9.232   4.288  -5.012  0.00  0.00    -0.274 OA
ATOM     23  H   LIG d   1       5.396   1.809  -2.092  0.00  0.00     0.062 H 
ATOM     24  H   LIG d   1       3.519   0.515  -1.167  0.00  0.00     0.062 H 
ATOM     25  H   LIG d   1       3.189  -1.826  -1.731  0.00  0.00     0.062 H 
ATOM     26  H   LIG d   1       4.723  -3.021  -3.255  0.00  0.00     0.064 H 
ATOM     27  H   LIG d   1       8.541   2.029  -3.015  0.00  0.00     0.034 H 
ATOM     28  H   LIG d   1       7.200   2.665  -4.003  0.00  0.00     0.034 H 
ATOM     29  H   LIG d   1      12.390   1.895  -3.932  0.00  0.00     0.056 H 
ATOM     30  H   LIG d   1      12.615   2.016  -5.688  0.00  0.00     0.056 H 
ENDROOT
BRANCH   1  31
ATOM     31  C   LIG d   1       9.907  -1.685  -5.177  0.00  0.00    -0.041 C 
ATOM     32  H   LIG d   1      10.839  -1.591  -5.734  0.00  0.00     0.025 H 
ATOM     33  H   LIG d   1      10.121  -1.693  -4.108  0.00  0.00     0.025 H 
ATOM     34  H   LIG d   1       9.408  -2.614  -5.454  0.00  0.00     0.025 H 
ENDBRANCH   1  31
BRANCH  20  35
ATOM     35  C   LIG d   1      11.791   4.468  -4.795  0.00  0.00     0.004 C 
ATOM     36  H   LIG d   1      12.183   4.756  -5.771  0.00  0.00     0.043 H 
ATOM     37  H   LIG d   1      11.100   5.234  -4.441  0.00  0.00     0.043 H 
ATOM     38  H   LIG d   1      12.615   4.368  -4.088  0.00  0.00     0.043 H 
ENDBRANCH  20  35
TORSDOF 2
ENDMDL
MODEL 6
REMARK VINA RESULT:      -6.2      2.387      2.996
REMARK  2 active torsions:
REMARK  status: ('A' for Active; 'I' for Inactive)
REMARK    1  A    between atoms: C_1  and  C_2 
REMARK    2  A    between atoms: N_21  and  C_24 
ROOT
ATOM      1  C   LIG d   1       7.773  -3.112  -4.499  0.00  0.00     0.064 C 
ATOM      2  H   LIG d   1       8.245  -3.647  -3.675  0.00  0.00     0.056 H 
ATOM      3  C   LIG d   1       6.712  -2.177  -3.964  0.00  0.00     0.041 A 
ATOM      4  C   LIG d   1       5.386  -2.390  -4.115  0.00  0.00    -0.015 A 
ATOM      5  C   LIG d   1       4.704  -1.287  -3.470  0.00  0.00     0.003 A 
ATOM      6  C   LIG d   1       3.351  -0.974  -3.308  0.00  0.00    -0.052 A 
ATOM      7  C   LIG d   1       3.059   0.181  -2.626  0.00  0.00    -0.061 A 
ATOM      8  C   LIG d   1       4.048   1.006  -2.117  0.00  0.00    -0.060 A 
ATOM      9  C   LIG d   1       5.395   0.720  -2.262  0.00  0.00    -0.038 A 
ATOM     10  C   LIG d   1       5.722  -0.446  -2.952  0.00  0.00     0.047 A 
ATOM     11  N   LIG d   1       6.921  -1.016  -3.270  0.00  0.00    -0.356 N 
ATOM     12  H   LIG d   1       7.790  -0.651  -3.040  0.00  0.00     0.166 HD
ATOM     13  C   LIG d   1       4.783  -3.572  -4.831  0.00  0.00     0.002 C 
ATOM     14  C   LIG d   1       5.849  -4.670  -4.956  0.00  0.00     0.107 A 
ATOM     15  H   LIG d   1       6.005  -5.122  -3.977  0.00  0.00     0.060 H 
ATOM     16  N   LIG d   1       7.105  -4.071  -5.404  0.00  0.00    -0.280 N 
ATOM     17  C   LIG d   1       7.670  -4.355  -6.579  0.00  0.00     0.234 A 
ATOM     18  O   LIG d   1       8.676  -3.750  -6.884  0.00  0.00    -0.274 OA
ATOM     19  C   LIG d   1       7.148  -5.367  -7.545  0.00  0.00     0.091 A 
ATOM     20  N   LIG d   1       5.956  -6.035  -7.046  0.00  0.00    -0.294 N 
ATOM     21  C   LIG d   1       5.376  -5.723  -5.904  0.00  0.00     0.237 A 
ATOM     22  O   LIG d   1       4.383  -6.353  -5.605  0.00  0.00    -0.274 OA
ATOM     23  H   LIG d   1       2.573  -1.611  -3.700  0.00  0.00     0.062 H 
ATOM     24  H   LIG d   1       2.024   0.455  -2.482  0.00  0.00     0.062 H 
ATOM     25  H   LIG d   1       3.760   1.902  -1.587  0.00  0.00     0.062 H 
ATOM     26  H   LIG d   1       6.158   1.372  -1.861  0.00  0.00     0.064 H 
ATOM     27  H   LIG d   1       4.453  -3.268  -5.823  0.00  0.00     0.034 H 
ATOM     28  H   LIG d   1       3.934  -3.950  -4.261  0.00  0.00     0.034 H 
ATOM     29  H   LIG d   1       6.908  -4.870  -8.485  0.00  0.00     0.056 H 
ATOM     30  H   LIG d   1       7.920  -6.115  -7.727  0.00  0.00     0.056 H 
ENDROOT
BRANCH   1  31
ATOM     31  C   LIG d   1       8.826  -2.315  -5.272  0.00  0.00    -0.041 C 
ATOM     32  H   LIG d   1       8.522  -1.270  -5.329  0.00  0.00     0.025 H 
ATOM     33  H   LIG d   1       9.785  -2.387  -4.758  0.00  0.00     0.025 H 
ATOM     34  H   LIG d   1       8.923  -2.721  -6.279  0.00  0.00     0.025 H 
ENDBRANCH   1  31
BRANCH  20  35
ATOM     35  C   LIG d   1       5.370  -7.100  -7.862  0.00  0.00     0.004 C 
ATOM     36  H   LIG d   1       4.330  -6.858  -8.084  0.00  0.00     0.043 H 
ATOM     37  H   LIG d   1       5.928  -7.192  -8.794  0.00  0.00     0.043 H 
ATOM     38  H   LIG d   1       5.415  -8.043  -7.317  0.00  0.00     0.043 H 
ENDBRANCH  20  35
TORSDOF 2
ENDMDL
MODEL 7
REMARK VINA RESULT:      -6.2      3.690      4.260
REMARK  2 active torsions:
REMARK  status: ('A' for Active; 'I' for Inactive)
REMARK    1  A    between atoms: C_1  and  C_2 
REMARK    2  A    between atoms: N_21  and  C_24 
ROOT
ATOM      1  C   LIG d   1       3.453   0.433  -7.995  0.00  0.00     0.064 C 
ATOM      2  H   LIG d   1       3.251   1.504  -7.989  0.00  0.00     0.056 H 
ATOM      3  C   LIG d   1       3.703  -0.052  -6.585  0.00  0.00     0.041 A 
ATOM      4  C   LIG d   1       4.920  -0.419  -6.127  0.00  0.00    -0.015 A 
ATOM      5  C   LIG d   1       4.750  -0.815  -4.744  0.00  0.00     0.003 A 
ATOM      6  C   LIG d   1       5.644  -1.280  -3.775  0.00  0.00    -0.052 A 
ATOM      7  C   LIG d   1       5.123  -1.567  -2.537  0.00  0.00    -0.061 A 
ATOM      8  C   LIG d   1       3.778  -1.408  -2.250  0.00  0.00    -0.060 A 
ATOM      9  C   LIG d   1       2.871  -0.949  -3.190  0.00  0.00    -0.038 A 
ATOM     10  C   LIG d   1       3.370  -0.650  -4.455  0.00  0.00     0.047 A 
ATOM     11  N   LIG d   1       2.771  -0.189  -5.592  0.00  0.00    -0.356 N 
ATOM     12  H   LIG d   1       1.825   0.011  -5.681  0.00  0.00     0.166 HD
ATOM     13  C   LIG d   1       6.185  -0.401  -6.945  0.00  0.00     0.002 C 
ATOM     14  C   LIG d   1       5.963   0.488  -8.178  0.00  0.00     0.107 A 
ATOM     15  H   LIG d   1       5.947   1.531  -7.862  0.00  0.00     0.060 H 
ATOM     16  N   LIG d   1       4.674   0.157  -8.782  0.00  0.00    -0.280 N 
ATOM     17  C   LIG d   1       4.553  -0.371 -10.001  0.00  0.00     0.234 A 
ATOM     18  O   LIG d   1       3.441  -0.673 -10.380  0.00  0.00    -0.274 OA
ATOM     19  C   LIG d   1       5.695  -0.617 -10.932  0.00  0.00     0.091 A 
ATOM     20  N   LIG d   1       6.964  -0.189 -10.365  0.00  0.00    -0.294 N 
ATOM     21  C   LIG d   1       7.086   0.294  -9.145  0.00  0.00     0.237 A 
ATOM     22  O   LIG d   1       8.202   0.610  -8.790  0.00  0.00    -0.274 OA
ATOM     23  H   LIG d   1       6.694  -1.406  -3.989  0.00  0.00     0.062 H 
ATOM     24  H   LIG d   1       5.784  -1.929  -1.764  0.00  0.00     0.062 H 
ATOM     25  H   LIG d   1       3.424  -1.648  -1.258  0.00  0.00     0.062 H 
ATOM     26  H   LIG d   1       1.823  -0.830  -2.953  0.00  0.00     0.064 H 
ATOM     27  H   LIG d   1       6.429  -1.413  -7.263  0.00  0.00     0.034 H 
ATOM     28  H   LIG d   1       7.002   0.003  -6.346  0.00  0.00     0.034 H 
ATOM     29  H   LIG d   1       5.748  -1.683 -11.155  0.00  0.00     0.056 H 
ATOM     30  H   LIG d   1       5.521  -0.070 -11.859  0.00  0.00     0.056 H 
ENDROOT
BRANCH   1  31
ATOM     31  C   LIG d   1       2.264  -0.317  -8.600  0.00  0.00    -0.041 C 
ATOM     32  H   LIG d   1       2.108  -1.249  -8.057  0.00  0.00     0.025 H 
ATOM     33  H   LIG d   1       1.369   0.302  -8.525  0.00  0.00     0.025 H 
ATOM     34  H   LIG d   1       2.468  -0.536  -9.648  0.00  0.00     0.025 H 
ENDBRANCH   1  31
BRANCH  20  35
ATOM     35  C   LIG d   1       8.165  -0.310 -11.194  0.00  0.00     0.004 C 
ATOM     36  H   LIG d   1       9.051  -0.182 -10.572  0.00  0.00     0.043 H 
ATOM     37  H   LIG d   1       8.187  -1.297 -11.659  0.00  0.00     0.043 H 
ATOM     38  H   LIG d   1       8.152   0.456 -11.970  0.00  0.00     0.043 H 
ENDBRANCH  20  35
TORSDOF 2
ENDMDL
MODEL 8
REMARK VINA RESULT:      -5.9      4.680      5.194
REMARK  2 active torsions:
REMARK  status: ('A' for Active; 'I' for Inactive)
REMARK    1  A    between atoms: C_1  and  C_2 
REMARK    2  A    between atoms: N_21  and  C_24 
ROOT
ATOM      1  C   LIG d   1       9.018   1.042  -5.133  0.00  0.00     0.064 C 
ATOM      2  H   LIG d   1       9.804   1.386  -4.461  0.00  0.00     0.056 H 
ATOM      3  C   LIG d   1       7.799   0.638  -4.335  0.00  0.00     0.041 A 
ATOM      4  C   LIG d   1       7.409  -0.645  -4.168  0.00  0.00    -0.015 A 
ATOM      5  C   LIG d   1       6.214  -0.621  -3.350  0.00  0.00     0.003 A 
ATOM      6  C   LIG d   1       5.381  -1.631  -2.859  0.00  0.00    -0.052 A 
ATOM      7  C   LIG d   1       4.309  -1.236  -2.097  0.00  0.00    -0.061 A 
ATOM      8  C   LIG d   1       4.054   0.097  -1.821  0.00  0.00    -0.060 A 
ATOM      9  C   LIG d   1       4.863   1.117  -2.292  0.00  0.00    -0.038 A 
ATOM     10  C   LIG d   1       5.958   0.746  -3.070  0.00  0.00     0.047 A 
ATOM     11  N   LIG d   1       6.936   1.476  -3.682  0.00  0.00    -0.356 N 
ATOM     12  H   LIG d   1       7.007   2.444  -3.658  0.00  0.00     0.166 HD
ATOM     13  C   LIG d   1       8.120  -1.840  -4.749  0.00  0.00     0.002 C 
ATOM     14  C   LIG d   1       9.541  -1.420  -5.155  0.00  0.00     0.107 A 
ATOM     15  H   LIG d   1      10.138  -1.284  -4.253  0.00  0.00     0.060 H 
ATOM     16  N   LIG d   1       9.478  -0.151  -5.875  0.00  0.00    -0.280 N 
ATOM     17  C   LIG d   1       9.821  -0.023  -7.159  0.00  0.00     0.234 A 
ATOM     18  O   LIG d   1       9.665   1.061  -7.681  0.00  0.00    -0.274 OA
ATOM     19  C   LIG d   1      10.383  -1.124  -7.997  0.00  0.00     0.091 A 
ATOM     20  N   LIG d   1      10.540  -2.358  -7.243  0.00  0.00    -0.294 N 
ATOM     21  C   LIG d   1      10.162  -2.493  -5.988  0.00  0.00     0.237 A 
ATOM     22  O   LIG d   1      10.344  -3.578  -5.475  0.00  0.00    -0.274 OA
ATOM     23  H   LIG d   1       5.572  -2.672  -3.069  0.00  0.00     0.062 H 
ATOM     24  H   LIG d   1       3.644  -1.989  -1.702  0.00  0.00     0.062 H 
ATOM     25  H   LIG d   1       3.197   0.350  -1.214  0.00  0.00     0.062 H 
ATOM     26  H   LIG d   1       4.653   2.154  -2.070  0.00  0.00     0.064 H 
ATOM     27  H   LIG d   1       7.580  -2.197  -5.625  0.00  0.00     0.034 H 
ATOM     28  H   LIG d   1       8.173  -2.632  -4.001  0.00  0.00     0.034 H 
ATOM     29  H   LIG d   1       9.714  -1.306  -8.838  0.00  0.00     0.056 H 
ATOM     30  H   LIG d   1      11.357  -0.818  -8.378  0.00  0.00     0.056 H 
ENDROOT
BRANCH   1  31
ATOM     31  C   LIG d   1       8.650   2.156  -6.116  0.00  0.00    -0.041 C 
ATOM     32  H   LIG d   1       8.707   3.120  -5.611  0.00  0.00     0.025 H 
ATOM     33  H   LIG d   1       9.346   2.144  -6.955  0.00  0.00     0.025 H 
ATOM     34  H   LIG d   1       7.636   1.997  -6.483  0.00  0.00     0.025 H 
ENDBRANCH   1  31
BRANCH  20  35
ATOM     35  C   LIG d   1      11.142  -3.508  -7.922  0.00  0.00     0.004 C 
ATOM     36  H   LIG d   1      10.379  -4.028  -8.503  0.00  0.00     0.043 H 
ATOM     37  H   LIG d   1      11.934  -3.163  -8.587  0.00  0.00     0.043 H 
ATOM     38  H   LIG d   1      11.561  -4.189  -7.181  0.00  0.00     0.043 H 
ENDBRANCH  20  35
TORSDOF 2
ENDMDL
MODEL 9
REMARK VINA RESULT:      -5.8     10.258     13.669
REMARK  2 active torsions:
REMARK  status: ('A' for Active; 'I' for Inactive)
REMARK    1  A    between atoms: C_1  and  C_2 
REMARK    2  A    between atoms: N_21  and  C_24 
ROOT
ATOM      1  C   LIG d   1      11.823   6.373  -0.455  0.00  0.00     0.064 C 
ATOM      2  H   LIG d   1      12.907   6.296  -0.544  0.00  0.00     0.056 H 
ATOM      3  C   LIG d   1      11.159   5.528  -1.519  0.00  0.00     0.041 A 
ATOM      4  C   LIG d   1      10.521   6.046  -2.592  0.00  0.00    -0.015 A 
ATOM      5  C   LIG d   1      10.027   4.929  -3.371  0.00  0.00     0.003 A 
ATOM      6  C   LIG d   1       9.304   4.852  -4.565  0.00  0.00    -0.052 A 
ATOM      7  C   LIG d   1       8.998   3.595  -5.026  0.00  0.00    -0.061 A 
ATOM      8  C   LIG d   1       9.382   2.450  -4.349  0.00  0.00    -0.060 A 
ATOM      9  C   LIG d   1      10.099   2.496  -3.165  0.00  0.00    -0.038 A 
ATOM     10  C   LIG d   1      10.423   3.758  -2.673  0.00  0.00     0.047 A 
ATOM     11  N   LIG d   1      11.104   4.161  -1.560  0.00  0.00    -0.356 N 
ATOM     12  H   LIG d   1      11.489   3.566  -0.897  0.00  0.00     0.166 HD
ATOM     13  C   LIG d   1      10.379   7.519  -2.877  0.00  0.00     0.002 C 
ATOM     14  C   LIG d   1      11.413   8.286  -2.040  0.00  0.00     0.107 A 
ATOM     15  H   LIG d   1      12.403   8.122  -2.467  0.00  0.00     0.060 H 
ATOM     16  N   LIG d   1      11.399   7.772  -0.671  0.00  0.00    -0.280 N 
ATOM     17  C   LIG d   1      11.030   8.507   0.380  0.00  0.00     0.234 A 
ATOM     18  O   LIG d   1      10.987   7.963   1.463  0.00  0.00    -0.274 OA
ATOM     19  C   LIG d   1      10.665   9.954   0.313  0.00  0.00     0.091 A 
ATOM     20  N   LIG d   1      10.783  10.485  -1.036  0.00  0.00    -0.294 N 
ATOM     21  C   LIG d   1      11.107   9.748  -2.079  0.00  0.00     0.237 A 
ATOM     22  O   LIG d   1      11.165  10.312  -3.151  0.00  0.00    -0.274 OA
ATOM     23  H   LIG d   1       9.000   5.740  -5.099  0.00  0.00     0.062 H 
ATOM     24  H   LIG d   1       8.440   3.498  -5.944  0.00  0.00     0.062 H 
ATOM     25  H   LIG d   1       9.115   1.487  -4.759  0.00  0.00     0.062 H 
ATOM     26  H   LIG d   1      10.393   1.595  -2.647  0.00  0.00     0.064 H 
ATOM     27  H   LIG d   1       9.376   7.848  -2.609  0.00  0.00     0.034 H 
ATOM     28  H   LIG d   1      10.556   7.705  -3.936  0.00  0.00     0.034 H 
ATOM     29  H   LIG d   1       9.637  10.076   0.654  0.00  0.00     0.056 H 
ATOM     30  H   LIG d   1      11.326  10.517   0.972  0.00  0.00     0.056 H 
ENDROOT
BRANCH   1  31
ATOM     31  C   LIG d   1      11.380   5.903   0.932  0.00  0.00    -0.041 C 
ATOM     32  H   LIG d   1      10.367   5.505   0.875  0.00  0.00     0.025 H 
ATOM     33  H   LIG d   1      12.057   5.125   1.285  0.00  0.00     0.025 H 
ATOM     34  H   LIG d   1      11.402   6.745   1.625  0.00  0.00     0.025 H 
ENDBRANCH   1  31
BRANCH  20  35
ATOM     35  C   LIG d   1      10.517  11.911  -1.241  0.00  0.00     0.004 C 
ATOM     36  H   LIG d   1      10.212  12.079  -2.274  0.00  0.00     0.043 H 
ATOM     37  H   LIG d   1       9.721  12.232  -0.569  0.00  0.00     0.043 H 
ATOM     38  H   LIG d   1      11.421  12.483  -1.031  0.00  0.00     0.043 H 
ENDBRANCH  20  35
TORSDOF 2
ENDMDL
MODEL 10
REMARK VINA RESULT:      -5.7      4.705      6.202
REMARK  2 active torsions:
REMARK  status: ('A' for Active; 'I' for Inactive)
REMARK    1  A    between atoms: C_1  and  C_2 
REMARK    2  A    between atoms: N_21  and  C_24 
ROOT
ATOM      1  C   LIG d   1       7.888  -2.307  -5.346  0.00  0.00     0.064 C 
ATOM      2  H   LIG d   1       7.610  -2.388  -6.397  0.00  0.00     0.056 H 
ATOM      3  C   LIG d   1       6.805  -1.580  -4.582  0.00  0.00     0.041 A 
ATOM      4  C   LIG d   1       6.942  -0.321  -4.110  0.00  0.00    -0.015 A 
ATOM      5  C   LIG d   1       5.702   0.019  -3.445  0.00  0.00     0.003 A 
ATOM      6  C   LIG d   1       5.268   1.169  -2.779  0.00  0.00    -0.052 A 
ATOM      7  C   LIG d   1       3.998   1.142  -2.256  0.00  0.00    -0.061 A 
ATOM      8  C   LIG d   1       3.177   0.034  -2.376  0.00  0.00    -0.060 A 
ATOM      9  C   LIG d   1       3.579  -1.117  -3.031  0.00  0.00    -0.038 A 
ATOM     10  C   LIG d   1       4.864  -1.119  -3.571  0.00  0.00     0.047 A 
ATOM     11  N   LIG d   1       5.565  -2.064  -4.263  0.00  0.00    -0.356 N 
ATOM     12  H   LIG d   1       5.234  -2.947  -4.492  0.00  0.00     0.166 HD
ATOM     13  C   LIG d   1       8.179   0.526  -4.272  0.00  0.00     0.002 C 
ATOM     14  C   LIG d   1       9.041  -0.069  -5.395  0.00  0.00     0.107 A 
ATOM     15  H   LIG d   1       8.564   0.137  -6.352  0.00  0.00     0.060 H 
ATOM     16  N   LIG d   1       9.131  -1.517  -5.215  0.00  0.00    -0.280 N 
ATOM     17  C   LIG d   1      10.275  -2.149  -4.946  0.00  0.00     0.234 A 
ATOM     18  O   LIG d   1      10.228  -3.345  -4.746  0.00  0.00    -0.274 OA
ATOM     19  C   LIG d   1      11.610  -1.484  -4.875  0.00  0.00     0.091 A 
ATOM     20  N   LIG d   1      11.528  -0.061  -5.158  0.00  0.00    -0.294 N 
ATOM     21  C   LIG d   1      10.392   0.569  -5.382  0.00  0.00     0.237 A 
ATOM     22  O   LIG d   1      10.460   1.760  -5.601  0.00  0.00    -0.274 OA
ATOM     23  H   LIG d   1       5.901   2.038  -2.681  0.00  0.00     0.062 H 
ATOM     24  H   LIG d   1       3.630   2.013  -1.734  0.00  0.00     0.062 H 
ATOM     25  H   LIG d   1       2.186   0.069  -1.946  0.00  0.00     0.062 H 
ATOM     26  H   LIG d   1       2.929  -1.975  -3.117  0.00  0.00     0.064 H 
ATOM     27  H   LIG d   1       8.743   0.530  -3.341  0.00  0.00     0.034 H 
ATOM     28  H   LIG d   1       7.892   1.544  -4.533  0.00  0.00     0.034 H 
ATOM     29  H   LIG d   1      12.023  -1.623  -3.875  0.00  0.00     0.056 H 
ATOM     30  H   LIG d   1      12.278  -1.950  -5.600  0.00  0.00     0.056 H 
ENDROOT
BRANCH   1  31
ATOM     31  C   LIG d   1       8.095  -3.703  -4.754  0.00  0.00    -0.041 C 
ATOM     32  H   LIG d   1       9.125  -3.804  -4.412  0.00  0.00     0.025 H 
ATOM     33  H   LIG d   1       7.416  -3.843  -3.912  0.00  0.00     0.025 H 
ATOM     34  H   LIG d   1       7.888  -4.455  -5.516  0.00  0.00     0.025 H 
ENDBRANCH   1  31
BRANCH  20  35
ATOM     35  C   LIG d   1      12.773   0.710  -5.187  0.00  0.00     0.004 C 
ATOM     36  H   LIG d   1      13.389   0.378  -6.023  0.00  0.00     0.043 H 
ATOM     37  H   LIG d   1      12.542   1.769  -5.303  0.00  0.00     0.043 H 
ATOM     38  H   LIG d   1      13.317   0.558  -4.254  0.00  0.00     0.043 H 
ENDBRANCH  20  35
TORSDOF 2
ENDMDL
