MODEL 1
REMARK VINA RESULT:      -7.4      0.000      0.000
REMARK  7 active torsions:
REMARK  status: ('A' for Active; 'I' for Inactive)
REMARK    1  A    between atoms: C_1  and  C_2 
REMARK    2  A    between atoms: C_2  and  C_3 
REMARK    3  A    between atoms: C_2  and  C_4 
REMARK    4  A    between atoms: C_4  and  C_5 
REMARK    5  A    between atoms: C_5  and  N_6 
REMARK    6  A    between atoms: C_8  and  C_17 
REMARK       I    between atoms: C_17  and  N_19 
REMARK    7  A    between atoms: N_19  and  C_20 
ROOT
ATOM      1  N   LIG d   1       3.308  -0.344  -6.459  0.00  0.00    -0.314 N 
ATOM      2  C   LIG d   1       3.991  -1.497  -6.257  0.00  0.00     0.021 A 
ATOM      3  C   LIG d   1       4.531  -1.817  -5.048  0.00  0.00     0.061 A 
ATOM      4  C   LIG d   1       4.370  -0.883  -3.920  0.00  0.00     0.001 A 
ATOM      5  C   LIG d   1       4.897  -1.151  -2.660  0.00  0.00    -0.053 A 
ATOM      6  C   LIG d   1       4.716  -0.242  -1.640  0.00  0.00    -0.061 A 
ATOM      7  C   LIG d   1       4.014   0.937  -1.858  0.00  0.00    -0.061 A 
ATOM      8  C   LIG d   1       3.485   1.221  -3.097  0.00  0.00    -0.049 A 
ATOM      9  C   LIG d   1       3.656   0.314  -4.142  0.00  0.00     0.047 A 
ATOM     10  C   LIG d   1       3.119   0.567  -5.486  0.00  0.00     0.259 A 
ATOM     11  O   LIG d   1       2.503   1.591  -5.716  0.00  0.00    -0.267 OA
ATOM     12  H   LIG d   1       4.111  -2.184  -7.081  0.00  0.00     0.082 H 
ATOM     13  H   LIG d   1       5.443  -2.066  -2.482  0.00  0.00     0.062 H 
ATOM     14  H   LIG d   1       5.124  -0.448  -0.662  0.00  0.00     0.062 H 
ATOM     15  H   LIG d   1       3.883   1.638  -1.047  0.00  0.00     0.062 H 
ATOM     16  H   LIG d   1       2.940   2.139  -3.258  0.00  0.00     0.062 H 
ENDROOT
BRANCH   3  17
ATOM     17  C   LIG d   1       5.265  -3.080  -4.871  0.00  0.00     0.250 C 
ATOM     18  O   LIG d   1       4.703  -4.049  -4.395  0.00  0.00    -0.270 OA
ATOM     19  N   LIG d   1       6.560  -3.164  -5.235  0.00  0.00    -0.281 N 
ATOM     20  H   LIG d   1       7.028  -2.374  -5.549  0.00  0.00     0.155 HD
BRANCH  19  21
ATOM     21  C   LIG d   1       7.229  -4.388  -5.162  0.00  0.00     0.043 A 
ATOM     22  C   LIG d   1       8.283  -4.564  -4.254  0.00  0.00     0.021 A 
ATOM     23  C   LIG d   1       8.947  -5.799  -4.183  0.00  0.00     0.048 A 
ATOM     24  C   LIG d   1       8.925  -3.699  -3.263  0.00  0.00    -0.035 A 
ATOM     25  C   LIG d   1       8.557  -6.837  -5.025  0.00  0.00    -0.038 A 
ATOM     26  N   LIG d   1       9.918  -5.683  -3.214  0.00  0.00    -0.361 N 
ATOM     27  C   LIG d   1       7.522  -6.651  -5.916  0.00  0.00    -0.058 A 
ATOM     28  H   LIG d   1       9.064  -7.790  -4.979  0.00  0.00     0.064 H 
ATOM     29  C   LIG d   1       6.859  -5.434  -5.988  0.00  0.00    -0.040 A 
ATOM     30  H   LIG d   1       7.224  -7.461  -6.566  0.00  0.00     0.062 H 
ATOM     31  H   LIG d   1       6.050  -5.304  -6.692  0.00  0.00     0.064 H 
ATOM     32  C   LIG d   1       9.895  -4.423  -2.682  0.00  0.00     0.003 A 
ATOM     33  H   LIG d   1      10.533  -6.388  -2.953  0.00  0.00     0.165 HD
ATOM     34  H   LIG d   1      10.554  -4.065  -1.904  0.00  0.00     0.081 H 
ATOM     35  H   LIG d   1       8.668  -2.674  -3.041  0.00  0.00     0.064 H 
ENDBRANCH  19  21
ENDBRANCH   3  17
BRANCH   1  36
ATOM     36  C   LIG d   1       2.760  -0.075  -7.791  0.00  0.00     0.026 C 
ATOM     37  H   LIG d   1       2.071   0.768  -7.736  0.00  0.00     0.049 H 
ATOM     38  H   LIG d   1       2.228  -0.956  -8.149  0.00  0.00     0.049 H 
BRANCH  36  39
ATOM     39  C   LIG d   1       3.901   0.259  -8.754  0.00  0.00    -0.033 C 
ATOM     40  H   LIG d   1       4.188  -0.637  -9.301  0.00  0.00     0.029 H 
ATOM     41  H   LIG d   1       4.755   0.631  -8.189  0.00  0.00     0.029 H 
BRANCH  39  42
ATOM     42  C   LIG d   1       3.436   1.333  -9.741  0.00  0.00    -0.045 C 
ATOM     43  H   LIG d   1       2.346   1.343  -9.780  0.00  0.00     0.030 H 
BRANCH  42  44
ATOM     44  C   LIG d   1       3.943   2.701  -9.282  0.00  0.00    -0.063 C 
ATOM     45  H   LIG d   1       3.441   3.484  -9.851  0.00  0.00     0.023 H 
ATOM     46  H   LIG d   1       3.729   2.830  -8.220  0.00  0.00     0.023 H 
ATOM     47  H   LIG d   1       5.018   2.765  -9.446  0.00  0.00     0.023 H 
ENDBRANCH  42  44
BRANCH  42  48
ATOM     48  C   LIG d   1       3.994   1.023 -11.132  0.00  0.00    -0.063 C 
ATOM     49  H   LIG d   1       4.725   0.218 -11.058  0.00  0.00     0.023 H 
ATOM     50  H   LIG d   1       3.181   0.715 -11.790  0.00  0.00     0.023 H 
ATOM     51  H   LIG d   1       4.473   1.913 -11.538  0.00  0.00     0.023 H 
ENDBRANCH  42  48
ENDBRANCH  39  42
ENDBRANCH  36  39
ENDBRANCH   1  36
TORSDOF 7
ENDMDL
MODEL 2
REMARK VINA RESULT:      -7.2      5.676      8.051
REMARK  7 active torsions:
REMARK  status: ('A' for Active; 'I' for Inactive)
REMARK    1  A    between atoms: C_1  and  C_2 
REMARK    2  A    between atoms: C_2  and  C_3 
REMARK    3  A    between atoms: C_2  and  C_4 
REMARK    4  A    between atoms: C_4  and  C_5 
REMARK    5  A    between atoms: C_5  and  N_6 
REMARK    6  A    between atoms: C_8  and  C_17 
REMARK       I    between atoms: C_17  and  N_19 
REMARK    7  A    between atoms: N_19  and  C_20 
ROOT
ATOM      1  N   LIG d   1      10.023   4.065  -3.778  0.00  0.00    -0.314 N 
ATOM      2  C   LIG d   1       9.193   3.036  -3.482  0.00  0.00     0.021 A 
ATOM      3  C   LIG d   1       8.563   2.311  -4.448  0.00  0.00     0.061 A 
ATOM      4  C   LIG d   1       8.790   2.653  -5.863  0.00  0.00     0.001 A 
ATOM      5  C   LIG d   1       8.177   1.951  -6.898  0.00  0.00    -0.053 A 
ATOM      6  C   LIG d   1       8.424   2.314  -8.205  0.00  0.00    -0.061 A 
ATOM      7  C   LIG d   1       9.277   3.370  -8.498  0.00  0.00    -0.061 A 
ATOM      8  C   LIG d   1       9.894   4.077  -7.489  0.00  0.00    -0.049 A 
ATOM      9  C   LIG d   1       9.657   3.726  -6.160  0.00  0.00     0.047 A 
ATOM     10  C   LIG d   1      10.281   4.447  -5.043  0.00  0.00     0.259 A 
ATOM     11  O   LIG d   1      11.030   5.382  -5.260  0.00  0.00    -0.267 OA
ATOM     12  H   LIG d   1       9.025   2.783  -2.446  0.00  0.00     0.082 H 
ATOM     13  H   LIG d   1       7.513   1.128  -6.678  0.00  0.00     0.062 H 
ATOM     14  H   LIG d   1       7.950   1.771  -9.008  0.00  0.00     0.062 H 
ATOM     15  H   LIG d   1       9.459   3.640  -9.527  0.00  0.00     0.062 H 
ATOM     16  H   LIG d   1      10.556   4.896  -7.725  0.00  0.00     0.062 H 
ENDROOT
BRANCH   3  17
ATOM     17  C   LIG d   1       7.670   1.201  -4.083  0.00  0.00     0.250 C 
ATOM     18  O   LIG d   1       8.122   0.083  -3.925  0.00  0.00    -0.270 OA
ATOM     19  N   LIG d   1       6.350   1.422  -3.924  0.00  0.00    -0.281 N 
ATOM     20  H   LIG d   1       5.978   2.297  -4.118  0.00  0.00     0.155 HD
BRANCH  19  21
ATOM     21  C   LIG d   1       5.517   0.392  -3.479  0.00  0.00     0.043 A 
ATOM     22  C   LIG d   1       5.069  -0.589  -4.374  0.00  0.00     0.021 A 
ATOM     23  C   LIG d   1       4.236  -1.625  -3.919  0.00  0.00     0.048 A 
ATOM     24  C   LIG d   1       5.276  -0.833  -5.803  0.00  0.00    -0.035 A 
ATOM     25  C   LIG d   1       3.853  -1.658  -2.581  0.00  0.00    -0.038 A 
ATOM     26  N   LIG d   1       3.965  -2.433  -5.000  0.00  0.00    -0.361 N 
ATOM     27  C   LIG d   1       4.296  -0.685  -1.711  0.00  0.00    -0.058 A 
ATOM     28  H   LIG d   1       3.211  -2.449  -2.222  0.00  0.00     0.064 H 
ATOM     29  C   LIG d   1       5.123   0.338  -2.154  0.00  0.00    -0.040 A 
ATOM     30  H   LIG d   1       3.996  -0.717  -0.674  0.00  0.00     0.062 H 
ATOM     31  H   LIG d   1       5.461   1.094  -1.461  0.00  0.00     0.064 H 
ATOM     32  C   LIG d   1       4.587  -1.942  -6.115  0.00  0.00     0.003 A 
ATOM     33  H   LIG d   1       3.409  -3.228  -4.975  0.00  0.00     0.165 HD
ATOM     34  H   LIG d   1       4.538  -2.385  -7.099  0.00  0.00     0.081 H 
ATOM     35  H   LIG d   1       5.869  -0.234  -6.478  0.00  0.00     0.064 H 
ENDBRANCH  19  21
ENDBRANCH   3  17
BRANCH   1  36
ATOM     36  C   LIG d   1      10.660   4.795  -2.679  0.00  0.00     0.026 C 
ATOM     37  H   LIG d   1      11.580   5.259  -3.035  0.00  0.00     0.049 H 
ATOM     38  H   LIG d   1      10.893   4.102  -1.870  0.00  0.00     0.049 H 
BRANCH  36  39
ATOM     39  C   LIG d   1       9.708   5.877  -2.165  0.00  0.00    -0.033 C 
ATOM     40  H   LIG d   1       8.892   5.411  -1.615  0.00  0.00     0.029 H 
ATOM     41  H   LIG d   1       9.305   6.436  -3.010  0.00  0.00     0.029 H 
BRANCH  39  42
ATOM     42  C   LIG d   1      10.469   6.828  -1.240  0.00  0.00    -0.045 C 
ATOM     43  H   LIG d   1      11.385   7.158  -1.731  0.00  0.00     0.030 H 
BRANCH  42  44
ATOM     44  C   LIG d   1       9.594   8.043  -0.926  0.00  0.00    -0.063 C 
ATOM     45  H   LIG d   1       9.247   7.984   0.105  0.00  0.00     0.023 H 
ATOM     46  H   LIG d   1      10.177   8.955  -1.061  0.00  0.00     0.023 H 
ATOM     47  H   LIG d   1       8.736   8.057  -1.598  0.00  0.00     0.023 H 
ENDBRANCH  42  44
BRANCH  42  48
ATOM     48  C   LIG d   1      10.821   6.103   0.061  0.00  0.00    -0.063 C 
ATOM     49  H   LIG d   1      11.815   5.665  -0.026  0.00  0.00     0.023 H 
ATOM     50  H   LIG d   1      10.807   6.812   0.888  0.00  0.00     0.023 H 
ATOM     51  H   LIG d   1      10.091   5.315   0.245  0.00  0.00     0.023 H 
ENDBRANCH  42  48
ENDBRANCH  39  42
ENDBRANCH  36  39
ENDBRANCH   1  36
TORSDOF 7
ENDMDL
MODEL 3
REMARK VINA RESULT:      -7.1      2.965      5.816
REMARK  7 active torsions:
REMARK  status: ('A' for Active; 'I' for Inactive)
REMARK    1  A    between atoms: C_1  and  C_2 
REMARK    2  A    between atoms: C_2  and  C_3 
REMARK    3  A    between atoms: C_2  and  C_4 
REMARK    4  A    between atoms: C_4  and  C_5 
REMARK    5  A    between atoms: C_5  and  N_6 
REMARK    6  A    between atoms: C_8  and  C_17 
REMARK       I    between atoms: C_17  and  N_19 
REMARK    7  A    between atoms: N_19  and  C_20 
ROOT
ATOM      1  N   LIG d   1       3.788  -0.302  -5.764  0.00  0.00    -0.314 N 
ATOM      2  C   LIG d   1       4.197  -1.589  -5.876  0.00  0.00     0.021 A 
ATOM      3  C   LIG d   1       4.046  -2.301  -7.028  0.00  0.00     0.061 A 
ATOM      4  C   LIG d   1       3.419  -1.654  -8.193  0.00  0.00     0.001 A 
ATOM      5  C   LIG d   1       3.235  -2.326  -9.399  0.00  0.00    -0.053 A 
ATOM      6  C   LIG d   1       2.642  -1.673 -10.458  0.00  0.00    -0.061 A 
ATOM      7  C   LIG d   1       2.226  -0.353 -10.333  0.00  0.00    -0.061 A 
ATOM      8  C   LIG d   1       2.398   0.329  -9.149  0.00  0.00    -0.049 A 
ATOM      9  C   LIG d   1       2.996  -0.313  -8.065  0.00  0.00     0.047 A 
ATOM     10  C   LIG d   1       3.200   0.362  -6.777  0.00  0.00     0.259 A 
ATOM     11  O   LIG d   1       2.844   1.517  -6.628  0.00  0.00    -0.267 OA
ATOM     12  H   LIG d   1       4.657  -2.066  -5.023  0.00  0.00     0.082 H 
ATOM     13  H   LIG d   1       3.557  -3.351  -9.504  0.00  0.00     0.062 H 
ATOM     14  H   LIG d   1       2.499  -2.191 -11.393  0.00  0.00     0.062 H 
ATOM     15  H   LIG d   1       1.763   0.143 -11.173  0.00  0.00     0.062 H 
ATOM     16  H   LIG d   1       2.073   1.355  -9.061  0.00  0.00     0.062 H 
ENDROOT
BRANCH   3  17
ATOM     17  C   LIG d   1       4.505  -3.696  -7.107  0.00  0.00     0.250 C 
ATOM     18  O   LIG d   1       5.612  -3.949  -7.544  0.00  0.00    -0.270 OA
ATOM     19  N   LIG d   1       3.699  -4.695  -6.694  0.00  0.00    -0.281 N 
ATOM     20  H   LIG d   1       2.792  -4.501  -6.411  0.00  0.00     0.155 HD
BRANCH  19  21
ATOM     21  C   LIG d   1       4.171  -6.010  -6.674  0.00  0.00     0.043 A 
ATOM     22  C   LIG d   1       4.061  -6.817  -7.815  0.00  0.00     0.021 A 
ATOM     23  C   LIG d   1       4.541  -8.137  -7.788  0.00  0.00     0.048 A 
ATOM     24  C   LIG d   1       3.522  -6.608  -9.160  0.00  0.00    -0.035 A 
ATOM     25  C   LIG d   1       5.115  -8.635  -6.622  0.00  0.00    -0.038 A 
ATOM     26  N   LIG d   1       4.308  -8.679  -9.033  0.00  0.00    -0.361 N 
ATOM     27  C   LIG d   1       5.213  -7.833  -5.505  0.00  0.00    -0.058 A 
ATOM     28  H   LIG d   1       5.485  -9.649  -6.591  0.00  0.00     0.064 H 
ATOM     29  C   LIG d   1       4.744  -6.527  -5.526  0.00  0.00    -0.040 A 
ATOM     30  H   LIG d   1       5.659  -8.225  -4.603  0.00  0.00     0.062 H 
ATOM     31  H   LIG d   1       4.828  -5.912  -4.642  0.00  0.00     0.064 H 
ATOM     32  C   LIG d   1       3.694  -7.756  -9.834  0.00  0.00     0.003 A 
ATOM     33  H   LIG d   1       4.539  -9.583  -9.298  0.00  0.00     0.165 HD
ATOM     34  H   LIG d   1       3.398  -7.923 -10.860  0.00  0.00     0.081 H 
ATOM     35  H   LIG d   1       3.071  -5.702  -9.538  0.00  0.00     0.064 H 
ENDBRANCH  19  21
ENDBRANCH   3  17
BRANCH   1  36
ATOM     36  C   LIG d   1       3.986   0.392  -4.489  0.00  0.00     0.026 C 
ATOM     37  H   LIG d   1       3.848   1.463  -4.633  0.00  0.00     0.049 H 
ATOM     38  H   LIG d   1       4.996   0.201  -4.126  0.00  0.00     0.049 H 
BRANCH  36  39
ATOM     39  C   LIG d   1       2.970  -0.121  -3.466  0.00  0.00    -0.033 C 
ATOM     40  H   LIG d   1       2.572  -1.078  -3.798  0.00  0.00     0.029 H 
ATOM     41  H   LIG d   1       2.157   0.598  -3.370  0.00  0.00     0.029 H 
BRANCH  39  42
ATOM     42  C   LIG d   1       3.657  -0.298  -2.110  0.00  0.00    -0.045 C 
ATOM     43  H   LIG d   1       2.904  -0.337  -1.323  0.00  0.00     0.030 H 
BRANCH  42  44
ATOM     44  C   LIG d   1       4.461  -1.600  -2.111  0.00  0.00    -0.063 C 
ATOM     45  H   LIG d   1       5.350  -1.478  -2.729  0.00  0.00     0.023 H 
ATOM     46  H   LIG d   1       4.759  -1.843  -1.091  0.00  0.00     0.023 H 
ATOM     47  H   LIG d   1       3.847  -2.406  -2.512  0.00  0.00     0.023 H 
ENDBRANCH  42  44
BRANCH  42  48
ATOM     48  C   LIG d   1       4.598   0.882  -1.857  0.00  0.00    -0.063 C 
ATOM     49  H   LIG d   1       5.483   0.533  -1.324  0.00  0.00     0.023 H 
ATOM     50  H   LIG d   1       4.897   1.320  -2.810  0.00  0.00     0.023 H 
ATOM     51  H   LIG d   1       4.085   1.633  -1.257  0.00  0.00     0.023 H 
ENDBRANCH  42  48
ENDBRANCH  39  42
ENDBRANCH  36  39
ENDBRANCH   1  36
TORSDOF 7
ENDMDL
MODEL 4
REMARK VINA RESULT:      -7.0      5.300      7.806
REMARK  7 active torsions:
REMARK  status: ('A' for Active; 'I' for Inactive)
REMARK    1  A    between atoms: C_1  and  C_2 
REMARK    2  A    between atoms: C_2  and  C_3 
REMARK    3  A    between atoms: C_2  and  C_4 
REMARK    4  A    between atoms: C_4  and  C_5 
REMARK    5  A    between atoms: C_5  and  N_6 
REMARK    6  A    between atoms: C_8  and  C_17 
REMARK       I    between atoms: C_17  and  N_19 
REMARK    7  A    between atoms: N_19  and  C_20 
ROOT
ATOM      1  N   LIG d   1      10.945   2.759  -3.642  0.00  0.00    -0.314 N 
ATOM      2  C   LIG d   1       9.628   2.444  -3.578  0.00  0.00     0.021 A 
ATOM      3  C   LIG d   1       9.117   1.336  -4.184  0.00  0.00     0.061 A 
ATOM      4  C   LIG d   1      10.022   0.447  -4.934  0.00  0.00     0.001 A 
ATOM      5  C   LIG d   1       9.562  -0.700  -5.575  0.00  0.00    -0.053 A 
ATOM      6  C   LIG d   1      10.452  -1.497  -6.263  0.00  0.00    -0.061 A 
ATOM      7  C   LIG d   1      11.801  -1.165  -6.322  0.00  0.00    -0.061 A 
ATOM      8  C   LIG d   1      12.275  -0.035  -5.695  0.00  0.00    -0.049 A 
ATOM      9  C   LIG d   1      11.391   0.785  -4.993  0.00  0.00     0.047 A 
ATOM     10  C   LIG d   1      11.839   2.005  -4.310  0.00  0.00     0.259 A 
ATOM     11  O   LIG d   1      13.011   2.330  -4.344  0.00  0.00    -0.267 OA
ATOM     12  H   LIG d   1       8.963   3.094  -3.029  0.00  0.00     0.082 H 
ATOM     13  H   LIG d   1       8.517  -0.965  -5.533  0.00  0.00     0.062 H 
ATOM     14  H   LIG d   1      10.099  -2.387  -6.761  0.00  0.00     0.062 H 
ATOM     15  H   LIG d   1      12.484  -1.801  -6.866  0.00  0.00     0.062 H 
ATOM     16  H   LIG d   1      13.324   0.215  -5.745  0.00  0.00     0.062 H 
ENDROOT
BRANCH   3  17
ATOM     17  C   LIG d   1       7.681   1.031  -4.089  0.00  0.00     0.250 C 
ATOM     18  O   LIG d   1       6.926   1.379  -4.977  0.00  0.00    -0.270 OA
ATOM     19  N   LIG d   1       7.202   0.365  -3.020  0.00  0.00    -0.281 N 
ATOM     20  H   LIG d   1       7.791   0.148  -2.280  0.00  0.00     0.155 HD
BRANCH  19  21
ATOM     21  C   LIG d   1       5.858  -0.014  -2.977  0.00  0.00     0.043 A 
ATOM     22  C   LIG d   1       5.448  -1.229  -3.542  0.00  0.00     0.021 A 
ATOM     23  C   LIG d   1       4.095  -1.604  -3.490  0.00  0.00     0.048 A 
ATOM     24  C   LIG d   1       6.145  -2.313  -4.236  0.00  0.00    -0.035 A 
ATOM     25  C   LIG d   1       3.171  -0.757  -2.885  0.00  0.00    -0.038 A 
ATOM     26  N   LIG d   1       3.990  -2.830  -4.109  0.00  0.00    -0.361 N 
ATOM     27  C   LIG d   1       3.586   0.437  -2.337  0.00  0.00    -0.058 A 
ATOM     28  H   LIG d   1       2.129  -1.037  -2.842  0.00  0.00     0.064 H 
ATOM     29  C   LIG d   1       4.922   0.812  -2.380  0.00  0.00    -0.040 A 
ATOM     30  H   LIG d   1       2.864   1.090  -1.868  0.00  0.00     0.062 H 
ATOM     31  H   LIG d   1       5.230   1.752  -1.947  0.00  0.00     0.064 H 
ATOM     32  C   LIG d   1       5.220  -3.233  -4.554  0.00  0.00     0.003 A 
ATOM     33  H   LIG d   1       3.165  -3.329  -4.220  0.00  0.00     0.165 HD
ATOM     34  H   LIG d   1       5.419  -4.158  -5.076  0.00  0.00     0.081 H 
ATOM     35  H   LIG d   1       7.201  -2.363  -4.454  0.00  0.00     0.064 H 
ENDBRANCH  19  21
ENDBRANCH   3  17
BRANCH   1  36
ATOM     36  C   LIG d   1      11.414   3.970  -2.963  0.00  0.00     0.026 C 
ATOM     37  H   LIG d   1      11.903   4.624  -3.685  0.00  0.00     0.049 H 
ATOM     38  H   LIG d   1      12.122   3.696  -2.182  0.00  0.00     0.049 H 
BRANCH  36  39
ATOM     39  C   LIG d   1      10.222   4.698  -2.339  0.00  0.00    -0.033 C 
ATOM     40  H   LIG d   1      10.338   4.724  -1.257  0.00  0.00     0.029 H 
ATOM     41  H   LIG d   1       9.302   4.173  -2.594  0.00  0.00     0.029 H 
BRANCH  39  42
ATOM     42  C   LIG d   1      10.159   6.128  -2.879  0.00  0.00    -0.045 C 
ATOM     43  H   LIG d   1      11.171   6.495  -3.055  0.00  0.00     0.030 H 
BRANCH  42  44
ATOM     44  C   LIG d   1       9.376   6.143  -4.194  0.00  0.00    -0.063 C 
ATOM     45  H   LIG d   1       9.095   5.125  -4.461  0.00  0.00     0.023 H 
ATOM     46  H   LIG d   1       8.477   6.749  -4.074  0.00  0.00     0.023 H 
ATOM     47  H   LIG d   1       9.998   6.568  -4.982  0.00  0.00     0.023 H 
ENDBRANCH  42  44
BRANCH  42  48
ATOM     48  C   LIG d   1       9.460   7.029  -1.859  0.00  0.00    -0.063 C 
ATOM     49  H   LIG d   1      10.055   7.074  -0.947  0.00  0.00     0.023 H 
ATOM     50  H   LIG d   1       9.352   8.032  -2.273  0.00  0.00     0.023 H 
ATOM     51  H   LIG d   1       8.475   6.623  -1.631  0.00  0.00     0.023 H 
ENDBRANCH  42  48
ENDBRANCH  39  42
ENDBRANCH  36  39
ENDBRANCH   1  36
TORSDOF 7
ENDMDL
MODEL 5
REMARK VINA RESULT:      -6.8      3.018      5.553
REMARK  7 active torsions:
REMARK  status: ('A' for Active; 'I' for Inactive)
REMARK    1  A    between atoms: C_1  and  C_2 
REMARK    2  A    between atoms: C_2  and  C_3 
REMARK    3  A    between atoms: C_2  and  C_4 
REMARK    4  A    between atoms: C_4  and  C_5 
REMARK    5  A    between atoms: C_5  and  N_6 
REMARK    6  A    between atoms: C_8  and  C_17 
REMARK       I    between atoms: C_17  and  N_19 
REMARK    7  A    between atoms: N_19  and  C_20 
ROOT
ATOM      1  N   LIG d   1       4.516  -1.247  -5.835  0.00  0.00    -0.314 N 
ATOM      2  C   LIG d   1       4.781  -2.513  -6.237  0.00  0.00     0.021 A 
ATOM      3  C   LIG d   1       4.303  -3.018  -7.409  0.00  0.00     0.061 A 
ATOM      4  C   LIG d   1       3.469  -2.161  -8.271  0.00  0.00     0.001 A 
ATOM      5  C   LIG d   1       2.950  -2.615  -9.480  0.00  0.00    -0.053 A 
ATOM      6  C   LIG d   1       2.176  -1.772 -10.248  0.00  0.00    -0.061 A 
ATOM      7  C   LIG d   1       1.910  -0.474  -9.826  0.00  0.00    -0.061 A 
ATOM      8  C   LIG d   1       2.415  -0.006  -8.633  0.00  0.00    -0.049 A 
ATOM      9  C   LIG d   1       3.200  -0.843  -7.842  0.00  0.00     0.047 A 
ATOM     10  C   LIG d   1       3.759  -0.400  -6.559  0.00  0.00     0.259 A 
ATOM     11  O   LIG d   1       3.544   0.728  -6.154  0.00  0.00    -0.267 OA
ATOM     12  H   LIG d   1       5.392  -3.144  -5.608  0.00  0.00     0.082 H 
ATOM     13  H   LIG d   1       3.153  -3.622  -9.815  0.00  0.00     0.062 H 
ATOM     14  H   LIG d   1       1.772  -2.122 -11.185  0.00  0.00     0.062 H 
ATOM     15  H   LIG d   1       1.301   0.173 -10.440  0.00  0.00     0.062 H 
ATOM     16  H   LIG d   1       2.204   1.004  -8.313  0.00  0.00     0.062 H 
ENDROOT
BRANCH   3  17
ATOM     17  C   LIG d   1       4.615  -4.398  -7.809  0.00  0.00     0.250 C 
ATOM     18  O   LIG d   1       5.673  -4.649  -8.354  0.00  0.00    -0.270 OA
ATOM     19  N   LIG d   1       3.728  -5.386  -7.571  0.00  0.00    -0.281 N 
ATOM     20  H   LIG d   1       2.857  -5.176  -7.201  0.00  0.00     0.155 HD
BRANCH  19  21
ATOM     21  C   LIG d   1       4.065  -6.711  -7.858  0.00  0.00     0.043 A 
ATOM     22  C   LIG d   1       4.651  -7.519  -6.875  0.00  0.00     0.021 A 
ATOM     23  C   LIG d   1       4.982  -8.853  -7.170  0.00  0.00     0.048 A 
ATOM     24  C   LIG d   1       5.038  -7.304  -5.480  0.00  0.00    -0.035 A 
ATOM     25  C   LIG d   1       4.733  -9.355  -8.444  0.00  0.00    -0.038 A 
ATOM     26  N   LIG d   1       5.527  -9.398  -6.029  0.00  0.00    -0.361 N 
ATOM     27  C   LIG d   1       4.161  -8.548  -9.404  0.00  0.00    -0.058 A 
ATOM     28  H   LIG d   1       4.986 -10.378  -8.681  0.00  0.00     0.064 H 
ATOM     29  C   LIG d   1       3.827  -7.232  -9.117  0.00  0.00    -0.040 A 
ATOM     30  H   LIG d   1       3.970  -8.945 -10.391  0.00  0.00     0.062 H 
ATOM     31  H   LIG d   1       3.380  -6.613  -9.881  0.00  0.00     0.064 H 
ATOM     32  C   LIG d   1       5.560  -8.458  -5.035  0.00  0.00     0.003 A 
ATOM     33  H   LIG d   1       5.849 -10.310  -5.946  0.00  0.00     0.165 HD
ATOM     34  H   LIG d   1       5.941  -8.623  -4.037  0.00  0.00     0.081 H 
ATOM     35  H   LIG d   1       4.927  -6.390  -4.916  0.00  0.00     0.064 H 
ENDBRANCH  19  21
ENDBRANCH   3  17
BRANCH   1  36
ATOM     36  C   LIG d   1       5.069  -0.783  -4.560  0.00  0.00     0.026 C 
ATOM     37  H   LIG d   1       4.605   0.165  -4.287  0.00  0.00     0.049 H 
ATOM     38  H   LIG d   1       6.145  -0.645  -4.660  0.00  0.00     0.049 H 
BRANCH  36  39
ATOM     39  C   LIG d   1       4.785  -1.822  -3.473  0.00  0.00    -0.033 C 
ATOM     40  H   LIG d   1       5.724  -2.141  -3.022  0.00  0.00     0.029 H 
ATOM     41  H   LIG d   1       4.283  -2.682  -3.915  0.00  0.00     0.029 H 
BRANCH  39  42
ATOM     42  C   LIG d   1       3.888  -1.204  -2.399  0.00  0.00    -0.045 C 
ATOM     43  H   LIG d   1       3.729  -1.927  -1.598  0.00  0.00     0.030 H 
BRANCH  42  44
ATOM     44  C   LIG d   1       4.559   0.047  -1.830  0.00  0.00    -0.063 C 
ATOM     45  H   LIG d   1       5.376   0.350  -2.484  0.00  0.00     0.023 H 
ATOM     46  H   LIG d   1       3.828   0.853  -1.764  0.00  0.00     0.023 H 
ATOM     47  H   LIG d   1       4.951  -0.171  -0.836  0.00  0.00     0.023 H 
ENDBRANCH  42  44
BRANCH  42  48
ATOM     48  C   LIG d   1       2.540  -0.824  -3.017  0.00  0.00    -0.063 C 
ATOM     49  H   LIG d   1       2.708  -0.293  -3.954  0.00  0.00     0.023 H 
ATOM     50  H   LIG d   1       1.960  -1.726  -3.209  0.00  0.00     0.023 H 
ATOM     51  H   LIG d   1       1.994  -0.180  -2.328  0.00  0.00     0.023 H 
ENDBRANCH  42  48
ENDBRANCH  39  42
ENDBRANCH  36  39
ENDBRANCH   1  36
TORSDOF 7
ENDMDL
MODEL 6
REMARK VINA RESULT:      -6.7      3.541      8.085
REMARK  7 active torsions:
REMARK  status: ('A' for Active; 'I' for Inactive)
REMARK    1  A    between atoms: C_1  and  C_2 
REMARK    2  A    between atoms: C_2  and  C_3 
REMARK    3  A    between atoms: C_2  and  C_4 
REMARK    4  A    between atoms: C_4  and  C_5 
REMARK    5  A    between atoms: C_5  and  N_6 
REMARK    6  A    between atoms: C_8  and  C_17 
REMARK       I    between atoms: C_17  and  N_19 
REMARK    7  A    between atoms: N_19  and  C_20 
ROOT
ATOM      1  N   LIG d   1       4.651  -7.800  -6.402  0.00  0.00    -0.314 N 
ATOM      2  C   LIG d   1       4.937  -6.741  -5.607  0.00  0.00     0.021 A 
ATOM      3  C   LIG d   1       4.783  -5.455  -6.029  0.00  0.00     0.061 A 
ATOM      4  C   LIG d   1       4.289  -5.202  -7.394  0.00  0.00     0.001 A 
ATOM      5  C   LIG d   1       4.109  -3.912  -7.885  0.00  0.00    -0.053 A 
ATOM      6  C   LIG d   1       3.644  -3.732  -9.170  0.00  0.00    -0.061 A 
ATOM      7  C   LIG d   1       3.354  -4.826  -9.978  0.00  0.00    -0.061 A 
ATOM      8  C   LIG d   1       3.525  -6.110  -9.510  0.00  0.00    -0.049 A 
ATOM      9  C   LIG d   1       3.994  -6.313  -8.213  0.00  0.00     0.047 A 
ATOM     10  C   LIG d   1       4.201  -7.659  -7.664  0.00  0.00     0.259 A 
ATOM     11  O   LIG d   1       3.963  -8.641  -8.343  0.00  0.00    -0.267 OA
ATOM     12  H   LIG d   1       5.299  -6.923  -4.606  0.00  0.00     0.082 H 
ATOM     13  H   LIG d   1       4.331  -3.057  -7.263  0.00  0.00     0.062 H 
ATOM     14  H   LIG d   1       3.504  -2.733  -9.553  0.00  0.00     0.062 H 
ATOM     15  H   LIG d   1       2.991  -4.666 -10.982  0.00  0.00     0.062 H 
ATOM     16  H   LIG d   1       3.296  -6.953 -10.144  0.00  0.00     0.062 H 
ENDROOT
BRANCH   3  17
ATOM     17  C   LIG d   1       5.104  -4.333  -5.133  0.00  0.00     0.250 C 
ATOM     18  O   LIG d   1       6.237  -4.196  -4.712  0.00  0.00    -0.270 OA
ATOM     19  N   LIG d   1       4.143  -3.457  -4.778  0.00  0.00    -0.281 N 
ATOM     20  H   LIG d   1       3.225  -3.606  -5.055  0.00  0.00     0.155 HD
BRANCH  19  21
ATOM     21  C   LIG d   1       4.468  -2.337  -4.010  0.00  0.00     0.043 A 
ATOM     22  C   LIG d   1       5.228  -1.298  -4.563  0.00  0.00     0.021 A 
ATOM     23  C   LIG d   1       5.547  -0.172  -3.786  0.00  0.00     0.048 A 
ATOM     24  C   LIG d   1       5.829  -1.067  -5.878  0.00  0.00    -0.035 A 
ATOM     25  C   LIG d   1       5.111  -0.105  -2.465  0.00  0.00    -0.038 A 
ATOM     26  N   LIG d   1       6.285   0.676  -4.581  0.00  0.00    -0.361 N 
ATOM     27  C   LIG d   1       4.368  -1.135  -1.930  0.00  0.00    -0.058 A 
ATOM     28  H   LIG d   1       5.354   0.756  -1.859  0.00  0.00     0.064 H 
ATOM     29  C   LIG d   1       4.046  -2.247  -2.695  0.00  0.00    -0.040 A 
ATOM     30  H   LIG d   1       4.033  -1.076  -0.905  0.00  0.00     0.062 H 
ATOM     31  H   LIG d   1       3.464  -3.047  -2.261  0.00  0.00     0.064 H 
ATOM     32  C   LIG d   1       6.449   0.123  -5.822  0.00  0.00     0.003 A 
ATOM     33  H   LIG d   1       6.642   1.533  -4.301  0.00  0.00     0.165 HD
ATOM     34  H   LIG d   1       6.990   0.578  -6.639  0.00  0.00     0.081 H 
ATOM     35  H   LIG d   1       5.783  -1.727  -6.731  0.00  0.00     0.064 H 
ENDBRANCH  19  21
ENDBRANCH   3  17
BRANCH   1  36
ATOM     36  C   LIG d   1       4.847  -9.152  -5.872  0.00  0.00     0.026 C 
ATOM     37  H   LIG d   1       5.728  -9.599  -6.332  0.00  0.00     0.049 H 
ATOM     38  H   LIG d   1       3.971  -9.760  -6.100  0.00  0.00     0.049 H 
BRANCH  36  39
ATOM     39  C   LIG d   1       5.040  -9.083  -4.356  0.00  0.00    -0.033 C 
ATOM     40  H   LIG d   1       4.398  -8.306  -3.944  0.00  0.00     0.029 H 
ATOM     41  H   LIG d   1       6.081  -8.850  -4.134  0.00  0.00     0.029 H 
BRANCH  39  42
ATOM     42  C   LIG d   1       4.675 -10.432  -3.734  0.00  0.00    -0.045 C 
ATOM     43  H   LIG d   1       4.869 -11.228  -4.453  0.00  0.00     0.030 H 
BRANCH  42  44
ATOM     44  C   LIG d   1       5.519 -10.661  -2.479  0.00  0.00    -0.063 C 
ATOM     45  H   LIG d   1       5.200 -11.579  -1.988  0.00  0.00     0.023 H 
ATOM     46  H   LIG d   1       6.570 -10.745  -2.759  0.00  0.00     0.023 H 
ATOM     47  H   LIG d   1       5.392  -9.820  -1.797  0.00  0.00     0.023 H 
ENDBRANCH  42  44
BRANCH  42  48
ATOM     48  C   LIG d   1       3.191 -10.435  -3.358  0.00  0.00    -0.063 C 
ATOM     49  H   LIG d   1       2.632  -9.842  -4.081  0.00  0.00     0.023 H 
ATOM     50  H   LIG d   1       2.817 -11.459  -3.361  0.00  0.00     0.023 H 
ATOM     51  H   LIG d   1       3.068 -10.007  -2.363  0.00  0.00     0.023 H 
ENDBRANCH  42  48
ENDBRANCH  39  42
ENDBRANCH  36  39
ENDBRANCH   1  36
TORSDOF 7
ENDMDL
MODEL 7
REMARK VINA RESULT:      -6.7      2.486      5.049
REMARK  7 active torsions:
REMARK  status: ('A' for Active; 'I' for Inactive)
REMARK    1  A    between atoms: C_1  and  C_2 
REMARK    2  A    between atoms: C_2  and  C_3 
REMARK    3  A    between atoms: C_2  and  C_4 
REMARK    4  A    between atoms: C_4  and  C_5 
REMARK    5  A    between atoms: C_5  and  N_6 
REMARK    6  A    between atoms: C_8  and  C_17 
REMARK       I    between atoms: C_17  and  N_19 
REMARK    7  A    between atoms: N_19  and  C_20 
ROOT
ATOM      1  N   LIG d   1       5.221  -1.631  -4.858  0.00  0.00    -0.314 N 
ATOM      2  C   LIG d   1       5.207  -2.982  -4.755  0.00  0.00     0.021 A 
ATOM      3  C   LIG d   1       4.769  -3.782  -5.767  0.00  0.00     0.061 A 
ATOM      4  C   LIG d   1       4.293  -3.163  -7.017  0.00  0.00     0.001 A 
ATOM      5  C   LIG d   1       3.832  -3.924  -8.087  0.00  0.00    -0.053 A 
ATOM      6  C   LIG d   1       3.399  -3.292  -9.233  0.00  0.00    -0.061 A 
ATOM      7  C   LIG d   1       3.417  -1.906  -9.329  0.00  0.00    -0.061 A 
ATOM      8  C   LIG d   1       3.869  -1.135  -8.281  0.00  0.00    -0.049 A 
ATOM      9  C   LIG d   1       4.313  -1.754  -7.113  0.00  0.00     0.047 A 
ATOM     10  C   LIG d   1       4.799  -0.983  -5.961  0.00  0.00     0.259 A 
ATOM     11  O   LIG d   1       4.826   0.233  -6.006  0.00  0.00    -0.267 OA
ATOM     12  H   LIG d   1       5.555  -3.439  -3.841  0.00  0.00     0.082 H 
ATOM     13  H   LIG d   1       3.816  -5.001  -8.021  0.00  0.00     0.062 H 
ATOM     14  H   LIG d   1       3.042  -3.880 -10.065  0.00  0.00     0.062 H 
ATOM     15  H   LIG d   1       3.074  -1.428 -10.234  0.00  0.00     0.062 H 
ATOM     16  H   LIG d   1       3.881  -0.059  -8.364  0.00  0.00     0.062 H 
ENDROOT
BRANCH   3  17
ATOM     17  C   LIG d   1       4.771  -5.245  -5.614  0.00  0.00     0.250 C 
ATOM     18  O   LIG d   1       3.918  -5.787  -4.937  0.00  0.00    -0.270 OA
ATOM     19  N   LIG d   1       5.717  -5.985  -6.225  0.00  0.00    -0.281 N 
ATOM     20  H   LIG d   1       6.438  -5.550  -6.707  0.00  0.00     0.155 HD
BRANCH  19  21
ATOM     21  C   LIG d   1       5.662  -7.380  -6.164  0.00  0.00     0.043 A 
ATOM     22  C   LIG d   1       6.558  -8.087  -5.351  0.00  0.00     0.021 A 
ATOM     23  C   LIG d   1       6.492  -9.489  -5.291  0.00  0.00     0.048 A 
ATOM     24  C   LIG d   1       7.649  -7.693  -4.458  0.00  0.00    -0.035 A 
ATOM     25  C   LIG d   1       5.541 -10.164  -6.051  0.00  0.00    -0.038 A 
ATOM     26  N   LIG d   1       7.475  -9.905  -4.420  0.00  0.00    -0.361 N 
ATOM     27  C   LIG d   1       4.668  -9.458  -6.850  0.00  0.00    -0.058 A 
ATOM     28  H   LIG d   1       5.485 -11.242  -6.013  0.00  0.00     0.064 H 
ATOM     29  C   LIG d   1       4.725  -8.073  -6.909  0.00  0.00    -0.040 A 
ATOM     30  H   LIG d   1       3.932  -9.988  -7.436  0.00  0.00     0.062 H 
ATOM     31  H   LIG d   1       4.034  -7.534  -7.541  0.00  0.00     0.064 H 
ATOM     32  C   LIG d   1       8.159  -8.822  -3.940  0.00  0.00     0.003 A 
ATOM     33  H   LIG d   1       7.660 -10.829  -4.189  0.00  0.00     0.165 HD
ATOM     34  H   LIG d   1       8.982  -8.867  -3.241  0.00  0.00     0.081 H 
ATOM     35  H   LIG d   1       7.982  -6.686  -4.256  0.00  0.00     0.064 H 
ENDBRANCH  19  21
ENDBRANCH   3  17
BRANCH   1  36
ATOM     36  C   LIG d   1       5.707  -0.843  -3.723  0.00  0.00     0.026 C 
ATOM     37  H   LIG d   1       5.432   0.203  -3.862  0.00  0.00     0.049 H 
ATOM     38  H   LIG d   1       6.792  -0.928  -3.661  0.00  0.00     0.049 H 
BRANCH  36  39
ATOM     39  C   LIG d   1       5.079  -1.369  -2.431  0.00  0.00    -0.033 C 
ATOM     40  H   LIG d   1       5.852  -1.484  -1.672  0.00  0.00     0.029 H 
ATOM     41  H   LIG d   1       4.610  -2.333  -2.622  0.00  0.00     0.029 H 
BRANCH  39  42
ATOM     42  C   LIG d   1       4.024  -0.377  -1.937  0.00  0.00    -0.045 C 
ATOM     43  H   LIG d   1       3.737  -0.630  -0.915  0.00  0.00     0.030 H 
BRANCH  42  44
ATOM     44  C   LIG d   1       4.600   1.040  -1.969  0.00  0.00    -0.063 C 
ATOM     45  H   LIG d   1       3.837   1.749  -1.651  0.00  0.00     0.023 H 
ATOM     46  H   LIG d   1       5.455   1.099  -1.295  0.00  0.00     0.023 H 
ATOM     47  H   LIG d   1       4.919   1.279  -2.983  0.00  0.00     0.023 H 
ENDBRANCH  42  44
BRANCH  42  48
ATOM     48  C   LIG d   1       2.793  -0.448  -2.844  0.00  0.00    -0.063 C 
ATOM     49  H   LIG d   1       2.361   0.547  -2.947  0.00  0.00     0.023 H 
ATOM     50  H   LIG d   1       3.086  -0.821  -3.826  0.00  0.00     0.023 H 
ATOM     51  H   LIG d   1       2.057  -1.120  -2.404  0.00  0.00     0.023 H 
ENDBRANCH  42  48
ENDBRANCH  39  42
ENDBRANCH  36  39
ENDBRANCH   1  36
TORSDOF 7
ENDMDL
MODEL 8
REMARK VINA RESULT:      -6.7      4.793      7.366
REMARK  7 active torsions:
REMARK  status: ('A' for Active; 'I' for Inactive)
REMARK    1  A    between atoms: C_1  and  C_2 
REMARK    2  A    between atoms: C_2  and  C_3 
REMARK    3  A    between atoms: C_2  and  C_4 
REMARK    4  A    between atoms: C_4  and  C_5 
REMARK    5  A    between atoms: C_5  and  N_6 
REMARK    6  A    between atoms: C_8  and  C_17 
REMARK       I    between atoms: C_17  and  N_19 
REMARK    7  A    between atoms: N_19  and  C_20 
ROOT
ATOM      1  N   LIG d   1       7.035  -2.277  -5.008  0.00  0.00    -0.314 N 
ATOM      2  C   LIG d   1       7.740  -1.123  -5.103  0.00  0.00     0.021 A 
ATOM      3  C   LIG d   1       7.385   0.002  -4.423  0.00  0.00     0.061 A 
ATOM      4  C   LIG d   1       6.196  -0.031  -3.554  0.00  0.00     0.001 A 
ATOM      5  C   LIG d   1       5.779   1.085  -2.832  0.00  0.00    -0.053 A 
ATOM      6  C   LIG d   1       4.659   0.999  -2.034  0.00  0.00    -0.061 A 
ATOM      7  C   LIG d   1       3.943  -0.189  -1.944  0.00  0.00    -0.061 A 
ATOM      8  C   LIG d   1       4.338  -1.303  -2.649  0.00  0.00    -0.049 A 
ATOM      9  C   LIG d   1       5.469  -1.238  -3.462  0.00  0.00     0.047 A 
ATOM     10  C   LIG d   1       5.934  -2.392  -4.242  0.00  0.00     0.259 A 
ATOM     11  O   LIG d   1       5.330  -3.447  -4.192  0.00  0.00    -0.267 OA
ATOM     12  H   LIG d   1       8.613  -1.096  -5.739  0.00  0.00     0.082 H 
ATOM     13  H   LIG d   1       6.331   2.011  -2.896  0.00  0.00     0.062 H 
ATOM     14  H   LIG d   1       4.334   1.862  -1.473  0.00  0.00     0.062 H 
ATOM     15  H   LIG d   1       3.067  -0.238  -1.313  0.00  0.00     0.062 H 
ATOM     16  H   LIG d   1       3.777  -2.223  -2.572  0.00  0.00     0.062 H 
ENDROOT
BRANCH   3  17
ATOM     17  C   LIG d   1       8.179   1.234  -4.554  0.00  0.00     0.250 C 
ATOM     18  O   LIG d   1       7.827   2.105  -5.327  0.00  0.00    -0.270 OA
ATOM     19  N   LIG d   1       9.295   1.398  -3.816  0.00  0.00    -0.281 N 
ATOM     20  H   LIG d   1       9.614   0.676  -3.252  0.00  0.00     0.155 HD
BRANCH  19  21
ATOM     21  C   LIG d   1       9.993   2.607  -3.865  0.00  0.00     0.043 A 
ATOM     22  C   LIG d   1      11.077   2.761  -4.740  0.00  0.00     0.021 A 
ATOM     23  C   LIG d   1      11.771   3.982  -4.786  0.00  0.00     0.048 A 
ATOM     24  C   LIG d   1      11.729   1.886  -5.716  0.00  0.00    -0.035 A 
ATOM     25  C   LIG d   1      11.380   5.026  -3.951  0.00  0.00    -0.038 A 
ATOM     26  N   LIG d   1      12.768   3.847  -5.727  0.00  0.00    -0.361 N 
ATOM     27  C   LIG d   1      10.316   4.860  -3.092  0.00  0.00    -0.058 A 
ATOM     28  H   LIG d   1      11.909   5.966  -3.979  0.00  0.00     0.064 H 
ATOM     29  C   LIG d   1       9.623   3.658  -3.045  0.00  0.00    -0.040 A 
ATOM     30  H   LIG d   1      10.017   5.674  -2.448  0.00  0.00     0.062 H 
ATOM     31  H   LIG d   1       8.791   3.544  -2.366  0.00  0.00     0.064 H 
ATOM     32  C   LIG d   1      12.732   2.590  -6.265  0.00  0.00     0.003 A 
ATOM     33  H   LIG d   1      13.406   4.539  -5.966  0.00  0.00     0.165 HD
ATOM     34  H   LIG d   1      13.405   2.220  -7.025  0.00  0.00     0.081 H 
ATOM     35  H   LIG d   1      11.455   0.868  -5.949  0.00  0.00     0.064 H 
ENDBRANCH  19  21
ENDBRANCH   3  17
BRANCH   1  36
ATOM     36  C   LIG d   1       7.485  -3.442  -5.774  0.00  0.00     0.026 C 
ATOM     37  H   LIG d   1       7.543  -3.181  -6.831  0.00  0.00     0.049 H 
ATOM     38  H   LIG d   1       6.775  -4.259  -5.640  0.00  0.00     0.049 H 
BRANCH  36  39
ATOM     39  C   LIG d   1       8.865  -3.878  -5.278  0.00  0.00    -0.033 C 
ATOM     40  H   LIG d   1       9.472  -2.997  -5.075  0.00  0.00     0.029 H 
ATOM     41  H   LIG d   1       9.349  -4.486  -6.041  0.00  0.00     0.029 H 
BRANCH  39  42
ATOM     42  C   LIG d   1       8.709  -4.697  -3.995  0.00  0.00    -0.045 C 
ATOM     43  H   LIG d   1       7.660  -4.712  -3.698  0.00  0.00     0.030 H 
BRANCH  42  44
ATOM     44  C   LIG d   1       9.189  -6.128  -4.242  0.00  0.00    -0.063 C 
ATOM     45  H   LIG d   1       8.362  -6.821  -4.086  0.00  0.00     0.023 H 
ATOM     46  H   LIG d   1       9.550  -6.219  -5.267  0.00  0.00     0.023 H 
ATOM     47  H   LIG d   1       9.997  -6.365  -3.551  0.00  0.00     0.023 H 
ENDBRANCH  42  44
BRANCH  42  48
ATOM     48  C   LIG d   1       9.545  -4.064  -2.880  0.00  0.00    -0.063 C 
ATOM     49  H   LIG d   1       9.772  -3.030  -3.140  0.00  0.00     0.023 H 
ATOM     50  H   LIG d   1       8.984  -4.089  -1.946  0.00  0.00     0.023 H 
ATOM     51  H   LIG d   1      10.474  -4.622  -2.763  0.00  0.00     0.023 H 
ENDBRANCH  42  48
ENDBRANCH  39  42
ENDBRANCH  36  39
ENDBRANCH   1  36
TORSDOF 7
ENDMDL
MODEL 9
REMARK VINA RESULT:      -6.6      2.007      2.537
REMARK  7 active torsions:
REMARK  status: ('A' for Active; 'I' for Inactive)
REMARK    1  A    between atoms: C_1  and  C_2 
REMARK    2  A    between atoms: C_2  and  C_3 
REMARK    3  A    between atoms: C_2  and  C_4 
REMARK    4  A    between atoms: C_4  and  C_5 
REMARK    5  A    between atoms: C_5  and  N_6 
REMARK    6  A    between atoms: C_8  and  C_17 
REMARK       I    between atoms: C_17  and  N_19 
REMARK    7  A    between atoms: N_19  and  C_20 
ROOT
ATOM      1  N   LIG d   1       5.029  -0.260  -6.901  0.00  0.00    -0.314 N 
ATOM      2  C   LIG d   1       6.016  -1.116  -6.542  0.00  0.00     0.021 A 
ATOM      3  C   LIG d   1       6.011  -1.767  -5.345  0.00  0.00     0.061 A 
ATOM      4  C   LIG d   1       4.898  -1.536  -4.407  0.00  0.00     0.001 A 
ATOM      5  C   LIG d   1       4.834  -2.170  -3.169  0.00  0.00    -0.053 A 
ATOM      6  C   LIG d   1       3.770  -1.918  -2.331  0.00  0.00    -0.061 A 
ATOM      7  C   LIG d   1       2.763  -1.038  -2.709  0.00  0.00    -0.061 A 
ATOM      8  C   LIG d   1       2.807  -0.402  -3.929  0.00  0.00    -0.049 A 
ATOM      9  C   LIG d   1       3.875  -0.643  -4.793  0.00  0.00     0.047 A 
ATOM     10  C   LIG d   1       3.979   0.012  -6.103  0.00  0.00     0.259 A 
ATOM     11  O   LIG d   1       3.118   0.792  -6.467  0.00  0.00    -0.267 OA
ATOM     12  H   LIG d   1       6.833  -1.287  -7.227  0.00  0.00     0.082 H 
ATOM     13  H   LIG d   1       5.613  -2.856  -2.869  0.00  0.00     0.062 H 
ATOM     14  H   LIG d   1       3.718  -2.408  -1.371  0.00  0.00     0.062 H 
ATOM     15  H   LIG d   1       1.936  -0.853  -2.039  0.00  0.00     0.062 H 
ATOM     16  H   LIG d   1       2.020   0.279  -4.216  0.00  0.00     0.062 H 
ENDROOT
BRANCH   3  17
ATOM     17  C   LIG d   1       7.103  -2.689  -4.994  0.00  0.00     0.250 C 
ATOM     18  O   LIG d   1       7.073  -3.842  -5.379  0.00  0.00    -0.270 OA
ATOM     19  N   LIG d   1       8.137  -2.255  -4.246  0.00  0.00    -0.281 N 
ATOM     20  H   LIG d   1       8.127  -1.357  -3.880  0.00  0.00     0.155 HD
BRANCH  19  21
ATOM     21  C   LIG d   1       9.221  -3.099  -3.996  0.00  0.00     0.043 A 
ATOM     22  C   LIG d   1      10.312  -3.125  -4.876  0.00  0.00     0.021 A 
ATOM     23  C   LIG d   1      11.402  -3.974  -4.616  0.00  0.00     0.048 A 
ATOM     24  C   LIG d   1      10.635  -2.419  -6.117  0.00  0.00    -0.035 A 
ATOM     25  C   LIG d   1      11.381  -4.790  -3.489  0.00  0.00    -0.038 A 
ATOM     26  N   LIG d   1      12.314  -3.786  -5.630  0.00  0.00    -0.361 N 
ATOM     27  C   LIG d   1      10.300  -4.759  -2.633  0.00  0.00    -0.058 A 
ATOM     28  H   LIG d   1      12.213  -5.447  -3.282  0.00  0.00     0.064 H 
ATOM     29  C   LIG d   1       9.224  -3.920  -2.882  0.00  0.00    -0.040 A 
ATOM     30  H   LIG d   1      10.291  -5.395  -1.760  0.00  0.00     0.062 H 
ATOM     31  H   LIG d   1       8.384  -3.907  -2.203  0.00  0.00     0.064 H 
ATOM     32  C   LIG d   1      11.837  -2.861  -6.519  0.00  0.00     0.003 A 
ATOM     33  H   LIG d   1      13.165  -4.247  -5.707  0.00  0.00     0.165 HD
ATOM     34  H   LIG d   1      12.354  -2.530  -7.408  0.00  0.00     0.081 H 
ATOM     35  H   LIG d   1      10.022  -1.682  -6.615  0.00  0.00     0.064 H 
ENDBRANCH  19  21
ENDBRANCH   3  17
BRANCH   1  36
ATOM     36  C   LIG d   1       5.110   0.401  -8.207  0.00  0.00     0.026 C 
ATOM     37  H   LIG d   1       6.154   0.474  -8.512  0.00  0.00     0.049 H 
ATOM     38  H   LIG d   1       4.682   1.400  -8.134  0.00  0.00     0.049 H 
BRANCH  36  39
ATOM     39  C   LIG d   1       4.331  -0.415  -9.240  0.00  0.00    -0.033 C 
ATOM     40  H   LIG d   1       3.611  -1.054  -8.731  0.00  0.00     0.029 H 
ATOM     41  H   LIG d   1       5.023  -1.030  -9.814  0.00  0.00     0.029 H 
BRANCH  39  42
ATOM     42  C   LIG d   1       3.590   0.535 -10.185  0.00  0.00    -0.045 C 
ATOM     43  H   LIG d   1       2.526   0.297 -10.178  0.00  0.00     0.030 H 
BRANCH  42  44
ATOM     44  C   LIG d   1       3.793   1.978  -9.720  0.00  0.00    -0.063 C 
ATOM     45  H   LIG d   1       4.499   2.477 -10.382  0.00  0.00     0.023 H 
ATOM     46  H   LIG d   1       2.838   2.504  -9.743  0.00  0.00     0.023 H 
ATOM     47  H   LIG d   1       4.184   1.980  -8.702  0.00  0.00     0.023 H 
ENDBRANCH  42  44
BRANCH  42  48
ATOM     48  C   LIG d   1       4.140   0.374 -11.604  0.00  0.00    -0.063 C 
ATOM     49  H   LIG d   1       4.507  -0.643 -11.737  0.00  0.00     0.023 H 
ATOM     50  H   LIG d   1       3.347   0.572 -12.326  0.00  0.00     0.023 H 
ATOM     51  H   LIG d   1       4.957   1.078 -11.758  0.00  0.00     0.023 H 
ENDBRANCH  42  48
ENDBRANCH  39  42
ENDBRANCH  36  39
ENDBRANCH   1  36
TORSDOF 7
ENDMDL
MODEL 10
REMARK VINA RESULT:      -6.1      5.745      7.931
REMARK  7 active torsions:
REMARK  status: ('A' for Active; 'I' for Inactive)
REMARK    1  A    between atoms: C_1  and  C_2 
REMARK    2  A    between atoms: C_2  and  C_3 
REMARK    3  A    between atoms: C_2  and  C_4 
REMARK    4  A    between atoms: C_4  and  C_5 
REMARK    5  A    between atoms: C_5  and  N_6 
REMARK    6  A    between atoms: C_8  and  C_17 
REMARK       I    between atoms: C_17  and  N_19 
REMARK    7  A    between atoms: N_19  and  C_20 
ROOT
ATOM      1  N   LIG d   1       9.602   4.814  -4.886  0.00  0.00    -0.314 N 
ATOM      2  C   LIG d   1       9.065   3.622  -4.530  0.00  0.00     0.021 A 
ATOM      3  C   LIG d   1       8.797   2.646  -5.441  0.00  0.00     0.061 A 
ATOM      4  C   LIG d   1       9.099   2.889  -6.863  0.00  0.00     0.001 A 
ATOM      5  C   LIG d   1       8.849   1.933  -7.843  0.00  0.00    -0.053 A 
ATOM      6  C   LIG d   1       9.151   2.213  -9.159  0.00  0.00    -0.061 A 
ATOM      7  C   LIG d   1       9.701   3.439  -9.513  0.00  0.00    -0.061 A 
ATOM      8  C   LIG d   1       9.956   4.398  -8.559  0.00  0.00    -0.049 A 
ATOM      9  C   LIG d   1       9.658   4.134  -7.222  0.00  0.00     0.047 A 
ATOM     10  C   LIG d   1       9.903   5.121  -6.162  0.00  0.00     0.259 A 
ATOM     11  O   LIG d   1      10.379   6.207  -6.435  0.00  0.00    -0.267 OA
ATOM     12  H   LIG d   1       8.843   3.441  -3.489  0.00  0.00     0.082 H 
ATOM     13  H   LIG d   1       8.423   0.978  -7.575  0.00  0.00     0.062 H 
ATOM     14  H   LIG d   1       8.959   1.474  -9.920  0.00  0.00     0.062 H 
ATOM     15  H   LIG d   1       9.931   3.641 -10.549  0.00  0.00     0.062 H 
ATOM     16  H   LIG d   1      10.385   5.348  -8.843  0.00  0.00     0.062 H 
ENDROOT
BRANCH   3  17
ATOM     17  C   LIG d   1       8.215   1.365  -5.012  0.00  0.00     0.250 C 
ATOM     18  O   LIG d   1       8.904   0.547  -4.432  0.00  0.00    -0.270 OA
ATOM     19  N   LIG d   1       6.917   1.097  -5.260  0.00  0.00    -0.281 N 
ATOM     20  H   LIG d   1       6.385   1.718  -5.783  0.00  0.00     0.155 HD
BRANCH  19  21
ATOM     21  C   LIG d   1       6.337  -0.073  -4.765  0.00  0.00     0.043 A 
ATOM     22  C   LIG d   1       5.610  -0.049  -3.567  0.00  0.00     0.021 A 
ATOM     23  C   LIG d   1       5.026  -1.230  -3.078  0.00  0.00     0.048 A 
ATOM     24  C   LIG d   1       5.269   1.001  -2.606  0.00  0.00    -0.035 A 
ATOM     25  C   LIG d   1       5.186  -2.418  -3.786  0.00  0.00    -0.038 A 
ATOM     26  N   LIG d   1       4.378  -0.908  -1.907  0.00  0.00    -0.361 N 
ATOM     27  C   LIG d   1       5.908  -2.430  -4.960  0.00  0.00    -0.058 A 
ATOM     28  H   LIG d   1       4.743  -3.331  -3.416  0.00  0.00     0.064 H 
ATOM     29  C   LIG d   1       6.483  -1.266  -5.451  0.00  0.00    -0.040 A 
ATOM     30  H   LIG d   1       6.028  -3.355  -5.505  0.00  0.00     0.062 H 
ATOM     31  H   LIG d   1       7.046  -1.292  -6.372  0.00  0.00     0.064 H 
ATOM     32  C   LIG d   1       4.540   0.424  -1.637  0.00  0.00     0.003 A 
ATOM     33  H   LIG d   1       3.888  -1.534  -1.351  0.00  0.00     0.165 HD
ATOM     34  H   LIG d   1       4.134   0.937  -0.777  0.00  0.00     0.081 H 
ATOM     35  H   LIG d   1       5.550   2.042  -2.664  0.00  0.00     0.064 H 
ENDBRANCH  19  21
ENDBRANCH   3  17
BRANCH   1  36
ATOM     36  C   LIG d   1       9.858   5.811  -3.843  0.00  0.00     0.026 C 
ATOM     37  H   LIG d   1       8.949   6.383  -3.657  0.00  0.00     0.049 H 
ATOM     38  H   LIG d   1      10.650   6.484  -4.172  0.00  0.00     0.049 H 
BRANCH  36  39
ATOM     39  C   LIG d   1      10.290   5.104  -2.557  0.00  0.00    -0.033 C 
ATOM     40  H   LIG d   1      11.359   4.902  -2.596  0.00  0.00     0.029 H 
ATOM     41  H   LIG d   1       9.745   4.166  -2.458  0.00  0.00     0.029 H 
BRANCH  39  42
ATOM     42  C   LIG d   1       9.985   6.001  -1.356  0.00  0.00    -0.045 C 
ATOM     43  H   LIG d   1       9.024   5.717  -0.924  0.00  0.00     0.030 H 
BRANCH  42  44
ATOM     44  C   LIG d   1      11.084   5.838  -0.304  0.00  0.00    -0.063 C 
ATOM     45  H   LIG d   1      10.741   6.247   0.646  0.00  0.00     0.023 H 
ATOM     46  H   LIG d   1      11.316   4.780  -0.182  0.00  0.00     0.023 H 
ATOM     47  H   LIG d   1      11.978   6.371  -0.628  0.00  0.00     0.023 H 
ENDBRANCH  42  44
BRANCH  42  48
ATOM     48  C   LIG d   1       9.926   7.461  -1.810  0.00  0.00    -0.063 C 
ATOM     49  H   LIG d   1       9.697   8.098  -0.956  0.00  0.00     0.023 H 
ATOM     50  H   LIG d   1      10.890   7.750  -2.231  0.00  0.00     0.023 H 
ATOM     51  H   LIG d   1       9.150   7.575  -2.567  0.00  0.00     0.023 H 
ENDBRANCH  42  48
ENDBRANCH  39  42
ENDBRANCH  36  39
ENDBRANCH   1  36
TORSDOF 7
ENDMDL
