MODEL 1
REMARK VINA RESULT:      -7.7      0.000      0.000
REMARK  7 active torsions:
REMARK  status: ('A' for Active; 'I' for Inactive)
REMARK    1  A    between atoms: C_1  and  C_2 
REMARK    2  A    between atoms: C_16  and  C_19 
REMARK    3  A    between atoms: C_19  and  C_20 
REMARK    4  A    between atoms: C_20  and  C_21 
REMARK       I    between atoms: C_21  and  N_23 
REMARK    5  A    between atoms: N_26  and  C_29 
REMARK    6  A    between atoms: C_29  and  C_30 
REMARK    7  A    between atoms: C_30  and  C_31 
ROOT
ATOM      1  C   LIG d   1       9.158   3.025  -7.338  0.00  0.00    -0.027 A 
ATOM      2  C   LIG d   1       9.557   3.015  -6.018  0.00  0.00    -0.039 A 
ATOM      3  C   LIG d   1       8.996   2.118  -5.126  0.00  0.00     0.042 A 
ATOM      4  C   LIG d   1       8.028   1.227  -5.562  0.00  0.00    -0.032 A 
ATOM      5  C   LIG d   1       7.627   1.236  -6.878  0.00  0.00     0.036 A 
ATOM      6  C   LIG d   1       8.182   2.137  -7.783  0.00  0.00     0.046 A 
ATOM      7  N   LIG d   1       7.618   1.960  -9.049  0.00  0.00    -0.280 N 
ATOM      8  C   LIG d   1       6.693   0.981  -9.060  0.00  0.00     0.274 A 
ATOM      9  O   LIG d   1       6.044   0.609 -10.014  0.00  0.00    -0.269 OA
ATOM     10  C   LIG d   1       6.630   0.431  -7.661  0.00  0.00     0.106 A 
ATOM     11  C   LIG d   1       6.955  -1.067  -7.621  0.00  0.00     0.111 A 
ATOM     12  H   LIG d   1       7.578  -1.384  -8.457  0.00  0.00     0.047 H 
ATOM     13  C   LIG d   1       5.567  -1.768  -7.602  0.00  0.00     0.096 A 
ATOM     14  H   LIG d   1       5.444  -2.480  -8.417  0.00  0.00     0.046 H 
ATOM     15  C   LIG d   1       4.542  -0.617  -7.659  0.00  0.00    -0.009 C 
ATOM     16  H   LIG d   1       3.680  -0.845  -7.031  0.00  0.00     0.086 H 
ATOM     17  N   LIG d   1       5.270   0.564  -7.106  0.00  0.00     0.245 N 
ATOM     18  C   LIG d   1       5.526  -2.426  -6.242  0.00  0.00     0.231 A 
ATOM     19  O   LIG d   1       4.604  -3.082  -5.809  0.00  0.00    -0.275 OA
ATOM     20  N   LIG d   1       6.669  -2.175  -5.592  0.00  0.00    -0.241 N 
ATOM     21  C   LIG d   1       7.558  -1.419  -6.278  0.00  0.00     0.232 A 
ATOM     22  O   LIG d   1       8.653  -1.077  -5.891  0.00  0.00    -0.275 OA
ATOM     23 CL   LIG d   1       9.502   2.110  -3.466  0.00  0.00    -0.084 Cl
ATOM     24  H   LIG d   1      10.311   3.710  -5.678  0.00  0.00     0.064 H 
ATOM     25  H   LIG d   1       7.589   0.526  -4.868  0.00  0.00     0.064 H 
ATOM     26  H   LIG d   1       7.864   2.481  -9.830  0.00  0.00     0.155 HD
ATOM     27  H   LIG d   1       5.295   0.535  -6.098  0.00  0.00     0.203 HD
ATOM     28  H   LIG d   1       4.840   1.419  -7.425  0.00  0.00     0.203 HD
ENDROOT
BRANCH  15  29
ATOM     29  C   LIG d   1       4.095  -0.372  -9.102  0.00  0.00    -0.001 C 
ATOM     30  H   LIG d   1       4.849   0.220  -9.619  0.00  0.00     0.033 H 
ATOM     31  H   LIG d   1       3.972  -1.328  -9.611  0.00  0.00     0.033 H 
BRANCH  29  32
ATOM     32  C   LIG d   1       2.765   0.382  -9.103  0.00  0.00     0.029 C 
ATOM     33  H   LIG d   1       2.242   0.196 -10.040  0.00  0.00     0.036 H 
ATOM     34  H   LIG d   1       2.151   0.039  -8.270  0.00  0.00     0.036 H 
BRANCH  32  35
ATOM     35  C   LIG d   1       3.025   1.860  -8.959  0.00  0.00     0.211 C 
ATOM     36  O   LIG d   1       2.764   2.423  -7.917  0.00  0.00    -0.276 OA
ATOM     37  N   LIG d   1       3.548   2.555  -9.988  0.00  0.00    -0.329 N 
ATOM     38  H   LIG d   1       3.756   2.105 -10.822  0.00  0.00     0.145 HD
ATOM     39  H   LIG d   1       3.715   3.506  -9.896  0.00  0.00     0.145 HD
ENDBRANCH  32  35
ENDBRANCH  29  32
ENDBRANCH  15  29
BRANCH   1  40
ATOM     40  C   LIG d   1       9.775   4.007  -8.301  0.00  0.00    -0.038 C 
ATOM     41  H   LIG d   1       9.510   3.731  -9.321  0.00  0.00     0.028 H 
ATOM     42  H   LIG d   1       9.404   5.009  -8.087  0.00  0.00     0.028 H 
ATOM     43  H   LIG d   1      10.860   3.990  -8.191  0.00  0.00     0.028 H 
ENDBRANCH   1  40
BRANCH  20  44
ATOM     44  C   LIG d   1       6.940  -2.680  -4.243  0.00  0.00     0.026 C 
ATOM     45  H   LIG d   1       6.117  -3.318  -3.923  0.00  0.00     0.047 H 
ATOM     46  H   LIG d   1       7.866  -3.255  -4.250  0.00  0.00     0.047 H 
BRANCH  44  47
ATOM     47  C   LIG d   1       7.079  -1.501  -3.277  0.00  0.00    -0.011 C 
ATOM     48  H   LIG d   1       7.503  -1.850  -2.336  0.00  0.00     0.033 H 
ATOM     49  H   LIG d   1       7.734  -0.748  -3.714  0.00  0.00     0.033 H 
BRANCH  47  50
ATOM     50  C   LIG d   1       5.721  -0.899  -3.023  0.00  0.00    -0.046 A 
ATOM     51  C   LIG d   1       5.534   0.465  -3.144  0.00  0.00    -0.059 A 
ATOM     52  C   LIG d   1       4.288   1.016  -2.915  0.00  0.00    -0.061 A 
ATOM     53  H   LIG d   1       6.363   1.100  -3.420  0.00  0.00     0.062 H 
ATOM     54  C   LIG d   1       3.229   0.204  -2.556  0.00  0.00    -0.062 A 
ATOM     55  H   LIG d   1       4.142   2.081  -3.013  0.00  0.00     0.062 H 
ATOM     56  C   LIG d   1       3.416  -1.160  -2.429  0.00  0.00    -0.061 A 
ATOM     57  H   LIG d   1       2.255   0.635  -2.374  0.00  0.00     0.062 H 
ATOM     58  C   LIG d   1       4.661  -1.712  -2.663  0.00  0.00    -0.059 A 
ATOM     59  H   LIG d   1       2.588  -1.795  -2.148  0.00  0.00     0.062 H 
ATOM     60  H   LIG d   1       4.807  -2.778  -2.564  0.00  0.00     0.062 H 
ENDBRANCH  47  50
ENDBRANCH  44  47
ENDBRANCH  20  44
TORSDOF 7
ENDMDL
MODEL 2
REMARK VINA RESULT:      -7.5      3.843      7.518
REMARK  7 active torsions:
REMARK  status: ('A' for Active; 'I' for Inactive)
REMARK    1  A    between atoms: C_1  and  C_2 
REMARK    2  A    between atoms: C_16  and  C_19 
REMARK    3  A    between atoms: C_19  and  C_20 
REMARK    4  A    between atoms: C_20  and  C_21 
REMARK       I    between atoms: C_21  and  N_23 
REMARK    5  A    between atoms: N_26  and  C_29 
REMARK    6  A    between atoms: C_29  and  C_30 
REMARK    7  A    between atoms: C_30  and  C_31 
ROOT
ATOM      1  C   LIG d   1       5.793  -6.200  -7.132  0.00  0.00    -0.027 A 
ATOM      2  C   LIG d   1       4.825  -6.402  -8.094  0.00  0.00    -0.039 A 
ATOM      3  C   LIG d   1       3.835  -5.458  -8.298  0.00  0.00     0.042 A 
ATOM      4  C   LIG d   1       3.814  -4.305  -7.530  0.00  0.00    -0.032 A 
ATOM      5  C   LIG d   1       4.778  -4.100  -6.569  0.00  0.00     0.036 A 
ATOM      6  C   LIG d   1       5.777  -5.046  -6.353  0.00  0.00     0.046 A 
ATOM      7  N   LIG d   1       6.630  -4.624  -5.331  0.00  0.00    -0.280 N 
ATOM      8  C   LIG d   1       6.263  -3.430  -4.825  0.00  0.00     0.274 A 
ATOM      9  O   LIG d   1       6.816  -2.821  -3.934  0.00  0.00    -0.269 OA
ATOM     10  C   LIG d   1       5.042  -2.994  -5.589  0.00  0.00     0.106 A 
ATOM     11  C   LIG d   1       5.260  -1.651  -6.296  0.00  0.00     0.111 A 
ATOM     12  H   LIG d   1       6.310  -1.453  -6.508  0.00  0.00     0.047 H 
ATOM     13  C   LIG d   1       4.629  -0.599  -5.340  0.00  0.00     0.096 A 
ATOM     14  H   LIG d   1       5.331   0.181  -5.048  0.00  0.00     0.046 H 
ATOM     15  C   LIG d   1       4.115  -1.416  -4.136  0.00  0.00    -0.009 C 
ATOM     16  H   LIG d   1       3.169  -1.009  -3.778  0.00  0.00     0.086 H 
ATOM     17  N   LIG d   1       3.900  -2.791  -4.678  0.00  0.00     0.245 N 
ATOM     18  C   LIG d   1       3.459  -0.063  -6.133  0.00  0.00     0.231 A 
ATOM     19  O   LIG d   1       2.683   0.785  -5.750  0.00  0.00    -0.275 OA
ATOM     20  N   LIG d   1       3.416  -0.669  -7.327  0.00  0.00    -0.241 N 
ATOM     21  C   LIG d   1       4.392  -1.584  -7.533  0.00  0.00     0.232 A 
ATOM     22  O   LIG d   1       4.551  -2.243  -8.537  0.00  0.00    -0.275 OA
ATOM     23 CL   LIG d   1       2.620  -5.719  -9.510  0.00  0.00    -0.084 Cl
ATOM     24  H   LIG d   1       4.841  -7.302  -8.692  0.00  0.00     0.064 H 
ATOM     25  H   LIG d   1       3.043  -3.566  -7.687  0.00  0.00     0.064 H 
ATOM     26  H   LIG d   1       7.397  -5.130  -5.021  0.00  0.00     0.155 HD
ATOM     27  H   LIG d   1       3.029  -2.848  -5.185  0.00  0.00     0.203 HD
ATOM     28  H   LIG d   1       3.919  -3.468  -3.930  0.00  0.00     0.203 HD
ENDROOT
BRANCH  15  29
ATOM     29  C   LIG d   1       5.152  -1.416  -3.011  0.00  0.00    -0.001 C 
ATOM     30  H   LIG d   1       5.354  -2.442  -2.704  0.00  0.00     0.033 H 
ATOM     31  H   LIG d   1       6.074  -0.956  -3.367  0.00  0.00     0.033 H 
BRANCH  29  32
ATOM     32  C   LIG d   1       4.612  -0.623  -1.820  0.00  0.00     0.029 C 
ATOM     33  H   LIG d   1       3.593  -0.943  -1.602  0.00  0.00     0.036 H 
ATOM     34  H   LIG d   1       5.243  -0.801  -0.949  0.00  0.00     0.036 H 
BRANCH  32  35
ATOM     35  C   LIG d   1       4.616   0.847  -2.152  0.00  0.00     0.211 C 
ATOM     36  O   LIG d   1       5.667   1.428  -2.317  0.00  0.00    -0.276 OA
ATOM     37  N   LIG d   1       3.451   1.515  -2.265  0.00  0.00    -0.329 N 
ATOM     38  H   LIG d   1       2.610   1.050  -2.133  0.00  0.00     0.145 HD
ATOM     39  H   LIG d   1       3.454   2.461  -2.478  0.00  0.00     0.145 HD
ENDBRANCH  32  35
ENDBRANCH  29  32
ENDBRANCH  15  29
BRANCH   1  40
ATOM     40  C   LIG d   1       6.867  -7.235  -6.918  0.00  0.00    -0.038 C 
ATOM     41  H   LIG d   1       7.499  -6.937  -6.083  0.00  0.00     0.028 H 
ATOM     42  H   LIG d   1       6.406  -8.199  -6.701  0.00  0.00     0.028 H 
ATOM     43  H   LIG d   1       7.474  -7.320  -7.821  0.00  0.00     0.028 H 
ENDBRANCH   1  40
BRANCH  20  44
ATOM     44  C   LIG d   1       2.395  -0.364  -8.333  0.00  0.00     0.026 C 
ATOM     45  H   LIG d   1       2.132  -1.275  -8.869  0.00  0.00     0.047 H 
ATOM     46  H   LIG d   1       1.510   0.039  -7.842  0.00  0.00     0.047 H 
BRANCH  44  47
ATOM     47  C   LIG d   1       2.946   0.668  -9.319  0.00  0.00    -0.011 C 
ATOM     48  H   LIG d   1       2.259   1.511  -9.386  0.00  0.00     0.033 H 
ATOM     49  H   LIG d   1       3.919   1.017  -8.975  0.00  0.00     0.033 H 
BRANCH  47  50
ATOM     50  C   LIG d   1       3.094   0.033 -10.678  0.00  0.00    -0.046 A 
ATOM     51  C   LIG d   1       2.134  -0.850 -11.137  0.00  0.00    -0.059 A 
ATOM     52  C   LIG d   1       2.267  -1.428 -12.385  0.00  0.00    -0.061 A 
ATOM     53  H   LIG d   1       1.279  -1.085 -10.521  0.00  0.00     0.062 H 
ATOM     54  C   LIG d   1       3.364  -1.132 -13.171  0.00  0.00    -0.062 A 
ATOM     55  H   LIG d   1       1.515  -2.115 -12.745  0.00  0.00     0.062 H 
ATOM     56  C   LIG d   1       4.327  -0.253 -12.711  0.00  0.00    -0.061 A 
ATOM     57  H   LIG d   1       3.470  -1.586 -14.146  0.00  0.00     0.062 H 
ATOM     58  C   LIG d   1       4.192   0.329 -11.465  0.00  0.00    -0.059 A 
ATOM     59  H   LIG d   1       5.185  -0.021 -13.325  0.00  0.00     0.062 H 
ATOM     60  H   LIG d   1       4.944   1.016 -11.105  0.00  0.00     0.062 H 
ENDBRANCH  47  50
ENDBRANCH  44  47
ENDBRANCH  20  44
TORSDOF 7
ENDMDL
MODEL 3
REMARK VINA RESULT:      -7.1      1.161      1.541
REMARK  7 active torsions:
REMARK  status: ('A' for Active; 'I' for Inactive)
REMARK    1  A    between atoms: C_1  and  C_2 
REMARK    2  A    between atoms: C_16  and  C_19 
REMARK    3  A    between atoms: C_19  and  C_20 
REMARK    4  A    between atoms: C_20  and  C_21 
REMARK       I    between atoms: C_21  and  N_23 
REMARK    5  A    between atoms: N_26  and  C_29 
REMARK    6  A    between atoms: C_29  and  C_30 
REMARK    7  A    between atoms: C_30  and  C_31 
ROOT
ATOM      1  C   LIG d   1       9.135   3.005  -7.402  0.00  0.00    -0.027 A 
ATOM      2  C   LIG d   1       9.540   2.990  -6.084  0.00  0.00    -0.039 A 
ATOM      3  C   LIG d   1       8.972   2.100  -5.189  0.00  0.00     0.042 A 
ATOM      4  C   LIG d   1       7.993   1.220  -5.621  0.00  0.00    -0.032 A 
ATOM      5  C   LIG d   1       7.587   1.232  -6.936  0.00  0.00     0.036 A 
ATOM      6  C   LIG d   1       8.149   2.127  -7.843  0.00  0.00     0.046 A 
ATOM      7  N   LIG d   1       7.578   1.957  -9.106  0.00  0.00    -0.280 N 
ATOM      8  C   LIG d   1       6.641   0.987  -9.113  0.00  0.00     0.274 A 
ATOM      9  O   LIG d   1       5.985   0.622 -10.065  0.00  0.00    -0.269 OA
ATOM     10  C   LIG d   1       6.578   0.438  -7.714  0.00  0.00     0.106 A 
ATOM     11  C   LIG d   1       6.887  -1.063  -7.675  0.00  0.00     0.111 A 
ATOM     12  H   LIG d   1       7.503  -1.387  -8.513  0.00  0.00     0.047 H 
ATOM     13  C   LIG d   1       5.492  -1.749  -7.651  0.00  0.00     0.096 A 
ATOM     14  H   LIG d   1       5.357  -2.460  -8.465  0.00  0.00     0.046 H 
ATOM     15  C   LIG d   1       4.478  -0.587  -7.703  0.00  0.00    -0.009 C 
ATOM     16  H   LIG d   1       3.617  -0.805  -7.072  0.00  0.00     0.086 H 
ATOM     17  N   LIG d   1       5.222   0.587  -7.154  0.00  0.00     0.245 N 
ATOM     18  C   LIG d   1       5.449  -2.406  -6.290  0.00  0.00     0.231 A 
ATOM     19  O   LIG d   1       4.521  -3.051  -5.853  0.00  0.00    -0.275 OA
ATOM     20  N   LIG d   1       6.597  -2.167  -5.644  0.00  0.00    -0.241 N 
ATOM     21  C   LIG d   1       7.491  -1.421  -6.335  0.00  0.00     0.232 A 
ATOM     22  O   LIG d   1       8.592  -1.091  -5.952  0.00  0.00    -0.275 OA
ATOM     23 CL   LIG d   1       9.485   2.087  -3.531  0.00  0.00    -0.084 Cl
ATOM     24  H   LIG d   1      10.303   3.677  -5.747  0.00  0.00     0.064 H 
ATOM     25  H   LIG d   1       7.549   0.524  -4.925  0.00  0.00     0.064 H 
ATOM     26  H   LIG d   1       7.825   2.475  -9.888  0.00  0.00     0.155 HD
ATOM     27  H   LIG d   1       5.251   0.557  -6.146  0.00  0.00     0.203 HD
ATOM     28  H   LIG d   1       4.800   1.446  -7.471  0.00  0.00     0.203 HD
ENDROOT
BRANCH  15  29
ATOM     29  C   LIG d   1       4.029  -0.337  -9.144  0.00  0.00    -0.001 C 
ATOM     30  H   LIG d   1       4.590   0.500  -9.560  0.00  0.00     0.033 H 
ATOM     31  H   LIG d   1       4.214  -1.230  -9.742  0.00  0.00     0.033 H 
BRANCH  29  32
ATOM     32  C   LIG d   1       2.535  -0.009  -9.163  0.00  0.00     0.029 C 
ATOM     33  H   LIG d   1       2.185   0.149  -8.144  0.00  0.00     0.036 H 
ATOM     34  H   LIG d   1       2.368   0.894  -9.749  0.00  0.00     0.036 H 
BRANCH  32  35
ATOM     35  C   LIG d   1       1.778  -1.157  -9.782  0.00  0.00     0.211 C 
ATOM     36  O   LIG d   1       2.110  -2.299  -9.549  0.00  0.00    -0.276 OA
ATOM     37  N   LIG d   1       0.731  -0.912 -10.595  0.00  0.00    -0.329 N 
ATOM     38  H   LIG d   1       0.465   0.002 -10.782  0.00  0.00     0.145 HD
ATOM     39  H   LIG d   1       0.244  -1.650 -10.994  0.00  0.00     0.145 HD
ENDBRANCH  32  35
ENDBRANCH  29  32
ENDBRANCH  15  29
BRANCH   1  40
ATOM     40  C   LIG d   1       9.759   3.979  -8.368  0.00  0.00    -0.038 C 
ATOM     41  H   LIG d   1       9.796   3.534  -9.361  0.00  0.00     0.028 H 
ATOM     42  H   LIG d   1       9.165   4.892  -8.399  0.00  0.00     0.028 H 
ATOM     43  H   LIG d   1      10.772   4.218  -8.039  0.00  0.00     0.028 H 
ENDBRANCH   1  40
BRANCH  20  44
ATOM     44  C   LIG d   1       6.868  -2.675  -4.297  0.00  0.00     0.026 C 
ATOM     45  H   LIG d   1       6.003  -3.233  -3.939  0.00  0.00     0.047 H 
ATOM     46  H   LIG d   1       7.738  -3.330  -4.323  0.00  0.00     0.047 H 
BRANCH  44  47
ATOM     47  C   LIG d   1       7.142  -1.499  -3.356  0.00  0.00    -0.011 C 
ATOM     48  H   LIG d   1       7.608  -1.866  -2.442  0.00  0.00     0.033 H 
ATOM     49  H   LIG d   1       7.809  -0.790  -3.845  0.00  0.00     0.033 H 
BRANCH  47  50
ATOM     50  C   LIG d   1       5.842  -0.816  -3.017  0.00  0.00    -0.046 A 
ATOM     51  C   LIG d   1       4.721  -1.568  -2.719  0.00  0.00    -0.059 A 
ATOM     52  C   LIG d   1       3.531  -0.941  -2.403  0.00  0.00    -0.061 A 
ATOM     53  H   LIG d   1       4.777  -2.646  -2.730  0.00  0.00     0.062 H 
ATOM     54  C   LIG d   1       3.458   0.439  -2.395  0.00  0.00    -0.062 A 
ATOM     55  H   LIG d   1       2.657  -1.529  -2.167  0.00  0.00     0.062 H 
ATOM     56  C   LIG d   1       4.577   1.192  -2.698  0.00  0.00    -0.061 A 
ATOM     57  H   LIG d   1       2.527   0.930  -2.151  0.00  0.00     0.062 H 
ATOM     58  C   LIG d   1       5.769   0.565  -3.009  0.00  0.00    -0.059 A 
ATOM     59  H   LIG d   1       4.520   2.271  -2.691  0.00  0.00     0.062 H 
ATOM     60  H   LIG d   1       6.643   1.154  -3.246  0.00  0.00     0.062 H 
ENDBRANCH  47  50
ENDBRANCH  44  47
ENDBRANCH  20  44
TORSDOF 7
ENDMDL
MODEL 4
REMARK VINA RESULT:      -7.1      3.530      6.388
REMARK  7 active torsions:
REMARK  status: ('A' for Active; 'I' for Inactive)
REMARK    1  A    between atoms: C_1  and  C_2 
REMARK    2  A    between atoms: C_16  and  C_19 
REMARK    3  A    between atoms: C_19  and  C_20 
REMARK    4  A    between atoms: C_20  and  C_21 
REMARK       I    between atoms: C_21  and  N_23 
REMARK    5  A    between atoms: N_26  and  C_29 
REMARK    6  A    between atoms: C_29  and  C_30 
REMARK    7  A    between atoms: C_30  and  C_31 
ROOT
ATOM      1  C   LIG d   1       2.099  -1.865 -10.120  0.00  0.00    -0.027 A 
ATOM      2  C   LIG d   1       2.142  -0.560  -9.675  0.00  0.00    -0.039 A 
ATOM      3  C   LIG d   1       2.875  -0.231  -8.548  0.00  0.00     0.042 A 
ATOM      4  C   LIG d   1       3.568  -1.217  -7.865  0.00  0.00    -0.032 A 
ATOM      5  C   LIG d   1       3.526  -2.519  -8.307  0.00  0.00     0.036 A 
ATOM      6  C   LIG d   1       2.788  -2.862  -9.437  0.00  0.00     0.046 A 
ATOM      7  N   LIG d   1       2.893  -4.233  -9.685  0.00  0.00    -0.280 N 
ATOM      8  C   LIG d   1       3.666  -4.856  -8.774  0.00  0.00     0.274 A 
ATOM      9  O   LIG d   1       3.934  -6.038  -8.739  0.00  0.00    -0.269 OA
ATOM     10  C   LIG d   1       4.142  -3.798  -7.815  0.00  0.00     0.106 A 
ATOM     11  C   LIG d   1       5.672  -3.710  -7.774  0.00  0.00     0.111 A 
ATOM     12  H   LIG d   1       6.138  -4.065  -8.693  0.00  0.00     0.047 H 
ATOM     13  C   LIG d   1       6.078  -4.549  -6.530  0.00  0.00     0.096 A 
ATOM     14  H   LIG d   1       6.780  -5.348  -6.770  0.00  0.00     0.046 H 
ATOM     15  C   LIG d   1       4.747  -5.081  -5.959  0.00  0.00    -0.009 C 
ATOM     16  H   LIG d   1       4.775  -5.080  -4.869  0.00  0.00     0.086 H 
ATOM     17  N   LIG d   1       3.718  -4.110  -6.438  0.00  0.00     0.245 N 
ATOM     18  C   LIG d   1       6.665  -3.520  -5.591  0.00  0.00     0.231 A 
ATOM     19  O   LIG d   1       7.106  -3.751  -4.486  0.00  0.00    -0.275 OA
ATOM     20  N   LIG d   1       6.626  -2.315  -6.172  0.00  0.00    -0.241 N 
ATOM     21  C   LIG d   1       6.089  -2.302  -7.415  0.00  0.00     0.232 A 
ATOM     22  O   LIG d   1       5.961  -1.330  -8.127  0.00  0.00    -0.275 OA
ATOM     23 CL   LIG d   1       2.925   1.413  -7.993  0.00  0.00    -0.084 Cl
ATOM     24  H   LIG d   1       1.602   0.209 -10.208  0.00  0.00     0.064 H 
ATOM     25  H   LIG d   1       4.141  -0.963  -6.986  0.00  0.00     0.064 H 
ATOM     26  H   LIG d   1       2.460  -4.685 -10.426  0.00  0.00     0.155 HD
ATOM     27  H   LIG d   1       3.715  -3.276  -5.871  0.00  0.00     0.203 HD
ATOM     28  H   LIG d   1       2.805  -4.541  -6.438  0.00  0.00     0.203 HD
ENDROOT
BRANCH  15  29
ATOM     29  C   LIG d   1       4.469  -6.492  -6.480  0.00  0.00    -0.001 C 
ATOM     30  H   LIG d   1       3.428  -6.751  -6.290  0.00  0.00     0.033 H 
ATOM     31  H   LIG d   1       4.662  -6.526  -7.553  0.00  0.00     0.033 H 
BRANCH  29  32
ATOM     32  C   LIG d   1       5.381  -7.489  -5.765  0.00  0.00     0.029 C 
ATOM     33  H   LIG d   1       6.293  -7.630  -6.346  0.00  0.00     0.036 H 
ATOM     34  H   LIG d   1       5.636  -7.106  -4.777  0.00  0.00     0.036 H 
BRANCH  32  35
ATOM     35  C   LIG d   1       4.668  -8.810  -5.624  0.00  0.00     0.211 C 
ATOM     36  O   LIG d   1       4.096  -9.082  -4.590  0.00  0.00    -0.276 OA
ATOM     37  N   LIG d   1       4.668  -9.688  -6.646  0.00  0.00    -0.329 N 
ATOM     38  H   LIG d   1       5.126  -9.470  -7.473  0.00  0.00     0.145 HD
ATOM     39  H   LIG d   1       4.210 -10.538  -6.555  0.00  0.00     0.145 HD
ENDBRANCH  32  35
ENDBRANCH  29  32
ENDBRANCH  15  29
BRANCH   1  40
ATOM     40  C   LIG d   1       1.297  -2.212 -11.348  0.00  0.00    -0.038 C 
ATOM     41  H   LIG d   1       0.994  -3.257 -11.301  0.00  0.00     0.028 H 
ATOM     42  H   LIG d   1       0.412  -1.578 -11.396  0.00  0.00     0.028 H 
ATOM     43  H   LIG d   1       1.907  -2.051 -12.238  0.00  0.00     0.028 H 
ENDBRANCH   1  40
BRANCH  20  44
ATOM     44  C   LIG d   1       7.126  -1.103  -5.517  0.00  0.00     0.026 C 
ATOM     45  H   LIG d   1       7.498  -1.355  -4.524  0.00  0.00     0.047 H 
ATOM     46  H   LIG d   1       7.935  -0.677  -6.110  0.00  0.00     0.047 H 
BRANCH  44  47
ATOM     47  C   LIG d   1       5.991  -0.085  -5.395  0.00  0.00    -0.011 C 
ATOM     48  H   LIG d   1       6.403   0.892  -5.146  0.00  0.00     0.033 H 
ATOM     49  H   LIG d   1       5.454  -0.023  -6.341  0.00  0.00     0.033 H 
BRANCH  47  50
ATOM     50  C   LIG d   1       5.042  -0.521  -4.307  0.00  0.00    -0.046 A 
ATOM     51  C   LIG d   1       5.537  -1.010  -3.112  0.00  0.00    -0.059 A 
ATOM     52  C   LIG d   1       4.668  -1.404  -2.113  0.00  0.00    -0.061 A 
ATOM     53  H   LIG d   1       6.604  -1.080  -2.959  0.00  0.00     0.062 H 
ATOM     54  C   LIG d   1       3.303  -1.319  -2.312  0.00  0.00    -0.062 A 
ATOM     55  H   LIG d   1       5.055  -1.783  -1.179  0.00  0.00     0.062 H 
ATOM     56  C   LIG d   1       2.807  -0.835  -3.508  0.00  0.00    -0.061 A 
ATOM     57  H   LIG d   1       2.623  -1.630  -1.532  0.00  0.00     0.062 H 
ATOM     58  C   LIG d   1       3.676  -0.436  -4.506  0.00  0.00    -0.059 A 
ATOM     59  H   LIG d   1       1.740  -0.768  -3.663  0.00  0.00     0.062 H 
ATOM     60  H   LIG d   1       3.289  -0.057  -5.440  0.00  0.00     0.062 H 
ENDBRANCH  47  50
ENDBRANCH  44  47
ENDBRANCH  20  44
TORSDOF 7
ENDMDL
MODEL 5
REMARK VINA RESULT:      -6.4      4.671      6.764
REMARK  7 active torsions:
REMARK  status: ('A' for Active; 'I' for Inactive)
REMARK    1  A    between atoms: C_1  and  C_2 
REMARK    2  A    between atoms: C_16  and  C_19 
REMARK    3  A    between atoms: C_19  and  C_20 
REMARK    4  A    between atoms: C_20  and  C_21 
REMARK       I    between atoms: C_21  and  N_23 
REMARK    5  A    between atoms: N_26  and  C_29 
REMARK    6  A    between atoms: C_29  and  C_30 
REMARK    7  A    between atoms: C_30  and  C_31 
ROOT
ATOM      1  C   LIG d   1      14.492  -0.270  -4.555  0.00  0.00    -0.027 A 
ATOM      2  C   LIG d   1      13.985  -1.552  -4.505  0.00  0.00    -0.039 A 
ATOM      3  C   LIG d   1      12.628  -1.760  -4.328  0.00  0.00     0.042 A 
ATOM      4  C   LIG d   1      11.776  -0.675  -4.200  0.00  0.00    -0.032 A 
ATOM      5  C   LIG d   1      12.280   0.605  -4.249  0.00  0.00     0.036 A 
ATOM      6  C   LIG d   1      13.643   0.825  -4.423  0.00  0.00     0.046 A 
ATOM      7  N   LIG d   1      13.915   2.196  -4.436  0.00  0.00    -0.280 N 
ATOM      8  C   LIG d   1      12.799   2.935  -4.273  0.00  0.00     0.274 A 
ATOM      9  O   LIG d   1      12.731   4.145  -4.244  0.00  0.00    -0.269 OA
ATOM     10  C   LIG d   1      11.654   1.967  -4.146  0.00  0.00     0.106 A 
ATOM     11  C   LIG d   1      10.597   2.188  -5.234  0.00  0.00     0.111 A 
ATOM     12  H   LIG d   1      11.006   2.655  -6.129  0.00  0.00     0.047 H 
ATOM     13  C   LIG d   1       9.504   3.055  -4.547  0.00  0.00     0.096 A 
ATOM     14  H   LIG d   1       9.306   3.984  -5.080  0.00  0.00     0.046 H 
ATOM     15  C   LIG d   1      10.029   3.290  -3.115  0.00  0.00    -0.009 C 
ATOM     16  H   LIG d   1       9.206   3.263  -2.401  0.00  0.00     0.086 H 
ATOM     17  N   LIG d   1      10.955   2.147  -2.860  0.00  0.00     0.245 N 
ATOM     18  C   LIG d   1       8.303   2.138  -4.509  0.00  0.00     0.231 A 
ATOM     19  O   LIG d   1       7.221   2.420  -4.043  0.00  0.00    -0.275 OA
ATOM     20  N   LIG d   1       8.620   0.966  -5.074  0.00  0.00    -0.241 N 
ATOM     21  C   LIG d   1       9.892   0.882  -5.528  0.00  0.00     0.232 A 
ATOM     22  O   LIG d   1      10.391  -0.075  -6.079  0.00  0.00    -0.275 OA
ATOM     23 CL   LIG d   1      11.996  -3.375  -4.265  0.00  0.00    -0.084 Cl
ATOM     24  H   LIG d   1      14.649  -2.398  -4.604  0.00  0.00     0.064 H 
ATOM     25  H   LIG d   1      10.717  -0.833  -4.062  0.00  0.00     0.064 H 
ATOM     26  H   LIG d   1      14.801   2.572  -4.548  0.00  0.00     0.155 HD
ATOM     27  H   LIG d   1      10.443   1.313  -2.617  0.00  0.00     0.203 HD
ATOM     28  H   LIG d   1      11.611   2.386  -2.132  0.00  0.00     0.203 HD
ENDROOT
BRANCH  15  29
ATOM     29  C   LIG d   1      10.761   4.632  -3.030  0.00  0.00    -0.001 C 
ATOM     30  H   LIG d   1      11.735   4.484  -2.565  0.00  0.00     0.033 H 
ATOM     31  H   LIG d   1      10.894   5.036  -4.034  0.00  0.00     0.033 H 
BRANCH  29  32
ATOM     32  C   LIG d   1       9.937   5.610  -2.191  0.00  0.00     0.029 C 
ATOM     33  H   LIG d   1       9.926   6.585  -2.676  0.00  0.00     0.036 H 
ATOM     34  H   LIG d   1       8.917   5.239  -2.097  0.00  0.00     0.036 H 
BRANCH  32  35
ATOM     35  C   LIG d   1      10.554   5.738  -0.821  0.00  0.00     0.211 C 
ATOM     36  O   LIG d   1      10.253   6.669  -0.106  0.00  0.00    -0.276 OA
ATOM     37  N   LIG d   1      11.440   4.817  -0.393  0.00  0.00    -0.329 N 
ATOM     38  H   LIG d   1      11.681   4.072  -0.965  0.00  0.00     0.145 HD
ATOM     39  H   LIG d   1      11.837   4.899   0.488  0.00  0.00     0.145 HD
ENDBRANCH  32  35
ENDBRANCH  29  32
ENDBRANCH  15  29
BRANCH   1  40
ATOM     40  C   LIG d   1      15.971  -0.056  -4.747  0.00  0.00    -0.038 C 
ATOM     41  H   LIG d   1      16.524  -0.804  -4.181  0.00  0.00     0.028 H 
ATOM     42  H   LIG d   1      16.218  -0.145  -5.805  0.00  0.00     0.028 H 
ATOM     43  H   LIG d   1      16.243   0.940  -4.395  0.00  0.00     0.028 H 
ENDBRANCH   1  40
BRANCH  20  44
ATOM     44  C   LIG d   1       7.665  -0.138  -5.196  0.00  0.00     0.026 C 
ATOM     45  H   LIG d   1       6.664   0.264  -5.355  0.00  0.00     0.047 H 
ATOM     46  H   LIG d   1       7.942  -0.768  -6.041  0.00  0.00     0.047 H 
BRANCH  44  47
ATOM     47  C   LIG d   1       7.683  -0.970  -3.912  0.00  0.00    -0.011 C 
ATOM     48  H   LIG d   1       8.158  -1.931  -4.108  0.00  0.00     0.033 H 
ATOM     49  H   LIG d   1       8.241  -0.438  -3.142  0.00  0.00     0.033 H 
BRANCH  47  50
ATOM     50  C   LIG d   1       6.269  -1.196  -3.442  0.00  0.00    -0.046 A 
ATOM     51  C   LIG d   1       5.642  -0.250  -2.652  0.00  0.00    -0.059 A 
ATOM     52  C   LIG d   1       4.344  -0.456  -2.225  0.00  0.00    -0.061 A 
ATOM     53  H   LIG d   1       6.166   0.651  -2.372  0.00  0.00     0.062 H 
ATOM     54  C   LIG d   1       3.675  -1.612  -2.579  0.00  0.00    -0.062 A 
ATOM     55  H   LIG d   1       3.854   0.285  -1.611  0.00  0.00     0.062 H 
ATOM     56  C   LIG d   1       4.303  -2.562  -3.364  0.00  0.00    -0.061 A 
ATOM     57  H   LIG d   1       2.661  -1.775  -2.243  0.00  0.00     0.062 H 
ATOM     58  C   LIG d   1       5.599  -2.354  -3.796  0.00  0.00    -0.059 A 
ATOM     59  H   LIG d   1       3.780  -3.465  -3.642  0.00  0.00     0.062 H 
ATOM     60  H   LIG d   1       6.090  -3.095  -4.410  0.00  0.00     0.062 H 
ENDBRANCH  47  50
ENDBRANCH  44  47
ENDBRANCH  20  44
TORSDOF 7
ENDMDL
MODEL 6
REMARK VINA RESULT:      -6.3      3.392      5.295
REMARK  7 active torsions:
REMARK  status: ('A' for Active; 'I' for Inactive)
REMARK    1  A    between atoms: C_1  and  C_2 
REMARK    2  A    between atoms: C_16  and  C_19 
REMARK    3  A    between atoms: C_19  and  C_20 
REMARK    4  A    between atoms: C_20  and  C_21 
REMARK       I    between atoms: C_21  and  N_23 
REMARK    5  A    between atoms: N_26  and  C_29 
REMARK    6  A    between atoms: C_29  and  C_30 
REMARK    7  A    between atoms: C_30  and  C_31 
ROOT
ATOM      1  C   LIG d   1      10.780   0.421  -5.481  0.00  0.00    -0.027 A 
ATOM      2  C   LIG d   1      11.430  -0.691  -5.974  0.00  0.00    -0.039 A 
ATOM      3  C   LIG d   1      10.791  -1.918  -6.004  0.00  0.00     0.042 A 
ATOM      4  C   LIG d   1       9.492  -2.029  -5.535  0.00  0.00    -0.032 A 
ATOM      5  C   LIG d   1       8.841  -0.921  -5.042  0.00  0.00     0.036 A 
ATOM      6  C   LIG d   1       9.477   0.317  -5.004  0.00  0.00     0.046 A 
ATOM      7  N   LIG d   1       8.625   1.282  -4.461  0.00  0.00    -0.280 N 
ATOM      8  C   LIG d   1       7.428   0.766  -4.116  0.00  0.00     0.274 A 
ATOM      9  O   LIG d   1       6.496   1.366  -3.625  0.00  0.00    -0.269 OA
ATOM     10  C   LIG d   1       7.470  -0.696  -4.470  0.00  0.00     0.106 A 
ATOM     11  C   LIG d   1       6.371  -1.074  -5.470  0.00  0.00     0.111 A 
ATOM     12  H   LIG d   1       6.046  -0.229  -6.076  0.00  0.00     0.047 H 
ATOM     13  C   LIG d   1       5.230  -1.660  -4.592  0.00  0.00     0.096 A 
ATOM     14  H   LIG d   1       4.280  -1.146  -4.736  0.00  0.00     0.046 H 
ATOM     15  C   LIG d   1       5.749  -1.553  -3.143  0.00  0.00    -0.009 C 
ATOM     16  H   LIG d   1       5.445  -2.426  -2.565  0.00  0.00     0.086 H 
ATOM     17  N   LIG d   1       7.237  -1.531  -3.277  0.00  0.00     0.245 N 
ATOM     18  C   LIG d   1       5.176  -3.111  -5.012  0.00  0.00     0.231 A 
ATOM     19  O   LIG d   1       4.418  -3.943  -4.562  0.00  0.00    -0.275 OA
ATOM     20  N   LIG d   1       6.095  -3.334  -5.959  0.00  0.00    -0.241 N 
ATOM     21  C   LIG d   1       6.828  -2.250  -6.305  0.00  0.00     0.232 A 
ATOM     22  O   LIG d   1       7.704  -2.217  -7.140  0.00  0.00    -0.275 OA
ATOM     23 CL   LIG d   1      11.614  -3.314  -6.626  0.00  0.00    -0.084 Cl
ATOM     24  H   LIG d   1      12.443  -0.605  -6.339  0.00  0.00     0.064 H 
ATOM     25  H   LIG d   1       8.990  -2.984  -5.557  0.00  0.00     0.064 H 
ATOM     26  H   LIG d   1       8.865   2.215  -4.345  0.00  0.00     0.155 HD
ATOM     27  H   LIG d   1       7.601  -2.460  -3.419  0.00  0.00     0.203 HD
ATOM     28  H   LIG d   1       7.654  -1.107  -2.462  0.00  0.00     0.203 HD
ENDROOT
BRANCH  15  29
ATOM     29  C   LIG d   1       5.229  -0.273  -2.484  0.00  0.00    -0.001 C 
ATOM     30  H   LIG d   1       5.592  -0.220  -1.458  0.00  0.00     0.033 H 
ATOM     31  H   LIG d   1       5.588   0.593  -3.041  0.00  0.00     0.033 H 
BRANCH  29  32
ATOM     32  C   LIG d   1       3.700  -0.284  -2.484  0.00  0.00     0.029 C 
ATOM     33  H   LIG d   1       3.344  -1.271  -2.778  0.00  0.00     0.036 H 
ATOM     34  H   LIG d   1       3.334  -0.048  -1.486  0.00  0.00     0.036 H 
BRANCH  32  35
ATOM     35  C   LIG d   1       3.191   0.745  -3.462  0.00  0.00     0.211 C 
ATOM     36  O   LIG d   1       2.416   0.420  -4.335  0.00  0.00    -0.276 OA
ATOM     37  N   LIG d   1       3.599   2.025  -3.364  0.00  0.00    -0.329 N 
ATOM     38  H   LIG d   1       4.220   2.285  -2.666  0.00  0.00     0.145 HD
ATOM     39  H   LIG d   1       3.273   2.687  -3.994  0.00  0.00     0.145 HD
ENDBRANCH  32  35
ENDBRANCH  29  32
ENDBRANCH  15  29
BRANCH   1  40
ATOM     40  C   LIG d   1      11.487   1.752  -5.453  0.00  0.00    -0.038 C 
ATOM     41  H   LIG d   1      11.044   2.383  -4.684  0.00  0.00     0.028 H 
ATOM     42  H   LIG d   1      12.544   1.599  -5.234  0.00  0.00     0.028 H 
ATOM     43  H   LIG d   1      11.385   2.238  -6.424  0.00  0.00     0.028 H 
ENDBRANCH   1  40
BRANCH  20  44
ATOM     44  C   LIG d   1       6.292  -4.647  -6.579  0.00  0.00     0.026 C 
ATOM     45  H   LIG d   1       5.357  -5.207  -6.546  0.00  0.00     0.047 H 
ATOM     46  H   LIG d   1       6.603  -4.518  -7.615  0.00  0.00     0.047 H 
BRANCH  44  47
ATOM     47  C   LIG d   1       7.373  -5.414  -5.813  0.00  0.00    -0.011 C 
ATOM     48  H   LIG d   1       8.237  -5.566  -6.459  0.00  0.00     0.033 H 
ATOM     49  H   LIG d   1       7.671  -4.842  -4.935  0.00  0.00     0.033 H 
BRANCH  47  50
ATOM     50  C   LIG d   1       6.828  -6.751  -5.381  0.00  0.00    -0.046 A 
ATOM     51  C   LIG d   1       7.656  -7.666  -4.758  0.00  0.00    -0.059 A 
ATOM     52  C   LIG d   1       7.155  -8.890  -4.357  0.00  0.00    -0.061 A 
ATOM     53  H   LIG d   1       8.693  -7.424  -4.582  0.00  0.00     0.062 H 
ATOM     54  C   LIG d   1       5.828  -9.203  -4.588  0.00  0.00    -0.062 A 
ATOM     55  H   LIG d   1       7.801  -9.604  -3.868  0.00  0.00     0.062 H 
ATOM     56  C   LIG d   1       5.002  -8.290  -5.215  0.00  0.00    -0.061 A 
ATOM     57  H   LIG d   1       5.437 -10.161  -4.277  0.00  0.00     0.062 H 
ATOM     58  C   LIG d   1       5.501  -7.064  -5.611  0.00  0.00    -0.059 A 
ATOM     59  H   LIG d   1       3.964  -8.535  -5.395  0.00  0.00     0.062 H 
ATOM     60  H   LIG d   1       4.855  -6.350  -6.101  0.00  0.00     0.062 H 
ENDBRANCH  47  50
ENDBRANCH  44  47
ENDBRANCH  20  44
TORSDOF 7
ENDMDL
MODEL 7
REMARK VINA RESULT:      -6.3      3.786      5.837
REMARK  7 active torsions:
REMARK  status: ('A' for Active; 'I' for Inactive)
REMARK    1  A    between atoms: C_1  and  C_2 
REMARK    2  A    between atoms: C_16  and  C_19 
REMARK    3  A    between atoms: C_19  and  C_20 
REMARK    4  A    between atoms: C_20  and  C_21 
REMARK       I    between atoms: C_21  and  N_23 
REMARK    5  A    between atoms: N_26  and  C_29 
REMARK    6  A    between atoms: C_29  and  C_30 
REMARK    7  A    between atoms: C_30  and  C_31 
ROOT
ATOM      1  C   LIG d   1       3.179  -0.472  -9.982  0.00  0.00    -0.027 A 
ATOM      2  C   LIG d   1       2.907   0.362  -8.917  0.00  0.00    -0.039 A 
ATOM      3  C   LIG d   1       3.124  -0.068  -7.620  0.00  0.00     0.042 A 
ATOM      4  C   LIG d   1       3.615  -1.343  -7.390  0.00  0.00    -0.032 A 
ATOM      5  C   LIG d   1       3.887  -2.177  -8.450  0.00  0.00     0.036 A 
ATOM      6  C   LIG d   1       3.668  -1.756  -9.759  0.00  0.00     0.046 A 
ATOM      7  N   LIG d   1       4.010  -2.770 -10.657  0.00  0.00    -0.280 N 
ATOM      8  C   LIG d   1       4.450  -3.878 -10.028  0.00  0.00     0.274 A 
ATOM      9  O   LIG d   1       4.815  -4.910 -10.549  0.00  0.00    -0.269 OA
ATOM     10  C   LIG d   1       4.412  -3.581  -8.553  0.00  0.00     0.106 A 
ATOM     11  C   LIG d   1       5.795  -3.716  -7.907  0.00  0.00     0.111 A 
ATOM     12  H   LIG d   1       6.608  -3.566  -8.618  0.00  0.00     0.047 H 
ATOM     13  C   LIG d   1       5.797  -5.140  -7.282  0.00  0.00     0.096 A 
ATOM     14  H   LIG d   1       6.622  -5.756  -7.638  0.00  0.00     0.046 H 
ATOM     15  C   LIG d   1       4.417  -5.730  -7.638  0.00  0.00    -0.009 C 
ATOM     16  H   LIG d   1       4.034  -6.327  -6.810  0.00  0.00     0.086 H 
ATOM     17  N   LIG d   1       3.541  -4.539  -7.848  0.00  0.00     0.245 N 
ATOM     18  C   LIG d   1       5.872  -4.869  -5.796  0.00  0.00     0.231 A 
ATOM     19  O   LIG d   1       5.890  -5.716  -4.930  0.00  0.00    -0.275 OA
ATOM     20  N   LIG d   1       5.919  -3.548  -5.587  0.00  0.00    -0.241 N 
ATOM     21  C   LIG d   1       5.889  -2.794  -6.711  0.00  0.00     0.232 A 
ATOM     22  O   LIG d   1       5.929  -1.584  -6.761  0.00  0.00    -0.275 OA
ATOM     23 CL   LIG d   1       2.779   0.986  -6.285  0.00  0.00    -0.084 Cl
ATOM     24  H   LIG d   1       2.523   1.356  -9.097  0.00  0.00     0.064 H 
ATOM     25  H   LIG d   1       3.786  -1.681  -6.379  0.00  0.00     0.064 H 
ATOM     26  H   LIG d   1       3.940  -2.688 -11.621  0.00  0.00     0.155 HD
ATOM     27  H   LIG d   1       3.234  -4.156  -6.967  0.00  0.00     0.203 HD
ATOM     28  H   LIG d   1       2.749  -4.786  -8.422  0.00  0.00     0.203 HD
ENDROOT
BRANCH  15  29
ATOM     29  C   LIG d   1       4.513  -6.582  -8.905  0.00  0.00    -0.001 C 
ATOM     30  H   LIG d   1       4.213  -5.987  -9.767  0.00  0.00     0.033 H 
ATOM     31  H   LIG d   1       5.541  -6.921  -9.038  0.00  0.00     0.033 H 
BRANCH  29  32
ATOM     32  C   LIG d   1       3.589  -7.794  -8.776  0.00  0.00     0.029 C 
ATOM     33  H   LIG d   1       2.695  -7.512  -8.220  0.00  0.00     0.036 H 
ATOM     34  H   LIG d   1       3.305  -8.143  -9.768  0.00  0.00     0.036 H 
BRANCH  32  35
ATOM     35  C   LIG d   1       4.308  -8.898  -8.043  0.00  0.00     0.211 C 
ATOM     36  O   LIG d   1       4.291  -8.933  -6.831  0.00  0.00    -0.276 OA
ATOM     37  N   LIG d   1       4.971  -9.845  -8.735  0.00  0.00    -0.329 N 
ATOM     38  H   LIG d   1       4.985  -9.818  -9.705  0.00  0.00     0.145 HD
ATOM     39  H   LIG d   1       5.435 -10.555  -8.264  0.00  0.00     0.145 HD
ENDBRANCH  32  35
ENDBRANCH  29  32
ENDBRANCH  15  29
BRANCH   1  40
ATOM     40  C   LIG d   1       2.939   0.007 -11.390  0.00  0.00    -0.038 C 
ATOM     41  H   LIG d   1       2.193  -0.628 -11.868  0.00  0.00     0.028 H 
ATOM     42  H   LIG d   1       2.581   1.036 -11.369  0.00  0.00     0.028 H 
ATOM     43  H   LIG d   1       3.871  -0.041 -11.955  0.00  0.00     0.028 H 
ENDBRANCH   1  40
BRANCH  20  44
ATOM     44  C   LIG d   1       6.000  -2.961  -4.247  0.00  0.00     0.026 C 
ATOM     45  H   LIG d   1       6.614  -3.597  -3.609  0.00  0.00     0.047 H 
ATOM     46  H   LIG d   1       6.448  -1.969  -4.311  0.00  0.00     0.047 H 
BRANCH  44  47
ATOM     47  C   LIG d   1       4.593  -2.849  -3.655  0.00  0.00    -0.011 C 
ATOM     48  H   LIG d   1       3.857  -3.095  -4.419  0.00  0.00     0.033 H 
ATOM     49  H   LIG d   1       4.495  -3.541  -2.819  0.00  0.00     0.033 H 
BRANCH  47  50
ATOM     50  C   LIG d   1       4.364  -1.441  -3.171  0.00  0.00    -0.046 A 
ATOM     51  C   LIG d   1       3.083  -0.921  -3.137  0.00  0.00    -0.059 A 
ATOM     52  C   LIG d   1       2.872   0.369  -2.688  0.00  0.00    -0.061 A 
ATOM     53  H   LIG d   1       2.247  -1.524  -3.458  0.00  0.00     0.062 H 
ATOM     54  C   LIG d   1       3.943   1.144  -2.283  0.00  0.00    -0.062 A 
ATOM     55  H   LIG d   1       1.871   0.774  -2.659  0.00  0.00     0.062 H 
ATOM     56  C   LIG d   1       5.224   0.627  -2.322  0.00  0.00    -0.061 A 
ATOM     57  H   LIG d   1       3.778   2.153  -1.935  0.00  0.00     0.062 H 
ATOM     58  C   LIG d   1       5.435  -0.665  -2.765  0.00  0.00    -0.059 A 
ATOM     59  H   LIG d   1       6.061   1.232  -2.005  0.00  0.00     0.062 H 
ATOM     60  H   LIG d   1       6.436  -1.070  -2.796  0.00  0.00     0.062 H 
ENDBRANCH  47  50
ENDBRANCH  44  47
ENDBRANCH  20  44
TORSDOF 7
ENDMDL
MODEL 8
REMARK VINA RESULT:      -6.2      9.596     12.581
REMARK  7 active torsions:
REMARK  status: ('A' for Active; 'I' for Inactive)
REMARK    1  A    between atoms: C_1  and  C_2 
REMARK    2  A    between atoms: C_16  and  C_19 
REMARK    3  A    between atoms: C_19  and  C_20 
REMARK    4  A    between atoms: C_20  and  C_21 
REMARK       I    between atoms: C_21  and  N_23 
REMARK    5  A    between atoms: N_26  and  C_29 
REMARK    6  A    between atoms: C_29  and  C_30 
REMARK    7  A    between atoms: C_30  and  C_31 
ROOT
ATOM      1  C   LIG d   1       9.292  12.114  -3.286  0.00  0.00    -0.027 A 
ATOM      2  C   LIG d   1       9.295  11.268  -4.376  0.00  0.00    -0.039 A 
ATOM      3  C   LIG d   1       9.814   9.990  -4.266  0.00  0.00     0.042 A 
ATOM      4  C   LIG d   1      10.333   9.559  -3.056  0.00  0.00    -0.032 A 
ATOM      5  C   LIG d   1      10.332  10.401  -1.967  0.00  0.00     0.036 A 
ATOM      6  C   LIG d   1       9.816  11.691  -2.068  0.00  0.00     0.046 A 
ATOM      7  N   LIG d   1       9.928  12.354  -0.844  0.00  0.00    -0.280 N 
ATOM      8  C   LIG d   1      10.505  11.582   0.099  0.00  0.00     0.274 A 
ATOM      9  O   LIG d   1      10.729  11.892   1.250  0.00  0.00    -0.269 OA
ATOM     10  C   LIG d   1      10.805  10.258  -0.549  0.00  0.00     0.106 A 
ATOM     11  C   LIG d   1      10.103   9.099   0.167  0.00  0.00     0.111 A 
ATOM     12  H   LIG d   1       9.208   9.415   0.701  0.00  0.00     0.047 H 
ATOM     13  C   LIG d   1      11.190   8.507   1.109  0.00  0.00     0.096 A 
ATOM     14  H   LIG d   1      10.876   8.484   2.153  0.00  0.00     0.046 H 
ATOM     15  C   LIG d   1      12.434   9.390   0.882  0.00  0.00    -0.009 C 
ATOM     16  H   LIG d   1      13.340   8.783   0.908  0.00  0.00     0.086 H 
ATOM     17  N   LIG d   1      12.248   9.959  -0.486  0.00  0.00     0.245 N 
ATOM     18  C   LIG d   1      11.429   7.126   0.542  0.00  0.00     0.231 A 
ATOM     19  O   LIG d   1      12.218   6.317   0.980  0.00  0.00    -0.275 OA
ATOM     20  N   LIG d   1      10.632   6.936  -0.517  0.00  0.00    -0.241 N 
ATOM     21  C   LIG d   1       9.832   7.984  -0.819  0.00  0.00     0.232 A 
ATOM     22  O   LIG d   1       9.029   8.031  -1.725  0.00  0.00    -0.275 OA
ATOM     23 CL   LIG d   1       9.815   8.930  -5.641  0.00  0.00    -0.084 Cl
ATOM     24  H   LIG d   1       8.890  11.604  -5.319  0.00  0.00     0.064 H 
ATOM     25  H   LIG d   1      10.739   8.562  -2.967  0.00  0.00     0.064 H 
ATOM     26  H   LIG d   1       9.627  13.262  -0.689  0.00  0.00     0.155 HD
ATOM     27  H   LIG d   1      12.501   9.288  -1.195  0.00  0.00     0.203 HD
ATOM     28  H   LIG d   1      12.789  10.804  -0.588  0.00  0.00     0.203 HD
ENDROOT
BRANCH  15  29
ATOM     29  C   LIG d   1      12.506  10.493   1.941  0.00  0.00    -0.001 C 
ATOM     30  H   LIG d   1      12.924  11.396   1.497  0.00  0.00     0.033 H 
ATOM     31  H   LIG d   1      11.502  10.703   2.313  0.00  0.00     0.033 H 
BRANCH  29  32
ATOM     32  C   LIG d   1      13.395  10.033   3.097  0.00  0.00     0.029 C 
ATOM     33  H   LIG d   1      13.805   9.049   2.872  0.00  0.00     0.036 H 
ATOM     34  H   LIG d   1      14.209  10.744   3.234  0.00  0.00     0.036 H 
BRANCH  32  35
ATOM     35  C   LIG d   1      12.576   9.959   4.361  0.00  0.00     0.211 C 
ATOM     36  O   LIG d   1      12.328  10.969   4.983  0.00  0.00    -0.276 OA
ATOM     37  N   LIG d   1      12.121   8.769   4.799  0.00  0.00    -0.329 N 
ATOM     38  H   LIG d   1      12.319   7.960   4.301  0.00  0.00     0.145 HD
ATOM     39  H   LIG d   1      11.594   8.720   5.612  0.00  0.00     0.145 HD
ENDBRANCH  32  35
ENDBRANCH  29  32
ENDBRANCH  15  29
BRANCH   1  40
ATOM     40  C   LIG d   1       8.724  13.504  -3.417  0.00  0.00    -0.038 C 
ATOM     41  H   LIG d   1       9.128  14.138  -2.628  0.00  0.00     0.028 H 
ATOM     42  H   LIG d   1       8.993  13.917  -4.389  0.00  0.00     0.028 H 
ATOM     43  H   LIG d   1       7.638  13.463  -3.329  0.00  0.00     0.028 H 
ENDBRANCH   1  40
BRANCH  20  44
ATOM     44  C   LIG d   1      10.624   5.690  -1.287  0.00  0.00     0.026 C 
ATOM     45  H   LIG d   1      10.798   4.848  -0.617  0.00  0.00     0.047 H 
ATOM     46  H   LIG d   1       9.658   5.571  -1.776  0.00  0.00     0.047 H 
BRANCH  44  47
ATOM     47  C   LIG d   1      11.729   5.738  -2.344  0.00  0.00    -0.011 C 
ATOM     48  H   LIG d   1      12.256   6.690  -2.277  0.00  0.00     0.033 H 
ATOM     49  H   LIG d   1      12.430   4.922  -2.175  0.00  0.00     0.033 H 
BRANCH  47  50
ATOM     50  C   LIG d   1      11.118   5.600  -3.715  0.00  0.00    -0.046 A 
ATOM     51  C   LIG d   1       9.776   5.293  -3.847  0.00  0.00    -0.059 A 
ATOM     52  C   LIG d   1       9.215   5.171  -5.104  0.00  0.00    -0.061 A 
ATOM     53  H   LIG d   1       9.167   5.152  -2.967  0.00  0.00     0.062 H 
ATOM     54  C   LIG d   1       9.997   5.346  -6.230  0.00  0.00    -0.062 A 
ATOM     55  H   LIG d   1       8.166   4.935  -5.206  0.00  0.00     0.062 H 
ATOM     56  C   LIG d   1      11.340   5.648  -6.099  0.00  0.00    -0.061 A 
ATOM     57  H   LIG d   1       9.559   5.248  -7.212  0.00  0.00     0.062 H 
ATOM     58  C   LIG d   1      11.900   5.775  -4.842  0.00  0.00    -0.059 A 
ATOM     59  H   LIG d   1      11.951   5.785  -6.979  0.00  0.00     0.062 H 
ATOM     60  H   LIG d   1      12.950   6.011  -4.740  0.00  0.00     0.062 H 
ENDBRANCH  47  50
ENDBRANCH  44  47
ENDBRANCH  20  44
TORSDOF 7
ENDMDL
MODEL 9
REMARK VINA RESULT:      -6.2      3.211      6.775
REMARK  7 active torsions:
REMARK  status: ('A' for Active; 'I' for Inactive)
REMARK    1  A    between atoms: C_1  and  C_2 
REMARK    2  A    between atoms: C_16  and  C_19 
REMARK    3  A    between atoms: C_19  and  C_20 
REMARK    4  A    between atoms: C_20  and  C_21 
REMARK       I    between atoms: C_21  and  N_23 
REMARK    5  A    between atoms: N_26  and  C_29 
REMARK    6  A    between atoms: C_29  and  C_30 
REMARK    7  A    between atoms: C_30  and  C_31 
ROOT
ATOM      1  C   LIG d   1       3.294  -5.159  -9.417  0.00  0.00    -0.027 A 
ATOM      2  C   LIG d   1       3.327  -4.375 -10.552  0.00  0.00    -0.039 A 
ATOM      3  C   LIG d   1       3.822  -3.084 -10.495  0.00  0.00     0.042 A 
ATOM      4  C   LIG d   1       4.286  -2.577  -9.292  0.00  0.00    -0.032 A 
ATOM      5  C   LIG d   1       4.253  -3.356  -8.158  0.00  0.00     0.036 A 
ATOM      6  C   LIG d   1       3.753  -4.655  -8.204  0.00  0.00     0.046 A 
ATOM      7  N   LIG d   1       3.818  -5.243  -6.938  0.00  0.00    -0.280 N 
ATOM      8  C   LIG d   1       4.335  -4.406  -6.016  0.00  0.00     0.274 A 
ATOM      9  O   LIG d   1       4.510  -4.645  -4.840  0.00  0.00    -0.269 OA
ATOM     10  C   LIG d   1       4.664  -3.124  -6.732  0.00  0.00     0.106 A 
ATOM     11  C   LIG d   1       6.152  -2.774  -6.621  0.00  0.00     0.111 A 
ATOM     12  H   LIG d   1       6.779  -3.649  -6.457  0.00  0.00     0.047 H 
ATOM     13  C   LIG d   1       6.226  -1.751  -5.452  0.00  0.00     0.096 A 
ATOM     14  H   LIG d   1       6.909  -2.062  -4.662  0.00  0.00     0.046 H 
ATOM     15  C   LIG d   1       4.772  -1.607  -4.959  0.00  0.00    -0.009 C 
ATOM     16  H   LIG d   1       4.566  -0.574  -4.681  0.00  0.00     0.086 H 
ATOM     17  N   LIG d   1       3.935  -1.990  -6.135  0.00  0.00     0.245 N 
ATOM     18  C   LIG d   1       6.666  -0.474  -6.133  0.00  0.00     0.231 A 
ATOM     19  O   LIG d   1       6.844   0.589  -5.579  0.00  0.00    -0.275 OA
ATOM     20  N   LIG d   1       6.831  -0.702  -7.441  0.00  0.00    -0.241 N 
ATOM     21  C   LIG d   1       6.575  -1.972  -7.833  0.00  0.00     0.232 A 
ATOM     22  O   LIG d   1       6.667  -2.403  -8.961  0.00  0.00    -0.275 OA
ATOM     23 CL   LIG d   1       3.861  -2.103 -11.926  0.00  0.00    -0.084 Cl
ATOM     24  H   LIG d   1       2.964  -4.770 -11.490  0.00  0.00     0.064 H 
ATOM     25  H   LIG d   1       4.673  -1.570  -9.244  0.00  0.00     0.064 H 
ATOM     26  H   LIG d   1       3.525  -6.147  -6.744  0.00  0.00     0.155 HD
ATOM     27  H   LIG d   1       3.867  -1.228  -6.793  0.00  0.00     0.203 HD
ATOM     28  H   LIG d   1       3.017  -2.279  -5.831  0.00  0.00     0.203 HD
ENDROOT
BRANCH  15  29
ATOM     29  C   LIG d   1       4.519  -2.536  -3.769  0.00  0.00    -0.001 C 
ATOM     30  H   LIG d   1       3.902  -3.376  -4.089  0.00  0.00     0.033 H 
ATOM     31  H   LIG d   1       5.472  -2.909  -3.391  0.00  0.00     0.033 H 
BRANCH  29  32
ATOM     32  C   LIG d   1       3.797  -1.765  -2.664  0.00  0.00     0.029 C 
ATOM     33  H   LIG d   1       2.720  -1.879  -2.784  0.00  0.00     0.036 H 
ATOM     34  H   LIG d   1       4.097  -2.155  -1.692  0.00  0.00     0.036 H 
BRANCH  32  35
ATOM     35  C   LIG d   1       4.159  -0.304  -2.752  0.00  0.00     0.211 C 
ATOM     36  O   LIG d   1       3.313   0.514  -3.043  0.00  0.00    -0.276 OA
ATOM     37  N   LIG d   1       5.424   0.092  -2.509  0.00  0.00    -0.329 N 
ATOM     38  H   LIG d   1       6.101  -0.562  -2.277  0.00  0.00     0.145 HD
ATOM     39  H   LIG d   1       5.658   1.032  -2.567  0.00  0.00     0.145 HD
ENDBRANCH  32  35
ENDBRANCH  29  32
ENDBRANCH  15  29
BRANCH   1  40
ATOM     40  C   LIG d   1       2.752  -6.563  -9.491  0.00  0.00    -0.038 C 
ATOM     41  H   LIG d   1       2.288  -6.824  -8.540  0.00  0.00     0.028 H 
ATOM     42  H   LIG d   1       2.010  -6.626 -10.287  0.00  0.00     0.028 H 
ATOM     43  H   LIG d   1       3.567  -7.257  -9.699  0.00  0.00     0.028 H 
ENDBRANCH   1  40
BRANCH  20  44
ATOM     44  C   LIG d   1       7.259   0.340  -8.378  0.00  0.00     0.026 C 
ATOM     45  H   LIG d   1       8.285   0.631  -8.154  0.00  0.00     0.047 H 
ATOM     46  H   LIG d   1       7.204  -0.042  -9.397  0.00  0.00     0.047 H 
BRANCH  44  47
ATOM     47  C   LIG d   1       6.342   1.557  -8.239  0.00  0.00    -0.011 C 
ATOM     48  H   LIG d   1       6.203   1.789  -7.183  0.00  0.00     0.033 H 
ATOM     49  H   LIG d   1       6.792   2.412  -8.743  0.00  0.00     0.033 H 
BRANCH  47  50
ATOM     50  C   LIG d   1       5.006   1.251  -8.865  0.00  0.00    -0.046 A 
ATOM     51  C   LIG d   1       4.872   1.242 -10.242  0.00  0.00    -0.059 A 
ATOM     52  C   LIG d   1       3.648   0.957 -10.816  0.00  0.00    -0.061 A 
ATOM     53  H   LIG d   1       5.726   1.455 -10.867  0.00  0.00     0.062 H 
ATOM     54  C   LIG d   1       2.554   0.691 -10.014  0.00  0.00    -0.062 A 
ATOM     55  H   LIG d   1       3.545   0.947 -11.891  0.00  0.00     0.062 H 
ATOM     56  C   LIG d   1       2.685   0.705  -8.638  0.00  0.00    -0.061 A 
ATOM     57  H   LIG d   1       1.596   0.471 -10.463  0.00  0.00     0.062 H 
ATOM     58  C   LIG d   1       3.911   0.985  -8.064  0.00  0.00    -0.059 A 
ATOM     59  H   LIG d   1       1.830   0.496  -8.011  0.00  0.00     0.062 H 
ATOM     60  H   LIG d   1       4.013   0.996  -6.988  0.00  0.00     0.062 H 
ENDBRANCH  47  50
ENDBRANCH  44  47
ENDBRANCH  20  44
TORSDOF 7
ENDMDL
