MODEL 1
REMARK VINA RESULT:      -5.7      0.000      0.000
REMARK  10 active torsions:
REMARK  status: ('A' for Active; 'I' for Inactive)
REMARK    1  A    between atoms: C_4  and  N_18 
REMARK    2  A    between atoms: C_5  and  C_7 
REMARK    3  A    between atoms: C_7  and  C_8 
REMARK    4  A    between atoms: C_8  and  C_9 
REMARK    5  A    between atoms: C_9  and  C_10 
REMARK    6  A    between atoms: C_10  and  C_11 
REMARK    7  A    between atoms: C_11  and  C_12 
REMARK    8  A    between atoms: C_12  and  C_13 
REMARK    9  A    between atoms: C_13  and  C_14 
REMARK   10  A    between atoms: C_14  and  C_15 
ROOT
ATOM      1  C   LIG d   1       5.369  -2.519  -6.342  0.00  0.00    -0.053 C 
ATOM      2  H   LIG d   1       6.188  -1.846  -6.052  0.00  0.00     0.026 H 
ATOM      3  H   LIG d   1       5.764  -3.330  -6.970  0.00  0.00     0.026 H 
ENDROOT
BRANCH   1   4
ATOM      4  C   LIG d   1       4.728  -3.113  -5.086  0.00  0.00    -0.049 C 
ATOM      5  H   LIG d   1       4.726  -4.211  -5.158  0.00  0.00     0.027 H 
ATOM      6  H   LIG d   1       3.694  -2.750  -4.995  0.00  0.00     0.027 H 
BRANCH   4   7
ATOM      7  C   LIG d   1       5.528  -2.685  -3.855  0.00  0.00    -0.026 C 
ATOM      8  H   LIG d   1       6.582  -2.535  -4.134  0.00  0.00     0.031 H 
ATOM      9  H   LIG d   1       5.462  -3.467  -3.084  0.00  0.00     0.031 H 
BRANCH   7  10
ATOM     10  C   LIG d   1       4.965  -1.396  -3.312  0.00  0.00    -0.027 A 
ATOM     11  C   LIG d   1       5.811  -0.328  -3.039  0.00  0.00     0.028 A 
ATOM     12  C   LIG d   1       5.287   0.855  -2.534  0.00  0.00    -0.041 A 
ATOM     13  C   LIG d   1       3.930   0.970  -2.314  0.00  0.00    -0.060 A 
ATOM     14  H   LIG d   1       5.943   1.686  -2.316  0.00  0.00     0.064 H 
ATOM     15  C   LIG d   1       3.091  -0.095  -2.587  0.00  0.00    -0.061 A 
ATOM     16  H   LIG d   1       3.522   1.892  -1.924  0.00  0.00     0.062 H 
ATOM     17  C   LIG d   1       3.608  -1.276  -3.085  0.00  0.00    -0.057 A 
ATOM     18  H   LIG d   1       2.029  -0.004  -2.409  0.00  0.00     0.062 H 
ATOM     19  H   LIG d   1       2.950  -2.106  -3.297  0.00  0.00     0.062 H 
BRANCH  11  20
ATOM     20  N   LIG d   1       7.184  -0.446  -3.267  0.00  0.00    -0.358 N 
ATOM     21  H   LIG d   1       7.809  -1.024  -2.570  0.00  0.00     0.142 HD
ATOM     22  H   LIG d   1       7.639   0.037  -4.144  0.00  0.00     0.142 HD
ENDBRANCH  11  20
ENDBRANCH   7  10
ENDBRANCH   4   7
ENDBRANCH   1   4
BRANCH   1  23
ATOM     23  C   LIG d   1       4.316  -1.733  -7.128  0.00  0.00    -0.053 C 
ATOM     24  H   LIG d   1       4.544  -1.789  -8.202  0.00  0.00     0.026 H 
ATOM     25  H   LIG d   1       3.322  -2.165  -6.941  0.00  0.00     0.026 H 
BRANCH  23  26
ATOM     26  C   LIG d   1       4.330  -0.272  -6.676  0.00  0.00    -0.053 C 
ATOM     27  H   LIG d   1       4.642  -0.216  -5.623  0.00  0.00     0.026 H 
ATOM     28  H   LIG d   1       5.035   0.298  -7.298  0.00  0.00     0.026 H 
BRANCH  26  29
ATOM     29  C   LIG d   1       2.926   0.321  -6.825  0.00  0.00    -0.053 C 
ATOM     30  H   LIG d   1       2.185  -0.386  -6.425  0.00  0.00     0.026 H 
ATOM     31  H   LIG d   1       2.868   1.268  -6.269  0.00  0.00     0.026 H 
BRANCH  29  32
ATOM     32  C   LIG d   1       2.638   0.580  -8.305  0.00  0.00    -0.048 C 
ATOM     33  H   LIG d   1       3.278  -0.066  -8.923  0.00  0.00     0.027 H 
ATOM     34  H   LIG d   1       1.582   0.361  -8.517  0.00  0.00     0.027 H 
BRANCH  32  35
ATOM     35  C   LIG d   1       2.929   2.047  -8.631  0.00  0.00    -0.013 C 
ATOM     36  H   LIG d   1       2.018   2.522  -9.024  0.00  0.00     0.033 H 
ATOM     37  H   LIG d   1       3.250   2.569  -7.718  0.00  0.00     0.033 H 
BRANCH  35  38
ATOM     38  C   LIG d   1       4.022   2.124  -9.666  0.00  0.00     0.042 C 
ATOM     39  O   LIG d   1       3.806   1.769 -10.800  0.00  0.00    -0.550 OA
ATOM     40  O   LIG d   1       5.236   2.586  -9.325  0.00  0.00    -0.550 OA
ENDBRANCH  35  38
ENDBRANCH  32  35
ENDBRANCH  29  32
ENDBRANCH  26  29
ENDBRANCH  23  26
ENDBRANCH   1  23
TORSDOF 10
ENDMDL
MODEL 2
REMARK VINA RESULT:      -5.6      3.005      6.286
REMARK  10 active torsions:
REMARK  status: ('A' for Active; 'I' for Inactive)
REMARK    1  A    between atoms: C_4  and  N_18 
REMARK    2  A    between atoms: C_5  and  C_7 
REMARK    3  A    between atoms: C_7  and  C_8 
REMARK    4  A    between atoms: C_8  and  C_9 
REMARK    5  A    between atoms: C_9  and  C_10 
REMARK    6  A    between atoms: C_10  and  C_11 
REMARK    7  A    between atoms: C_11  and  C_12 
REMARK    8  A    between atoms: C_12  and  C_13 
REMARK    9  A    between atoms: C_13  and  C_14 
REMARK   10  A    between atoms: C_14  and  C_15 
ROOT
ATOM      1  C   LIG d   1       4.511  -0.431  -6.082  0.00  0.00    -0.053 C 
ATOM      2  H   LIG d   1       5.038  -0.346  -7.044  0.00  0.00     0.026 H 
ATOM      3  H   LIG d   1       4.978   0.241  -5.347  0.00  0.00     0.026 H 
ENDROOT
BRANCH   1   4
ATOM      4  C   LIG d   1       3.044  -0.041  -6.269  0.00  0.00    -0.049 C 
ATOM      5  H   LIG d   1       2.596   0.186  -5.290  0.00  0.00     0.027 H 
ATOM      6  H   LIG d   1       2.499  -0.875  -6.735  0.00  0.00     0.027 H 
BRANCH   4   7
ATOM      7  C   LIG d   1       2.954   1.193  -7.169  0.00  0.00    -0.026 C 
ATOM      8  H   LIG d   1       3.788   1.874  -6.943  0.00  0.00     0.031 H 
ATOM      9  H   LIG d   1       2.000   1.709  -6.990  0.00  0.00     0.031 H 
BRANCH   7  10
ATOM     10  C   LIG d   1       3.031   0.768  -8.614  0.00  0.00    -0.027 A 
ATOM     11  C   LIG d   1       3.921   1.395  -9.476  0.00  0.00     0.028 A 
ATOM     12  C   LIG d   1       3.985   1.004 -10.807  0.00  0.00    -0.041 A 
ATOM     13  C   LIG d   1       3.171  -0.012 -11.267  0.00  0.00    -0.060 A 
ATOM     14  H   LIG d   1       4.672   1.494 -11.482  0.00  0.00     0.064 H 
ATOM     15  C   LIG d   1       2.286  -0.635 -10.405  0.00  0.00    -0.061 A 
ATOM     16  H   LIG d   1       3.222  -0.319 -12.301  0.00  0.00     0.062 H 
ATOM     17  C   LIG d   1       2.217  -0.245  -9.081  0.00  0.00    -0.057 A 
ATOM     18  H   LIG d   1       1.648  -1.427 -10.768  0.00  0.00     0.062 H 
ATOM     19  H   LIG d   1       1.525  -0.733  -8.410  0.00  0.00     0.062 H 
BRANCH  11  20
ATOM     20  N   LIG d   1       4.746   2.421  -9.007  0.00  0.00    -0.358 N 
ATOM     21  H   LIG d   1       5.808   2.448  -9.295  0.00  0.00     0.142 HD
ATOM     22  H   LIG d   1       4.334   3.201  -8.351  0.00  0.00     0.142 HD
ENDBRANCH  11  20
ENDBRANCH   7  10
ENDBRANCH   4   7
ENDBRANCH   1   4
BRANCH   1  23
ATOM     23  C   LIG d   1       4.595  -1.874  -5.580  0.00  0.00    -0.053 C 
ATOM     24  H   LIG d   1       3.582  -2.292  -5.494  0.00  0.00     0.026 H 
ATOM     25  H   LIG d   1       5.181  -2.475  -6.290  0.00  0.00     0.026 H 
BRANCH  23  26
ATOM     26  C   LIG d   1       5.276  -1.897  -4.210  0.00  0.00    -0.053 C 
ATOM     27  H   LIG d   1       6.053  -2.675  -4.200  0.00  0.00     0.026 H 
ATOM     28  H   LIG d   1       5.735  -0.917  -4.011  0.00  0.00     0.026 H 
BRANCH  26  29
ATOM     29  C   LIG d   1       4.236  -2.200  -3.129  0.00  0.00    -0.053 C 
ATOM     30  H   LIG d   1       3.236  -2.249  -3.585  0.00  0.00     0.026 H 
ATOM     31  H   LIG d   1       4.471  -3.165  -2.655  0.00  0.00     0.026 H 
BRANCH  29  32
ATOM     32  C   LIG d   1       4.261  -1.094  -2.073  0.00  0.00    -0.048 C 
ATOM     33  H   LIG d   1       3.920  -1.499  -1.108  0.00  0.00     0.027 H 
ATOM     34  H   LIG d   1       5.286  -0.711  -1.967  0.00  0.00     0.027 H 
BRANCH  32  35
ATOM     35  C   LIG d   1       3.333   0.044  -2.504  0.00  0.00    -0.013 C 
ATOM     36  H   LIG d   1       2.813  -0.239  -3.431  0.00  0.00     0.033 H 
ATOM     37  H   LIG d   1       2.594   0.234  -1.712  0.00  0.00     0.033 H 
BRANCH  35  38
ATOM     38  C   LIG d   1       4.146   1.290  -2.744  0.00  0.00     0.042 C 
ATOM     39  O   LIG d   1       3.688   2.193  -3.403  0.00  0.00    -0.550 OA
ATOM     40  O   LIG d   1       5.380   1.396  -2.225  0.00  0.00    -0.550 OA
ENDBRANCH  35  38
ENDBRANCH  32  35
ENDBRANCH  29  32
ENDBRANCH  26  29
ENDBRANCH  23  26
ENDBRANCH   1  23
TORSDOF 10
ENDMDL
MODEL 3
REMARK VINA RESULT:      -5.6      2.549      5.692
REMARK  10 active torsions:
REMARK  status: ('A' for Active; 'I' for Inactive)
REMARK    1  A    between atoms: C_4  and  N_18 
REMARK    2  A    between atoms: C_5  and  C_7 
REMARK    3  A    between atoms: C_7  and  C_8 
REMARK    4  A    between atoms: C_8  and  C_9 
REMARK    5  A    between atoms: C_9  and  C_10 
REMARK    6  A    between atoms: C_10  and  C_11 
REMARK    7  A    between atoms: C_11  and  C_12 
REMARK    8  A    between atoms: C_12  and  C_13 
REMARK    9  A    between atoms: C_13  and  C_14 
REMARK   10  A    between atoms: C_14  and  C_15 
ROOT
ATOM      1  C   LIG d   1       2.957   0.530  -3.920  0.00  0.00    -0.053 C 
ATOM      2  H   LIG d   1       4.045   0.692  -3.905  0.00  0.00     0.026 H 
ATOM      3  H   LIG d   1       2.459   1.332  -3.356  0.00  0.00     0.026 H 
ENDROOT
BRANCH   1   4
ATOM      4  C   LIG d   1       2.459   0.540  -5.366  0.00  0.00    -0.049 C 
ATOM      5  H   LIG d   1       2.389   1.578  -5.724  0.00  0.00     0.027 H 
ATOM      6  H   LIG d   1       1.467   0.067  -5.416  0.00  0.00     0.027 H 
BRANCH   4   7
ATOM      7  C   LIG d   1       3.439  -0.237  -6.247  0.00  0.00    -0.026 C 
ATOM      8  H   LIG d   1       2.999  -1.208  -6.519  0.00  0.00     0.031 H 
ATOM      9  H   LIG d   1       4.377  -0.402  -5.695  0.00  0.00     0.031 H 
BRANCH   7  10
ATOM     10  C   LIG d   1       3.725   0.553  -7.499  0.00  0.00    -0.027 A 
ATOM     11  C   LIG d   1       4.924   0.370  -8.177  0.00  0.00     0.028 A 
ATOM     12  C   LIG d   1       5.185   1.104  -9.327  0.00  0.00    -0.041 A 
ATOM     13  C   LIG d   1       4.251   2.005  -9.797  0.00  0.00    -0.060 A 
ATOM     14  H   LIG d   1       6.119   0.969  -9.854  0.00  0.00     0.064 H 
ATOM     15  C   LIG d   1       3.058   2.184  -9.119  0.00  0.00    -0.061 A 
ATOM     16  H   LIG d   1       4.452   2.574 -10.693  0.00  0.00     0.062 H 
ATOM     17  C   LIG d   1       2.797   1.459  -7.972  0.00  0.00    -0.057 A 
ATOM     18  H   LIG d   1       2.331   2.893  -9.487  0.00  0.00     0.062 H 
ATOM     19  H   LIG d   1       1.865   1.601  -7.445  0.00  0.00     0.062 H 
BRANCH  11  20
ATOM     20  N   LIG d   1       5.866  -0.545  -7.701  0.00  0.00    -0.358 N 
ATOM     21  H   LIG d   1       5.868  -0.830  -6.639  0.00  0.00     0.142 HD
ATOM     22  H   LIG d   1       6.604  -0.982  -8.390  0.00  0.00     0.142 HD
ENDBRANCH  11  20
ENDBRANCH   7  10
ENDBRANCH   4   7
ENDBRANCH   1   4
BRANCH   1  23
ATOM     23  C   LIG d   1       2.632  -0.821  -3.278  0.00  0.00    -0.053 C 
ATOM     24  H   LIG d   1       1.738  -0.721  -2.646  0.00  0.00     0.026 H 
ATOM     25  H   LIG d   1       2.444  -1.564  -4.066  0.00  0.00     0.026 H 
BRANCH  23  26
ATOM     26  C   LIG d   1       3.816  -1.275  -2.421  0.00  0.00    -0.053 C 
ATOM     27  H   LIG d   1       4.512  -0.436  -2.284  0.00  0.00     0.026 H 
ATOM     28  H   LIG d   1       3.451  -1.613  -1.440  0.00  0.00     0.026 H 
BRANCH  26  29
ATOM     29  C   LIG d   1       4.538  -2.429  -3.121  0.00  0.00    -0.053 C 
ATOM     30  H   LIG d   1       4.946  -3.117  -2.367  0.00  0.00     0.026 H 
ATOM     31  H   LIG d   1       3.828  -2.969  -3.764  0.00  0.00     0.026 H 
BRANCH  29  32
ATOM     32  C   LIG d   1       5.679  -1.873  -3.975  0.00  0.00    -0.048 C 
ATOM     33  H   LIG d   1       6.337  -2.696  -4.290  0.00  0.00     0.027 H 
ATOM     34  H   LIG d   1       5.263  -1.375  -4.863  0.00  0.00     0.027 H 
BRANCH  32  35
ATOM     35  C   LIG d   1       6.485  -0.864  -3.154  0.00  0.00    -0.013 C 
ATOM     36  H   LIG d   1       6.023  -0.748  -2.161  0.00  0.00     0.033 H 
ATOM     37  H   LIG d   1       7.516  -1.226  -3.038  0.00  0.00     0.033 H 
BRANCH  35  38
ATOM     38  C   LIG d   1       6.494   0.466  -3.862  0.00  0.00     0.042 C 
ATOM     39  O   LIG d   1       6.673   0.514  -5.056  0.00  0.00    -0.550 OA
ATOM     40  O   LIG d   1       6.304   1.598  -3.165  0.00  0.00    -0.550 OA
ENDBRANCH  35  38
ENDBRANCH  32  35
ENDBRANCH  29  32
ENDBRANCH  26  29
ENDBRANCH  23  26
ENDBRANCH   1  23
TORSDOF 10
ENDMDL
MODEL 4
REMARK VINA RESULT:      -5.6      3.534      5.114
REMARK  10 active torsions:
REMARK  status: ('A' for Active; 'I' for Inactive)
REMARK    1  A    between atoms: C_4  and  N_18 
REMARK    2  A    between atoms: C_5  and  C_7 
REMARK    3  A    between atoms: C_7  and  C_8 
REMARK    4  A    between atoms: C_8  and  C_9 
REMARK    5  A    between atoms: C_9  and  C_10 
REMARK    6  A    between atoms: C_10  and  C_11 
REMARK    7  A    between atoms: C_11  and  C_12 
REMARK    8  A    between atoms: C_12  and  C_13 
REMARK    9  A    between atoms: C_13  and  C_14 
REMARK   10  A    between atoms: C_14  and  C_15 
ROOT
ATOM      1  C   LIG d   1       4.114   0.344  -6.725  0.00  0.00    -0.053 C 
ATOM      2  H   LIG d   1       3.912   1.105  -7.492  0.00  0.00     0.026 H 
ATOM      3  H   LIG d   1       4.646   0.805  -5.880  0.00  0.00     0.026 H 
ENDROOT
BRANCH   1   4
ATOM      4  C   LIG d   1       2.791  -0.247  -6.233  0.00  0.00    -0.049 C 
ATOM      5  H   LIG d   1       2.932  -1.310  -5.988  0.00  0.00     0.027 H 
ATOM      6  H   LIG d   1       2.030  -0.149  -7.021  0.00  0.00     0.027 H 
BRANCH   4   7
ATOM      7  C   LIG d   1       2.331   0.507  -4.983  0.00  0.00    -0.026 C 
ATOM      8  H   LIG d   1       1.256   0.334  -4.825  0.00  0.00     0.031 H 
ATOM      9  H   LIG d   1       2.512   1.584  -5.117  0.00  0.00     0.031 H 
BRANCH   7  10
ATOM     10  C   LIG d   1       3.101   0.013  -3.785  0.00  0.00    -0.027 A 
ATOM     11  C   LIG d   1       3.812   0.909  -2.998  0.00  0.00     0.028 A 
ATOM     12  C   LIG d   1       4.525   0.448  -1.899  0.00  0.00    -0.041 A 
ATOM     13  C   LIG d   1       4.517  -0.896  -1.586  0.00  0.00    -0.060 A 
ATOM     14  H   LIG d   1       5.084   1.142  -1.287  0.00  0.00     0.064 H 
ATOM     15  C   LIG d   1       3.807  -1.786  -2.372  0.00  0.00    -0.061 A 
ATOM     16  H   LIG d   1       5.068  -1.255  -0.729  0.00  0.00     0.062 H 
ATOM     17  C   LIG d   1       3.101  -1.332  -3.470  0.00  0.00    -0.057 A 
ATOM     18  H   LIG d   1       3.806  -2.838  -2.127  0.00  0.00     0.062 H 
ATOM     19  H   LIG d   1       2.547  -2.029  -4.082  0.00  0.00     0.062 H 
BRANCH  11  20
ATOM     20  N   LIG d   1       3.816   2.270  -3.315  0.00  0.00    -0.358 N 
ATOM     21  H   LIG d   1       3.185   2.969  -2.746  0.00  0.00     0.142 HD
ATOM     22  H   LIG d   1       4.450   2.642  -4.133  0.00  0.00     0.142 HD
ENDBRANCH  11  20
ENDBRANCH   7  10
ENDBRANCH   4   7
ENDBRANCH   1   4
BRANCH   1  23
ATOM     23  C   LIG d   1       4.977  -0.769  -7.324  0.00  0.00    -0.053 C 
ATOM     24  H   LIG d   1       4.746  -0.877  -8.394  0.00  0.00     0.026 H 
ATOM     25  H   LIG d   1       6.040  -0.514  -7.202  0.00  0.00     0.026 H 
BRANCH  23  26
ATOM     26  C   LIG d   1       4.683  -2.086  -6.602  0.00  0.00    -0.053 C 
ATOM     27  H   LIG d   1       3.773  -1.976  -5.995  0.00  0.00     0.026 H 
ATOM     28  H   LIG d   1       4.537  -2.886  -7.342  0.00  0.00     0.026 H 
BRANCH  26  29
ATOM     29  C   LIG d   1       5.862  -2.442  -5.693  0.00  0.00    -0.053 C 
ATOM     30  H   LIG d   1       6.755  -2.629  -6.307  0.00  0.00     0.026 H 
ATOM     31  H   LIG d   1       6.058  -1.608  -5.004  0.00  0.00     0.026 H 
BRANCH  29  32
ATOM     32  C   LIG d   1       5.524  -3.699  -4.889  0.00  0.00    -0.048 C 
ATOM     33  H   LIG d   1       6.174  -3.755  -4.004  0.00  0.00     0.027 H 
ATOM     34  H   LIG d   1       4.472  -3.659  -4.570  0.00  0.00     0.027 H 
BRANCH  32  35
ATOM     35  C   LIG d   1       5.744  -4.937  -5.762  0.00  0.00    -0.013 C 
ATOM     36  H   LIG d   1       5.946  -4.624  -6.797  0.00  0.00     0.033 H 
ATOM     37  H   LIG d   1       6.602  -5.508  -5.379  0.00  0.00     0.033 H 
BRANCH  35  38
ATOM     38  C   LIG d   1       4.510  -5.800  -5.730  0.00  0.00     0.042 C 
ATOM     39  O   LIG d   1       4.561  -6.912  -5.260  0.00  0.00    -0.550 OA
ATOM     40  O   LIG d   1       3.352  -5.333  -6.224  0.00  0.00    -0.550 OA
ENDBRANCH  35  38
ENDBRANCH  32  35
ENDBRANCH  29  32
ENDBRANCH  26  29
ENDBRANCH  23  26
ENDBRANCH   1  23
TORSDOF 10
ENDMDL
MODEL 5
REMARK VINA RESULT:      -5.6      1.312      1.774
REMARK  10 active torsions:
REMARK  status: ('A' for Active; 'I' for Inactive)
REMARK    1  A    between atoms: C_4  and  N_18 
REMARK    2  A    between atoms: C_5  and  C_7 
REMARK    3  A    between atoms: C_7  and  C_8 
REMARK    4  A    between atoms: C_8  and  C_9 
REMARK    5  A    between atoms: C_9  and  C_10 
REMARK    6  A    between atoms: C_10  and  C_11 
REMARK    7  A    between atoms: C_11  and  C_12 
REMARK    8  A    between atoms: C_12  and  C_13 
REMARK    9  A    between atoms: C_13  and  C_14 
REMARK   10  A    between atoms: C_14  and  C_15 
ROOT
ATOM      1  C   LIG d   1       6.462  -1.656  -6.218  0.00  0.00    -0.053 C 
ATOM      2  H   LIG d   1       7.147  -2.027  -6.995  0.00  0.00     0.026 H 
ATOM      3  H   LIG d   1       5.825  -2.480  -5.865  0.00  0.00     0.026 H 
ENDROOT
BRANCH   1   4
ATOM      4  C   LIG d   1       7.274  -1.101  -5.046  0.00  0.00    -0.049 C 
ATOM      5  H   LIG d   1       7.182  -0.005  -5.021  0.00  0.00     0.027 H 
ATOM      6  H   LIG d   1       8.332  -1.377  -5.169  0.00  0.00     0.027 H 
BRANCH   4   7
ATOM      7  C   LIG d   1       6.743  -1.687  -3.736  0.00  0.00    -0.026 C 
ATOM      8  H   LIG d   1       7.540  -1.675  -2.978  0.00  0.00     0.031 H 
ATOM      9  H   LIG d   1       6.413  -2.723  -3.905  0.00  0.00     0.031 H 
BRANCH   7  10
ATOM     10  C   LIG d   1       5.577  -0.862  -3.253  0.00  0.00    -0.027 A 
ATOM     11  C   LIG d   1       4.318  -1.437  -3.139  0.00  0.00     0.028 A 
ATOM     12  C   LIG d   1       3.247  -0.671  -2.698  0.00  0.00    -0.041 A 
ATOM     13  C   LIG d   1       3.437   0.655  -2.365  0.00  0.00    -0.060 A 
ATOM     14  H   LIG d   1       2.264  -1.114  -2.614  0.00  0.00     0.064 H 
ATOM     15  C   LIG d   1       4.693   1.224  -2.480  0.00  0.00    -0.061 A 
ATOM     16  H   LIG d   1       2.605   1.250  -2.020  0.00  0.00     0.062 H 
ATOM     17  C   LIG d   1       5.760   0.467  -2.922  0.00  0.00    -0.057 A 
ATOM     18  H   LIG d   1       4.838   2.263  -2.222  0.00  0.00     0.062 H 
ATOM     19  H   LIG d   1       6.740   0.914  -3.010  0.00  0.00     0.062 H 
BRANCH  11  20
ATOM     20  N   LIG d   1       4.129  -2.780  -3.473  0.00  0.00    -0.358 N 
ATOM     21  H   LIG d   1       4.993  -3.409  -3.736  0.00  0.00     0.142 HD
ATOM     22  H   LIG d   1       3.117  -3.209  -3.472  0.00  0.00     0.142 HD
ENDBRANCH  11  20
ENDBRANCH   7  10
ENDBRANCH   4   7
ENDBRANCH   1   4
BRANCH   1  23
ATOM     23  C   LIG d   1       5.583  -0.546  -6.800  0.00  0.00    -0.053 C 
ATOM     24  H   LIG d   1       5.678   0.358  -6.181  0.00  0.00     0.026 H 
ATOM     25  H   LIG d   1       5.907  -0.323  -7.827  0.00  0.00     0.026 H 
BRANCH  23  26
ATOM     26  C   LIG d   1       4.125  -1.006  -6.814  0.00  0.00    -0.053 C 
ATOM     27  H   LIG d   1       3.933  -1.590  -7.726  0.00  0.00     0.026 H 
ATOM     28  H   LIG d   1       3.928  -1.632  -5.931  0.00  0.00     0.026 H 
BRANCH  26  29
ATOM     29  C   LIG d   1       3.204   0.216  -6.787  0.00  0.00    -0.053 C 
ATOM     30  H   LIG d   1       2.330   0.003  -6.155  0.00  0.00     0.026 H 
ATOM     31  H   LIG d   1       3.752   1.078  -6.377  0.00  0.00     0.026 H 
BRANCH  29  32
ATOM     32  C   LIG d   1       2.740   0.536  -8.209  0.00  0.00    -0.048 C 
ATOM     33  H   LIG d   1       3.290  -0.093  -8.925  0.00  0.00     0.027 H 
ATOM     34  H   LIG d   1       1.663   0.336  -8.297  0.00  0.00     0.027 H 
BRANCH  32  35
ATOM     35  C   LIG d   1       3.012   2.011  -8.514  0.00  0.00    -0.013 C 
ATOM     36  H   LIG d   1       2.080   2.495  -8.843  0.00  0.00     0.033 H 
ATOM     37  H   LIG d   1       3.384   2.510  -7.607  0.00  0.00     0.033 H 
BRANCH  35  38
ATOM     38  C   LIG d   1       4.045   2.116  -9.606  0.00  0.00     0.042 C 
ATOM     39  O   LIG d   1       3.770   1.780 -10.733  0.00  0.00    -0.550 OA
ATOM     40  O   LIG d   1       5.272   2.582  -9.325  0.00  0.00    -0.550 OA
ENDBRANCH  35  38
ENDBRANCH  32  35
ENDBRANCH  29  32
ENDBRANCH  26  29
ENDBRANCH  23  26
ENDBRANCH   1  23
TORSDOF 10
ENDMDL
MODEL 6
REMARK VINA RESULT:      -5.5      3.423      4.673
REMARK  10 active torsions:
REMARK  status: ('A' for Active; 'I' for Inactive)
REMARK    1  A    between atoms: C_4  and  N_18 
REMARK    2  A    between atoms: C_5  and  C_7 
REMARK    3  A    between atoms: C_7  and  C_8 
REMARK    4  A    between atoms: C_8  and  C_9 
REMARK    5  A    between atoms: C_9  and  C_10 
REMARK    6  A    between atoms: C_10  and  C_11 
REMARK    7  A    between atoms: C_11  and  C_12 
REMARK    8  A    between atoms: C_12  and  C_13 
REMARK    9  A    between atoms: C_13  and  C_14 
REMARK   10  A    between atoms: C_14  and  C_15 
ROOT
ATOM      1  C   LIG d   1       3.396  -0.004  -7.332  0.00  0.00    -0.053 C 
ATOM      2  H   LIG d   1       4.272   0.471  -7.796  0.00  0.00     0.026 H 
ATOM      3  H   LIG d   1       3.677  -0.994  -6.944  0.00  0.00     0.026 H 
ENDROOT
BRANCH   1   4
ATOM      4  C   LIG d   1       2.893   0.869  -6.181  0.00  0.00    -0.049 C 
ATOM      5  H   LIG d   1       2.140   1.577  -6.559  0.00  0.00     0.027 H 
ATOM      6  H   LIG d   1       3.736   1.428  -5.748  0.00  0.00     0.027 H 
BRANCH   4   7
ATOM      7  C   LIG d   1       2.263  -0.018  -5.106  0.00  0.00    -0.026 C 
ATOM      8  H   LIG d   1       2.204  -1.054  -5.471  0.00  0.00     0.031 H 
ATOM      9  H   LIG d   1       1.251   0.347  -4.876  0.00  0.00     0.031 H 
BRANCH   7  10
ATOM     10  C   LIG d   1       3.108   0.027  -3.858  0.00  0.00    -0.027 A 
ATOM     11  C   LIG d   1       3.717  -1.130  -3.389  0.00  0.00     0.028 A 
ATOM     12  C   LIG d   1       4.491  -1.084  -2.236  0.00  0.00    -0.041 A 
ATOM     13  C   LIG d   1       4.659   0.110  -1.566  0.00  0.00    -0.060 A 
ATOM     14  H   LIG d   1       4.962  -1.984  -1.866  0.00  0.00     0.064 H 
ATOM     15  C   LIG d   1       4.051   1.261  -2.036  0.00  0.00    -0.061 A 
ATOM     16  H   LIG d   1       5.263   0.147  -0.671  0.00  0.00     0.062 H 
ATOM     17  C   LIG d   1       3.277   1.218  -3.180  0.00  0.00    -0.057 A 
ATOM     18  H   LIG d   1       4.181   2.193  -1.506  0.00  0.00     0.062 H 
ATOM     19  H   LIG d   1       2.803   2.118  -3.544  0.00  0.00     0.062 H 
BRANCH  11  20
ATOM     20  N   LIG d   1       3.548  -2.337  -4.072  0.00  0.00    -0.358 N 
ATOM     21  H   LIG d   1       4.173  -2.565  -4.949  0.00  0.00     0.142 HD
ATOM     22  H   LIG d   1       2.792  -3.059  -3.732  0.00  0.00     0.142 HD
ENDBRANCH  11  20
ENDBRANCH   7  10
ENDBRANCH   4   7
ENDBRANCH   1   4
BRANCH   1  23
ATOM     23  C   LIG d   1       2.287  -0.161  -8.375  0.00  0.00    -0.053 C 
ATOM     24  H   LIG d   1       1.312  -0.207  -7.869  0.00  0.00     0.026 H 
ATOM     25  H   LIG d   1       2.305   0.698  -9.060  0.00  0.00     0.026 H 
BRANCH  23  26
ATOM     26  C   LIG d   1       2.513  -1.450  -9.168  0.00  0.00    -0.053 C 
ATOM     27  H   LIG d   1       1.754  -2.193  -8.884  0.00  0.00     0.026 H 
ATOM     28  H   LIG d   1       2.435  -1.238 -10.244  0.00  0.00     0.026 H 
BRANCH  26  29
ATOM     29  C   LIG d   1       3.907  -2.001  -8.858  0.00  0.00    -0.053 C 
ATOM     30  H   LIG d   1       4.566  -1.839  -9.723  0.00  0.00     0.026 H 
ATOM     31  H   LIG d   1       4.319  -1.481  -7.980  0.00  0.00     0.026 H 
BRANCH  29  32
ATOM     32  C   LIG d   1       3.809  -3.499  -8.564  0.00  0.00    -0.048 C 
ATOM     33  H   LIG d   1       2.752  -3.804  -8.560  0.00  0.00     0.027 H 
ATOM     34  H   LIG d   1       4.350  -4.061  -9.339  0.00  0.00     0.027 H 
BRANCH  32  35
ATOM     35  C   LIG d   1       4.429  -3.791  -7.195  0.00  0.00    -0.013 C 
ATOM     36  H   LIG d   1       5.521  -3.873  -7.298  0.00  0.00     0.033 H 
ATOM     37  H   LIG d   1       4.186  -2.974  -6.501  0.00  0.00     0.033 H 
BRANCH  35  38
ATOM     38  C   LIG d   1       3.876  -5.087  -6.661  0.00  0.00     0.042 C 
ATOM     39  O   LIG d   1       3.448  -5.922  -7.422  0.00  0.00    -0.550 OA
ATOM     40  O   LIG d   1       3.858  -5.313  -5.337  0.00  0.00    -0.550 OA
ENDBRANCH  35  38
ENDBRANCH  32  35
ENDBRANCH  29  32
ENDBRANCH  26  29
ENDBRANCH  23  26
ENDBRANCH   1  23
TORSDOF 10
ENDMDL
MODEL 7
REMARK VINA RESULT:      -5.4      1.377      3.492
REMARK  10 active torsions:
REMARK  status: ('A' for Active; 'I' for Inactive)
REMARK    1  A    between atoms: C_4  and  N_18 
REMARK    2  A    between atoms: C_5  and  C_7 
REMARK    3  A    between atoms: C_7  and  C_8 
REMARK    4  A    between atoms: C_8  and  C_9 
REMARK    5  A    between atoms: C_9  and  C_10 
REMARK    6  A    between atoms: C_10  and  C_11 
REMARK    7  A    between atoms: C_11  and  C_12 
REMARK    8  A    between atoms: C_12  and  C_13 
REMARK    9  A    between atoms: C_13  and  C_14 
REMARK   10  A    between atoms: C_14  and  C_15 
ROOT
ATOM      1  C   LIG d   1       4.443   0.478  -1.840  0.00  0.00    -0.053 C 
ATOM      2  H   LIG d   1       4.167   0.807  -0.828  0.00  0.00     0.026 H 
ATOM      3  H   LIG d   1       5.465   0.813  -2.069  0.00  0.00     0.026 H 
ENDROOT
BRANCH   1   4
ATOM      4  C   LIG d   1       4.378  -1.049  -1.916  0.00  0.00    -0.049 C 
ATOM      5  H   LIG d   1       3.642  -1.348  -2.676  0.00  0.00     0.027 H 
ATOM      6  H   LIG d   1       4.078  -1.452  -0.937  0.00  0.00     0.027 H 
BRANCH   4   7
ATOM      7  C   LIG d   1       5.754  -1.599  -2.294  0.00  0.00    -0.026 C 
ATOM      8  H   LIG d   1       5.985  -2.474  -1.669  0.00  0.00     0.031 H 
ATOM      9  H   LIG d   1       6.517  -0.822  -2.132  0.00  0.00     0.031 H 
BRANCH   7  10
ATOM     10  C   LIG d   1       5.752  -2.005  -3.746  0.00  0.00    -0.027 A 
ATOM     11  C   LIG d   1       6.704  -1.486  -4.614  0.00  0.00     0.028 A 
ATOM     12  C   LIG d   1       6.694  -1.859  -5.952  0.00  0.00    -0.041 A 
ATOM     13  C   LIG d   1       5.746  -2.750  -6.413  0.00  0.00    -0.060 A 
ATOM     14  H   LIG d   1       7.429  -1.453  -6.632  0.00  0.00     0.064 H 
ATOM     15  C   LIG d   1       4.800  -3.266  -5.545  0.00  0.00    -0.061 A 
ATOM     16  H   LIG d   1       5.740  -3.043  -7.453  0.00  0.00     0.062 H 
ATOM     17  C   LIG d   1       4.803  -2.893  -4.214  0.00  0.00    -0.057 A 
ATOM     18  H   LIG d   1       4.057  -3.960  -5.909  0.00  0.00     0.062 H 
ATOM     19  H   LIG d   1       4.063  -3.297  -3.538  0.00  0.00     0.062 H 
BRANCH  11  20
ATOM     20  N   LIG d   1       7.664  -0.587  -4.145  0.00  0.00    -0.358 N 
ATOM     21  H   LIG d   1       7.450   0.036  -3.263  0.00  0.00     0.142 HD
ATOM     22  H   LIG d   1       8.634  -0.502  -4.656  0.00  0.00     0.142 HD
ENDBRANCH  11  20
ENDBRANCH   7  10
ENDBRANCH   4   7
ENDBRANCH   1   4
BRANCH   1  23
ATOM     23  C   LIG d   1       3.470   1.080  -2.857  0.00  0.00    -0.053 C 
ATOM     24  H   LIG d   1       2.773   1.756  -2.341  0.00  0.00     0.026 H 
ATOM     25  H   LIG d   1       4.034   1.643  -3.614  0.00  0.00     0.026 H 
BRANCH  23  26
ATOM     26  C   LIG d   1       2.685  -0.043  -3.537  0.00  0.00    -0.053 C 
ATOM     27  H   LIG d   1       3.316  -0.941  -3.607  0.00  0.00     0.026 H 
ATOM     28  H   LIG d   1       1.785  -0.271  -2.948  0.00  0.00     0.026 H 
BRANCH  26  29
ATOM     29  C   LIG d   1       2.273   0.402  -4.942  0.00  0.00    -0.053 C 
ATOM     30  H   LIG d   1       1.409  -0.190  -5.277  0.00  0.00     0.026 H 
ATOM     31  H   LIG d   1       2.002   1.468  -4.924  0.00  0.00     0.026 H 
BRANCH  29  32
ATOM     32  C   LIG d   1       3.442   0.190  -5.907  0.00  0.00    -0.048 C 
ATOM     33  H   LIG d   1       3.989   1.136  -6.035  0.00  0.00     0.027 H 
ATOM     34  H   LIG d   1       4.120  -0.573  -5.500  0.00  0.00     0.027 H 
BRANCH  32  35
ATOM     35  C   LIG d   1       2.905  -0.275  -7.263  0.00  0.00    -0.013 C 
ATOM     36  H   LIG d   1       3.565  -1.057  -7.668  0.00  0.00     0.033 H 
ATOM     37  H   LIG d   1       1.891  -0.680  -7.136  0.00  0.00     0.033 H 
BRANCH  35  38
ATOM     38  C   LIG d   1       2.866   0.893  -8.214  0.00  0.00     0.042 C 
ATOM     39  O   LIG d   1       3.117   2.005  -7.817  0.00  0.00    -0.550 OA
ATOM     40  O   LIG d   1       2.551   0.696  -9.505  0.00  0.00    -0.550 OA
ENDBRANCH  35  38
ENDBRANCH  32  35
ENDBRANCH  29  32
ENDBRANCH  26  29
ENDBRANCH  23  26
ENDBRANCH   1  23
TORSDOF 10
ENDMDL
MODEL 8
REMARK VINA RESULT:      -5.4      2.730      3.817
REMARK  10 active torsions:
REMARK  status: ('A' for Active; 'I' for Inactive)
REMARK    1  A    between atoms: C_4  and  N_18 
REMARK    2  A    between atoms: C_5  and  C_7 
REMARK    3  A    between atoms: C_7  and  C_8 
REMARK    4  A    between atoms: C_8  and  C_9 
REMARK    5  A    between atoms: C_9  and  C_10 
REMARK    6  A    between atoms: C_10  and  C_11 
REMARK    7  A    between atoms: C_11  and  C_12 
REMARK    8  A    between atoms: C_12  and  C_13 
REMARK    9  A    between atoms: C_13  and  C_14 
REMARK   10  A    between atoms: C_14  and  C_15 
ROOT
ATOM      1  C   LIG d   1       2.472  -0.046  -7.562  0.00  0.00    -0.053 C 
ATOM      2  H   LIG d   1       2.582  -1.018  -8.063  0.00  0.00     0.026 H 
ATOM      3  H   LIG d   1       1.423   0.100  -7.266  0.00  0.00     0.026 H 
ENDROOT
BRANCH   1   4
ATOM      4  C   LIG d   1       3.362  -0.010  -6.318  0.00  0.00    -0.049 C 
ATOM      5  H   LIG d   1       4.150   0.746  -6.451  0.00  0.00     0.027 H 
ATOM      6  H   LIG d   1       3.823  -0.997  -6.167  0.00  0.00     0.027 H 
BRANCH   4   7
ATOM      7  C   LIG d   1       2.514   0.348  -5.096  0.00  0.00    -0.026 C 
ATOM      8  H   LIG d   1       1.541  -0.160  -5.161  0.00  0.00     0.031 H 
ATOM      9  H   LIG d   1       2.357   1.437  -5.064  0.00  0.00     0.031 H 
BRANCH   7  10
ATOM     10  C   LIG d   1       3.228  -0.092  -3.842  0.00  0.00    -0.027 A 
ATOM     11  C   LIG d   1       3.803   0.852  -3.002  0.00  0.00     0.028 A 
ATOM     12  C   LIG d   1       4.463   0.441  -1.851  0.00  0.00    -0.041 A 
ATOM     13  C   LIG d   1       4.538  -0.902  -1.542  0.00  0.00    -0.060 A 
ATOM     14  H   LIG d   1       4.916   1.173  -1.197  0.00  0.00     0.064 H 
ATOM     15  C   LIG d   1       3.964  -1.840  -2.381  0.00  0.00    -0.061 A 
ATOM     16  H   LIG d   1       5.050  -1.222  -0.645  0.00  0.00     0.062 H 
ATOM     17  C   LIG d   1       3.310  -1.435  -3.529  0.00  0.00    -0.057 A 
ATOM     18  H   LIG d   1       4.028  -2.890  -2.139  0.00  0.00     0.062 H 
ATOM     19  H   LIG d   1       2.863  -2.169  -4.183  0.00  0.00     0.062 H 
BRANCH  11  20
ATOM     20  N   LIG d   1       3.721   2.211  -3.315  0.00  0.00    -0.358 N 
ATOM     21  H   LIG d   1       4.397   2.643  -4.068  0.00  0.00     0.142 HD
ATOM     22  H   LIG d   1       2.981   2.848  -2.810  0.00  0.00     0.142 HD
ENDBRANCH  11  20
ENDBRANCH   7  10
ENDBRANCH   4   7
ENDBRANCH   1   4
BRANCH   1  23
ATOM     23  C   LIG d   1       2.891   1.072  -8.520  0.00  0.00    -0.053 C 
ATOM     24  H   LIG d   1       2.223   1.936  -8.390  0.00  0.00     0.026 H 
ATOM     25  H   LIG d   1       3.926   1.374  -8.301  0.00  0.00     0.026 H 
BRANCH  23  26
ATOM     26  C   LIG d   1       2.802   0.567  -9.961  0.00  0.00    -0.053 C 
ATOM     27  H   LIG d   1       2.620   1.416 -10.636  0.00  0.00     0.026 H 
ATOM     28  H   LIG d   1       3.746   0.076 -10.237  0.00  0.00     0.026 H 
BRANCH  26  29
ATOM     29  C   LIG d   1       1.652  -0.436 -10.079  0.00  0.00    -0.053 C 
ATOM     30  H   LIG d   1       1.332  -0.747  -9.075  0.00  0.00     0.026 H 
ATOM     31  H   LIG d   1       0.808   0.035 -10.604  0.00  0.00     0.026 H 
BRANCH  29  32
ATOM     32  C   LIG d   1       2.123  -1.659 -10.867  0.00  0.00    -0.048 C 
ATOM     33  H   LIG d   1       1.482  -1.796 -11.751  0.00  0.00     0.027 H 
ATOM     34  H   LIG d   1       3.164  -1.511 -11.189  0.00  0.00     0.027 H 
BRANCH  32  35
ATOM     35  C   LIG d   1       2.036  -2.903  -9.979  0.00  0.00    -0.013 C 
ATOM     36  H   LIG d   1       1.288  -2.736  -9.188  0.00  0.00     0.033 H 
ATOM     37  H   LIG d   1       1.738  -3.768 -10.588  0.00  0.00     0.033 H 
BRANCH  35  38
ATOM     38  C   LIG d   1       3.380  -3.166  -9.351  0.00  0.00     0.042 C 
ATOM     39  O   LIG d   1       4.370  -2.641  -9.802  0.00  0.00    -0.550 OA
ATOM     40  O   LIG d   1       3.477  -3.985  -8.292  0.00  0.00    -0.550 OA
ENDBRANCH  35  38
ENDBRANCH  32  35
ENDBRANCH  29  32
ENDBRANCH  26  29
ENDBRANCH  23  26
ENDBRANCH   1  23
TORSDOF 10
ENDMDL
MODEL 9
REMARK VINA RESULT:      -5.3      3.343      6.591
REMARK  10 active torsions:
REMARK  status: ('A' for Active; 'I' for Inactive)
REMARK    1  A    between atoms: C_4  and  N_18 
REMARK    2  A    between atoms: C_5  and  C_7 
REMARK    3  A    between atoms: C_7  and  C_8 
REMARK    4  A    between atoms: C_8  and  C_9 
REMARK    5  A    between atoms: C_9  and  C_10 
REMARK    6  A    between atoms: C_10  and  C_11 
REMARK    7  A    between atoms: C_11  and  C_12 
REMARK    8  A    between atoms: C_12  and  C_13 
REMARK    9  A    between atoms: C_13  and  C_14 
REMARK   10  A    between atoms: C_14  and  C_15 
ROOT
ATOM      1  C   LIG d   1       1.983   0.299  -4.959  0.00  0.00    -0.053 C 
ATOM      2  H   LIG d   1       1.805   1.375  -4.818  0.00  0.00     0.026 H 
ATOM      3  H   LIG d   1       1.041  -0.197  -5.234  0.00  0.00     0.026 H 
ENDROOT
BRANCH   1   4
ATOM      4  C   LIG d   1       3.010   0.095  -6.075  0.00  0.00    -0.049 C 
ATOM      5  H   LIG d   1       2.770  -0.823  -6.632  0.00  0.00     0.027 H 
ATOM      6  H   LIG d   1       4.015   0.004  -5.637  0.00  0.00     0.027 H 
BRANCH   4   7
ATOM      7  C   LIG d   1       2.975   1.293  -7.026  0.00  0.00    -0.026 C 
ATOM      8  H   LIG d   1       3.859   1.924  -6.855  0.00  0.00     0.031 H 
ATOM      9  H   LIG d   1       2.063   1.881  -6.840  0.00  0.00     0.031 H 
BRANCH   7  10
ATOM     10  C   LIG d   1       2.975   0.803  -8.452  0.00  0.00    -0.027 A 
ATOM     11  C   LIG d   1       3.714   1.474  -9.417  0.00  0.00     0.028 A 
ATOM     12  C   LIG d   1       3.706   1.022 -10.730  0.00  0.00    -0.041 A 
ATOM     13  C   LIG d   1       2.973  -0.096 -11.070  0.00  0.00    -0.060 A 
ATOM     14  H   LIG d   1       4.277   1.545 -11.485  0.00  0.00     0.064 H 
ATOM     15  C   LIG d   1       2.237  -0.762 -10.106  0.00  0.00    -0.061 A 
ATOM     16  H   LIG d   1       2.969  -0.450 -12.091  0.00  0.00     0.062 H 
ATOM     17  C   LIG d   1       2.239  -0.313  -8.800  0.00  0.00    -0.057 A 
ATOM     18  H   LIG d   1       1.661  -1.635 -10.376  0.00  0.00     0.062 H 
ATOM     19  H   LIG d   1       1.664  -0.835  -8.049  0.00  0.00     0.062 H 
BRANCH  11  20
ATOM     20  N   LIG d   1       4.459   2.604  -9.069  0.00  0.00    -0.358 N 
ATOM     21  H   LIG d   1       4.209   3.168  -8.159  0.00  0.00     0.142 HD
ATOM     22  H   LIG d   1       5.296   2.927  -9.705  0.00  0.00     0.142 HD
ENDBRANCH  11  20
ENDBRANCH   7  10
ENDBRANCH   4   7
ENDBRANCH   1   4
BRANCH   1  23
ATOM     23  C   LIG d   1       2.517  -0.306  -3.659  0.00  0.00    -0.053 C 
ATOM     24  H   LIG d   1       1.704  -0.364  -2.921  0.00  0.00     0.026 H 
ATOM     25  H   LIG d   1       2.905  -1.316  -3.857  0.00  0.00     0.026 H 
BRANCH  23  26
ATOM     26  C   LIG d   1       3.642   0.574  -3.112  0.00  0.00    -0.053 C 
ATOM     27  H   LIG d   1       4.421   0.692  -3.879  0.00  0.00     0.026 H 
ATOM     28  H   LIG d   1       3.239   1.561  -2.843  0.00  0.00     0.026 H 
BRANCH  26  29
ATOM     29  C   LIG d   1       4.245  -0.085  -1.869  0.00  0.00    -0.053 C 
ATOM     30  H   LIG d   1       5.197   0.406  -1.619  0.00  0.00     0.026 H 
ATOM     31  H   LIG d   1       3.547   0.017  -1.025  0.00  0.00     0.026 H 
BRANCH  29  32
ATOM     32  C   LIG d   1       4.494  -1.568  -2.148  0.00  0.00    -0.048 C 
ATOM     33  H   LIG d   1       4.712  -2.089  -1.204  0.00  0.00     0.027 H 
ATOM     34  H   LIG d   1       3.600  -2.009  -2.612  0.00  0.00     0.027 H 
BRANCH  32  35
ATOM     35  C   LIG d   1       5.686  -1.715  -3.097  0.00  0.00    -0.013 C 
ATOM     36  H   LIG d   1       5.846  -0.768  -3.633  0.00  0.00     0.033 H 
ATOM     37  H   LIG d   1       6.587  -1.965  -2.517  0.00  0.00     0.033 H 
BRANCH  35  38
ATOM     38  C   LIG d   1       5.405  -2.814  -4.089  0.00  0.00     0.042 C 
ATOM     39  O   LIG d   1       4.265  -3.119  -4.346  0.00  0.00    -0.550 OA
ATOM     40  O   LIG d   1       6.423  -3.453  -4.687  0.00  0.00    -0.550 OA
ENDBRANCH  35  38
ENDBRANCH  32  35
ENDBRANCH  29  32
ENDBRANCH  26  29
ENDBRANCH  23  26
ENDBRANCH   1  23
TORSDOF 10
ENDMDL
