MODEL 1
REMARK VINA RESULT:      -6.6      0.000      0.000
REMARK  4 active torsions:
REMARK  status: ('A' for Active; 'I' for Inactive)
REMARK    1  A    between atoms: C_4  and  N_7 
REMARK       I    between atoms: N_7  and  C_8 
REMARK       I    between atoms: C_8  and  N_10 
REMARK    2  A    between atoms: N_10  and  C_11 
REMARK    3  A    between atoms: C_11  and  C_13 
REMARK    4  A    between atoms: C_11  and  O_17 
ROOT
ATOM      1  N   LIG d   1       2.488  -0.126  -5.222  0.00  0.00    -0.269 N 
ATOM      2  C   LIG d   1       3.188   0.173  -6.335  0.00  0.00     0.306 C 
ATOM      3  O   LIG d   1       4.401   0.234  -6.292  0.00  0.00    -0.252 OA
ATOM      4  N   LIG d   1       2.541   0.404  -7.495  0.00  0.00    -0.270 N 
ATOM      5  H   LIG d   1       1.528  -0.250  -5.272  0.00  0.00     0.156 HD
ATOM      6  H   LIG d   1       1.573   0.356  -7.528  0.00  0.00     0.153 HD
ENDROOT
BRANCH   1   7
ATOM      7  C   LIG d   1       3.149  -0.257  -3.995  0.00  0.00     0.035 A 
ATOM      8  C   LIG d   1       3.471   0.872  -3.255  0.00  0.00    -0.040 A 
ATOM      9  C   LIG d   1       4.118   0.740  -2.042  0.00  0.00    -0.060 A 
ATOM     10  H   LIG d   1       3.212   1.854  -3.624  0.00  0.00     0.064 H 
ATOM     11  C   LIG d   1       4.455  -0.516  -1.570  0.00  0.00    -0.062 A 
ATOM     12  H   LIG d   1       4.366   1.618  -1.464  0.00  0.00     0.062 H 
ATOM     13  C   LIG d   1       4.136  -1.643  -2.306  0.00  0.00    -0.060 A 
ATOM     14  H   LIG d   1       4.965  -0.617  -0.623  0.00  0.00     0.062 H 
ATOM     15  C   LIG d   1       3.484  -1.516  -3.517  0.00  0.00    -0.040 A 
ATOM     16  H   LIG d   1       4.397  -2.622  -1.932  0.00  0.00     0.062 H 
ATOM     17  H   LIG d   1       3.235  -2.397  -4.090  0.00  0.00     0.064 H 
ENDBRANCH   1   7
BRANCH   4  18
ATOM     18  C   LIG d   1       3.302   0.730  -8.704  0.00  0.00     0.170 C 
ATOM     19  H   LIG d   1       4.365   0.765  -8.466  0.00  0.00     0.085 H 
BRANCH  18  20
ATOM     20  C   LIG d   1       3.052  -0.342  -9.767  0.00  0.00     0.232 C 
ATOM     21 CL   LIG d   1       3.934  -1.850  -9.319  0.00  0.00    -0.079 Cl
ATOM     22 CL   LIG d   1       1.286  -0.688  -9.870  0.00  0.00    -0.079 Cl
ATOM     23 CL   LIG d   1       3.643   0.248 -11.365  0.00  0.00    -0.079 Cl
ENDBRANCH  18  20
BRANCH  18  24
ATOM     24  O   LIG d   1       2.883   2.002  -9.203  0.00  0.00    -0.370 OA
ATOM     25  H   LIG d   1       3.139   2.748  -8.643  0.00  0.00     0.212 HD
ENDBRANCH  18  24
ENDBRANCH   4  18
TORSDOF 4
ENDMDL
MODEL 2
REMARK VINA RESULT:      -6.6      0.012      1.750
REMARK  4 active torsions:
REMARK  status: ('A' for Active; 'I' for Inactive)
REMARK    1  A    between atoms: C_4  and  N_7 
REMARK       I    between atoms: N_7  and  C_8 
REMARK       I    between atoms: C_8  and  N_10 
REMARK    2  A    between atoms: N_10  and  C_11 
REMARK    3  A    between atoms: C_11  and  C_13 
REMARK    4  A    between atoms: C_11  and  O_17 
ROOT
ATOM      1  N   LIG d   1       2.491  -0.127  -5.228  0.00  0.00    -0.269 N 
ATOM      2  C   LIG d   1       3.189   0.176  -6.340  0.00  0.00     0.306 C 
ATOM      3  O   LIG d   1       4.401   0.246  -6.297  0.00  0.00    -0.252 OA
ATOM      4  N   LIG d   1       2.541   0.402  -7.501  0.00  0.00    -0.270 N 
ATOM      5  H   LIG d   1       1.532  -0.259  -5.278  0.00  0.00     0.156 HD
ATOM      6  H   LIG d   1       1.573   0.346  -7.535  0.00  0.00     0.153 HD
ENDROOT
BRANCH   1   7
ATOM      7  C   LIG d   1       3.152  -0.252  -4.000  0.00  0.00     0.035 A 
ATOM      8  C   LIG d   1       3.494  -1.509  -3.520  0.00  0.00    -0.040 A 
ATOM      9  C   LIG d   1       4.151  -1.629  -2.311  0.00  0.00    -0.060 A 
ATOM     10  H   LIG d   1       3.251  -2.392  -4.093  0.00  0.00     0.064 H 
ATOM     11  C   LIG d   1       4.458  -0.500  -1.574  0.00  0.00    -0.062 A 
ATOM     12  H   LIG d   1       4.420  -2.606  -1.938  0.00  0.00     0.062 H 
ATOM     13  C   LIG d   1       4.117   0.753  -2.050  0.00  0.00    -0.060 A 
ATOM     14  H   LIG d   1       4.968  -0.597  -0.627  0.00  0.00     0.062 H 
ATOM     15  C   LIG d   1       3.465   0.880  -3.261  0.00  0.00    -0.040 A 
ATOM     16  H   LIG d   1       4.363   1.634  -1.474  0.00  0.00     0.062 H 
ATOM     17  H   LIG d   1       3.201   1.859  -3.632  0.00  0.00     0.064 H 
ENDBRANCH   1   7
BRANCH   4  18
ATOM     18  C   LIG d   1       3.300   0.732  -8.710  0.00  0.00     0.170 C 
ATOM     19  H   LIG d   1       4.363   0.770  -8.472  0.00  0.00     0.085 H 
BRANCH  18  20
ATOM     20  C   LIG d   1       3.054  -0.339  -9.775  0.00  0.00     0.232 C 
ATOM     21 CL   LIG d   1       1.288  -0.693  -9.875  0.00  0.00    -0.079 Cl
ATOM     22 CL   LIG d   1       3.639   0.256 -11.373  0.00  0.00    -0.079 Cl
ATOM     23 CL   LIG d   1       3.944  -1.843  -9.331  0.00  0.00    -0.079 Cl
ENDBRANCH  18  20
BRANCH  18  24
ATOM     24  O   LIG d   1       2.876   2.004  -9.207  0.00  0.00    -0.370 OA
ATOM     25  H   LIG d   1       3.059   2.139 -10.147  0.00  0.00     0.212 HD
ENDBRANCH  18  24
ENDBRANCH   4  18
TORSDOF 4
ENDMDL
MODEL 3
REMARK VINA RESULT:      -6.3      1.678      1.946
REMARK  4 active torsions:
REMARK  status: ('A' for Active; 'I' for Inactive)
REMARK    1  A    between atoms: C_4  and  N_7 
REMARK       I    between atoms: N_7  and  C_8 
REMARK       I    between atoms: C_8  and  N_10 
REMARK    2  A    between atoms: N_10  and  C_11 
REMARK    3  A    between atoms: C_11  and  C_13 
REMARK    4  A    between atoms: C_11  and  O_17 
ROOT
ATOM      1  N   LIG d   1       2.734  -0.230  -5.283  0.00  0.00    -0.269 N 
ATOM      2  C   LIG d   1       3.522  -0.206  -6.376  0.00  0.00     0.306 C 
ATOM      3  O   LIG d   1       4.731  -0.177  -6.254  0.00  0.00    -0.252 OA
ATOM      4  N   LIG d   1       2.968  -0.215  -7.606  0.00  0.00    -0.270 N 
ATOM      5  H   LIG d   1       1.775  -0.331  -5.379  0.00  0.00     0.156 HD
ATOM      6  H   LIG d   1       2.003  -0.239  -7.702  0.00  0.00     0.153 HD
ENDROOT
BRANCH   1   7
ATOM      7  C   LIG d   1       3.303  -0.109  -4.009  0.00  0.00     0.035 A 
ATOM      8  C   LIG d   1       3.470   1.146  -3.439  0.00  0.00    -0.040 A 
ATOM      9  C   LIG d   1       4.026   1.262  -2.180  0.00  0.00    -0.060 A 
ATOM     10  H   LIG d   1       3.161   2.031  -3.977  0.00  0.00     0.064 H 
ATOM     11  C   LIG d   1       4.427   0.131  -1.493  0.00  0.00    -0.062 A 
ATOM     12  H   LIG d   1       4.154   2.237  -1.734  0.00  0.00     0.062 H 
ATOM     13  C   LIG d   1       4.262  -1.120  -2.059  0.00  0.00    -0.060 A 
ATOM     14  H   LIG d   1       4.865   0.224  -0.510  0.00  0.00     0.062 H 
ATOM     15  C   LIG d   1       3.701  -1.243  -3.315  0.00  0.00    -0.040 A 
ATOM     16  H   LIG d   1       4.572  -2.002  -1.517  0.00  0.00     0.062 H 
ATOM     17  H   LIG d   1       3.573  -2.221  -3.756  0.00  0.00     0.064 H 
ENDBRANCH   1   7
BRANCH   4  18
ATOM     18  C   LIG d   1       3.824  -0.188  -8.794  0.00  0.00     0.170 C 
ATOM     19  H   LIG d   1       3.349  -0.752  -9.597  0.00  0.00     0.085 H 
BRANCH  18  20
ATOM     20  C   LIG d   1       4.028   1.261  -9.242  0.00  0.00     0.232 C 
ATOM     21 CL   LIG d   1       3.812   1.375 -11.028  0.00  0.00    -0.079 Cl
ATOM     22 CL   LIG d   1       2.820   2.320  -8.422  0.00  0.00    -0.079 Cl
ATOM     23 CL   LIG d   1       5.693   1.797  -8.802  0.00  0.00    -0.079 Cl
ENDBRANCH  18  20
BRANCH  18  24
ATOM     24  O   LIG d   1       5.090  -0.773  -8.484  0.00  0.00    -0.370 OA
ATOM     25  H   LIG d   1       5.057  -1.730  -8.344  0.00  0.00     0.212 HD
ENDBRANCH  18  24
ENDBRANCH   4  18
TORSDOF 4
ENDMDL
MODEL 4
REMARK VINA RESULT:      -6.2      3.701      6.574
REMARK  4 active torsions:
REMARK  status: ('A' for Active; 'I' for Inactive)
REMARK    1  A    between atoms: C_4  and  N_7 
REMARK       I    between atoms: N_7  and  C_8 
REMARK       I    between atoms: C_8  and  N_10 
REMARK    2  A    between atoms: N_10  and  C_11 
REMARK    3  A    between atoms: C_11  and  C_13 
REMARK    4  A    between atoms: C_11  and  O_17 
ROOT
ATOM      1  N   LIG d   1       3.154   0.860  -7.388  0.00  0.00    -0.269 N 
ATOM      2  C   LIG d   1       3.643  -0.037  -6.509  0.00  0.00     0.306 C 
ATOM      3  O   LIG d   1       4.122  -1.080  -6.908  0.00  0.00    -0.252 OA
ATOM      4  N   LIG d   1       3.602   0.225  -5.187  0.00  0.00    -0.270 N 
ATOM      5  H   LIG d   1       2.842   1.724  -7.077  0.00  0.00     0.156 HD
ATOM      6  H   LIG d   1       3.219   1.058  -4.869  0.00  0.00     0.153 HD
ENDROOT
BRANCH   1   7
ATOM      7  C   LIG d   1       3.095   0.543  -8.751  0.00  0.00     0.035 A 
ATOM      8  C   LIG d   1       4.021   1.085  -9.631  0.00  0.00    -0.040 A 
ATOM      9  C   LIG d   1       3.965   0.766 -10.974  0.00  0.00    -0.060 A 
ATOM     10  H   LIG d   1       4.789   1.752  -9.266  0.00  0.00     0.064 H 
ATOM     11  C   LIG d   1       2.979  -0.083 -11.443  0.00  0.00    -0.062 A 
ATOM     12  H   LIG d   1       4.687   1.185 -11.659  0.00  0.00     0.062 H 
ATOM     13  C   LIG d   1       2.054  -0.624 -10.568  0.00  0.00    -0.060 A 
ATOM     14  H   LIG d   1       2.934  -0.328 -12.494  0.00  0.00     0.062 H 
ATOM     15  C   LIG d   1       2.110  -0.313  -9.223  0.00  0.00    -0.040 A 
ATOM     16  H   LIG d   1       1.288  -1.291 -10.937  0.00  0.00     0.062 H 
ATOM     17  H   LIG d   1       1.387  -0.737  -8.541  0.00  0.00     0.064 H 
ENDBRANCH   1   7
BRANCH   4  18
ATOM     18  C   LIG d   1       4.133  -0.750  -4.231  0.00  0.00     0.170 C 
ATOM     19  H   LIG d   1       5.008  -1.239  -4.659  0.00  0.00     0.085 H 
BRANCH  18  20
ATOM     20  C   LIG d   1       4.531  -0.032  -2.940  0.00  0.00     0.232 C 
ATOM     21 CL   LIG d   1       3.370   1.308  -2.614  0.00  0.00    -0.079 Cl
ATOM     22 CL   LIG d   1       4.499  -1.201  -1.567  0.00  0.00    -0.079 Cl
ATOM     23 CL   LIG d   1       6.195   0.642  -3.116  0.00  0.00    -0.079 Cl
ENDBRANCH  18  20
BRANCH  18  24
ATOM     24  O   LIG d   1       3.133  -1.729  -3.943  0.00  0.00    -0.370 OA
ATOM     25  H   LIG d   1       3.396  -2.374  -3.272  0.00  0.00     0.212 HD
ENDBRANCH  18  24
ENDBRANCH   4  18
TORSDOF 4
ENDMDL
MODEL 5
REMARK VINA RESULT:      -6.1      1.289      1.874
REMARK  4 active torsions:
REMARK  status: ('A' for Active; 'I' for Inactive)
REMARK    1  A    between atoms: C_4  and  N_7 
REMARK       I    between atoms: N_7  and  C_8 
REMARK       I    between atoms: C_8  and  N_10 
REMARK    2  A    between atoms: N_10  and  C_11 
REMARK    3  A    between atoms: C_11  and  C_13 
REMARK    4  A    between atoms: C_11  and  O_17 
ROOT
ATOM      1  N   LIG d   1       3.212   0.367  -5.235  0.00  0.00    -0.269 N 
ATOM      2  C   LIG d   1       3.926   0.074  -6.340  0.00  0.00     0.306 C 
ATOM      3  O   LIG d   1       4.897  -0.653  -6.261  0.00  0.00    -0.252 OA
ATOM      4  N   LIG d   1       3.563   0.588  -7.532  0.00  0.00    -0.270 N 
ATOM      5  H   LIG d   1       2.395   0.884  -5.309  0.00  0.00     0.156 HD
ATOM      6  H   LIG d   1       2.789   1.169  -7.595  0.00  0.00     0.153 HD
ENDROOT
BRANCH   1   7
ATOM      7  C   LIG d   1       3.651  -0.075  -3.981  0.00  0.00     0.035 A 
ATOM      8  C   LIG d   1       3.486  -1.404  -3.616  0.00  0.00    -0.040 A 
ATOM      9  C   LIG d   1       3.925  -1.838  -2.380  0.00  0.00    -0.060 A 
ATOM     10  H   LIG d   1       3.019  -2.099  -4.299  0.00  0.00     0.064 H 
ATOM     11  C   LIG d   1       4.517  -0.948  -1.503  0.00  0.00    -0.062 A 
ATOM     12  H   LIG d   1       3.800  -2.873  -2.097  0.00  0.00     0.062 H 
ATOM     13  C   LIG d   1       4.682   0.377  -1.865  0.00  0.00    -0.060 A 
ATOM     14  H   LIG d   1       4.855  -1.289  -0.536  0.00  0.00     0.062 H 
ATOM     15  C   LIG d   1       4.250   0.816  -3.101  0.00  0.00    -0.040 A 
ATOM     16  H   LIG d   1       5.149   1.069  -1.179  0.00  0.00     0.062 H 
ATOM     17  H   LIG d   1       4.380   1.850  -3.382  0.00  0.00     0.064 H 
ENDBRANCH   1   7
BRANCH   4  18
ATOM     18  C   LIG d   1       4.341   0.271  -8.733  0.00  0.00     0.170 C 
ATOM     19  H   LIG d   1       4.486  -0.808  -8.797  0.00  0.00     0.085 H 
BRANCH  18  20
ATOM     20  C   LIG d   1       3.586   0.757  -9.972  0.00  0.00     0.232 C 
ATOM     21 CL   LIG d   1       4.475   0.250 -11.456  0.00  0.00    -0.079 Cl
ATOM     22 CL   LIG d   1       1.931   0.040  -9.988  0.00  0.00    -0.079 Cl
ATOM     23 CL   LIG d   1       3.460   2.556  -9.931  0.00  0.00    -0.079 Cl
ENDBRANCH  18  20
BRANCH  18  24
ATOM     24  O   LIG d   1       5.612   0.920  -8.665  0.00  0.00    -0.370 OA
ATOM     25  H   LIG d   1       6.364   0.324  -8.780  0.00  0.00     0.212 HD
ENDBRANCH  18  24
ENDBRANCH   4  18
TORSDOF 4
ENDMDL
MODEL 6
REMARK VINA RESULT:      -5.7      3.751      6.555
REMARK  4 active torsions:
REMARK  status: ('A' for Active; 'I' for Inactive)
REMARK    1  A    between atoms: C_4  and  N_7 
REMARK       I    between atoms: N_7  and  C_8 
REMARK       I    between atoms: C_8  and  N_10 
REMARK    2  A    between atoms: N_10  and  C_11 
REMARK    3  A    between atoms: C_11  and  C_13 
REMARK    4  A    between atoms: C_11  and  O_17 
ROOT
ATOM      1  N   LIG d   1       3.603  -1.582  -7.424  0.00  0.00    -0.269 N 
ATOM      2  C   LIG d   1       3.874  -0.654  -6.484  0.00  0.00     0.306 C 
ATOM      3  O   LIG d   1       3.810   0.528  -6.761  0.00  0.00    -0.252 OA
ATOM      4  N   LIG d   1       4.217  -1.038  -5.238  0.00  0.00    -0.270 N 
ATOM      5  H   LIG d   1       3.579  -2.521  -7.185  0.00  0.00     0.156 HD
ATOM      6  H   LIG d   1       4.269  -1.982  -5.019  0.00  0.00     0.153 HD
ENDROOT
BRANCH   1   7
ATOM      7  C   LIG d   1       3.355  -1.188  -8.744  0.00  0.00     0.035 A 
ATOM      8  C   LIG d   1       4.409  -1.046  -9.637  0.00  0.00    -0.040 A 
ATOM      9  C   LIG d   1       4.162  -0.663 -10.940  0.00  0.00    -0.060 A 
ATOM     10  H   LIG d   1       5.422  -1.241  -9.314  0.00  0.00     0.064 H 
ATOM     11  C   LIG d   1       2.867  -0.409 -11.354  0.00  0.00    -0.062 A 
ATOM     12  H   LIG d   1       4.981  -0.556 -11.636  0.00  0.00     0.062 H 
ATOM     13  C   LIG d   1       1.815  -0.548 -10.466  0.00  0.00    -0.060 A 
ATOM     14  H   LIG d   1       2.676  -0.105 -12.372  0.00  0.00     0.062 H 
ATOM     15  C   LIG d   1       2.056  -0.936  -9.163  0.00  0.00    -0.040 A 
ATOM     16  H   LIG d   1       0.804  -0.352 -10.794  0.00  0.00     0.062 H 
ATOM     17  H   LIG d   1       1.234  -1.045  -8.471  0.00  0.00     0.064 H 
ENDBRANCH   1   7
BRANCH   4  18
ATOM     18  C   LIG d   1       4.513  -0.030  -4.218  0.00  0.00     0.170 C 
ATOM     19  H   LIG d   1       3.677   0.664  -4.140  0.00  0.00     0.085 H 
BRANCH  18  20
ATOM     20  C   LIG d   1       4.730  -0.720  -2.869  0.00  0.00     0.232 C 
ATOM     21 CL   LIG d   1       4.680   0.509  -1.550  0.00  0.00    -0.079 Cl
ATOM     22 CL   LIG d   1       3.431  -1.941  -2.601  0.00  0.00    -0.079 Cl
ATOM     23 CL   LIG d   1       6.336  -1.540  -2.865  0.00  0.00    -0.079 Cl
ENDBRANCH  18  20
BRANCH  18  24
ATOM     24  O   LIG d   1       5.696   0.685  -4.582  0.00  0.00    -0.370 OA
ATOM     25  H   LIG d   1       6.120   0.359  -5.387  0.00  0.00     0.212 HD
ENDBRANCH  18  24
ENDBRANCH   4  18
TORSDOF 4
ENDMDL
MODEL 7
REMARK VINA RESULT:      -5.6      4.282      5.016
REMARK  4 active torsions:
REMARK  status: ('A' for Active; 'I' for Inactive)
REMARK    1  A    between atoms: C_4  and  N_7 
REMARK       I    between atoms: N_7  and  C_8 
REMARK       I    between atoms: C_8  and  N_10 
REMARK    2  A    between atoms: N_10  and  C_11 
REMARK    3  A    between atoms: C_11  and  C_13 
REMARK    4  A    between atoms: C_11  and  O_17 
ROOT
ATOM      1  N   LIG d   1       3.963  -2.614  -3.367  0.00  0.00    -0.269 N 
ATOM      2  C   LIG d   1       4.288  -2.988  -4.621  0.00  0.00     0.306 C 
ATOM      3  O   LIG d   1       4.638  -2.154  -5.433  0.00  0.00    -0.252 OA
ATOM      4  N   LIG d   1       4.226  -4.288  -4.973  0.00  0.00    -0.270 N 
ATOM      5  H   LIG d   1       3.759  -3.286  -2.698  0.00  0.00     0.156 HD
ATOM      6  H   LIG d   1       3.946  -4.953  -4.324  0.00  0.00     0.153 HD
ENDROOT
BRANCH   1   7
ATOM      7  C   LIG d   1       3.921  -1.255  -3.032  0.00  0.00     0.035 A 
ATOM      8  C   LIG d   1       4.698  -0.773  -1.987  0.00  0.00    -0.040 A 
ATOM      9  C   LIG d   1       4.659   0.569  -1.662  0.00  0.00    -0.060 A 
ATOM     10  H   LIG d   1       5.337  -1.445  -1.432  0.00  0.00     0.064 H 
ATOM     11  C   LIG d   1       3.838   1.429  -2.369  0.00  0.00    -0.062 A 
ATOM     12  H   LIG d   1       5.265   0.946  -0.852  0.00  0.00     0.062 H 
ATOM     13  C   LIG d   1       3.063   0.951  -3.409  0.00  0.00    -0.060 A 
ATOM     14  H   LIG d   1       3.806   2.477  -2.110  0.00  0.00     0.062 H 
ATOM     15  C   LIG d   1       3.102  -0.389  -3.742  0.00  0.00    -0.040 A 
ATOM     16  H   LIG d   1       2.426   1.626  -3.962  0.00  0.00     0.062 H 
ATOM     17  H   LIG d   1       2.497  -0.761  -4.556  0.00  0.00     0.064 H 
ENDBRANCH   1   7
BRANCH   4  18
ATOM     18  C   LIG d   1       4.577  -4.695  -6.336  0.00  0.00     0.170 C 
ATOM     19  H   LIG d   1       4.974  -3.837  -6.879  0.00  0.00     0.085 H 
BRANCH  18  20
ATOM     20  C   LIG d   1       5.637  -5.798  -6.280  0.00  0.00     0.232 C 
ATOM     21 CL   LIG d   1       7.086  -5.195  -5.392  0.00  0.00    -0.079 Cl
ATOM     22 CL   LIG d   1       4.964  -7.236  -5.427  0.00  0.00    -0.079 Cl
ATOM     23 CL   LIG d   1       6.109  -6.261  -7.958  0.00  0.00    -0.079 Cl
ENDBRANCH  18  20
BRANCH  18  24
ATOM     24  O   LIG d   1       3.413  -5.186  -7.003  0.00  0.00    -0.370 OA
ATOM     25  H   LIG d   1       2.584  -4.984  -6.548  0.00  0.00     0.212 HD
ENDBRANCH  18  24
ENDBRANCH   4  18
TORSDOF 4
ENDMDL
MODEL 8
REMARK VINA RESULT:      -5.3      5.771      6.579
REMARK  4 active torsions:
REMARK  status: ('A' for Active; 'I' for Inactive)
REMARK    1  A    between atoms: C_4  and  N_7 
REMARK       I    between atoms: N_7  and  C_8 
REMARK       I    between atoms: C_8  and  N_10 
REMARK    2  A    between atoms: N_10  and  C_11 
REMARK    3  A    between atoms: C_11  and  C_13 
REMARK    4  A    between atoms: C_11  and  O_17 
ROOT
ATOM      1  N   LIG d   1       7.173   0.034  -3.051  0.00  0.00    -0.269 N 
ATOM      2  C   LIG d   1       7.712   0.793  -4.025  0.00  0.00     0.306 C 
ATOM      3  O   LIG d   1       6.994   1.451  -4.752  0.00  0.00    -0.252 OA
ATOM      4  N   LIG d   1       9.050   0.822  -4.193  0.00  0.00    -0.270 N 
ATOM      5  H   LIG d   1       7.747  -0.430  -2.423  0.00  0.00     0.156 HD
ATOM      6  H   LIG d   1       9.623   0.297  -3.613  0.00  0.00     0.153 HD
ENDROOT
BRANCH   1   7
ATOM      7  C   LIG d   1       5.781  -0.084  -2.947  0.00  0.00     0.035 A 
ATOM      8  C   LIG d   1       5.038   0.939  -2.372  0.00  0.00    -0.040 A 
ATOM      9  C   LIG d   1       3.665   0.822  -2.275  0.00  0.00    -0.060 A 
ATOM     10  H   LIG d   1       5.532   1.827  -2.006  0.00  0.00     0.064 H 
ATOM     11  C   LIG d   1       3.032  -0.316  -2.739  0.00  0.00    -0.062 A 
ATOM     12  H   LIG d   1       3.086   1.619  -1.832  0.00  0.00     0.062 H 
ATOM     13  C   LIG d   1       3.770  -1.337  -3.311  0.00  0.00    -0.060 A 
ATOM     14  H   LIG d   1       1.959  -0.407  -2.658  0.00  0.00     0.062 H 
ATOM     15  C   LIG d   1       5.143  -1.223  -3.416  0.00  0.00    -0.040 A 
ATOM     16  H   LIG d   1       3.272  -2.223  -3.677  0.00  0.00     0.062 H 
ATOM     17  H   LIG d   1       5.718  -2.021  -3.863  0.00  0.00     0.064 H 
ENDBRANCH   1   7
BRANCH   4  18
ATOM     18  C   LIG d   1       9.637   1.646  -5.252  0.00  0.00     0.170 C 
ATOM     19  H   LIG d   1       8.856   1.953  -5.948  0.00  0.00     0.085 H 
BRANCH  18  20
ATOM     20  C   LIG d   1      10.284   2.887  -4.633  0.00  0.00     0.232 C 
ATOM     21 CL   LIG d   1       9.190   4.305  -4.845  0.00  0.00    -0.079 Cl
ATOM     22 CL   LIG d   1      10.568   2.603  -2.875  0.00  0.00    -0.079 Cl
ATOM     23 CL   LIG d   1      11.858   3.214  -5.451  0.00  0.00    -0.079 Cl
ENDBRANCH  18  20
BRANCH  18  24
ATOM     24  O   LIG d   1      10.628   0.890  -5.951  0.00  0.00    -0.370 OA
ATOM     25  H   LIG d   1      11.330   1.429  -6.341  0.00  0.00     0.212 HD
ENDBRANCH  18  24
ENDBRANCH   4  18
TORSDOF 4
ENDMDL
MODEL 9
REMARK VINA RESULT:      -5.1      5.559      6.162
REMARK  4 active torsions:
REMARK  status: ('A' for Active; 'I' for Inactive)
REMARK    1  A    between atoms: C_4  and  N_7 
REMARK       I    between atoms: N_7  and  C_8 
REMARK       I    between atoms: C_8  and  N_10 
REMARK    2  A    between atoms: N_10  and  C_11 
REMARK    3  A    between atoms: C_11  and  C_13 
REMARK    4  A    between atoms: C_11  and  O_17 
ROOT
ATOM      1  N   LIG d   1       6.544   0.948  -4.777  0.00  0.00    -0.269 N 
ATOM      2  C   LIG d   1       7.660   1.658  -4.519  0.00  0.00     0.306 C 
ATOM      3  O   LIG d   1       8.106   1.701  -3.389  0.00  0.00    -0.252 OA
ATOM      4  N   LIG d   1       8.281   2.322  -5.516  0.00  0.00    -0.270 N 
ATOM      5  H   LIG d   1       6.232   0.850  -5.690  0.00  0.00     0.156 HD
ATOM      6  H   LIG d   1       7.924   2.287  -6.417  0.00  0.00     0.153 HD
ENDROOT
BRANCH   1   7
ATOM      7  C   LIG d   1       5.837   0.350  -3.726  0.00  0.00     0.035 A 
ATOM      8  C   LIG d   1       5.161   1.140  -2.807  0.00  0.00    -0.040 A 
ATOM      9  C   LIG d   1       4.460   0.548  -1.774  0.00  0.00    -0.060 A 
ATOM     10  H   LIG d   1       5.178   2.216  -2.901  0.00  0.00     0.064 H 
ATOM     11  C   LIG d   1       4.441  -0.830  -1.650  0.00  0.00    -0.062 A 
ATOM     12  H   LIG d   1       3.930   1.161  -1.060  0.00  0.00     0.062 H 
ATOM     13  C   LIG d   1       5.115  -1.618  -2.565  0.00  0.00    -0.060 A 
ATOM     14  H   LIG d   1       3.896  -1.290  -0.839  0.00  0.00     0.062 H 
ATOM     15  C   LIG d   1       5.813  -1.032  -3.602  0.00  0.00    -0.040 A 
ATOM     16  H   LIG d   1       5.095  -2.694  -2.467  0.00  0.00     0.062 H 
ATOM     17  H   LIG d   1       6.339  -1.649  -4.316  0.00  0.00     0.064 H 
ENDBRANCH   1   7
BRANCH   4  18
ATOM     18  C   LIG d   1       9.493   3.095  -5.235  0.00  0.00     0.170 C 
ATOM     19  H   LIG d   1      10.259   2.435  -4.827  0.00  0.00     0.085 H 
BRANCH  18  20
ATOM     20  C   LIG d   1      10.004   3.729  -6.531  0.00  0.00     0.232 C 
ATOM     21 CL   LIG d   1       9.777   5.516  -6.456  0.00  0.00    -0.079 Cl
ATOM     22 CL   LIG d   1      11.756   3.354  -6.734  0.00  0.00    -0.079 Cl
ATOM     23 CL   LIG d   1       9.081   3.063  -7.930  0.00  0.00    -0.079 Cl
ENDBRANCH  18  20
BRANCH  18  24
ATOM     24  O   LIG d   1       9.195   4.123  -4.288  0.00  0.00    -0.370 OA
ATOM     25  H   LIG d   1       9.490   5.003  -4.557  0.00  0.00     0.212 HD
ENDBRANCH  18  24
ENDBRANCH   4  18
TORSDOF 4
ENDMDL
MODEL 10
REMARK VINA RESULT:      -5.1      3.753      4.558
REMARK  4 active torsions:
REMARK  status: ('A' for Active; 'I' for Inactive)
REMARK    1  A    between atoms: C_4  and  N_7 
REMARK       I    between atoms: N_7  and  C_8 
REMARK       I    between atoms: C_8  and  N_10 
REMARK    2  A    between atoms: N_10  and  C_11 
REMARK    3  A    between atoms: C_11  and  C_13 
REMARK    4  A    between atoms: C_11  and  O_17 
ROOT
ATOM      1  N   LIG d   1       4.214  -1.459  -5.385  0.00  0.00    -0.269 N 
ATOM      2  C   LIG d   1       4.320  -2.796  -5.249  0.00  0.00     0.306 C 
ATOM      3  O   LIG d   1       4.413  -3.289  -4.142  0.00  0.00    -0.252 OA
ATOM      4  N   LIG d   1       4.322  -3.586  -6.342  0.00  0.00    -0.270 N 
ATOM      5  H   LIG d   1       4.063  -1.071  -6.260  0.00  0.00     0.156 HD
ATOM      6  H   LIG d   1       4.248  -3.191  -7.225  0.00  0.00     0.153 HD
ENDROOT
BRANCH   1   7
ATOM      7  C   LIG d   1       4.323  -0.632  -4.260  0.00  0.00     0.035 A 
ATOM      8  C   LIG d   1       3.192  -0.310  -3.523  0.00  0.00    -0.040 A 
ATOM      9  C   LIG d   1       3.303   0.502  -2.411  0.00  0.00    -0.060 A 
ATOM     10  H   LIG d   1       2.226  -0.698  -3.814  0.00  0.00     0.064 H 
ATOM     11  C   LIG d   1       4.537   1.003  -2.040  0.00  0.00    -0.062 A 
ATOM     12  H   LIG d   1       2.424   0.751  -1.834  0.00  0.00     0.062 H 
ATOM     13  C   LIG d   1       5.665   0.685  -2.773  0.00  0.00    -0.060 A 
ATOM     14  H   LIG d   1       4.620   1.642  -1.172  0.00  0.00     0.062 H 
ATOM     15  C   LIG d   1       5.561  -0.131  -3.883  0.00  0.00    -0.040 A 
ATOM     16  H   LIG d   1       6.628   1.075  -2.478  0.00  0.00     0.062 H 
ATOM     17  H   LIG d   1       6.443  -0.380  -4.455  0.00  0.00     0.064 H 
ENDBRANCH   1   7
BRANCH   4  18
ATOM     18  C   LIG d   1       4.438  -5.039  -6.195  0.00  0.00     0.170 C 
ATOM     19  H   LIG d   1       3.562  -5.422  -5.671  0.00  0.00     0.085 H 
BRANCH  18  20
ATOM     20  C   LIG d   1       4.527  -5.685  -7.579  0.00  0.00     0.232 C 
ATOM     21 CL   LIG d   1       4.315  -7.469  -7.424  0.00  0.00    -0.079 Cl
ATOM     22 CL   LIG d   1       3.230  -5.017  -8.639  0.00  0.00    -0.079 Cl
ATOM     23 CL   LIG d   1       6.139  -5.332  -8.305  0.00  0.00    -0.079 Cl
ENDBRANCH  18  20
BRANCH  18  24
ATOM     24  O   LIG d   1       5.616  -5.350  -5.448  0.00  0.00    -0.370 OA
ATOM     25  H   LIG d   1       5.443  -5.810  -4.615  0.00  0.00     0.212 HD
ENDBRANCH  18  24
ENDBRANCH   4  18
TORSDOF 4
ENDMDL
