MODEL 1
REMARK VINA RESULT:      -5.8      0.000      0.000
REMARK  8 active torsions:
REMARK  status: ('A' for Active; 'I' for Inactive)
REMARK    1  A    between atoms: C_1  and  C_2 
REMARK    2  A    between atoms: C_11  and  C_24 
REMARK    3  A    between atoms: C_16  and  C_17 
REMARK    4  A    between atoms: C_16  and  O_20 
REMARK    5  A    between atoms: C_17  and  C_19 
REMARK    6  A    between atoms: O_20  and  C_21 
REMARK    7  A    between atoms: C_21  and  C_23 
REMARK    8  A    between atoms: C_25  and  C_32 
ROOT
ATOM      1  C   LIG d   1       7.590  -4.089  -6.759  0.00  0.00    -0.021 C 
ATOM      2  H   LIG d   1       8.273  -3.809  -7.563  0.00  0.00     0.034 H 
ATOM      3  C   LIG d   1       6.780  -2.849  -6.336  0.00  0.00    -0.043 C 
ATOM      4  C   LIG d   1       7.713  -1.772  -5.799  0.00  0.00    -0.033 C 
ATOM      5  H   LIG d   1       8.427  -1.520  -6.605  0.00  0.00     0.031 H 
ATOM      6  C   LIG d   1       8.506  -2.270  -4.594  0.00  0.00    -0.029 C 
ATOM      7  H   LIG d   1       9.201  -1.489  -4.270  0.00  0.00     0.031 H 
ATOM      8  C   LIG d   1       7.518  -2.562  -3.458  0.00  0.00    -0.049 C 
ATOM      9  C   LIG d   1       6.879  -1.251  -3.025  0.00  0.00    -0.043 C 
ATOM     10  C   LIG d   1       6.209  -0.490  -4.138  0.00  0.00     0.018 C 
ATOM     11  C   LIG d   1       6.963  -0.487  -5.469  0.00  0.00    -0.028 C 
ATOM     12  H   LIG d   1       7.673   0.370  -5.494  0.00  0.00     0.031 H 
ATOM     13  C   LIG d   1       5.855  -0.282  -6.536  0.00  0.00    -0.045 C 
ATOM     14  C   LIG d   1       4.614  -0.980  -5.947  0.00  0.00    -0.005 C 
ATOM     15  C   LIG d   1       4.755  -0.864  -4.415  0.00  0.00     0.176 C 
ATOM     16  C   LIG d   1       9.288  -3.534  -4.928  0.00  0.00    -0.007 C 
ATOM     17  C   LIG d   1       8.367  -4.553  -5.542  0.00  0.00    -0.057 C 
ATOM     18  C   LIG d   1       8.259  -5.790  -5.082  0.00  0.00    -0.019 C 
ATOM     19  C   LIG d   1       8.959  -6.195  -3.854  0.00  0.00     0.156 C 
ATOM     20  O   LIG d   1       9.132  -7.373  -3.591  0.00  0.00    -0.293 OA
ATOM     21  C   LIG d   1       9.453  -5.101  -2.936  0.00  0.00     0.011 C 
ATOM     22  C   LIG d   1      10.122  -4.019  -3.768  0.00  0.00    -0.037 C 
ATOM     23  H   LIG d   1       6.067  -3.147  -5.571  0.00  0.00     0.027 H 
ATOM     24  H   LIG d   1       6.244  -2.481  -7.210  0.00  0.00     0.027 H 
ATOM     25  H   LIG d   1       6.770  -3.276  -3.791  0.00  0.00     0.027 H 
ATOM     26  H   LIG d   1       8.066  -2.988  -2.610  0.00  0.00     0.027 H 
ATOM     27  H   LIG d   1       7.684  -0.607  -2.623  0.00  0.00     0.027 H 
ATOM     28  H   LIG d   1       6.194  -1.419  -2.197  0.00  0.00     0.027 H 
ATOM     29  H   LIG d   1       6.140  -0.723  -7.490  0.00  0.00     0.027 H 
ATOM     30  H   LIG d   1       5.655   0.785  -6.678  0.00  0.00     0.027 H 
ATOM     31  H   LIG d   1       4.575  -2.024  -6.248  0.00  0.00     0.031 H 
ATOM     32  H   LIG d   1       3.707  -0.466  -6.274  0.00  0.00     0.031 H 
ATOM     33  H   LIG d   1       7.672  -6.551  -5.584  0.00  0.00     0.065 H 
ATOM     34  H   LIG d   1       8.679  -4.713  -2.435  0.00  0.00     0.035 H 
ATOM     35  H   LIG d   1      10.177  -5.518  -2.227  0.00  0.00     0.035 H 
ATOM     36  H   LIG d   1      10.352  -3.166  -3.126  0.00  0.00     0.028 H 
ATOM     37  H   LIG d   1      11.065  -4.408  -4.162  0.00  0.00     0.028 H 
ENDROOT
BRANCH  15  38
ATOM     38  C   LIG d   1       4.334  -2.147  -3.758  0.00  0.00     0.174 C 
ATOM     39  O   LIG d   1       4.323  -3.175  -4.391  0.00  0.00    -0.293 OA
BRANCH  38  40
ATOM     40  C   LIG d   1       3.924  -2.152  -2.307  0.00  0.00    -0.002 C 
ATOM     41  H   LIG d   1       4.591  -2.673  -1.775  0.00  0.00     0.031 H 
ATOM     42  H   LIG d   1       3.885  -1.127  -1.938  0.00  0.00     0.031 H 
ATOM     43  H   LIG d   1       2.941  -2.612  -2.209  0.00  0.00     0.031 H 
ENDBRANCH  38  40
ENDBRANCH  15  38
BRANCH  15  44
ATOM     44  O   LIG d   1       3.886   0.214  -3.945  0.00  0.00    -0.450 OA
BRANCH  44  45
ATOM     45  C   LIG d   1       2.792   0.478  -4.676  0.00  0.00     0.305 C 
ATOM     46  O   LIG d   1       2.815   1.360  -5.500  0.00  0.00    -0.251 OA
BRANCH  45  47
ATOM     47  C   LIG d   1       1.535  -0.327  -4.468  0.00  0.00     0.033 C 
ATOM     48  H   LIG d   1       1.132  -0.626  -5.436  0.00  0.00     0.034 H 
ATOM     49  H   LIG d   1       1.766  -1.214  -3.879  0.00  0.00     0.034 H 
ATOM     50  H   LIG d   1       0.799   0.279  -3.940  0.00  0.00     0.034 H 
ENDBRANCH  45  47
ENDBRANCH  44  45
ENDBRANCH  15  44
BRANCH  10  51
ATOM     51  C   LIG d   1       6.179   0.989  -3.664  0.00  0.00    -0.055 C 
ATOM     52  H   LIG d   1       6.273   1.024  -2.578  0.00  0.00     0.024 H 
ATOM     53  H   LIG d   1       7.006   1.534  -4.117  0.00  0.00     0.024 H 
ATOM     54  H   LIG d   1       5.234   1.447  -3.961  0.00  0.00     0.024 H 
ENDBRANCH  10  51
BRANCH  16  55
ATOM     55  C   LIG d   1      10.305  -3.160  -6.014  0.00  0.00    -0.056 C 
ATOM     56  H   LIG d   1      10.960  -4.010  -6.207  0.00  0.00     0.024 H 
ATOM     57  H   LIG d   1       9.777  -2.892  -6.929  0.00  0.00     0.024 H 
ATOM     58  H   LIG d   1      10.901  -2.312  -5.676  0.00  0.00     0.024 H 
ENDBRANCH  16  55
BRANCH   1  59
ATOM     59  C   LIG d   1       6.627  -5.155  -7.277  0.00  0.00    -0.059 C 
ATOM     60  H   LIG d   1       6.942  -5.479  -8.268  0.00  0.00     0.024 H 
ATOM     61  H   LIG d   1       6.628  -6.008  -6.598  0.00  0.00     0.024 H 
ATOM     62  H   LIG d   1       5.621  -4.739  -7.335  0.00  0.00     0.024 H 
ENDBRANCH   1  59
TORSDOF 8
ENDMDL
MODEL 2
REMARK VINA RESULT:      -5.7      2.137      4.312
REMARK  8 active torsions:
REMARK  status: ('A' for Active; 'I' for Inactive)
REMARK    1  A    between atoms: C_1  and  C_2 
REMARK    2  A    between atoms: C_11  and  C_24 
REMARK    3  A    between atoms: C_16  and  C_17 
REMARK    4  A    between atoms: C_16  and  O_20 
REMARK    5  A    between atoms: C_17  and  C_19 
REMARK    6  A    between atoms: O_20  and  C_21 
REMARK    7  A    between atoms: C_21  and  C_23 
REMARK    8  A    between atoms: C_25  and  C_32 
ROOT
ATOM      1  C   LIG d   1       7.151  -5.015  -5.361  0.00  0.00    -0.021 C 
ATOM      2  H   LIG d   1       6.744  -5.892  -4.853  0.00  0.00     0.034 H 
ATOM      3  C   LIG d   1       6.480  -3.751  -4.794  0.00  0.00    -0.043 C 
ATOM      4  C   LIG d   1       4.981  -3.788  -5.061  0.00  0.00    -0.033 C 
ATOM      5  H   LIG d   1       4.581  -4.697  -4.576  0.00  0.00     0.031 H 
ATOM      6  C   LIG d   1       4.681  -3.869  -6.555  0.00  0.00    -0.029 C 
ATOM      7  H   LIG d   1       3.600  -3.947  -6.703  0.00  0.00     0.031 H 
ATOM      8  C   LIG d   1       5.185  -2.580  -7.214  0.00  0.00    -0.049 C 
ATOM      9  C   LIG d   1       4.363  -1.414  -6.686  0.00  0.00    -0.043 C 
ATOM     10  C   LIG d   1       4.362  -1.285  -5.187  0.00  0.00     0.018 C 
ATOM     11  C   LIG d   1       4.263  -2.606  -4.421  0.00  0.00    -0.028 C 
ATOM     12  H   LIG d   1       3.193  -2.867  -4.262  0.00  0.00     0.031 H 
ATOM     13  C   LIG d   1       4.937  -2.307  -3.055  0.00  0.00    -0.045 C 
ATOM     14  C   LIG d   1       6.033  -1.274  -3.380  0.00  0.00    -0.005 C 
ATOM     15  C   LIG d   1       5.508  -0.473  -4.590  0.00  0.00     0.176 C 
ATOM     16  C   LIG d   1       5.367  -5.071  -7.193  0.00  0.00    -0.007 C 
ATOM     17  C   LIG d   1       6.830  -5.067  -6.842  0.00  0.00    -0.057 C 
ATOM     18  C   LIG d   1       7.785  -5.140  -7.757  0.00  0.00    -0.019 C 
ATOM     19  C   LIG d   1       7.455  -5.107  -9.189  0.00  0.00     0.156 C 
ATOM     20  O   LIG d   1       8.257  -5.483 -10.026  0.00  0.00    -0.293 OA
ATOM     21  C   LIG d   1       6.089  -4.591  -9.581  0.00  0.00     0.011 C 
ATOM     22  C   LIG d   1       5.044  -5.204  -8.661  0.00  0.00    -0.037 C 
ATOM     23  H   LIG d   1       6.927  -2.881  -5.268  0.00  0.00     0.027 H 
ATOM     24  H   LIG d   1       6.671  -3.719  -3.721  0.00  0.00     0.027 H 
ATOM     25  H   LIG d   1       6.242  -2.444  -7.007  0.00  0.00     0.027 H 
ATOM     26  H   LIG d   1       5.042  -2.655  -8.298  0.00  0.00     0.027 H 
ATOM     27  H   LIG d   1       3.316  -1.576  -7.004  0.00  0.00     0.027 H 
ATOM     28  H   LIG d   1       4.675  -0.486  -7.160  0.00  0.00     0.027 H 
ATOM     29  H   LIG d   1       5.365  -3.210  -2.620  0.00  0.00     0.027 H 
ATOM     30  H   LIG d   1       4.211  -1.880  -2.357  0.00  0.00     0.027 H 
ATOM     31  H   LIG d   1       6.971  -1.764  -3.626  0.00  0.00     0.031 H 
ATOM     32  H   LIG d   1       6.178  -0.604  -2.529  0.00  0.00     0.031 H 
ATOM     33  H   LIG d   1       8.834  -5.236  -7.499  0.00  0.00     0.065 H 
ATOM     34  H   LIG d   1       6.072  -3.595  -9.496  0.00  0.00     0.035 H 
ATOM     35  H   LIG d   1       5.876  -4.875 -10.618  0.00  0.00     0.035 H 
ATOM     36  H   LIG d   1       4.080  -4.728  -8.849  0.00  0.00     0.028 H 
ATOM     37  H   LIG d   1       4.947  -6.268  -8.896  0.00  0.00     0.028 H 
ENDROOT
BRANCH  15  38
ATOM     38  C   LIG d   1       6.624  -0.213  -5.562  0.00  0.00     0.174 C 
ATOM     39  O   LIG d   1       6.496   0.630  -6.417  0.00  0.00    -0.293 OA
BRANCH  38  40
ATOM     40  C   LIG d   1       7.903  -1.004  -5.469  0.00  0.00    -0.002 C 
ATOM     41  H   LIG d   1       7.688  -1.977  -5.388  0.00  0.00     0.031 H 
ATOM     42  H   LIG d   1       8.498  -0.838  -6.368  0.00  0.00     0.031 H 
ATOM     43  H   LIG d   1       8.468  -0.681  -4.595  0.00  0.00     0.031 H 
ENDBRANCH  38  40
ENDBRANCH  15  38
BRANCH  15  44
ATOM     44  O   LIG d   1       4.990   0.809  -4.114  0.00  0.00    -0.450 OA
BRANCH  44  45
ATOM     45  C   LIG d   1       5.431   1.242  -2.923  0.00  0.00     0.305 C 
ATOM     46  O   LIG d   1       6.524   1.749  -2.832  0.00  0.00    -0.251 OA
BRANCH  45  47
ATOM     47  C   LIG d   1       4.564   1.096  -1.700  0.00  0.00     0.033 C 
ATOM     48  H   LIG d   1       4.990   0.340  -1.041  0.00  0.00     0.034 H 
ATOM     49  H   LIG d   1       4.513   2.050  -1.175  0.00  0.00     0.034 H 
ATOM     50  H   LIG d   1       3.561   0.793  -2.000  0.00  0.00     0.034 H 
ENDBRANCH  45  47
ENDBRANCH  44  45
ENDBRANCH  15  44
BRANCH  10  51
ATOM     51  C   LIG d   1       3.067  -0.498  -4.843  0.00  0.00    -0.055 C 
ATOM     52  H   LIG d   1       3.186   0.544  -5.142  0.00  0.00     0.024 H 
ATOM     53  H   LIG d   1       2.223  -0.934  -5.376  0.00  0.00     0.024 H 
ATOM     54  H   LIG d   1       2.885  -0.548  -3.769  0.00  0.00     0.024 H 
ENDBRANCH  10  51
BRANCH  16  55
ATOM     55  C   LIG d   1       4.770  -6.326  -6.545  0.00  0.00    -0.056 C 
ATOM     56  H   LIG d   1       4.731  -7.131  -7.279  0.00  0.00     0.024 H 
ATOM     57  H   LIG d   1       5.392  -6.631  -5.703  0.00  0.00     0.024 H 
ATOM     58  H   LIG d   1       3.762  -6.108  -6.192  0.00  0.00     0.024 H 
ENDBRANCH  16  55
BRANCH   1  59
ATOM     59  C   LIG d   1       8.653  -4.941  -5.093  0.00  0.00    -0.059 C 
ATOM     60  H   LIG d   1       9.156  -4.508  -5.957  0.00  0.00     0.024 H 
ATOM     61  H   LIG d   1       8.836  -4.319  -4.217  0.00  0.00     0.024 H 
ATOM     62  H   LIG d   1       9.040  -5.944  -4.913  0.00  0.00     0.024 H 
ENDBRANCH   1  59
TORSDOF 8
ENDMDL
MODEL 3
REMARK VINA RESULT:      -5.7      1.757      3.180
REMARK  8 active torsions:
REMARK  status: ('A' for Active; 'I' for Inactive)
REMARK    1  A    between atoms: C_1  and  C_2 
REMARK    2  A    between atoms: C_11  and  C_24 
REMARK    3  A    between atoms: C_16  and  C_17 
REMARK    4  A    between atoms: C_16  and  O_20 
REMARK    5  A    between atoms: C_17  and  C_19 
REMARK    6  A    between atoms: O_20  and  C_21 
REMARK    7  A    between atoms: C_21  and  C_23 
REMARK    8  A    between atoms: C_25  and  C_32 
ROOT
ATOM      1  C   LIG d   1       9.405  -1.809  -5.664  0.00  0.00    -0.021 C 
ATOM      2  H   LIG d   1      10.194  -1.842  -4.909  0.00  0.00     0.034 H 
ATOM      3  C   LIG d   1       8.085  -1.390  -4.991  0.00  0.00    -0.043 C 
ATOM      4  C   LIG d   1       7.681  -2.419  -3.943  0.00  0.00    -0.033 C 
ATOM      5  H   LIG d   1       8.499  -2.476  -3.203  0.00  0.00     0.031 H 
ATOM      6  C   LIG d   1       7.495  -3.802  -4.561  0.00  0.00    -0.029 C 
ATOM      7  H   LIG d   1       7.257  -4.522  -3.772  0.00  0.00     0.031 H 
ATOM      8  C   LIG d   1       6.320  -3.731  -5.544  0.00  0.00    -0.049 C 
ATOM      9  C   LIG d   1       5.048  -3.450  -4.758  0.00  0.00    -0.043 C 
ATOM     10  C   LIG d   1       5.108  -2.213  -3.904  0.00  0.00     0.018 C 
ATOM     11  C   LIG d   1       6.436  -1.987  -3.178  0.00  0.00    -0.028 C 
ATOM     12  H   LIG d   1       6.414  -2.502  -2.191  0.00  0.00     0.031 H 
ATOM     13  C   LIG d   1       6.501  -0.451  -2.967  0.00  0.00    -0.045 C 
ATOM     14  C   LIG d   1       5.772   0.140  -4.189  0.00  0.00    -0.005 C 
ATOM     15  C   LIG d   1       4.717  -0.910  -4.596  0.00  0.00     0.176 C 
ATOM     16  C   LIG d   1       8.750  -4.254  -5.297  0.00  0.00    -0.007 C 
ATOM     17  C   LIG d   1       9.186  -3.185  -6.261  0.00  0.00    -0.057 C 
ATOM     18  C   LIG d   1       9.403  -3.425  -7.546  0.00  0.00    -0.019 C 
ATOM     19  C   LIG d   1       9.108  -4.746  -8.121  0.00  0.00     0.156 C 
ATOM     20  O   LIG d   1       9.582  -5.084  -9.191  0.00  0.00    -0.293 OA
ATOM     21  C   LIG d   1       8.197  -5.663  -7.336  0.00  0.00     0.011 C 
ATOM     22  C   LIG d   1       8.611  -5.641  -5.873  0.00  0.00    -0.037 C 
ATOM     23  H   LIG d   1       7.318  -1.309  -5.757  0.00  0.00     0.027 H 
ATOM     24  H   LIG d   1       8.238  -0.417  -4.523  0.00  0.00     0.027 H 
ATOM     25  H   LIG d   1       6.503  -2.962  -6.288  0.00  0.00     0.027 H 
ATOM     26  H   LIG d   1       6.220  -4.699  -6.049  0.00  0.00     0.027 H 
ATOM     27  H   LIG d   1       4.880  -4.310  -4.082  0.00  0.00     0.027 H 
ATOM     28  H   LIG d   1       4.189  -3.426  -5.424  0.00  0.00     0.027 H 
ATOM     29  H   LIG d   1       7.532  -0.103  -2.917  0.00  0.00     0.027 H 
ATOM     30  H   LIG d   1       5.980  -0.170  -2.046  0.00  0.00     0.027 H 
ATOM     31  H   LIG d   1       6.465   0.321  -5.006  0.00  0.00     0.031 H 
ATOM     32  H   LIG d   1       5.275   1.073  -3.911  0.00  0.00     0.031 H 
ATOM     33  H   LIG d   1       9.812  -2.680  -8.218  0.00  0.00     0.065 H 
ATOM     34  H   LIG d   1       7.252  -5.349  -7.425  0.00  0.00     0.035 H 
ATOM     35  H   LIG d   1       8.283  -6.683  -7.726  0.00  0.00     0.035 H 
ATOM     36  H   LIG d   1       7.871  -6.188  -5.285  0.00  0.00     0.028 H 
ATOM     37  H   LIG d   1       9.571  -6.154  -5.770  0.00  0.00     0.028 H 
ENDROOT
BRANCH  15  38
ATOM     38  C   LIG d   1       4.653  -1.025  -6.093  0.00  0.00     0.174 C 
ATOM     39  O   LIG d   1       3.700  -1.548  -6.618  0.00  0.00    -0.293 OA
BRANCH  38  40
ATOM     40  C   LIG d   1       5.779  -0.488  -6.939  0.00  0.00    -0.002 C 
ATOM     41  H   LIG d   1       6.424  -1.225  -7.142  0.00  0.00     0.031 H 
ATOM     42  H   LIG d   1       5.375  -0.092  -7.870  0.00  0.00     0.031 H 
ATOM     43  H   LIG d   1       6.293   0.306  -6.398  0.00  0.00     0.031 H 
ENDBRANCH  38  40
ENDBRANCH  15  38
BRANCH  15  44
ATOM     44  O   LIG d   1       3.410  -0.478  -4.101  0.00  0.00    -0.450 OA
BRANCH  44  45
ATOM     45  C   LIG d   1       3.245   0.835  -3.880  0.00  0.00     0.305 C 
ATOM     46  O   LIG d   1       2.893   1.559  -4.780  0.00  0.00    -0.251 OA
BRANCH  45  47
ATOM     47  C   LIG d   1       3.498   1.406  -2.509  0.00  0.00     0.033 C 
ATOM     48  H   LIG d   1       4.375   0.928  -2.073  0.00  0.00     0.034 H 
ATOM     49  H   LIG d   1       3.669   2.480  -2.588  0.00  0.00     0.034 H 
ATOM     50  H   LIG d   1       2.631   1.222  -1.873  0.00  0.00     0.034 H 
ENDBRANCH  45  47
ENDBRANCH  44  45
ENDBRANCH  15  44
BRANCH  10  51
ATOM     51  C   LIG d   1       4.047  -2.430  -2.790  0.00  0.00    -0.055 C 
ATOM     52  H   LIG d   1       4.142  -3.440  -2.390  0.00  0.00     0.024 H 
ATOM     53  H   LIG d   1       4.204  -1.706  -1.991  0.00  0.00     0.024 H 
ATOM     54  H   LIG d   1       3.048  -2.299  -3.209  0.00  0.00     0.024 H 
ENDBRANCH  10  51
BRANCH  16  55
ATOM     55  C   LIG d   1       9.865  -4.374  -4.251  0.00  0.00    -0.056 C 
ATOM     56  H   LIG d   1      10.426  -3.440  -4.208  0.00  0.00     0.024 H 
ATOM     57  H   LIG d   1       9.426  -4.580  -3.274  0.00  0.00     0.024 H 
ATOM     58  H   LIG d   1      10.535  -5.188  -4.526  0.00  0.00     0.024 H 
ENDBRANCH  16  55
BRANCH   1  59
ATOM     59  C   LIG d   1       9.775  -0.768  -6.719  0.00  0.00    -0.059 C 
ATOM     60  H   LIG d   1      10.220   0.100  -6.232  0.00  0.00     0.024 H 
ATOM     61  H   LIG d   1      10.490  -1.198  -7.419  0.00  0.00     0.024 H 
ATOM     62  H   LIG d   1       8.878  -0.461  -7.257  0.00  0.00     0.024 H 
ENDBRANCH   1  59
TORSDOF 8
ENDMDL
MODEL 4
REMARK VINA RESULT:      -5.4      2.926      6.188
REMARK  8 active torsions:
REMARK  status: ('A' for Active; 'I' for Inactive)
REMARK    1  A    between atoms: C_1  and  C_2 
REMARK    2  A    between atoms: C_11  and  C_24 
REMARK    3  A    between atoms: C_16  and  C_17 
REMARK    4  A    between atoms: C_16  and  O_20 
REMARK    5  A    between atoms: C_17  and  C_19 
REMARK    6  A    between atoms: O_20  and  C_21 
REMARK    7  A    between atoms: C_21  and  C_23 
REMARK    8  A    between atoms: C_25  and  C_32 
ROOT
ATOM      1  C   LIG d   1       3.802  -0.935  -5.743  0.00  0.00    -0.021 C 
ATOM      2  H   LIG d   1       3.308  -1.908  -5.755  0.00  0.00     0.034 H 
ATOM      3  C   LIG d   1       5.202  -1.075  -6.368  0.00  0.00    -0.043 C 
ATOM      4  C   LIG d   1       6.050  -2.036  -5.543  0.00  0.00    -0.033 C 
ATOM      5  H   LIG d   1       5.526  -3.009  -5.527  0.00  0.00     0.031 H 
ATOM      6  C   LIG d   1       6.205  -1.550  -4.105  0.00  0.00    -0.029 C 
ATOM      7  H   LIG d   1       6.773  -2.289  -3.532  0.00  0.00     0.031 H 
ATOM      8  C   LIG d   1       6.983  -0.228  -4.128  0.00  0.00    -0.049 C 
ATOM      9  C   LIG d   1       8.393  -0.507  -4.629  0.00  0.00    -0.043 C 
ATOM     10  C   LIG d   1       8.451  -1.188  -5.970  0.00  0.00     0.018 C 
ATOM     11  C   LIG d   1       7.408  -2.286  -6.187  0.00  0.00    -0.028 C 
ATOM     12  H   LIG d   1       7.811  -3.260  -5.828  0.00  0.00     0.031 H 
ATOM     13  C   LIG d   1       7.217  -2.334  -7.726  0.00  0.00    -0.045 C 
ATOM     14  C   LIG d   1       7.433  -0.880  -8.190  0.00  0.00    -0.005 C 
ATOM     15  C   LIG d   1       8.428  -0.263  -7.184  0.00  0.00     0.176 C 
ATOM     16  C   LIG d   1       4.849  -1.332  -3.444  0.00  0.00    -0.007 C 
ATOM     17  C   LIG d   1       3.994  -0.456  -4.317  0.00  0.00    -0.057 C 
ATOM     18  C   LIG d   1       3.409   0.646  -3.871  0.00  0.00    -0.019 C 
ATOM     19  C   LIG d   1       3.673   1.135  -2.510  0.00  0.00     0.156 C 
ATOM     20  O   LIG d   1       2.928   1.940  -1.979  0.00  0.00    -0.293 OA
ATOM     21  C   LIG d   1       4.897   0.604  -1.800  0.00  0.00     0.011 C 
ATOM     22  C   LIG d   1       4.974  -0.901  -2.003  0.00  0.00    -0.037 C 
ATOM     23  H   LIG d   1       5.667  -0.093  -6.399  0.00  0.00     0.027 H 
ATOM     24  H   LIG d   1       5.083  -1.455  -7.382  0.00  0.00     0.027 H 
ATOM     25  H   LIG d   1       6.474   0.492  -4.760  0.00  0.00     0.027 H 
ATOM     26  H   LIG d   1       7.040   0.169  -3.108  0.00  0.00     0.027 H 
ATOM     27  H   LIG d   1       8.878  -1.180  -3.896  0.00  0.00     0.027 H 
ATOM     28  H   LIG d   1       8.983   0.407  -4.627  0.00  0.00     0.027 H 
ATOM     29  H   LIG d   1       6.220  -2.686  -7.989  0.00  0.00     0.027 H 
ATOM     30  H   LIG d   1       7.964  -2.990  -8.183  0.00  0.00     0.027 H 
ATOM     31  H   LIG d   1       6.498  -0.327  -8.188  0.00  0.00     0.031 H 
ATOM     32  H   LIG d   1       7.868  -0.870  -9.192  0.00  0.00     0.031 H 
ATOM     33  H   LIG d   1       2.714   1.222  -4.472  0.00  0.00     0.065 H 
ATOM     34  H   LIG d   1       5.715   1.039  -2.177  0.00  0.00     0.035 H 
ATOM     35  H   LIG d   1       4.823   0.826  -0.730  0.00  0.00     0.035 H 
ATOM     36  H   LIG d   1       5.928  -1.265  -1.614  0.00  0.00     0.028 H 
ATOM     37  H   LIG d   1       4.173  -1.376  -1.432  0.00  0.00     0.028 H 
ENDROOT
BRANCH  15  38
ATOM     38  C   LIG d   1       8.023   1.145  -6.854  0.00  0.00     0.174 C 
ATOM     39  O   LIG d   1       6.893   1.514  -7.066  0.00  0.00    -0.293 OA
BRANCH  38  40
ATOM     40  C   LIG d   1       9.028   2.098  -6.258  0.00  0.00    -0.002 C 
ATOM     41  H   LIG d   1       9.147   1.892  -5.287  0.00  0.00     0.031 H 
ATOM     42  H   LIG d   1       9.982   1.987  -6.773  0.00  0.00     0.031 H 
ATOM     43  H   LIG d   1       8.670   3.121  -6.373  0.00  0.00     0.031 H 
ENDBRANCH  38  40
ENDBRANCH  15  38
BRANCH  15  44
ATOM     44  O   LIG d   1       9.757  -0.241  -7.794  0.00  0.00    -0.450 OA
BRANCH  44  45
ATOM     45  C   LIG d   1       9.815  -0.094  -9.126  0.00  0.00     0.305 C 
ATOM     46  O   LIG d   1       9.644   0.995  -9.621  0.00  0.00    -0.251 OA
BRANCH  45  47
ATOM     47  C   LIG d   1      10.094  -1.286 -10.005  0.00  0.00     0.033 C 
ATOM     48  H   LIG d   1       9.617  -2.169  -9.580  0.00  0.00     0.034 H 
ATOM     49  H   LIG d   1       9.698  -1.102 -11.003  0.00  0.00     0.034 H 
ATOM     50  H   LIG d   1      11.170  -1.448 -10.065  0.00  0.00     0.034 H 
ENDBRANCH  45  47
ENDBRANCH  44  45
ENDBRANCH  15  44
BRANCH  10  51
ATOM     51  C   LIG d   1       9.831  -1.899  -6.010  0.00  0.00    -0.055 C 
ATOM     52  H   LIG d   1      10.130  -2.169  -4.997  0.00  0.00     0.024 H 
ATOM     53  H   LIG d   1       9.760  -2.800  -6.620  0.00  0.00     0.024 H 
ATOM     54  H   LIG d   1      10.575  -1.226  -6.440  0.00  0.00     0.024 H 
ENDBRANCH  10  51
BRANCH  16  55
ATOM     55  C   LIG d   1       4.153  -2.698  -3.385  0.00  0.00    -0.056 C 
ATOM     56  H   LIG d   1       4.876  -3.484  -3.606  0.00  0.00     0.024 H 
ATOM     57  H   LIG d   1       3.741  -2.852  -2.388  0.00  0.00     0.024 H 
ATOM     58  H   LIG d   1       3.349  -2.727  -4.120  0.00  0.00     0.024 H 
ENDBRANCH  16  55
BRANCH   1  59
ATOM     59  C   LIG d   1       2.983   0.045  -6.581  0.00  0.00    -0.059 C 
ATOM     60  H   LIG d   1       3.592   0.916  -6.821  0.00  0.00     0.024 H 
ATOM     61  H   LIG d   1       2.665  -0.442  -7.503  0.00  0.00     0.024 H 
ATOM     62  H   LIG d   1       2.105   0.361  -6.017  0.00  0.00     0.024 H 
ENDBRANCH   1  59
TORSDOF 8
ENDMDL
MODEL 5
REMARK VINA RESULT:      -5.4      3.372      5.543
REMARK  8 active torsions:
REMARK  status: ('A' for Active; 'I' for Inactive)
REMARK    1  A    between atoms: C_1  and  C_2 
REMARK    2  A    between atoms: C_11  and  C_24 
REMARK    3  A    between atoms: C_16  and  C_17 
REMARK    4  A    between atoms: C_16  and  O_20 
REMARK    5  A    between atoms: C_17  and  C_19 
REMARK    6  A    between atoms: O_20  and  C_21 
REMARK    7  A    between atoms: C_21  and  C_23 
REMARK    8  A    between atoms: C_25  and  C_32 
ROOT
ATOM      1  C   LIG d   1       6.446  -2.314  -6.077  0.00  0.00    -0.021 C 
ATOM      2  H   LIG d   1       7.475  -2.017  -5.864  0.00  0.00     0.034 H 
ATOM      3  C   LIG d   1       5.971  -1.593  -7.353  0.00  0.00    -0.043 C 
ATOM      4  C   LIG d   1       5.984  -0.085  -7.139  0.00  0.00    -0.033 C 
ATOM      5  H   LIG d   1       7.021   0.203  -6.886  0.00  0.00     0.031 H 
ATOM      6  C   LIG d   1       5.076   0.323  -5.983  0.00  0.00    -0.029 C 
ATOM      7  H   LIG d   1       5.153   1.403  -5.826  0.00  0.00     0.031 H 
ATOM      8  C   LIG d   1       3.632  -0.026  -6.362  0.00  0.00    -0.049 C 
ATOM      9  C   LIG d   1       3.220   0.840  -7.543  0.00  0.00    -0.043 C 
ATOM     10  C   LIG d   1       4.130   0.734  -8.737  0.00  0.00     0.018 C 
ATOM     11  C   LIG d   1       5.624   0.670  -8.413  0.00  0.00    -0.028 C 
ATOM     12  H   LIG d   1       6.040   1.701  -8.359  0.00  0.00     0.031 H 
ATOM     13  C   LIG d   1       6.245  -0.084  -9.619  0.00  0.00    -0.045 C 
ATOM     14  C   LIG d   1       5.148  -1.067 -10.070  0.00  0.00    -0.005 C 
ATOM     15  C   LIG d   1       3.807  -0.389  -9.719  0.00  0.00     0.176 C 
ATOM     16  C   LIG d   1       5.456  -0.402  -4.697  0.00  0.00    -0.007 C 
ATOM     17  C   LIG d   1       5.527  -1.883  -4.951  0.00  0.00    -0.057 C 
ATOM     18  C   LIG d   1       4.863  -2.767  -4.222  0.00  0.00    -0.019 C 
ATOM     19  C   LIG d   1       3.916  -2.324  -3.188  0.00  0.00     0.156 C 
ATOM     20  O   LIG d   1       3.543  -3.085  -2.312  0.00  0.00    -0.293 OA
ATOM     21  C   LIG d   1       3.425  -0.896  -3.253  0.00  0.00     0.011 C 
ATOM     22  C   LIG d   1       4.606   0.023  -3.525  0.00  0.00    -0.037 C 
ATOM     23  H   LIG d   1       4.965  -1.933  -7.587  0.00  0.00     0.027 H 
ATOM     24  H   LIG d   1       6.645  -1.864  -8.165  0.00  0.00     0.027 H 
ATOM     25  H   LIG d   1       3.555  -1.083  -6.601  0.00  0.00     0.027 H 
ATOM     26  H   LIG d   1       2.977   0.195  -5.512  0.00  0.00     0.027 H 
ATOM     27  H   LIG d   1       3.242   1.893  -7.204  0.00  0.00     0.027 H 
ATOM     28  H   LIG d   1       2.187   0.639  -7.818  0.00  0.00     0.027 H 
ATOM     29  H   LIG d   1       7.152  -0.613  -9.328  0.00  0.00     0.027 H 
ATOM     30  H   LIG d   1       6.479   0.616 -10.427  0.00  0.00     0.027 H 
ATOM     31  H   LIG d   1       5.240  -2.019  -9.552  0.00  0.00     0.031 H 
ATOM     32  H   LIG d   1       5.210  -1.226 -11.149  0.00  0.00     0.031 H 
ATOM     33  H   LIG d   1       4.991  -3.837  -4.341  0.00  0.00     0.065 H 
ATOM     34  H   LIG d   1       2.752  -0.808  -3.988  0.00  0.00     0.035 H 
ATOM     35  H   LIG d   1       2.962  -0.624  -2.298  0.00  0.00     0.035 H 
ATOM     36  H   LIG d   1       4.236   1.033  -3.713  0.00  0.00     0.028 H 
ATOM     37  H   LIG d   1       5.240   0.056  -2.635  0.00  0.00     0.028 H 
ENDROOT
BRANCH  15  38
ATOM     38  C   LIG d   1       2.843  -1.402  -9.171  0.00  0.00     0.174 C 
ATOM     39  O   LIG d   1       1.668  -1.134  -9.087  0.00  0.00    -0.293 OA
BRANCH  38  40
ATOM     40  C   LIG d   1       3.341  -2.753  -8.725  0.00  0.00    -0.002 C 
ATOM     41  H   LIG d   1       3.415  -2.769  -7.728  0.00  0.00     0.031 H 
ATOM     42  H   LIG d   1       2.641  -3.523  -9.050  0.00  0.00     0.031 H 
ATOM     43  H   LIG d   1       4.320  -2.942  -9.166  0.00  0.00     0.031 H 
ENDBRANCH  38  40
ENDBRANCH  15  38
BRANCH  15  44
ATOM     44  O   LIG d   1       3.241   0.189 -10.938  0.00  0.00    -0.450 OA
BRANCH  44  45
ATOM     45  C   LIG d   1       3.480  -0.460 -12.088  0.00  0.00     0.305 C 
ATOM     46  O   LIG d   1       4.417  -0.138 -12.779  0.00  0.00    -0.251 OA
BRANCH  45  47
ATOM     47  C   LIG d   1       2.580  -1.590 -12.517  0.00  0.00     0.033 C 
ATOM     48  H   LIG d   1       1.878  -1.230 -13.269  0.00  0.00     0.034 H 
ATOM     49  H   LIG d   1       3.183  -2.395 -12.937  0.00  0.00     0.034 H 
ATOM     50  H   LIG d   1       2.028  -1.962 -11.653  0.00  0.00     0.034 H 
ENDBRANCH  45  47
ENDBRANCH  44  45
ENDBRANCH  15  44
BRANCH  10  51
ATOM     51  C   LIG d   1       3.924   2.055  -9.529  0.00  0.00    -0.055 C 
ATOM     52  H   LIG d   1       3.600   1.823 -10.544  0.00  0.00     0.024 H 
ATOM     53  H   LIG d   1       3.166   2.662  -9.035  0.00  0.00     0.024 H 
ATOM     54  H   LIG d   1       4.865   2.607  -9.566  0.00  0.00     0.024 H 
ENDBRANCH  10  51
BRANCH  16  55
ATOM     55  C   LIG d   1       6.877   0.044  -4.333  0.00  0.00    -0.056 C 
ATOM     56  H   LIG d   1       7.334  -0.697  -3.676  0.00  0.00     0.024 H 
ATOM     57  H   LIG d   1       7.472   0.140  -5.242  0.00  0.00     0.024 H 
ATOM     58  H   LIG d   1       6.837   1.006  -3.822  0.00  0.00     0.024 H 
ENDBRANCH  16  55
BRANCH   1  59
ATOM     59  C   LIG d   1       6.406  -3.822  -6.317  0.00  0.00    -0.059 C 
ATOM     60  H   LIG d   1       6.611  -4.028  -7.367  0.00  0.00     0.024 H 
ATOM     61  H   LIG d   1       7.157  -4.309  -5.697  0.00  0.00     0.024 H 
ATOM     62  H   LIG d   1       5.418  -4.205  -6.059  0.00  0.00     0.024 H 
ENDBRANCH   1  59
TORSDOF 8
ENDMDL
MODEL 6
REMARK VINA RESULT:      -5.0      5.459      8.288
REMARK  8 active torsions:
REMARK  status: ('A' for Active; 'I' for Inactive)
REMARK    1  A    between atoms: C_1  and  C_2 
REMARK    2  A    between atoms: C_11  and  C_24 
REMARK    3  A    between atoms: C_16  and  C_17 
REMARK    4  A    between atoms: C_16  and  O_20 
REMARK    5  A    between atoms: C_17  and  C_19 
REMARK    6  A    between atoms: O_20  and  C_21 
REMARK    7  A    between atoms: C_21  and  C_23 
REMARK    8  A    between atoms: C_25  and  C_32 
ROOT
ATOM      1  C   LIG d   1       5.717  -0.014  -9.720  0.00  0.00    -0.021 C 
ATOM      2  H   LIG d   1       6.018   0.939 -10.160  0.00  0.00     0.034 H 
ATOM      3  C   LIG d   1       4.850  -0.783 -10.734  0.00  0.00    -0.043 C 
ATOM      4  C   LIG d   1       3.583   0.005 -11.043  0.00  0.00    -0.033 C 
ATOM      5  H   LIG d   1       3.894   0.983 -11.453  0.00  0.00     0.031 H 
ATOM      6  C   LIG d   1       2.757   0.252  -9.784  0.00  0.00    -0.029 C 
ATOM      7  H   LIG d   1       1.886   0.864 -10.037  0.00  0.00     0.031 H 
ATOM      8  C   LIG d   1       2.279  -1.105  -9.252  0.00  0.00    -0.049 C 
ATOM      9  C   LIG d   1       1.322  -1.711 -10.268  0.00  0.00    -0.043 C 
ATOM     10  C   LIG d   1       1.893  -1.848 -11.653  0.00  0.00     0.018 C 
ATOM     11  C   LIG d   1       2.747  -0.670 -12.124  0.00  0.00    -0.028 C 
ATOM     12  H   LIG d   1       2.098   0.090 -12.615  0.00  0.00     0.031 H 
ATOM     13  C   LIG d   1       3.711  -1.290 -13.170  0.00  0.00    -0.045 C 
ATOM     14  C   LIG d   1       3.954  -2.728 -12.671  0.00  0.00    -0.005 C 
ATOM     15  C   LIG d   1       2.665  -3.136 -11.927  0.00  0.00     0.176 C 
ATOM     16  C   LIG d   1       3.578   0.960  -8.713  0.00  0.00    -0.007 C 
ATOM     17  C   LIG d   1       4.866   0.217  -8.487  0.00  0.00    -0.057 C 
ATOM     18  C   LIG d   1       5.262  -0.182  -7.287  0.00  0.00    -0.019 C 
ATOM     19  C   LIG d   1       4.385  -0.019  -6.118  0.00  0.00     0.156 C 
ATOM     20  O   LIG d   1       4.833  -0.081  -4.986  0.00  0.00    -0.293 OA
ATOM     21  C   LIG d   1       2.916   0.226  -6.373  0.00  0.00     0.011 C 
ATOM     22  C   LIG d   1       2.769   1.263  -7.475  0.00  0.00    -0.037 C 
ATOM     23  H   LIG d   1       4.598  -1.751 -10.309  0.00  0.00     0.027 H 
ATOM     24  H   LIG d   1       5.436  -0.925 -11.642  0.00  0.00     0.027 H 
ATOM     25  H   LIG d   1       3.130  -1.755  -9.073  0.00  0.00     0.027 H 
ATOM     26  H   LIG d   1       1.745  -0.948  -8.308  0.00  0.00     0.027 H 
ATOM     27  H   LIG d   1       0.445  -1.040 -10.337  0.00  0.00     0.027 H 
ATOM     28  H   LIG d   1       0.938  -2.662  -9.905  0.00  0.00     0.027 H 
ATOM     29  H   LIG d   1       4.644  -0.731 -13.227  0.00  0.00     0.027 H 
ATOM     30  H   LIG d   1       3.241  -1.309 -14.158  0.00  0.00     0.027 H 
ATOM     31  H   LIG d   1       4.809  -2.769 -12.002  0.00  0.00     0.031 H 
ATOM     32  H   LIG d   1       4.117  -3.395 -13.520  0.00  0.00     0.031 H 
ATOM     33  H   LIG d   1       6.234  -0.628  -7.111  0.00  0.00     0.065 H 
ATOM     34  H   LIG d   1       2.479  -0.629  -6.653  0.00  0.00     0.035 H 
ATOM     35  H   LIG d   1       2.443   0.597  -5.456  0.00  0.00     0.035 H 
ATOM     36  H   LIG d   1       1.718   1.337  -7.758  0.00  0.00     0.028 H 
ATOM     37  H   LIG d   1       3.085   2.236  -7.089  0.00  0.00     0.028 H 
ENDROOT
BRANCH  15  38
ATOM     38  C   LIG d   1       3.008  -3.902 -10.681  0.00  0.00     0.174 C 
ATOM     39  O   LIG d   1       2.148  -4.511 -10.090  0.00  0.00    -0.293 OA
BRANCH  38  40
ATOM     40  C   LIG d   1       4.425  -3.912 -10.168  0.00  0.00    -0.002 C 
ATOM     41  H   LIG d   1       4.579  -3.105  -9.599  0.00  0.00     0.031 H 
ATOM     42  H   LIG d   1       4.590  -4.812  -9.575  0.00  0.00     0.031 H 
ATOM     43  H   LIG d   1       5.116  -3.901 -11.011  0.00  0.00     0.031 H 
ENDBRANCH  38  40
ENDBRANCH  15  38
BRANCH  15  44
ATOM     44  O   LIG d   1       1.870  -3.994 -12.804  0.00  0.00    -0.450 OA
BRANCH  44  45
ATOM     45  C   LIG d   1       2.541  -4.811 -13.631  0.00  0.00     0.305 C 
ATOM     46  O   LIG d   1       3.059  -5.813 -13.200  0.00  0.00    -0.251 OA
BRANCH  45  47
ATOM     47  C   LIG d   1       2.647  -4.478 -15.097  0.00  0.00     0.033 C 
ATOM     48  H   LIG d   1       2.291  -5.323 -15.687  0.00  0.00     0.034 H 
ATOM     49  H   LIG d   1       2.039  -3.600 -15.314  0.00  0.00     0.034 H 
ATOM     50  H   LIG d   1       3.687  -4.272 -15.348  0.00  0.00     0.034 H 
ENDBRANCH  45  47
ENDBRANCH  44  45
ENDBRANCH  15  44
BRANCH  10  51
ATOM     51  C   LIG d   1       0.663  -1.887 -12.602  0.00  0.00    -0.055 C 
ATOM     52  H   LIG d   1       0.948  -2.353 -13.546  0.00  0.00     0.024 H 
ATOM     53  H   LIG d   1      -0.136  -2.465 -12.139  0.00  0.00     0.024 H 
ATOM     54  H   LIG d   1       0.316  -0.870 -12.790  0.00  0.00     0.024 H 
ENDBRANCH  10  51
BRANCH  16  55
ATOM     55  C   LIG d   1       3.963   2.334  -9.276  0.00  0.00    -0.056 C 
ATOM     56  H   LIG d   1       3.489   2.474 -10.248  0.00  0.00     0.024 H 
ATOM     57  H   LIG d   1       3.627   3.113  -8.592  0.00  0.00     0.024 H 
ATOM     58  H   LIG d   1       5.046   2.390  -9.388  0.00  0.00     0.024 H 
ENDBRANCH  16  55
BRANCH   1  59
ATOM     59  C   LIG d   1       6.970  -0.836  -9.418  0.00  0.00    -0.059 C 
ATOM     60  H   LIG d   1       6.702  -1.693  -8.802  0.00  0.00     0.024 H 
ATOM     61  H   LIG d   1       7.411  -1.183 -10.352  0.00  0.00     0.024 H 
ATOM     62  H   LIG d   1       7.691  -0.216  -8.885  0.00  0.00     0.024 H 
ENDBRANCH   1  59
TORSDOF 8
ENDMDL
MODEL 7
REMARK VINA RESULT:      -5.0      5.652      8.275
REMARK  8 active torsions:
REMARK  status: ('A' for Active; 'I' for Inactive)
REMARK    1  A    between atoms: C_1  and  C_2 
REMARK    2  A    between atoms: C_11  and  C_24 
REMARK    3  A    between atoms: C_16  and  C_17 
REMARK    4  A    between atoms: C_16  and  O_20 
REMARK    5  A    between atoms: C_17  and  C_19 
REMARK    6  A    between atoms: O_20  and  C_21 
REMARK    7  A    between atoms: C_21  and  C_23 
REMARK    8  A    between atoms: C_25  and  C_32 
ROOT
ATOM      1  C   LIG d   1       2.013  -3.508 -10.358  0.00  0.00    -0.021 C 
ATOM      2  H   LIG d   1       0.942  -3.569 -10.154  0.00  0.00     0.034 H 
ATOM      3  C   LIG d   1       2.579  -2.244  -9.685  0.00  0.00    -0.043 C 
ATOM      4  C   LIG d   1       1.923  -1.000 -10.269  0.00  0.00    -0.033 C 
ATOM      5  H   LIG d   1       0.835  -1.086 -10.093  0.00  0.00     0.031 H 
ATOM      6  C   LIG d   1       2.160  -0.898 -11.773  0.00  0.00    -0.029 C 
ATOM      7  H   LIG d   1       1.631  -0.023 -12.165  0.00  0.00     0.031 H 
ATOM      8  C   LIG d   1       3.664  -0.720 -12.010  0.00  0.00    -0.049 C 
ATOM      9  C   LIG d   1       4.089   0.621 -11.428  0.00  0.00    -0.043 C 
ATOM     10  C   LIG d   1       3.749   0.801  -9.973  0.00  0.00     0.018 C 
ATOM     11  C   LIG d   1       2.377   0.267  -9.555  0.00  0.00    -0.028 C 
ATOM     12  H   LIG d   1       1.609   1.062  -9.692  0.00  0.00     0.031 H 
ATOM     13  C   LIG d   1       2.535  -0.054  -8.045  0.00  0.00    -0.045 C 
ATOM     14  C   LIG d   1       4.006  -0.488  -7.892  0.00  0.00    -0.005 C 
ATOM     15  C   LIG d   1       4.785   0.280  -8.980  0.00  0.00     0.176 C 
ATOM     16  C   LIG d   1       1.674  -2.147 -12.497  0.00  0.00    -0.007 C 
ATOM     17  C   LIG d   1       2.260  -3.371 -11.848  0.00  0.00    -0.057 C 
ATOM     18  C   LIG d   1       2.921  -4.295 -12.528  0.00  0.00    -0.019 C 
ATOM     19  C   LIG d   1       3.220  -4.104 -13.955  0.00  0.00     0.156 C 
ATOM     20  O   LIG d   1       3.534  -5.047 -14.661  0.00  0.00    -0.293 OA
ATOM     21  C   LIG d   1       3.123  -2.701 -14.509  0.00  0.00     0.011 C 
ATOM     22  C   LIG d   1       1.848  -2.051 -13.993  0.00  0.00    -0.037 C 
ATOM     23  H   LIG d   1       3.653  -2.217  -9.849  0.00  0.00     0.027 H 
ATOM     24  H   LIG d   1       2.375  -2.310  -8.616  0.00  0.00     0.027 H 
ATOM     25  H   LIG d   1       4.212  -1.540 -11.555  0.00  0.00     0.027 H 
ATOM     26  H   LIG d   1       3.857  -0.717 -13.088  0.00  0.00     0.027 H 
ATOM     27  H   LIG d   1       3.556   1.410 -11.991  0.00  0.00     0.027 H 
ATOM     28  H   LIG d   1       5.148   0.793 -11.608  0.00  0.00     0.027 H 
ATOM     29  H   LIG d   1       1.856  -0.848  -7.738  0.00  0.00     0.027 H 
ATOM     30  H   LIG d   1       2.341   0.839  -7.443  0.00  0.00     0.027 H 
ATOM     31  H   LIG d   1       4.112  -1.560  -8.032  0.00  0.00     0.031 H 
ATOM     32  H   LIG d   1       4.377  -0.204  -6.904  0.00  0.00     0.031 H 
ATOM     33  H   LIG d   1       3.257  -5.223 -12.078  0.00  0.00     0.065 H 
ATOM     34  H   LIG d   1       3.917  -2.171 -14.213  0.00  0.00     0.035 H 
ATOM     35  H   LIG d   1       3.095  -2.742 -15.603  0.00  0.00     0.035 H 
ATOM     36  H   LIG d   1       1.847  -0.996 -14.274  0.00  0.00     0.028 H 
ATOM     37  H   LIG d   1       0.989  -2.529 -14.471  0.00  0.00     0.028 H 
ENDROOT
BRANCH  15  38
ATOM     38  C   LIG d   1       5.814  -0.616  -9.608  0.00  0.00     0.174 C 
ATOM     39  O   LIG d   1       6.610  -0.163 -10.396  0.00  0.00    -0.293 OA
BRANCH  38  40
ATOM     40  C   LIG d   1       5.856  -2.080  -9.255  0.00  0.00    -0.002 C 
ATOM     41  H   LIG d   1       5.010  -2.334  -8.785  0.00  0.00     0.031 H 
ATOM     42  H   LIG d   1       5.956  -2.671 -10.166  0.00  0.00     0.031 H 
ATOM     43  H   LIG d   1       6.707  -2.273  -8.601  0.00  0.00     0.031 H 
ENDBRANCH  38  40
ENDBRANCH  15  38
BRANCH  15  44
ATOM     44  O   LIG d   1       5.465   1.415  -8.358  0.00  0.00    -0.450 OA
BRANCH  44  45
ATOM     45  C   LIG d   1       6.477   1.137  -7.523  0.00  0.00     0.305 C 
ATOM     46  O   LIG d   1       6.275   0.487  -6.524  0.00  0.00    -0.251 OA
BRANCH  45  47
ATOM     47  C   LIG d   1       7.866   1.632  -7.831  0.00  0.00     0.033 C 
ATOM     48  H   LIG d   1       7.839   2.258  -8.723  0.00  0.00     0.034 H 
ATOM     49  H   LIG d   1       8.239   2.215  -6.988  0.00  0.00     0.034 H 
ATOM     50  H   LIG d   1       8.525   0.781  -8.004  0.00  0.00     0.034 H 
ENDBRANCH  45  47
ENDBRANCH  44  45
ENDBRANCH  15  44
BRANCH  10  51
ATOM     51  C   LIG d   1       3.692   2.338  -9.752  0.00  0.00    -0.055 C 
ATOM     52  H   LIG d   1       4.559   2.653  -9.171  0.00  0.00     0.024 H 
ATOM     53  H   LIG d   1       3.697   2.845 -10.716  0.00  0.00     0.024 H 
ATOM     54  H   LIG d   1       2.780   2.594  -9.210  0.00  0.00     0.024 H 
ENDBRANCH  10  51
BRANCH  16  55
ATOM     55  C   LIG d   1       0.157  -2.229 -12.284  0.00  0.00    -0.056 C 
ATOM     56  H   LIG d   1      -0.115  -1.671 -11.388  0.00  0.00     0.024 H 
ATOM     57  H   LIG d   1      -0.354  -1.802 -13.147  0.00  0.00     0.024 H 
ATOM     58  H   LIG d   1      -0.138  -3.272 -12.167  0.00  0.00     0.024 H 
ENDBRANCH  16  55
BRANCH   1  59
ATOM     59  C   LIG d   1       2.700  -4.735  -9.763  0.00  0.00    -0.059 C 
ATOM     60  H   LIG d   1       3.040  -5.387 -10.568  0.00  0.00     0.024 H 
ATOM     61  H   LIG d   1       3.555  -4.419  -9.166  0.00  0.00     0.024 H 
ATOM     62  H   LIG d   1       1.996  -5.276  -9.132  0.00  0.00     0.024 H 
ENDBRANCH   1  59
TORSDOF 8
ENDMDL
MODEL 8
REMARK VINA RESULT:      -4.9      3.391      5.746
REMARK  8 active torsions:
REMARK  status: ('A' for Active; 'I' for Inactive)
REMARK    1  A    between atoms: C_1  and  C_2 
REMARK    2  A    between atoms: C_11  and  C_24 
REMARK    3  A    between atoms: C_16  and  C_17 
REMARK    4  A    between atoms: C_16  and  O_20 
REMARK    5  A    between atoms: C_17  and  C_19 
REMARK    6  A    between atoms: O_20  and  C_21 
REMARK    7  A    between atoms: C_21  and  C_23 
REMARK    8  A    between atoms: C_25  and  C_32 
ROOT
ATOM      1  C   LIG d   1       6.198  -1.283  -5.170  0.00  0.00    -0.021 C 
ATOM      2  H   LIG d   1       6.696  -2.245  -5.033  0.00  0.00     0.034 H 
ATOM      3  C   LIG d   1       5.469  -1.286  -6.527  0.00  0.00    -0.043 C 
ATOM      4  C   LIG d   1       6.472  -1.455  -7.660  0.00  0.00    -0.033 C 
ATOM      5  H   LIG d   1       7.000  -2.412  -7.495  0.00  0.00     0.031 H 
ATOM      6  C   LIG d   1       7.505  -0.331  -7.665  0.00  0.00    -0.029 C 
ATOM      7  H   LIG d   1       8.237  -0.515  -8.457  0.00  0.00     0.031 H 
ATOM      8  C   LIG d   1       6.776   0.987  -7.953  0.00  0.00    -0.049 C 
ATOM      9  C   LIG d   1       6.214   0.929  -9.366  0.00  0.00    -0.043 C 
ATOM     10  C   LIG d   1       5.317  -0.249  -9.629  0.00  0.00     0.018 C 
ATOM     11  C   LIG d   1       5.782  -1.571  -9.014  0.00  0.00    -0.028 C 
ATOM     12  H   LIG d   1       6.455  -2.098  -9.726  0.00  0.00     0.031 H 
ATOM     13  C   LIG d   1       4.475  -2.386  -8.826  0.00  0.00    -0.045 C 
ATOM     14  C   LIG d   1       3.394  -1.328  -8.534  0.00  0.00    -0.005 C 
ATOM     15  C   LIG d   1       3.844  -0.053  -9.278  0.00  0.00     0.176 C 
ATOM     16  C   LIG d   1       8.224  -0.234  -6.325  0.00  0.00    -0.007 C 
ATOM     17  C   LIG d   1       7.216  -0.160  -5.211  0.00  0.00    -0.057 C 
ATOM     18  C   LIG d   1       7.229   0.798  -4.297  0.00  0.00    -0.019 C 
ATOM     19  C   LIG d   1       8.173   1.920  -4.401  0.00  0.00     0.156 C 
ATOM     20  O   LIG d   1       8.418   2.624  -3.437  0.00  0.00    -0.293 OA
ATOM     21  C   LIG d   1       8.824   2.165  -5.743  0.00  0.00     0.011 C 
ATOM     22  C   LIG d   1       9.288   0.836  -6.319  0.00  0.00    -0.037 C 
ATOM     23  H   LIG d   1       4.934  -0.346  -6.633  0.00  0.00     0.027 H 
ATOM     24  H   LIG d   1       4.759  -2.112  -6.527  0.00  0.00     0.027 H 
ATOM     25  H   LIG d   1       5.989   1.145  -7.221  0.00  0.00     0.027 H 
ATOM     26  H   LIG d   1       7.493   1.812  -7.888  0.00  0.00     0.027 H 
ATOM     27  H   LIG d   1       7.073   0.852 -10.060  0.00  0.00     0.027 H 
ATOM     28  H   LIG d   1       5.717   1.865  -9.614  0.00  0.00     0.027 H 
ATOM     29  H   LIG d   1       4.566  -3.093  -8.003  0.00  0.00     0.027 H 
ATOM     30  H   LIG d   1       4.231  -2.931  -9.744  0.00  0.00     0.027 H 
ATOM     31  H   LIG d   1       3.314  -1.137  -7.467  0.00  0.00     0.031 H 
ATOM     32  H   LIG d   1       2.430  -1.661  -8.924  0.00  0.00     0.031 H 
ATOM     33  H   LIG d   1       6.565   0.795  -3.439  0.00  0.00     0.065 H 
ATOM     34  H   LIG d   1       8.162   2.589  -6.361  0.00  0.00     0.035 H 
ATOM     35  H   LIG d   1       9.686   2.829  -5.615  0.00  0.00     0.035 H 
ATOM     36  H   LIG d   1       9.628   0.992  -7.345  0.00  0.00     0.028 H 
ATOM     37  H   LIG d   1      10.137   0.474  -5.733  0.00  0.00     0.028 H 
ENDROOT
BRANCH  15  38
ATOM     38  C   LIG d   1       3.590   1.159  -8.428  0.00  0.00     0.174 C 
ATOM     39  O   LIG d   1       3.433   1.040  -7.237  0.00  0.00    -0.293 OA
BRANCH  38  40
ATOM     40  C   LIG d   1       3.533   2.525  -9.062  0.00  0.00    -0.002 C 
ATOM     41  H   LIG d   1       3.145   2.451  -9.980  0.00  0.00     0.031 H 
ATOM     42  H   LIG d   1       2.907   3.181  -8.456  0.00  0.00     0.031 H 
ATOM     43  H   LIG d   1       4.539   2.940  -9.124  0.00  0.00     0.031 H 
ENDBRANCH  38  40
ENDBRANCH  15  38
BRANCH  15  44
ATOM     44  O   LIG d   1       3.070   0.067 -10.513  0.00  0.00    -0.450 OA
BRANCH  44  45
ATOM     45  C   LIG d   1       1.943  -0.657 -10.599  0.00  0.00     0.305 C 
ATOM     46  O   LIG d   1       1.028  -0.441  -9.842  0.00  0.00    -0.251 OA
BRANCH  45  47
ATOM     47  C   LIG d   1       1.821  -1.739 -11.641  0.00  0.00     0.033 C 
ATOM     48  H   LIG d   1       2.537  -1.554 -12.442  0.00  0.00     0.034 H 
ATOM     49  H   LIG d   1       2.026  -2.707 -11.185  0.00  0.00     0.034 H 
ATOM     50  H   LIG d   1       0.810  -1.736 -12.050  0.00  0.00     0.034 H 
ENDBRANCH  45  47
ENDBRANCH  44  45
ENDBRANCH  15  44
BRANCH  10  51
ATOM     51  C   LIG d   1       5.357  -0.460 -11.168  0.00  0.00    -0.055 C 
ATOM     52  H   LIG d   1       4.380  -0.224 -11.592  0.00  0.00     0.024 H 
ATOM     53  H   LIG d   1       6.111   0.193 -11.606  0.00  0.00     0.024 H 
ATOM     54  H   LIG d   1       5.605  -1.500 -11.386  0.00  0.00     0.024 H 
ENDBRANCH  10  51
BRANCH  16  55
ATOM     55  C   LIG d   1       8.990  -1.549  -6.130  0.00  0.00    -0.056 C 
ATOM     56  H   LIG d   1      10.013  -1.331  -5.820  0.00  0.00     0.024 H 
ATOM     57  H   LIG d   1       8.497  -2.145  -5.363  0.00  0.00     0.024 H 
ATOM     58  H   LIG d   1       9.005  -2.103  -7.068  0.00  0.00     0.024 H 
ENDBRANCH  16  55
BRANCH   1  59
ATOM     59  C   LIG d   1       5.169  -1.096  -4.056  0.00  0.00    -0.059 C 
ATOM     60  H   LIG d   1       5.305  -0.118  -3.597  0.00  0.00     0.024 H 
ATOM     61  H   LIG d   1       4.165  -1.166  -4.474  0.00  0.00     0.024 H 
ATOM     62  H   LIG d   1       5.304  -1.872  -3.303  0.00  0.00     0.024 H 
ENDBRANCH   1  59
TORSDOF 8
ENDMDL
MODEL 9
REMARK VINA RESULT:      -4.9      1.974      6.369
REMARK  8 active torsions:
REMARK  status: ('A' for Active; 'I' for Inactive)
REMARK    1  A    between atoms: C_1  and  C_2 
REMARK    2  A    between atoms: C_11  and  C_24 
REMARK    3  A    between atoms: C_16  and  C_17 
REMARK    4  A    between atoms: C_16  and  O_20 
REMARK    5  A    between atoms: C_17  and  C_19 
REMARK    6  A    between atoms: O_20  and  C_21 
REMARK    7  A    between atoms: C_21  and  C_23 
REMARK    8  A    between atoms: C_25  and  C_32 
ROOT
ATOM      1  C   LIG d   1       6.435   0.154  -5.754  0.00  0.00    -0.021 C 
ATOM      2  H   LIG d   1       5.913   0.689  -6.550  0.00  0.00     0.034 H 
ATOM      3  C   LIG d   1       6.853  -1.234  -6.273  0.00  0.00    -0.043 C 
ATOM      4  C   LIG d   1       5.620  -2.047  -6.647  0.00  0.00    -0.033 C 
ATOM      5  H   LIG d   1       5.075  -1.483  -7.426  0.00  0.00     0.031 H 
ATOM      6  C   LIG d   1       4.691  -2.234  -5.451  0.00  0.00    -0.029 C 
ATOM      7  H   LIG d   1       3.795  -2.775  -5.769  0.00  0.00     0.031 H 
ATOM      8  C   LIG d   1       5.430  -3.067  -4.397  0.00  0.00    -0.049 C 
ATOM      9  C   LIG d   1       5.669  -4.460  -4.962  0.00  0.00    -0.043 C 
ATOM     10  C   LIG d   1       6.405  -4.478  -6.275  0.00  0.00     0.018 C 
ATOM     11  C   LIG d   1       5.993  -3.388  -7.266  0.00  0.00    -0.028 C 
ATOM     12  H   LIG d   1       5.148  -3.752  -7.892  0.00  0.00     0.031 H 
ATOM     13  C   LIG d   1       7.250  -3.183  -8.153  0.00  0.00    -0.045 C 
ATOM     14  C   LIG d   1       8.439  -3.457  -7.211  0.00  0.00    -0.005 C 
ATOM     15  C   LIG d   1       7.928  -4.485  -6.180  0.00  0.00     0.176 C 
ATOM     16  C   LIG d   1       4.285  -0.894  -4.849  0.00  0.00    -0.007 C 
ATOM     17  C   LIG d   1       5.512  -0.069  -4.572  0.00  0.00    -0.057 C 
ATOM     18  C   LIG d   1       5.763   0.465  -3.386  0.00  0.00    -0.019 C 
ATOM     19  C   LIG d   1       4.898   0.170  -2.235  0.00  0.00     0.156 C 
ATOM     20  O   LIG d   1       4.915   0.876  -1.241  0.00  0.00    -0.293 OA
ATOM     21  C   LIG d   1       3.992  -1.036  -2.330  0.00  0.00     0.011 C 
ATOM     22  C   LIG d   1       3.324  -1.048  -3.696  0.00  0.00    -0.037 C 
ATOM     23  H   LIG d   1       7.417  -1.739  -5.493  0.00  0.00     0.027 H 
ATOM     24  H   LIG d   1       7.488  -1.091  -7.147  0.00  0.00     0.027 H 
ATOM     25  H   LIG d   1       6.365  -2.584  -4.129  0.00  0.00     0.027 H 
ATOM     26  H   LIG d   1       4.802  -3.149  -3.503  0.00  0.00     0.027 H 
ATOM     27  H   LIG d   1       4.678  -4.921  -5.133  0.00  0.00     0.027 H 
ATOM     28  H   LIG d   1       6.164  -5.087  -4.225  0.00  0.00     0.027 H 
ATOM     29  H   LIG d   1       7.290  -2.170  -8.552  0.00  0.00     0.027 H 
ATOM     30  H   LIG d   1       7.254  -3.898  -8.982  0.00  0.00     0.027 H 
ATOM     31  H   LIG d   1       8.760  -2.545  -6.714  0.00  0.00     0.031 H 
ATOM     32  H   LIG d   1       9.271  -3.883  -7.776  0.00  0.00     0.031 H 
ATOM     33  H   LIG d   1       6.594   1.140  -3.214  0.00  0.00     0.065 H 
ATOM     34  H   LIG d   1       4.532  -1.869  -2.210  0.00  0.00     0.035 H 
ATOM     35  H   LIG d   1       3.226  -0.980  -1.549  0.00  0.00     0.035 H 
ATOM     36  H   LIG d   1       2.782  -1.988  -3.820  0.00  0.00     0.028 H 
ATOM     37  H   LIG d   1       2.598  -0.232  -3.742  0.00  0.00     0.028 H 
ENDROOT
BRANCH  15  38
ATOM     38  C   LIG d   1       8.442  -4.143  -4.810  0.00  0.00     0.174 C 
ATOM     39  O   LIG d   1       8.444  -4.979  -3.939  0.00  0.00    -0.293 OA
BRANCH  38  40
ATOM     40  C   LIG d   1       8.957  -2.755  -4.523  0.00  0.00    -0.002 C 
ATOM     41  H   LIG d   1       9.245  -2.323  -5.378  0.00  0.00     0.031 H 
ATOM     42  H   LIG d   1       8.165  -2.162  -4.065  0.00  0.00     0.031 H 
ATOM     43  H   LIG d   1       9.805  -2.816  -3.842  0.00  0.00     0.031 H 
ENDBRANCH  38  40
ENDBRANCH  15  38
BRANCH  15  44
ATOM     44  O   LIG d   1       8.425  -5.809  -6.552  0.00  0.00    -0.450 OA
BRANCH  44  45
ATOM     45  C   LIG d   1       9.627  -5.864  -7.146  0.00  0.00     0.305 C 
ATOM     46  O   LIG d   1      10.632  -5.718  -6.491  0.00  0.00    -0.251 OA
BRANCH  45  47
ATOM     47  C   LIG d   1       9.724  -6.110  -8.630  0.00  0.00     0.033 C 
ATOM     48  H   LIG d   1      10.668  -5.713  -9.002  0.00  0.00     0.034 H 
ATOM     49  H   LIG d   1       9.678  -7.182  -8.823  0.00  0.00     0.034 H 
ATOM     50  H   LIG d   1       8.896  -5.614  -9.135  0.00  0.00     0.034 H 
ENDBRANCH  45  47
ENDBRANCH  44  45
ENDBRANCH  15  44
BRANCH  10  51
ATOM     51  C   LIG d   1       6.020  -5.827  -6.942  0.00  0.00    -0.055 C 
ATOM     52  H   LIG d   1       4.974  -5.796  -7.248  0.00  0.00     0.024 H 
ATOM     53  H   LIG d   1       6.649  -5.993  -7.817  0.00  0.00     0.024 H 
ATOM     54  H   LIG d   1       6.166  -6.640  -6.230  0.00  0.00     0.024 H 
ENDBRANCH  10  51
BRANCH  16  55
ATOM     55  C   LIG d   1       3.490  -0.141  -5.924  0.00  0.00    -0.056 C 
ATOM     56  H   LIG d   1       3.142  -0.846  -6.679  0.00  0.00     0.024 H 
ATOM     57  H   LIG d   1       2.634   0.351  -5.463  0.00  0.00     0.024 H 
ATOM     58  H   LIG d   1       4.130   0.606  -6.392  0.00  0.00     0.024 H 
ENDBRANCH  16  55
BRANCH   1  59
ATOM     59  C   LIG d   1       7.690   0.938  -5.373  0.00  0.00    -0.059 C 
ATOM     60  H   LIG d   1       7.688   1.898  -5.887  0.00  0.00     0.024 H 
ATOM     61  H   LIG d   1       7.704   1.101  -4.296  0.00  0.00     0.024 H 
ATOM     62  H   LIG d   1       8.575   0.372  -5.666  0.00  0.00     0.024 H 
ENDBRANCH   1  59
TORSDOF 8
ENDMDL
