MODEL 1
REMARK VINA RESULT:      -5.8      0.000      0.000
REMARK  9 active torsions:
REMARK  status: ('A' for Active; 'I' for Inactive)
REMARK    1  A    between atoms: C_1  and  N_2 
REMARK    2  A    between atoms: C_9  and  O_28 
REMARK    3  A    between atoms: C_11  and  C_13 
REMARK    4  A    between atoms: N_17  and  C_18 
REMARK    5  A    between atoms: C_21  and  O_26 
REMARK    6  A    between atoms: C_22  and  O_24 
REMARK    7  A    between atoms: O_24  and  C_25 
REMARK    8  A    between atoms: O_26  and  C_27 
REMARK    9  A    between atoms: O_28  and  C_29 
ROOT
ATOM      1  N   LIG d   1       7.204  -3.586  -6.026  0.00  0.00    -0.292 N 
ATOM      2  C   LIG d   1       6.454  -4.592  -5.257  0.00  0.00     0.004 C 
ATOM      3  C   LIG d   1       5.115  -3.983  -4.837  0.00  0.00    -0.014 C 
ATOM      4  C   LIG d   1       5.340  -2.641  -4.189  0.00  0.00    -0.034 A 
ATOM      5  C   LIG d   1       4.313  -2.094  -3.433  0.00  0.00    -0.012 A 
ATOM      6  C   LIG d   1       4.468  -0.860  -2.825  0.00  0.00     0.170 A 
ATOM      7  C   LIG d   1       5.665  -0.166  -2.971  0.00  0.00     0.208 A 
ATOM      8  C   LIG d   1       6.690  -0.717  -3.726  0.00  0.00     0.171 A 
ATOM      9  C   LIG d   1       6.528  -1.958  -4.334  0.00  0.00     0.026 A 
ATOM     10  C   LIG d   1       7.673  -2.516  -5.139  0.00  0.00     0.102 C 
ATOM     11  H   LIG d   1       8.420  -2.954  -4.462  0.00  0.00     0.060 H 
ATOM     12  O   LIG d   1       5.572   1.012  -2.286  0.00  0.00    -0.449 OA
ATOM     13  C   LIG d   1       4.166   1.214  -2.057  0.00  0.00     0.233 C 
ATOM     14  O   LIG d   1       3.626  -0.120  -2.046  0.00  0.00    -0.453 OA
ATOM     15  H   LIG d   1       6.283  -5.479  -5.884  0.00  0.00     0.043 H 
ATOM     16  H   LIG d   1       7.031  -4.877  -4.366  0.00  0.00     0.043 H 
ATOM     17  H   LIG d   1       4.477  -3.854  -5.725  0.00  0.00     0.033 H 
ATOM     18  H   LIG d   1       4.616  -4.653  -4.123  0.00  0.00     0.033 H 
ATOM     19  H   LIG d   1       3.385  -2.635  -3.320  0.00  0.00     0.066 H 
ATOM     20  H   LIG d   1       4.021   1.730  -1.096  0.00  0.00     0.117 H 
ATOM     21  H   LIG d   1       3.747   1.827  -2.868  0.00  0.00     0.117 H 
ENDROOT
BRANCH  10  22
ATOM     22  C   LIG d   1       8.281  -1.414  -5.967  0.00  0.00     0.178 A 
ATOM     23  N   LIG d   1       7.659  -0.697  -6.928  0.00  0.00    -0.195 N 
ATOM     24  N   LIG d   1       8.630   0.201  -7.405  0.00  0.00    -0.039 NA
ATOM     25  N   LIG d   1       9.706  -0.026  -6.734  0.00  0.00    -0.023 NA
ATOM     26  N   LIG d   1       9.508  -0.968  -5.884  0.00  0.00    -0.111 NA
BRANCH  23  27
ATOM     27  C   LIG d   1       6.330  -0.823  -7.359  0.00  0.00     0.073 A 
ATOM     28  C   LIG d   1       5.355   0.028  -6.859  0.00  0.00     0.009 A 
ATOM     29  C   LIG d   1       4.044  -0.094  -7.288  0.00  0.00     0.164 A 
ATOM     30  H   LIG d   1       5.619   0.788  -6.138  0.00  0.00     0.068 H 
ATOM     31  C   LIG d   1       3.706  -1.078  -8.213  0.00  0.00     0.162 A 
ATOM     32  C   LIG d   1       4.681  -1.931  -8.706  0.00  0.00    -0.014 A 
ATOM     33  C   LIG d   1       5.989  -1.804  -8.280  0.00  0.00    -0.033 A 
ATOM     34  H   LIG d   1       4.418  -2.694  -9.422  0.00  0.00     0.066 H 
ATOM     35  H   LIG d   1       6.747  -2.470  -8.665  0.00  0.00     0.064 H 
BRANCH  29  36
ATOM     36  O   LIG d   1       3.088   0.743  -6.804  0.00  0.00    -0.491 OA
BRANCH  36  37
ATOM     37  C   LIG d   1       2.582   0.464  -5.497  0.00  0.00     0.079 C 
ATOM     38  H   LIG d   1       1.486   0.547  -5.503  0.00  0.00     0.066 H 
ATOM     39  H   LIG d   1       3.002   1.186  -4.780  0.00  0.00     0.066 H 
ATOM     40  H   LIG d   1       2.871  -0.556  -5.202  0.00  0.00     0.066 H 
ENDBRANCH  36  37
ENDBRANCH  29  36
BRANCH  31  41
ATOM     41  O   LIG d   1       2.418  -1.203  -8.633  0.00  0.00    -0.491 OA
BRANCH  41  42
ATOM     42  C   LIG d   1       2.105  -0.690  -9.930  0.00  0.00     0.079 C 
ATOM     43  H   LIG d   1       2.830   0.092 -10.199  0.00  0.00     0.066 H 
ATOM     44  H   LIG d   1       1.091  -0.264  -9.921  0.00  0.00     0.066 H 
ATOM     45  H   LIG d   1       2.154  -1.505 -10.667  0.00  0.00     0.066 H 
ENDBRANCH  41  42
ENDBRANCH  31  41
ENDBRANCH  23  27
ENDBRANCH  10  22
BRANCH   1  46
ATOM     46  C   LIG d   1       8.325  -4.202  -6.745  0.00  0.00    -0.012 C 
ATOM     47  H   LIG d   1       8.141  -4.146  -7.829  0.00  0.00     0.039 H 
ATOM     48  H   LIG d   1       8.422  -5.255  -6.444  0.00  0.00     0.039 H 
ATOM     49  H   LIG d   1       9.255  -3.665  -6.505  0.00  0.00     0.039 H 
ENDBRANCH   1  46
BRANCH   8  50
ATOM     50  O   LIG d   1       7.862  -0.041  -3.871  0.00  0.00    -0.491 OA
BRANCH  50  51
ATOM     51  C   LIG d   1       7.782   1.384  -3.953  0.00  0.00     0.079 C 
ATOM     52  H   LIG d   1       7.090   1.666  -4.761  0.00  0.00     0.066 H 
ATOM     53  H   LIG d   1       8.781   1.795  -4.166  0.00  0.00     0.066 H 
ATOM     54  H   LIG d   1       7.415   1.787  -2.998  0.00  0.00     0.066 H 
ENDBRANCH  50  51
ENDBRANCH   8  50
TORSDOF 9
ENDMDL
MODEL 2
REMARK VINA RESULT:      -5.7      2.775      4.460
REMARK  9 active torsions:
REMARK  status: ('A' for Active; 'I' for Inactive)
REMARK    1  A    between atoms: C_1  and  N_2 
REMARK    2  A    between atoms: C_9  and  O_28 
REMARK    3  A    between atoms: C_11  and  C_13 
REMARK    4  A    between atoms: N_17  and  C_18 
REMARK    5  A    between atoms: C_21  and  O_26 
REMARK    6  A    between atoms: C_22  and  O_24 
REMARK    7  A    between atoms: O_24  and  C_25 
REMARK    8  A    between atoms: O_26  and  C_27 
REMARK    9  A    between atoms: O_28  and  C_29 
ROOT
ATOM      1  N   LIG d   1       3.882  -0.260  -4.930  0.00  0.00    -0.292 N 
ATOM      2  C   LIG d   1       3.524  -1.078  -3.760  0.00  0.00     0.004 C 
ATOM      3  C   LIG d   1       4.785  -1.311  -2.926  0.00  0.00    -0.014 C 
ATOM      4  C   LIG d   1       5.900  -1.813  -3.807  0.00  0.00    -0.034 A 
ATOM      5  C   LIG d   1       6.997  -2.411  -3.205  0.00  0.00    -0.012 A 
ATOM      6  C   LIG d   1       8.050  -2.880  -3.971  0.00  0.00     0.170 A 
ATOM      7  C   LIG d   1       8.005  -2.751  -5.356  0.00  0.00     0.208 A 
ATOM      8  C   LIG d   1       6.906  -2.155  -5.954  0.00  0.00     0.171 A 
ATOM      9  C   LIG d   1       5.850  -1.686  -5.179  0.00  0.00     0.026 A 
ATOM     10  C   LIG d   1       4.676  -1.049  -5.876  0.00  0.00     0.102 C 
ATOM     11  H   LIG d   1       4.020  -1.833  -6.283  0.00  0.00     0.060 H 
ATOM     12  O   LIG d   1       9.149  -3.283  -5.880  0.00  0.00    -0.449 OA
ATOM     13  C   LIG d   1      10.073  -3.369  -4.779  0.00  0.00     0.233 C 
ATOM     14  O   LIG d   1       9.220  -3.493  -3.627  0.00  0.00    -0.453 OA
ATOM     15  H   LIG d   1       2.769  -0.548  -3.160  0.00  0.00     0.043 H 
ATOM     16  H   LIG d   1       3.114  -2.041  -4.097  0.00  0.00     0.043 H 
ATOM     17  H   LIG d   1       5.092  -0.365  -2.456  0.00  0.00     0.033 H 
ATOM     18  H   LIG d   1       4.575  -2.056  -2.145  0.00  0.00     0.033 H 
ATOM     19  H   LIG d   1       7.029  -2.511  -2.129  0.00  0.00     0.066 H 
ATOM     20  H   LIG d   1      10.722  -4.247  -4.914  0.00  0.00     0.117 H 
ATOM     21  H   LIG d   1      10.690  -2.459  -4.746  0.00  0.00     0.117 H 
ENDROOT
BRANCH  10  22
ATOM     22  C   LIG d   1       5.179  -0.150  -6.975  0.00  0.00     0.178 A 
ATOM     23  N   LIG d   1       4.724  -0.107  -8.246  0.00  0.00    -0.195 N 
ATOM     24  N   LIG d   1       5.499   0.880  -8.882  0.00  0.00    -0.039 NA
ATOM     25  N   LIG d   1       6.319   1.334  -7.997  0.00  0.00    -0.023 NA
ATOM     26  N   LIG d   1       6.133   0.739  -6.874  0.00  0.00    -0.111 NA
BRANCH  23  27
ATOM     27  C   LIG d   1       3.700  -0.881  -8.811  0.00  0.00     0.073 A 
ATOM     28  C   LIG d   1       3.841  -2.258  -8.902  0.00  0.00     0.009 A 
ATOM     29  C   LIG d   1       2.827  -3.022  -9.457  0.00  0.00     0.164 A 
ATOM     30  H   LIG d   1       4.739  -2.735  -8.538  0.00  0.00     0.068 H 
ATOM     31  C   LIG d   1       1.673  -2.404  -9.930  0.00  0.00     0.162 A 
ATOM     32  C   LIG d   1       1.538  -1.027  -9.844  0.00  0.00    -0.014 A 
ATOM     33  C   LIG d   1       2.548  -0.268  -9.286  0.00  0.00    -0.033 A 
ATOM     34  H   LIG d   1       0.644  -0.549 -10.212  0.00  0.00     0.066 H 
ATOM     35  H   LIG d   1       2.441   0.805  -9.220  0.00  0.00     0.064 H 
BRANCH  29  36
ATOM     36  O   LIG d   1       2.960  -4.372  -9.541  0.00  0.00    -0.491 OA
BRANCH  36  37
ATOM     37  C   LIG d   1       3.572  -5.034  -8.432  0.00  0.00     0.079 C 
ATOM     38  H   LIG d   1       2.856  -5.093  -7.600  0.00  0.00     0.066 H 
ATOM     39  H   LIG d   1       4.461  -4.471  -8.113  0.00  0.00     0.066 H 
ATOM     40  H   LIG d   1       3.870  -6.051  -8.731  0.00  0.00     0.066 H 
ENDBRANCH  36  37
ENDBRANCH  29  36
BRANCH  31  41
ATOM     41  O   LIG d   1       0.678  -3.152 -10.479  0.00  0.00    -0.491 OA
BRANCH  41  42
ATOM     42  C   LIG d   1       0.549  -3.117 -11.902  0.00  0.00     0.079 C 
ATOM     43  H   LIG d   1       1.377  -3.679 -12.359  0.00  0.00     0.066 H 
ATOM     44  H   LIG d   1       0.579  -2.073 -12.248  0.00  0.00     0.066 H 
ATOM     45  H   LIG d   1      -0.409  -3.572 -12.194  0.00  0.00     0.066 H 
ENDBRANCH  41  42
ENDBRANCH  31  41
ENDBRANCH  23  27
ENDBRANCH  10  22
BRANCH   1  46
ATOM     46  C   LIG d   1       2.683   0.287  -5.577  0.00  0.00    -0.012 C 
ATOM     47  H   LIG d   1       2.244  -0.475  -6.239  0.00  0.00     0.039 H 
ATOM     48  H   LIG d   1       2.957   1.173  -6.169  0.00  0.00     0.039 H 
ATOM     49  H   LIG d   1       1.948   0.571  -4.809  0.00  0.00     0.039 H 
ENDBRANCH   1  46
BRANCH   8  50
ATOM     50  O   LIG d   1       6.859  -2.028  -7.308  0.00  0.00    -0.491 OA
BRANCH  50  51
ATOM     51  C   LIG d   1       6.934  -3.232  -8.075  0.00  0.00     0.079 C 
ATOM     52  H   LIG d   1       7.893  -3.733  -7.878  0.00  0.00     0.066 H 
ATOM     53  H   LIG d   1       6.860  -2.989  -9.146  0.00  0.00     0.066 H 
ATOM     54  H   LIG d   1       6.106  -3.898  -7.792  0.00  0.00     0.066 H 
ENDBRANCH  50  51
ENDBRANCH   8  50
TORSDOF 9
ENDMDL
MODEL 3
REMARK VINA RESULT:      -5.6      1.945      5.446
REMARK  9 active torsions:
REMARK  status: ('A' for Active; 'I' for Inactive)
REMARK    1  A    between atoms: C_1  and  N_2 
REMARK    2  A    between atoms: C_9  and  O_28 
REMARK    3  A    between atoms: C_11  and  C_13 
REMARK    4  A    between atoms: N_17  and  C_18 
REMARK    5  A    between atoms: C_21  and  O_26 
REMARK    6  A    between atoms: C_22  and  O_24 
REMARK    7  A    between atoms: O_24  and  C_25 
REMARK    8  A    between atoms: O_26  and  C_27 
REMARK    9  A    between atoms: O_28  and  C_29 
ROOT
ATOM      1  N   LIG d   1       7.377  -3.579  -7.544  0.00  0.00    -0.292 N 
ATOM      2  C   LIG d   1       8.327  -2.739  -8.291  0.00  0.00     0.004 C 
ATOM      3  C   LIG d   1       8.033  -1.272  -7.973  0.00  0.00    -0.014 C 
ATOM      4  C   LIG d   1       6.564  -0.989  -8.158  0.00  0.00    -0.034 A 
ATOM      5  C   LIG d   1       6.156   0.332  -8.264  0.00  0.00    -0.012 A 
ATOM      6  C   LIG d   1       4.817   0.643  -8.426  0.00  0.00     0.170 A 
ATOM      7  C   LIG d   1       3.874  -0.379  -8.484  0.00  0.00     0.208 A 
ATOM      8  C   LIG d   1       4.287  -1.699  -8.380  0.00  0.00     0.171 A 
ATOM      9  C   LIG d   1       5.634  -2.005  -8.219  0.00  0.00     0.026 A 
ATOM     10  C   LIG d   1       6.032  -3.455  -8.115  0.00  0.00     0.102 C 
ATOM     11  H   LIG d   1       6.059  -3.902  -9.119  0.00  0.00     0.060 H 
ATOM     12  O   LIG d   1       2.637   0.177  -8.645  0.00  0.00    -0.449 OA
ATOM     13  C   LIG d   1       2.787   1.561  -8.276  0.00  0.00     0.233 C 
ATOM     14  O   LIG d   1       4.172   1.840  -8.551  0.00  0.00    -0.453 OA
ATOM     15  H   LIG d   1       9.354  -2.991  -7.990  0.00  0.00     0.043 H 
ATOM     16  H   LIG d   1       8.206  -2.920  -9.369  0.00  0.00     0.043 H 
ATOM     17  H   LIG d   1       8.315  -1.061  -6.931  0.00  0.00     0.033 H 
ATOM     18  H   LIG d   1       8.615  -0.628  -8.648  0.00  0.00     0.033 H 
ATOM     19  H   LIG d   1       6.889   1.124  -8.219  0.00  0.00     0.066 H 
ATOM     20  H   LIG d   1       2.108   2.177  -8.884  0.00  0.00     0.117 H 
ATOM     21  H   LIG d   1       2.539   1.685  -7.211  0.00  0.00     0.117 H 
ENDROOT
BRANCH  10  22
ATOM     22  C   LIG d   1       5.048  -4.178  -7.233  0.00  0.00     0.178 A 
ATOM     23  N   LIG d   1       4.702  -3.838  -5.972  0.00  0.00    -0.195 N 
ATOM     24  N   LIG d   1       3.762  -4.805  -5.575  0.00  0.00    -0.039 NA
ATOM     25  N   LIG d   1       3.617  -5.613  -6.569  0.00  0.00    -0.023 NA
ATOM     26  N   LIG d   1       4.364  -5.247  -7.548  0.00  0.00    -0.111 NA
BRANCH  23  27
ATOM     27  C   LIG d   1       5.179  -2.754  -5.220  0.00  0.00     0.073 A 
ATOM     28  C   LIG d   1       4.400  -1.616  -5.073  0.00  0.00     0.009 A 
ATOM     29  C   LIG d   1       4.870  -0.547  -4.327  0.00  0.00     0.164 A 
ATOM     30  H   LIG d   1       3.426  -1.563  -5.538  0.00  0.00     0.068 H 
ATOM     31  C   LIG d   1       6.128  -0.615  -3.736  0.00  0.00     0.162 A 
ATOM     32  C   LIG d   1       6.906  -1.751  -3.889  0.00  0.00    -0.014 A 
ATOM     33  C   LIG d   1       6.434  -2.818  -4.630  0.00  0.00    -0.033 A 
ATOM     34  H   LIG d   1       7.882  -1.803  -3.431  0.00  0.00     0.066 H 
ATOM     35  H   LIG d   1       7.042  -3.702  -4.749  0.00  0.00     0.064 H 
BRANCH  29  36
ATOM     36  O   LIG d   1       4.105   0.567  -4.177  0.00  0.00    -0.491 OA
BRANCH  36  37
ATOM     37  C   LIG d   1       2.774   0.515  -4.693  0.00  0.00     0.079 C 
ATOM     38  H   LIG d   1       2.599   1.383  -5.344  0.00  0.00     0.066 H 
ATOM     39  H   LIG d   1       2.057   0.530  -3.859  0.00  0.00     0.066 H 
ATOM     40  H   LIG d   1       2.642  -0.411  -5.274  0.00  0.00     0.066 H 
ENDBRANCH  36  37
ENDBRANCH  29  36
BRANCH  31  41
ATOM     41  O   LIG d   1       6.593   0.435  -3.006  0.00  0.00    -0.491 OA
BRANCH  41  42
ATOM     42  C   LIG d   1       7.485   1.338  -3.664  0.00  0.00     0.079 C 
ATOM     43  H   LIG d   1       6.912   1.993  -4.336  0.00  0.00     0.066 H 
ATOM     44  H   LIG d   1       8.222   0.766  -4.247  0.00  0.00     0.066 H 
ATOM     45  H   LIG d   1       8.006   1.949  -2.913  0.00  0.00     0.066 H 
ENDBRANCH  41  42
ENDBRANCH  31  41
ENDBRANCH  23  27
ENDBRANCH  10  22
BRANCH   1  46
ATOM     46  C   LIG d   1       7.814  -4.980  -7.526  0.00  0.00    -0.012 C 
ATOM     47  H   LIG d   1       7.738  -5.401  -8.540  0.00  0.00     0.039 H 
ATOM     48  H   LIG d   1       7.173  -5.556  -6.842  0.00  0.00     0.039 H 
ATOM     49  H   LIG d   1       8.858  -5.035  -7.185  0.00  0.00     0.039 H 
ENDBRANCH   1  46
BRANCH   8  50
ATOM     50  O   LIG d   1       3.368  -2.701  -8.438  0.00  0.00    -0.491 OA
BRANCH  50  51
ATOM     51  C   LIG d   1       2.738  -2.932  -9.700  0.00  0.00     0.079 C 
ATOM     52  H   LIG d   1       2.521  -4.005  -9.810  0.00  0.00     0.066 H 
ATOM     53  H   LIG d   1       3.410  -2.609 -10.510  0.00  0.00     0.066 H 
ATOM     54  H   LIG d   1       1.800  -2.360  -9.752  0.00  0.00     0.066 H 
ENDBRANCH  50  51
ENDBRANCH   8  50
TORSDOF 9
ENDMDL
MODEL 4
REMARK VINA RESULT:      -5.5      2.817      4.692
REMARK  9 active torsions:
REMARK  status: ('A' for Active; 'I' for Inactive)
REMARK    1  A    between atoms: C_1  and  N_2 
REMARK    2  A    between atoms: C_9  and  O_28 
REMARK    3  A    between atoms: C_11  and  C_13 
REMARK    4  A    between atoms: N_17  and  C_18 
REMARK    5  A    between atoms: C_21  and  O_26 
REMARK    6  A    between atoms: C_22  and  O_24 
REMARK    7  A    between atoms: O_24  and  C_25 
REMARK    8  A    between atoms: O_26  and  C_27 
REMARK    9  A    between atoms: O_28  and  C_29 
ROOT
ATOM      1  N   LIG d   1       4.055  -0.587  -3.444  0.00  0.00    -0.292 N 
ATOM      2  C   LIG d   1       4.467   0.577  -2.644  0.00  0.00     0.004 C 
ATOM      3  C   LIG d   1       5.466   1.398  -3.460  0.00  0.00    -0.014 C 
ATOM      4  C   LIG d   1       6.555   0.503  -3.992  0.00  0.00    -0.034 A 
ATOM      5  C   LIG d   1       7.726   1.089  -4.449  0.00  0.00    -0.012 A 
ATOM      6  C   LIG d   1       8.752   0.310  -4.955  0.00  0.00     0.170 A 
ATOM      7  C   LIG d   1       8.606  -1.073  -5.005  0.00  0.00     0.208 A 
ATOM      8  C   LIG d   1       7.435  -1.656  -4.546  0.00  0.00     0.171 A 
ATOM      9  C   LIG d   1       6.408  -0.867  -4.037  0.00  0.00     0.026 A 
ATOM     10  C   LIG d   1       5.157  -1.548  -3.546  0.00  0.00     0.102 C 
ATOM     11  H   LIG d   1       5.331  -1.958  -2.541  0.00  0.00     0.060 H 
ATOM     12  O   LIG d   1       9.741  -1.612  -5.540  0.00  0.00    -0.449 OA
ATOM     13  C   LIG d   1      10.415  -0.520  -6.192  0.00  0.00     0.233 C 
ATOM     14  O   LIG d   1       9.978   0.638  -5.458  0.00  0.00    -0.453 OA
ATOM     15  H   LIG d   1       3.584   1.188  -2.404  0.00  0.00     0.043 H 
ATOM     16  H   LIG d   1       4.938   0.232  -1.711  0.00  0.00     0.043 H 
ATOM     17  H   LIG d   1       4.945   1.876  -4.303  0.00  0.00     0.033 H 
ATOM     18  H   LIG d   1       5.913   2.172  -2.820  0.00  0.00     0.033 H 
ATOM     19  H   LIG d   1       7.838   2.164  -4.409  0.00  0.00     0.066 H 
ATOM     20  H   LIG d   1      11.503  -0.669  -6.126  0.00  0.00     0.117 H 
ATOM     21  H   LIG d   1      10.115  -0.482  -7.249  0.00  0.00     0.117 H 
ENDROOT
BRANCH  10  22
ATOM     22  C   LIG d   1       4.776  -2.641  -4.510  0.00  0.00     0.178 A 
ATOM     23  N   LIG d   1       4.470  -2.487  -5.817  0.00  0.00    -0.195 N 
ATOM     24  N   LIG d   1       4.188  -3.782  -6.286  0.00  0.00    -0.039 NA
ATOM     25  N   LIG d   1       4.336  -4.579  -5.284  0.00  0.00    -0.023 NA
ATOM     26  N   LIG d   1       4.687  -3.918  -4.240  0.00  0.00    -0.111 NA
BRANCH  23  27
ATOM     27  C   LIG d   1       4.440  -1.290  -6.549  0.00  0.00     0.073 A 
ATOM     28  C   LIG d   1       5.530  -0.924  -7.325  0.00  0.00     0.009 A 
ATOM     29  C   LIG d   1       5.498   0.256  -8.050  0.00  0.00     0.164 A 
ATOM     30  H   LIG d   1       6.403  -1.559  -7.365  0.00  0.00     0.068 H 
ATOM     31  C   LIG d   1       4.374   1.075  -7.991  0.00  0.00     0.162 A 
ATOM     32  C   LIG d   1       3.289   0.709  -7.211  0.00  0.00    -0.014 A 
ATOM     33  C   LIG d   1       3.322  -0.470  -6.492  0.00  0.00    -0.033 A 
ATOM     34  H   LIG d   1       2.419   1.346  -7.165  0.00  0.00     0.066 H 
ATOM     35  H   LIG d   1       2.475  -0.753  -5.883  0.00  0.00     0.064 H 
BRANCH  29  36
ATOM     36  O   LIG d   1       6.563   0.614  -8.816  0.00  0.00    -0.491 OA
BRANCH  36  37
ATOM     37  C   LIG d   1       7.590   1.378  -8.182  0.00  0.00     0.079 C 
ATOM     38  H   LIG d   1       7.170   2.325  -7.816  0.00  0.00     0.066 H 
ATOM     39  H   LIG d   1       8.391   1.587  -8.907  0.00  0.00     0.066 H 
ATOM     40  H   LIG d   1       8.002   0.808  -7.335  0.00  0.00     0.066 H 
ENDBRANCH  36  37
ENDBRANCH  29  36
BRANCH  31  41
ATOM     41  O   LIG d   1       4.342   2.236  -8.700  0.00  0.00    -0.491 OA
BRANCH  41  42
ATOM     42  C   LIG d   1       3.688   2.204  -9.970  0.00  0.00     0.079 C 
ATOM     43  H   LIG d   1       4.320   2.701 -10.720  0.00  0.00     0.066 H 
ATOM     44  H   LIG d   1       2.722   2.725  -9.899  0.00  0.00     0.066 H 
ATOM     45  H   LIG d   1       3.519   1.158 -10.268  0.00  0.00     0.066 H 
ENDBRANCH  41  42
ENDBRANCH  31  41
ENDBRANCH  23  27
ENDBRANCH  10  22
BRANCH   1  46
ATOM     46  C   LIG d   1       2.857  -1.218  -2.877  0.00  0.00    -0.012 C 
ATOM     47  H   LIG d   1       2.958  -1.281  -1.783  0.00  0.00     0.039 H 
ATOM     48  H   LIG d   1       2.743  -2.231  -3.292  0.00  0.00     0.039 H 
ATOM     49  H   LIG d   1       1.970  -0.617  -3.128  0.00  0.00     0.039 H 
ENDBRANCH   1  46
BRANCH   8  50
ATOM     50  O   LIG d   1       7.289  -3.008  -4.592  0.00  0.00    -0.491 OA
BRANCH  50  51
ATOM     51  C   LIG d   1       8.278  -3.790  -3.918  0.00  0.00     0.079 C 
ATOM     52  H   LIG d   1       8.274  -4.813  -4.324  0.00  0.00     0.066 H 
ATOM     53  H   LIG d   1       8.050  -3.821  -2.842  0.00  0.00     0.066 H 
ATOM     54  H   LIG d   1       9.269  -3.339  -4.071  0.00  0.00     0.066 H 
ENDBRANCH  50  51
ENDBRANCH   8  50
TORSDOF 9
ENDMDL
MODEL 5
REMARK VINA RESULT:      -5.5      3.045      5.377
REMARK  9 active torsions:
REMARK  status: ('A' for Active; 'I' for Inactive)
REMARK    1  A    between atoms: C_1  and  N_2 
REMARK    2  A    between atoms: C_9  and  O_28 
REMARK    3  A    between atoms: C_11  and  C_13 
REMARK    4  A    between atoms: N_17  and  C_18 
REMARK    5  A    between atoms: C_21  and  O_26 
REMARK    6  A    between atoms: C_22  and  O_24 
REMARK    7  A    between atoms: O_24  and  C_25 
REMARK    8  A    between atoms: O_26  and  C_27 
REMARK    9  A    between atoms: O_28  and  C_29 
ROOT
ATOM      1  N   LIG d   1       4.151   0.011  -4.101  0.00  0.00    -0.292 N 
ATOM      2  C   LIG d   1       4.627   0.179  -2.719  0.00  0.00     0.004 C 
ATOM      3  C   LIG d   1       5.720   1.249  -2.707  0.00  0.00    -0.014 C 
ATOM      4  C   LIG d   1       6.751   0.943  -3.763  0.00  0.00    -0.034 A 
ATOM      5  C   LIG d   1       7.982   1.577  -3.685  0.00  0.00    -0.012 A 
ATOM      6  C   LIG d   1       8.959   1.336  -4.636  0.00  0.00     0.170 A 
ATOM      7  C   LIG d   1       8.703   0.449  -5.676  0.00  0.00     0.208 A 
ATOM      8  C   LIG d   1       7.471  -0.185  -5.750  0.00  0.00     0.171 A 
ATOM      9  C   LIG d   1       6.494   0.061  -4.791  0.00  0.00     0.026 A 
ATOM     10  C   LIG d   1       5.174  -0.655  -4.913  0.00  0.00     0.102 C 
ATOM     11  H   LIG d   1       5.277  -1.683  -4.534  0.00  0.00     0.060 H 
ATOM     12  O   LIG d   1       9.809   0.382  -6.475  0.00  0.00    -0.449 OA
ATOM     13  C   LIG d   1      10.594   1.542  -6.142  0.00  0.00     0.233 C 
ATOM     14  O   LIG d   1      10.226   1.824  -4.779  0.00  0.00    -0.453 OA
ATOM     15  H   LIG d   1       3.789   0.490  -2.078  0.00  0.00     0.043 H 
ATOM     16  H   LIG d   1       5.033  -0.776  -2.353  0.00  0.00     0.043 H 
ATOM     17  H   LIG d   1       5.271   2.232  -2.914  0.00  0.00     0.033 H 
ATOM     18  H   LIG d   1       6.204   1.267  -1.721  0.00  0.00     0.033 H 
ATOM     19  H   LIG d   1       8.180   2.265  -2.875  0.00  0.00     0.066 H 
ATOM     20  H   LIG d   1      11.663   1.303  -6.244  0.00  0.00     0.117 H 
ATOM     21  H   LIG d   1      10.337   2.367  -6.823  0.00  0.00     0.117 H 
ENDROOT
BRANCH  10  22
ATOM     22  C   LIG d   1       4.742  -0.658  -6.356  0.00  0.00     0.178 A 
ATOM     23  N   LIG d   1       4.433  -1.743  -7.097  0.00  0.00    -0.195 N 
ATOM     24  N   LIG d   1       4.092  -1.239  -8.365  0.00  0.00    -0.039 NA
ATOM     25  N   LIG d   1       4.213   0.043  -8.299  0.00  0.00    -0.023 NA
ATOM     26  N   LIG d   1       4.588   0.392  -7.121  0.00  0.00    -0.111 NA
BRANCH  23  27
ATOM     27  C   LIG d   1       4.449  -3.086  -6.691  0.00  0.00     0.073 A 
ATOM     28  C   LIG d   1       3.950  -4.071  -7.531  0.00  0.00     0.009 A 
ATOM     29  C   LIG d   1       3.970  -5.397  -7.130  0.00  0.00     0.164 A 
ATOM     30  H   LIG d   1       3.548  -3.805  -8.498  0.00  0.00     0.068 H 
ATOM     31  C   LIG d   1       4.482  -5.736  -5.882  0.00  0.00     0.162 A 
ATOM     32  C   LIG d   1       4.975  -4.749  -5.042  0.00  0.00    -0.014 A 
ATOM     33  C   LIG d   1       4.958  -3.428  -5.446  0.00  0.00    -0.033 A 
ATOM     34  H   LIG d   1       5.371  -5.013  -4.074  0.00  0.00     0.066 H 
ATOM     35  H   LIG d   1       5.342  -2.660  -4.790  0.00  0.00     0.064 H 
BRANCH  29  36
ATOM     36  O   LIG d   1       3.487  -6.364  -7.954  0.00  0.00    -0.491 OA
BRANCH  36  37
ATOM     37  C   LIG d   1       3.830  -6.269  -9.338  0.00  0.00     0.079 C 
ATOM     38  H   LIG d   1       4.180  -5.251  -9.560  0.00  0.00     0.066 H 
ATOM     39  H   LIG d   1       2.946  -6.496  -9.952  0.00  0.00     0.066 H 
ATOM     40  H   LIG d   1       4.630  -6.989  -9.568  0.00  0.00     0.066 H 
ENDBRANCH  36  37
ENDBRANCH  29  36
BRANCH  31  41
ATOM     41  O   LIG d   1       4.499  -7.037  -5.484  0.00  0.00    -0.491 OA
BRANCH  41  42
ATOM     42  C   LIG d   1       5.778  -7.666  -5.377  0.00  0.00     0.079 C 
ATOM     43  H   LIG d   1       5.695  -8.719  -5.683  0.00  0.00     0.066 H 
ATOM     44  H   LIG d   1       6.127  -7.613  -4.335  0.00  0.00     0.066 H 
ATOM     45  H   LIG d   1       6.496  -7.150  -6.030  0.00  0.00     0.066 H 
ENDBRANCH  41  42
ENDBRANCH  31  41
ENDBRANCH  23  27
ENDBRANCH  10  22
BRANCH   1  46
ATOM     46  C   LIG d   1       2.886  -0.732  -4.136  0.00  0.00    -0.012 C 
ATOM     47  H   LIG d   1       2.053  -0.032  -4.305  0.00  0.00     0.039 H 
ATOM     48  H   LIG d   1       2.738  -1.252  -3.178  0.00  0.00     0.039 H 
ATOM     49  H   LIG d   1       2.915  -1.469  -4.952  0.00  0.00     0.039 H 
ENDBRANCH   1  46
BRANCH   8  50
ATOM     50  O   LIG d   1       7.218  -1.053  -6.766  0.00  0.00    -0.491 OA
BRANCH  50  51
ATOM     51  C   LIG d   1       8.058  -2.206  -6.859  0.00  0.00     0.079 C 
ATOM     52  H   LIG d   1       8.610  -2.182  -7.811  0.00  0.00     0.066 H 
ATOM     53  H   LIG d   1       7.439  -3.115  -6.817  0.00  0.00     0.066 H 
ATOM     54  H   LIG d   1       8.771  -2.208  -6.022  0.00  0.00     0.066 H 
ENDBRANCH  50  51
ENDBRANCH   8  50
TORSDOF 9
ENDMDL
MODEL 6
REMARK VINA RESULT:      -5.4      2.533      4.665
REMARK  9 active torsions:
REMARK  status: ('A' for Active; 'I' for Inactive)
REMARK    1  A    between atoms: C_1  and  N_2 
REMARK    2  A    between atoms: C_9  and  O_28 
REMARK    3  A    between atoms: C_11  and  C_13 
REMARK    4  A    between atoms: N_17  and  C_18 
REMARK    5  A    between atoms: C_21  and  O_26 
REMARK    6  A    between atoms: C_22  and  O_24 
REMARK    7  A    between atoms: O_24  and  C_25 
REMARK    8  A    between atoms: O_26  and  C_27 
REMARK    9  A    between atoms: O_28  and  C_29 
ROOT
ATOM      1  N   LIG d   1       6.875  -2.547  -4.735  0.00  0.00    -0.292 N 
ATOM      2  C   LIG d   1       6.528  -3.855  -5.312  0.00  0.00     0.004 C 
ATOM      3  C   LIG d   1       6.201  -3.661  -6.793  0.00  0.00    -0.014 C 
ATOM      4  C   LIG d   1       5.202  -2.545  -6.959  0.00  0.00    -0.034 A 
ATOM      5  C   LIG d   1       4.518  -2.445  -8.161  0.00  0.00    -0.012 A 
ATOM      6  C   LIG d   1       3.597  -1.431  -8.364  0.00  0.00     0.170 A 
ATOM      7  C   LIG d   1       3.356  -0.507  -7.352  0.00  0.00     0.208 A 
ATOM      8  C   LIG d   1       4.040  -0.612  -6.150  0.00  0.00     0.171 A 
ATOM      9  C   LIG d   1       4.964  -1.633  -5.952  0.00  0.00     0.026 A 
ATOM     10  C   LIG d   1       5.678  -1.706  -4.628  0.00  0.00     0.102 C 
ATOM     11  H   LIG d   1       5.018  -2.168  -3.879  0.00  0.00     0.060 H 
ATOM     12  O   LIG d   1       2.418   0.384  -7.791  0.00  0.00    -0.449 OA
ATOM     13  C   LIG d   1       2.388   0.238  -9.222  0.00  0.00     0.233 C 
ATOM     14  O   LIG d   1       2.810  -1.121  -9.436  0.00  0.00    -0.453 OA
ATOM     15  H   LIG d   1       7.380  -4.542  -5.202  0.00  0.00     0.043 H 
ATOM     16  H   LIG d   1       5.654  -4.268  -4.786  0.00  0.00     0.043 H 
ATOM     17  H   LIG d   1       7.121  -3.409  -7.341  0.00  0.00     0.033 H 
ATOM     18  H   LIG d   1       5.777  -4.591  -7.199  0.00  0.00     0.033 H 
ATOM     19  H   LIG d   1       4.706  -3.164  -8.946  0.00  0.00     0.066 H 
ATOM     20  H   LIG d   1       1.366   0.419  -9.587  0.00  0.00     0.117 H 
ATOM     21  H   LIG d   1       3.075   0.965  -9.679  0.00  0.00     0.117 H 
ENDROOT
BRANCH  10  22
ATOM     22  C   LIG d   1       6.081  -0.318  -4.203  0.00  0.00     0.178 A 
ATOM     23  N   LIG d   1       6.917   0.511  -4.865  0.00  0.00    -0.195 N 
ATOM     24  N   LIG d   1       6.976   1.677  -4.082  0.00  0.00    -0.039 NA
ATOM     25  N   LIG d   1       6.214   1.478  -3.062  0.00  0.00    -0.023 NA
ATOM     26  N   LIG d   1       5.680   0.312  -3.130  0.00  0.00    -0.111 NA
BRANCH  23  27
ATOM     27  C   LIG d   1       7.584   0.262  -6.074  0.00  0.00     0.073 A 
ATOM     28  C   LIG d   1       7.069   0.754  -7.265  0.00  0.00     0.009 A 
ATOM     29  C   LIG d   1       7.730   0.511  -8.457  0.00  0.00     0.164 A 
ATOM     30  H   LIG d   1       6.154   1.329  -7.262  0.00  0.00     0.068 H 
ATOM     31  C   LIG d   1       8.904  -0.236  -8.459  0.00  0.00     0.162 A 
ATOM     32  C   LIG d   1       9.413  -0.731  -7.269  0.00  0.00    -0.014 A 
ATOM     33  C   LIG d   1       8.755  -0.483  -6.080  0.00  0.00    -0.033 A 
ATOM     34  H   LIG d   1      10.323  -1.311  -7.271  0.00  0.00     0.066 H 
ATOM     35  H   LIG d   1       9.152  -0.871  -5.153  0.00  0.00     0.064 H 
BRANCH  29  36
ATOM     36  O   LIG d   1       7.230   0.997  -9.624  0.00  0.00    -0.491 OA
BRANCH  36  37
ATOM     37  C   LIG d   1       6.134   0.290 -10.206  0.00  0.00     0.079 C 
ATOM     38  H   LIG d   1       5.268   0.962 -10.293  0.00  0.00     0.066 H 
ATOM     39  H   LIG d   1       5.871  -0.568  -9.569  0.00  0.00     0.066 H 
ATOM     40  H   LIG d   1       6.419  -0.070 -11.206  0.00  0.00     0.066 H 
ENDBRANCH  36  37
ENDBRANCH  29  36
BRANCH  31  41
ATOM     41  O   LIG d   1       9.553  -0.479  -9.630  0.00  0.00    -0.491 OA
BRANCH  41  42
ATOM     42  C   LIG d   1       9.468  -1.806 -10.155  0.00  0.00     0.079 C 
ATOM     43  H   LIG d   1       9.532  -1.770 -11.252  0.00  0.00     0.066 H 
ATOM     44  H   LIG d   1       8.511  -2.258  -9.857  0.00  0.00     0.066 H 
ATOM     45  H   LIG d   1      10.298  -2.410  -9.759  0.00  0.00     0.066 H 
ENDBRANCH  41  42
ENDBRANCH  31  41
ENDBRANCH  23  27
ENDBRANCH  10  22
BRANCH   1  46
ATOM     46  C   LIG d   1       7.526  -2.703  -3.429  0.00  0.00    -0.012 C 
ATOM     47  H   LIG d   1       6.783  -2.565  -2.629  0.00  0.00     0.039 H 
ATOM     48  H   LIG d   1       8.322  -1.951  -3.323  0.00  0.00     0.039 H 
ATOM     49  H   LIG d   1       7.961  -3.711  -3.353  0.00  0.00     0.039 H 
ENDBRANCH   1  46
BRANCH   8  50
ATOM     50  O   LIG d   1       3.806   0.290  -5.159  0.00  0.00    -0.491 OA
BRANCH  50  51
ATOM     51  C   LIG d   1       2.500   0.290  -4.577  0.00  0.00     0.079 C 
ATOM     52  H   LIG d   1       2.269   1.296  -4.195  0.00  0.00     0.066 H 
ATOM     53  H   LIG d   1       2.468  -0.433  -3.748  0.00  0.00     0.066 H 
ATOM     54  H   LIG d   1       1.759   0.008  -5.339  0.00  0.00     0.066 H 
ENDBRANCH  50  51
ENDBRANCH   8  50
TORSDOF 9
ENDMDL
MODEL 7
REMARK VINA RESULT:      -5.4      9.281     11.557
REMARK  9 active torsions:
REMARK  status: ('A' for Active; 'I' for Inactive)
REMARK    1  A    between atoms: C_1  and  N_2 
REMARK    2  A    between atoms: C_9  and  O_28 
REMARK    3  A    between atoms: C_11  and  C_13 
REMARK    4  A    between atoms: N_17  and  C_18 
REMARK    5  A    between atoms: C_21  and  O_26 
REMARK    6  A    between atoms: C_22  and  O_24 
REMARK    7  A    between atoms: O_24  and  C_25 
REMARK    8  A    between atoms: O_26  and  C_27 
REMARK    9  A    between atoms: O_28  and  C_29 
ROOT
ATOM      1  N   LIG d   1      13.322   7.101  -4.594  0.00  0.00    -0.292 N 
ATOM      2  C   LIG d   1      14.287   8.058  -4.031  0.00  0.00     0.004 C 
ATOM      3  C   LIG d   1      13.586   8.870  -2.941  0.00  0.00    -0.014 C 
ATOM      4  C   LIG d   1      12.286   9.423  -3.467  0.00  0.00    -0.034 A 
ATOM      5  C   LIG d   1      11.681  10.459  -2.770  0.00  0.00    -0.012 A 
ATOM      6  C   LIG d   1      10.482  10.995  -3.208  0.00  0.00     0.170 A 
ATOM      7  C   LIG d   1       9.882  10.491  -4.357  0.00  0.00     0.208 A 
ATOM      8  C   LIG d   1      10.491   9.457  -5.053  0.00  0.00     0.171 A 
ATOM      9  C   LIG d   1      11.696   8.923  -4.608  0.00  0.00     0.026 A 
ATOM     10  C   LIG d   1      12.320   7.804  -5.401  0.00  0.00     0.102 C 
ATOM     11  H   LIG d   1      12.836   8.219  -6.279  0.00  0.00     0.060 H 
ATOM     12  O   LIG d   1       8.721  11.176  -4.579  0.00  0.00    -0.449 OA
ATOM     13  C   LIG d   1       8.413  11.826  -3.332  0.00  0.00     0.233 C 
ATOM     14  O   LIG d   1       9.700  11.997  -2.710  0.00  0.00    -0.453 OA
ATOM     15  H   LIG d   1      15.139   7.511  -3.603  0.00  0.00     0.043 H 
ATOM     16  H   LIG d   1      14.644   8.729  -4.827  0.00  0.00     0.043 H 
ATOM     17  H   LIG d   1      13.380   8.221  -2.077  0.00  0.00     0.033 H 
ATOM     18  H   LIG d   1      14.234   9.700  -2.628  0.00  0.00     0.033 H 
ATOM     19  H   LIG d   1      12.149  10.849  -1.878  0.00  0.00     0.066 H 
ATOM     20  H   LIG d   1       7.916  12.786  -3.532  0.00  0.00     0.117 H 
ATOM     21  H   LIG d   1       7.745  11.184  -2.740  0.00  0.00     0.117 H 
ENDROOT
BRANCH  10  22
ATOM     22  C   LIG d   1      11.247   6.834  -5.819  0.00  0.00     0.178 A 
ATOM     23  N   LIG d   1      10.436   6.132  -4.998  0.00  0.00    -0.195 N 
ATOM     24  N   LIG d   1       9.613   5.375  -5.850  0.00  0.00    -0.039 NA
ATOM     25  N   LIG d   1       9.967   5.660  -7.056  0.00  0.00    -0.023 NA
ATOM     26  N   LIG d   1      10.920   6.520  -7.047  0.00  0.00    -0.111 NA
BRANCH  23  27
ATOM     27  C   LIG d   1      10.421   6.152  -3.595  0.00  0.00     0.073 A 
ATOM     28  C   LIG d   1       9.489   6.930  -2.923  0.00  0.00     0.009 A 
ATOM     29  C   LIG d   1       9.471   6.947  -1.538  0.00  0.00     0.164 A 
ATOM     30  H   LIG d   1       8.775   7.520  -3.480  0.00  0.00     0.068 H 
ATOM     31  C   LIG d   1      10.395   6.190  -0.824  0.00  0.00     0.162 A 
ATOM     32  C   LIG d   1      11.329   5.419  -1.498  0.00  0.00    -0.014 A 
ATOM     33  C   LIG d   1      11.342   5.400  -2.880  0.00  0.00    -0.033 A 
ATOM     34  H   LIG d   1      12.046   4.834  -0.944  0.00  0.00     0.066 H 
ATOM     35  H   LIG d   1      12.071   4.799  -3.403  0.00  0.00     0.064 H 
BRANCH  29  36
ATOM     36  O   LIG d   1       8.555   7.704  -0.878  0.00  0.00    -0.491 OA
BRANCH  36  37
ATOM     37  C   LIG d   1       8.820   9.104  -0.777  0.00  0.00     0.079 C 
ATOM     38  H   LIG d   1       8.839   9.547  -1.783  0.00  0.00     0.066 H 
ATOM     39  H   LIG d   1       9.795   9.258  -0.290  0.00  0.00     0.066 H 
ATOM     40  H   LIG d   1       8.032   9.585  -0.180  0.00  0.00     0.066 H 
ENDBRANCH  36  37
ENDBRANCH  29  36
BRANCH  31  41
ATOM     41  O   LIG d   1      10.383   6.208   0.536  0.00  0.00    -0.491 OA
BRANCH  41  42
ATOM     42  C   LIG d   1      11.333   7.058   1.183  0.00  0.00     0.079 C 
ATOM     43  H   LIG d   1      11.182   7.013   2.271  0.00  0.00     0.066 H 
ATOM     44  H   LIG d   1      11.195   8.093   0.835  0.00  0.00     0.066 H 
ATOM     45  H   LIG d   1      12.351   6.722   0.939  0.00  0.00     0.066 H 
ENDBRANCH  41  42
ENDBRANCH  31  41
ENDBRANCH  23  27
ENDBRANCH  10  22
BRANCH   1  46
ATOM     46  C   LIG d   1      14.005   6.070  -5.386  0.00  0.00    -0.012 C 
ATOM     47  H   LIG d   1      14.702   6.549  -6.090  0.00  0.00     0.039 H 
ATOM     48  H   LIG d   1      13.261   5.486  -5.949  0.00  0.00     0.039 H 
ATOM     49  H   LIG d   1      14.563   5.401  -4.715  0.00  0.00     0.039 H 
ENDBRANCH   1  46
BRANCH   8  50
ATOM     50  O   LIG d   1       9.906   8.963  -6.178  0.00  0.00    -0.491 OA
BRANCH  50  51
ATOM     51  C   LIG d   1       9.860   9.825  -7.317  0.00  0.00     0.079 C 
ATOM     52  H   LIG d   1       9.223   9.373  -8.093  0.00  0.00     0.066 H 
ATOM     53  H   LIG d   1      10.878   9.963  -7.714  0.00  0.00     0.066 H 
ATOM     54  H   LIG d   1       9.445  10.800  -7.023  0.00  0.00     0.066 H 
ENDBRANCH  50  51
ENDBRANCH   8  50
TORSDOF 9
ENDMDL
MODEL 8
REMARK VINA RESULT:      -5.3      2.134      5.299
REMARK  9 active torsions:
REMARK  status: ('A' for Active; 'I' for Inactive)
REMARK    1  A    between atoms: C_1  and  N_2 
REMARK    2  A    between atoms: C_9  and  O_28 
REMARK    3  A    between atoms: C_11  and  C_13 
REMARK    4  A    between atoms: N_17  and  C_18 
REMARK    5  A    between atoms: C_21  and  O_26 
REMARK    6  A    between atoms: C_22  and  O_24 
REMARK    7  A    between atoms: O_24  and  C_25 
REMARK    8  A    between atoms: O_26  and  C_27 
REMARK    9  A    between atoms: O_28  and  C_29 
ROOT
ATOM      1  N   LIG d   1       7.587  -2.663  -4.903  0.00  0.00    -0.292 N 
ATOM      2  C   LIG d   1       8.608  -1.604  -4.867  0.00  0.00     0.004 C 
ATOM      3  C   LIG d   1       7.949  -0.280  -5.254  0.00  0.00    -0.014 C 
ATOM      4  C   LIG d   1       7.169  -0.447  -6.533  0.00  0.00    -0.034 A 
ATOM      5  C   LIG d   1       6.797   0.691  -7.232  0.00  0.00    -0.012 A 
ATOM      6  C   LIG d   1       6.072   0.589  -8.407  0.00  0.00     0.170 A 
ATOM      7  C   LIG d   1       5.717  -0.666  -8.891  0.00  0.00     0.208 A 
ATOM      8  C   LIG d   1       6.093  -1.802  -8.191  0.00  0.00     0.171 A 
ATOM      9  C   LIG d   1       6.822  -1.693  -7.010  0.00  0.00     0.026 A 
ATOM     10  C   LIG d   1       7.210  -2.958  -6.289  0.00  0.00     0.102 C 
ATOM     11  H   LIG d   1       8.085  -3.408  -6.779  0.00  0.00     0.060 H 
ATOM     12  O   LIG d   1       5.013  -0.503 -10.050  0.00  0.00    -0.449 OA
ATOM     13  C   LIG d   1       4.593   0.874 -10.055  0.00  0.00     0.233 C 
ATOM     14  O   LIG d   1       5.594   1.539  -9.264  0.00  0.00    -0.453 OA
ATOM     15  H   LIG d   1       9.027  -1.533  -3.852  0.00  0.00     0.043 H 
ATOM     16  H   LIG d   1       9.411  -1.846  -5.579  0.00  0.00     0.043 H 
ATOM     17  H   LIG d   1       7.266   0.037  -4.452  0.00  0.00     0.033 H 
ATOM     18  H   LIG d   1       8.724   0.486  -5.399  0.00  0.00     0.033 H 
ATOM     19  H   LIG d   1       7.074   1.665  -6.856  0.00  0.00     0.066 H 
ATOM     20  H   LIG d   1       4.566   1.244 -11.091  0.00  0.00     0.117 H 
ATOM     21  H   LIG d   1       3.589   0.952  -9.612  0.00  0.00     0.117 H 
ENDROOT
BRANCH  10  22
ATOM     22  C   LIG d   1       6.044  -3.911  -6.295  0.00  0.00     0.178 A 
ATOM     23  N   LIG d   1       4.870  -3.746  -5.648  0.00  0.00    -0.195 N 
ATOM     24  N   LIG d   1       4.113  -4.890  -5.959  0.00  0.00    -0.039 NA
ATOM     25  N   LIG d   1       4.845  -5.620  -6.728  0.00  0.00    -0.023 NA
ATOM     26  N   LIG d   1       5.977  -5.050  -6.936  0.00  0.00    -0.111 NA
BRANCH  23  27
ATOM     27  C   LIG d   1       4.488  -2.666  -4.839  0.00  0.00     0.073 A 
ATOM     28  C   LIG d   1       4.003  -1.502  -5.418  0.00  0.00     0.009 A 
ATOM     29  C   LIG d   1       3.623  -0.437  -4.618  0.00  0.00     0.164 A 
ATOM     30  H   LIG d   1       3.920  -1.427  -6.493  0.00  0.00     0.068 H 
ATOM     31  C   LIG d   1       3.737  -0.534  -3.235  0.00  0.00     0.162 A 
ATOM     32  C   LIG d   1       4.227  -1.696  -2.659  0.00  0.00    -0.014 A 
ATOM     33  C   LIG d   1       4.602  -2.758  -3.459  0.00  0.00    -0.033 A 
ATOM     34  H   LIG d   1       4.317  -1.770  -1.586  0.00  0.00     0.066 H 
ATOM     35  H   LIG d   1       4.984  -3.663  -3.008  0.00  0.00     0.064 H 
BRANCH  29  36
ATOM     36  O   LIG d   1       3.142   0.702  -5.184  0.00  0.00    -0.491 OA
BRANCH  36  37
ATOM     37  C   LIG d   1       2.850   0.659  -6.582  0.00  0.00     0.079 C 
ATOM     38  H   LIG d   1       2.408   1.616  -6.894  0.00  0.00     0.066 H 
ATOM     39  H   LIG d   1       2.140  -0.157  -6.784  0.00  0.00     0.066 H 
ATOM     40  H   LIG d   1       3.779   0.484  -7.146  0.00  0.00     0.066 H 
ENDBRANCH  36  37
ENDBRANCH  29  36
BRANCH  31  41
ATOM     41  O   LIG d   1       3.368   0.512  -2.447  0.00  0.00    -0.491 OA
BRANCH  41  42
ATOM     42  C   LIG d   1       4.416   1.250  -1.815  0.00  0.00     0.079 C 
ATOM     43  H   LIG d   1       5.363   0.699  -1.914  0.00  0.00     0.066 H 
ATOM     44  H   LIG d   1       4.179   1.385  -0.749  0.00  0.00     0.066 H 
ATOM     45  H   LIG d   1       4.512   2.234  -2.297  0.00  0.00     0.066 H 
ENDBRANCH  41  42
ENDBRANCH  31  41
ENDBRANCH  23  27
ENDBRANCH  10  22
BRANCH   1  46
ATOM     46  C   LIG d   1       8.058  -3.873  -4.217  0.00  0.00    -0.012 C 
ATOM     47  H   LIG d   1       8.802  -4.385  -4.846  0.00  0.00     0.039 H 
ATOM     48  H   LIG d   1       7.208  -4.547  -4.034  0.00  0.00     0.039 H 
ATOM     49  H   LIG d   1       8.519  -3.596  -3.258  0.00  0.00     0.039 H 
ENDBRANCH   1  46
BRANCH   8  50
ATOM     50  O   LIG d   1       5.748  -3.031  -8.661  0.00  0.00    -0.491 OA
BRANCH  50  51
ATOM     51  C   LIG d   1       6.322  -3.434  -9.906  0.00  0.00     0.079 C 
ATOM     52  H   LIG d   1       7.089  -4.202  -9.725  0.00  0.00     0.066 H 
ATOM     53  H   LIG d   1       6.784  -2.563 -10.396  0.00  0.00     0.066 H 
ATOM     54  H   LIG d   1       5.537  -3.846 -10.556  0.00  0.00     0.066 H 
ENDBRANCH  50  51
ENDBRANCH   8  50
TORSDOF 9
ENDMDL
MODEL 9
REMARK VINA RESULT:      -5.3      3.175      4.812
REMARK  9 active torsions:
REMARK  status: ('A' for Active; 'I' for Inactive)
REMARK    1  A    between atoms: C_1  and  N_2 
REMARK    2  A    between atoms: C_9  and  O_28 
REMARK    3  A    between atoms: C_11  and  C_13 
REMARK    4  A    between atoms: N_17  and  C_18 
REMARK    5  A    between atoms: C_21  and  O_26 
REMARK    6  A    between atoms: C_22  and  O_24 
REMARK    7  A    between atoms: O_24  and  C_25 
REMARK    8  A    between atoms: O_26  and  C_27 
REMARK    9  A    between atoms: O_28  and  C_29 
ROOT
ATOM      1  N   LIG d   1       7.350   0.579  -3.737  0.00  0.00    -0.292 N 
ATOM      2  C   LIG d   1       6.003   0.833  -3.201  0.00  0.00     0.004 C 
ATOM      3  C   LIG d   1       5.403  -0.497  -2.743  0.00  0.00    -0.014 C 
ATOM      4  C   LIG d   1       5.530  -1.524  -3.839  0.00  0.00    -0.034 A 
ATOM      5  C   LIG d   1       4.750  -2.668  -3.764  0.00  0.00    -0.012 A 
ATOM      6  C   LIG d   1       4.836  -3.644  -4.741  0.00  0.00     0.170 A 
ATOM      7  C   LIG d   1       5.713  -3.474  -5.808  0.00  0.00     0.208 A 
ATOM      8  C   LIG d   1       6.490  -2.327  -5.881  0.00  0.00     0.171 A 
ATOM      9  C   LIG d   1       6.398  -1.350  -4.896  0.00  0.00     0.026 A 
ATOM     10  C   LIG d   1       7.260  -0.121  -5.022  0.00  0.00     0.102 C 
ATOM     11  H   LIG d   1       6.807   0.574  -5.744  0.00  0.00     0.060 H 
ATOM     12  O   LIG d   1       5.617  -4.561  -6.629  0.00  0.00    -0.449 OA
ATOM     13  C   LIG d   1       4.974  -5.581  -5.842  0.00  0.00     0.233 C 
ATOM     14  O   LIG d   1       4.189  -4.836  -4.893  0.00  0.00    -0.453 OA
ATOM     15  H   LIG d   1       6.073   1.527  -2.350  0.00  0.00     0.043 H 
ATOM     16  H   LIG d   1       5.374   1.278  -3.986  0.00  0.00     0.043 H 
ATOM     17  H   LIG d   1       5.940  -0.852  -1.850  0.00  0.00     0.033 H 
ATOM     18  H   LIG d   1       4.341  -0.355  -2.499  0.00  0.00     0.033 H 
ATOM     19  H   LIG d   1       4.068  -2.798  -2.935  0.00  0.00     0.066 H 
ATOM     20  H   LIG d   1       4.351  -6.210  -6.496  0.00  0.00     0.117 H 
ATOM     21  H   LIG d   1       5.738  -6.204  -5.355  0.00  0.00     0.117 H 
ENDROOT
BRANCH  10  22
ATOM     22  C   LIG d   1       8.641  -0.527  -5.466  0.00  0.00     0.178 A 
ATOM     23  N   LIG d   1       9.375   0.059  -6.437  0.00  0.00    -0.195 N 
ATOM     24  N   LIG d   1      10.578  -0.669  -6.479  0.00  0.00    -0.039 NA
ATOM     25  N   LIG d   1      10.487  -1.588  -5.580  0.00  0.00    -0.023 NA
ATOM     26  N   LIG d   1       9.356  -1.507  -4.977  0.00  0.00    -0.111 NA
BRANCH  23  27
ATOM     27  C   LIG d   1       9.014   1.156  -7.233  0.00  0.00     0.073 A 
ATOM     28  C   LIG d   1       7.838   1.122  -7.969  0.00  0.00     0.009 A 
ATOM     29  C   LIG d   1       7.481   2.207  -8.752  0.00  0.00     0.164 A 
ATOM     30  H   LIG d   1       7.200   0.251  -7.928  0.00  0.00     0.068 H 
ATOM     31  C   LIG d   1       8.308   3.325  -8.807  0.00  0.00     0.162 A 
ATOM     32  C   LIG d   1       9.485   3.353  -8.076  0.00  0.00    -0.014 A 
ATOM     33  C   LIG d   1       9.838   2.271  -7.292  0.00  0.00    -0.033 A 
ATOM     34  H   LIG d   1      10.126   4.220  -8.120  0.00  0.00     0.066 H 
ATOM     35  H   LIG d   1      10.756   2.295  -6.723  0.00  0.00     0.064 H 
BRANCH  29  36
ATOM     36  O   LIG d   1       6.325   2.178  -9.468  0.00  0.00    -0.491 OA
BRANCH  36  37
ATOM     37  C   LIG d   1       5.250   1.405  -8.934  0.00  0.00     0.079 C 
ATOM     38  H   LIG d   1       4.603   1.061  -9.753  0.00  0.00     0.066 H 
ATOM     39  H   LIG d   1       4.663   2.024  -8.238  0.00  0.00     0.066 H 
ATOM     40  H   LIG d   1       5.655   0.534  -8.397  0.00  0.00     0.066 H 
ENDBRANCH  36  37
ENDBRANCH  29  36
BRANCH  31  41
ATOM     41  O   LIG d   1       7.961   4.390  -9.578  0.00  0.00    -0.491 OA
BRANCH  41  42
ATOM     42  C   LIG d   1       8.860   5.501  -9.593  0.00  0.00     0.079 C 
ATOM     43  H   LIG d   1       8.854   5.990  -8.608  0.00  0.00     0.066 H 
ATOM     44  H   LIG d   1       8.543   6.220 -10.363  0.00  0.00     0.066 H 
ATOM     45  H   LIG d   1       9.876   5.146  -9.820  0.00  0.00     0.066 H 
ENDBRANCH  41  42
ENDBRANCH  31  41
ENDBRANCH  23  27
ENDBRANCH  10  22
BRANCH   1  46
ATOM     46  C   LIG d   1       8.109   1.828  -3.870  0.00  0.00    -0.012 C 
ATOM     47  H   LIG d   1       8.279   2.262  -2.873  0.00  0.00     0.039 H 
ATOM     48  H   LIG d   1       7.540   2.540  -4.487  0.00  0.00     0.039 H 
ATOM     49  H   LIG d   1       9.077   1.621  -4.348  0.00  0.00     0.039 H 
ENDBRANCH   1  46
BRANCH   8  50
ATOM     50  O   LIG d   1       7.348  -2.158  -6.924  0.00  0.00    -0.491 OA
BRANCH  50  51
ATOM     51  C   LIG d   1       6.779  -2.138  -8.235  0.00  0.00     0.079 C 
ATOM     52  H   LIG d   1       6.816  -3.150  -8.665  0.00  0.00     0.066 H 
ATOM     53  H   LIG d   1       7.352  -1.448  -8.873  0.00  0.00     0.066 H 
ATOM     54  H   LIG d   1       5.734  -1.802  -8.176  0.00  0.00     0.066 H 
ENDBRANCH  50  51
ENDBRANCH   8  50
TORSDOF 9
ENDMDL
MODEL 10
REMARK VINA RESULT:      -5.1      2.741      4.691
REMARK  9 active torsions:
REMARK  status: ('A' for Active; 'I' for Inactive)
REMARK    1  A    between atoms: C_1  and  N_2 
REMARK    2  A    between atoms: C_9  and  O_28 
REMARK    3  A    between atoms: C_11  and  C_13 
REMARK    4  A    between atoms: N_17  and  C_18 
REMARK    5  A    between atoms: C_21  and  O_26 
REMARK    6  A    between atoms: C_22  and  O_24 
REMARK    7  A    between atoms: O_24  and  C_25 
REMARK    8  A    between atoms: O_26  and  C_27 
REMARK    9  A    between atoms: O_28  and  C_29 
ROOT
ATOM      1  N   LIG d   1       6.120  -2.516  -7.365  0.00  0.00    -0.292 N 
ATOM      2  C   LIG d   1       6.142  -3.741  -6.550  0.00  0.00     0.004 C 
ATOM      3  C   LIG d   1       5.113  -3.596  -5.428  0.00  0.00    -0.014 C 
ATOM      4  C   LIG d   1       5.312  -2.284  -4.713  0.00  0.00    -0.034 A 
ATOM      5  C   LIG d   1       4.728  -2.117  -3.466  0.00  0.00    -0.012 A 
ATOM      6  C   LIG d   1       4.874  -0.928  -2.774  0.00  0.00     0.170 A 
ATOM      7  C   LIG d   1       5.615   0.108  -3.334  0.00  0.00     0.208 A 
ATOM      8  C   LIG d   1       6.200  -0.062  -4.580  0.00  0.00     0.171 A 
ATOM      9  C   LIG d   1       6.049  -1.261  -5.270  0.00  0.00     0.026 A 
ATOM     10  C   LIG d   1       6.707  -1.399  -6.619  0.00  0.00     0.102 C 
ATOM     11  H   LIG d   1       7.777  -1.618  -6.486  0.00  0.00     0.060 H 
ATOM     12  O   LIG d   1       5.611   1.165  -2.469  0.00  0.00    -0.449 OA
ATOM     13  C   LIG d   1       4.525   0.912  -1.558  0.00  0.00     0.233 C 
ATOM     14  O   LIG d   1       4.407  -0.522  -1.557  0.00  0.00    -0.453 OA
ATOM     15  H   LIG d   1       5.891  -4.605  -7.182  0.00  0.00     0.043 H 
ATOM     16  H   LIG d   1       7.146  -3.878  -6.122  0.00  0.00     0.043 H 
ATOM     17  H   LIG d   1       4.100  -3.626  -5.855  0.00  0.00     0.033 H 
ATOM     18  H   LIG d   1       5.233  -4.421  -4.712  0.00  0.00     0.033 H 
ATOM     19  H   LIG d   1       4.153  -2.923  -3.032  0.00  0.00     0.066 H 
ATOM     20  H   LIG d   1       4.780   1.310  -0.565  0.00  0.00     0.117 H 
ATOM     21  H   LIG d   1       3.614   1.406  -1.928  0.00  0.00     0.117 H 
ENDROOT
BRANCH  10  22
ATOM     22  C   LIG d   1       6.515  -0.124  -7.398  0.00  0.00     0.178 A 
ATOM     23  N   LIG d   1       7.482   0.597  -8.007  0.00  0.00    -0.195 N 
ATOM     24  N   LIG d   1       6.815   1.686  -8.595  0.00  0.00    -0.039 NA
ATOM     25  N   LIG d   1       5.565   1.551  -8.314  0.00  0.00    -0.023 NA
ATOM     26  N   LIG d   1       5.380   0.488  -7.617  0.00  0.00    -0.111 NA
BRANCH  23  27
ATOM     27  C   LIG d   1       8.857   0.318  -8.043  0.00  0.00     0.073 A 
ATOM     28  C   LIG d   1       9.698   0.851  -7.077  0.00  0.00     0.009 A 
ATOM     29  C   LIG d   1      11.055   0.572  -7.111  0.00  0.00     0.164 A 
ATOM     30  H   LIG d   1       9.295   1.480  -6.297  0.00  0.00     0.068 H 
ATOM     31  C   LIG d   1      11.571  -0.233  -8.121  0.00  0.00     0.162 A 
ATOM     32  C   LIG d   1      10.729  -0.759  -9.089  0.00  0.00    -0.014 A 
ATOM     33  C   LIG d   1       9.376  -0.484  -9.050  0.00  0.00    -0.033 A 
ATOM     34  H   LIG d   1      11.131  -1.383  -9.872  0.00  0.00     0.066 H 
ATOM     35  H   LIG d   1       8.721  -0.894  -9.805  0.00  0.00     0.064 H 
BRANCH  29  36
ATOM     36  O   LIG d   1      11.880   1.089  -6.162  0.00  0.00    -0.491 OA
BRANCH  36  37
ATOM     37  C   LIG d   1      11.642   0.692  -4.810  0.00  0.00     0.079 C 
ATOM     38  H   LIG d   1      10.949  -0.161  -4.795  0.00  0.00     0.066 H 
ATOM     39  H   LIG d   1      11.203   1.532  -4.253  0.00  0.00     0.066 H 
ATOM     40  H   LIG d   1      12.594   0.398  -4.342  0.00  0.00     0.066 H 
ENDBRANCH  36  37
ENDBRANCH  29  36
BRANCH  31  41
ATOM     41  O   LIG d   1      12.904  -0.505  -8.160  0.00  0.00    -0.491 OA
BRANCH  41  42
ATOM     42  C   LIG d   1      13.288  -1.881  -8.108  0.00  0.00     0.079 C 
ATOM     43  H   LIG d   1      12.409  -2.513  -8.303  0.00  0.00     0.066 H 
ATOM     44  H   LIG d   1      13.693  -2.111  -7.112  0.00  0.00     0.066 H 
ATOM     45  H   LIG d   1      14.056  -2.075  -8.870  0.00  0.00     0.066 H 
ENDBRANCH  41  42
ENDBRANCH  31  41
ENDBRANCH  23  27
ENDBRANCH  10  22
BRANCH   1  46
ATOM     46  C   LIG d   1       6.818  -2.720  -8.641  0.00  0.00    -0.012 C 
ATOM     47  H   LIG d   1       7.315  -3.702  -8.635  0.00  0.00     0.039 H 
ATOM     48  H   LIG d   1       7.570  -1.929  -8.780  0.00  0.00     0.039 H 
ATOM     49  H   LIG d   1       6.091  -2.683  -9.467  0.00  0.00     0.039 H 
ENDBRANCH   1  46
BRANCH   8  50
ATOM     50  O   LIG d   1       6.925   0.948  -5.131  0.00  0.00    -0.491 OA
BRANCH  50  51
ATOM     51  C   LIG d   1       7.888   1.588  -4.290  0.00  0.00     0.079 C 
ATOM     52  H   LIG d   1       8.691   2.014  -4.910  0.00  0.00     0.066 H 
ATOM     53  H   LIG d   1       8.315   0.850  -3.594  0.00  0.00     0.066 H 
ATOM     54  H   LIG d   1       7.400   2.391  -3.719  0.00  0.00     0.066 H 
ENDBRANCH  50  51
ENDBRANCH   8  50
TORSDOF 9
ENDMDL
