MODEL 1
REMARK VINA RESULT:      -5.6      0.000      0.000
REMARK  7 active torsions:
REMARK  status: ('A' for Active; 'I' for Inactive)
REMARK    1  A    between atoms: C_1  and  O_2 
REMARK    2  A    between atoms: O_2  and  C_3 
REMARK    3  A    between atoms: C_7  and  C_15 
REMARK    4  A    between atoms: C_12  and  O_14 
REMARK    5  A    between atoms: C_15  and  C_16 
REMARK    6  A    between atoms: C_16  and  C_18 
REMARK    7  A    between atoms: C_16  and  O_20 
ROOT
ATOM      1  C   LIG d   1       6.974   0.774  -3.821  0.00  0.00     0.124 A 
ATOM      2  C   LIG d   1       7.109  -0.377  -4.583  0.00  0.00    -0.012 A 
ATOM      3  C   LIG d   1       6.220  -1.429  -4.401  0.00  0.00    -0.001 A 
ATOM      4  C   LIG d   1       6.315  -2.673  -5.172  0.00  0.00    -0.015 A 
ATOM      5  C   LIG d   1       5.422  -3.647  -4.955  0.00  0.00     0.113 A 
ATOM      6  O   LIG d   1       4.439  -3.542  -4.047  0.00  0.00    -0.427 OA
ATOM      7  C   LIG d   1       4.267  -2.447  -3.285  0.00  0.00     0.348 A 
ATOM      8  O   LIG d   1       3.361  -2.398  -2.474  0.00  0.00    -0.244 OA
ATOM      9  C   LIG d   1       5.182  -1.318  -3.443  0.00  0.00     0.108 A 
ATOM     10  C   LIG d   1       5.059  -0.148  -2.683  0.00  0.00     0.135 A 
ATOM     11  C   LIG d   1       5.957   0.887  -2.878  0.00  0.00     0.022 A 
ATOM     12  H   LIG d   1       7.902  -0.455  -5.312  0.00  0.00     0.066 H 
ATOM     13  H   LIG d   1       7.093  -2.800  -5.910  0.00  0.00     0.066 H 
ATOM     14  H   LIG d   1       5.866   1.792  -2.295  0.00  0.00     0.069 H 
ENDROOT
BRANCH   5  15
ATOM     15  C   LIG d   1       5.530  -4.917  -5.759  0.00  0.00     0.037 C 
ATOM     16  H   LIG d   1       6.500  -4.953  -6.254  0.00  0.00     0.037 H 
ATOM     17  H   LIG d   1       5.428  -5.777  -5.097  0.00  0.00     0.037 H 
BRANCH  15  18
ATOM     18  C   LIG d   1       4.420  -4.950  -6.812  0.00  0.00     0.101 C 
ATOM     19  H   LIG d   1       4.453  -4.035  -7.404  0.00  0.00     0.066 H 
BRANCH  18  20
ATOM     20  C   LIG d   1       4.618  -6.140  -7.715  0.00  0.00     0.070 C 
ATOM     21  O   LIG d   1       5.733  -6.535  -7.959  0.00  0.00    -0.547 OA
ATOM     22  O   LIG d   1       3.554  -6.762  -8.249  0.00  0.00    -0.547 OA
ENDBRANCH  18  20
BRANCH  18  23
ATOM     23  O   LIG d   1       3.151  -5.051  -6.163  0.00  0.00    -0.386 OA
ATOM     24  H   LIG d   1       3.171  -5.554  -5.336  0.00  0.00     0.210 HD
ENDBRANCH  18  23
ENDBRANCH  15  18
ENDBRANCH   5  15
BRANCH   1  25
ATOM     25  O   LIG d   1       7.843   1.802  -3.998  0.00  0.00    -0.495 OA
BRANCH  25  26
ATOM     26  C   LIG d   1       9.143   1.473  -4.496  0.00  0.00     0.079 C 
ATOM     27  H   LIG d   1       9.295   0.396  -4.431  0.00  0.00     0.066 H 
ATOM     28  H   LIG d   1       9.224   1.790  -5.535  0.00  0.00     0.066 H 
ATOM     29  H   LIG d   1       9.899   1.984  -3.900  0.00  0.00     0.066 H 
ENDBRANCH  25  26
ENDBRANCH   1  25
BRANCH  10  30
ATOM     30  O   LIG d   1       4.070  -0.031  -1.763  0.00  0.00    -0.506 OA
ATOM     31  H   LIG d   1       3.815   0.882  -1.573  0.00  0.00     0.292 HD
ENDBRANCH  10  30
TORSDOF 7
ENDMDL
MODEL 2
REMARK VINA RESULT:      -5.3      3.239      5.013
REMARK  7 active torsions:
REMARK  status: ('A' for Active; 'I' for Inactive)
REMARK    1  A    between atoms: C_1  and  O_2 
REMARK    2  A    between atoms: O_2  and  C_3 
REMARK    3  A    between atoms: C_7  and  C_15 
REMARK    4  A    between atoms: C_12  and  O_14 
REMARK    5  A    between atoms: C_15  and  C_16 
REMARK    6  A    between atoms: C_16  and  C_18 
REMARK    7  A    between atoms: C_16  and  O_20 
ROOT
ATOM      1  C   LIG d   1       9.369   1.981  -4.441  0.00  0.00     0.124 A 
ATOM      2  C   LIG d   1       8.149   2.067  -3.788  0.00  0.00    -0.012 A 
ATOM      3  C   LIG d   1       7.309   0.960  -3.757  0.00  0.00    -0.001 A 
ATOM      4  C   LIG d   1       6.004   0.990  -3.086  0.00  0.00    -0.015 A 
ATOM      5  C   LIG d   1       5.244  -0.112  -3.085  0.00  0.00     0.113 A 
ATOM      6  O   LIG d   1       5.619  -1.253  -3.684  0.00  0.00    -0.427 OA
ATOM      7  C   LIG d   1       6.792  -1.385  -4.329  0.00  0.00     0.348 A 
ATOM      8  O   LIG d   1       7.088  -2.440  -4.859  0.00  0.00    -0.244 OA
ATOM      9  C   LIG d   1       7.705  -0.244  -4.389  0.00  0.00     0.108 A 
ATOM     10  C   LIG d   1       8.941  -0.313  -5.043  0.00  0.00     0.135 A 
ATOM     11  C   LIG d   1       9.761   0.801  -5.064  0.00  0.00     0.022 A 
ATOM     12  H   LIG d   1       7.854   2.987  -3.308  0.00  0.00     0.066 H 
ATOM     13  H   LIG d   1       5.663   1.890  -2.596  0.00  0.00     0.066 H 
ATOM     14  H   LIG d   1      10.716   0.753  -5.567  0.00  0.00     0.069 H 
ENDROOT
BRANCH   5  15
ATOM     15  C   LIG d   1       3.909  -0.067  -2.387  0.00  0.00     0.037 C 
ATOM     16  H   LIG d   1       3.883  -0.826  -1.605  0.00  0.00     0.037 H 
ATOM     17  H   LIG d   1       3.764   0.918  -1.943  0.00  0.00     0.037 H 
BRANCH  15  18
ATOM     18  C   LIG d   1       2.795  -0.340  -3.400  0.00  0.00     0.101 C 
ATOM     19  H   LIG d   1       1.827  -0.269  -2.903  0.00  0.00     0.066 H 
BRANCH  18  20
ATOM     20  C   LIG d   1       2.865   0.675  -4.511  0.00  0.00     0.070 C 
ATOM     21  O   LIG d   1       2.998   0.312  -5.655  0.00  0.00    -0.547 OA
ATOM     22  O   LIG d   1       2.780   1.986  -4.229  0.00  0.00    -0.547 OA
ENDBRANCH  18  20
BRANCH  18  23
ATOM     23  O   LIG d   1       2.956  -1.652  -3.943  0.00  0.00    -0.386 OA
ATOM     24  H   LIG d   1       3.502  -2.238  -3.400  0.00  0.00     0.210 HD
ENDBRANCH  18  23
ENDBRANCH  15  18
ENDBRANCH   5  15
BRANCH   1  25
ATOM     25  O   LIG d   1      10.190   3.063  -4.473  0.00  0.00    -0.495 OA
BRANCH  25  26
ATOM     26  C   LIG d   1      10.067   4.001  -3.401  0.00  0.00     0.079 C 
ATOM     27  H   LIG d   1      10.557   4.935  -3.678  0.00  0.00     0.066 H 
ATOM     28  H   LIG d   1       9.012   4.189  -3.202  0.00  0.00     0.066 H 
ATOM     29  H   LIG d   1      10.539   3.595  -2.507  0.00  0.00     0.066 H 
ENDBRANCH  25  26
ENDBRANCH   1  25
BRANCH  10  30
ATOM     30  O   LIG d   1       9.330  -1.461  -5.651  0.00  0.00    -0.506 OA
ATOM     31  H   LIG d   1       8.661  -2.159  -5.638  0.00  0.00     0.292 HD
ENDBRANCH  10  30
TORSDOF 7
ENDMDL
MODEL 3
REMARK VINA RESULT:      -5.3      1.751      6.758
REMARK  7 active torsions:
REMARK  status: ('A' for Active; 'I' for Inactive)
REMARK    1  A    between atoms: C_1  and  O_2 
REMARK    2  A    between atoms: O_2  and  C_3 
REMARK    3  A    between atoms: C_7  and  C_15 
REMARK    4  A    between atoms: C_12  and  O_14 
REMARK    5  A    between atoms: C_15  and  C_16 
REMARK    6  A    between atoms: C_16  and  C_18 
REMARK    7  A    between atoms: C_16  and  O_20 
ROOT
ATOM      1  C   LIG d   1       4.872  -2.995  -4.353  0.00  0.00     0.124 A 
ATOM      2  C   LIG d   1       5.786  -2.267  -5.100  0.00  0.00    -0.012 A 
ATOM      3  C   LIG d   1       6.141  -0.988  -4.692  0.00  0.00    -0.001 A 
ATOM      4  C   LIG d   1       7.099  -0.167  -5.443  0.00  0.00    -0.015 A 
ATOM      5  C   LIG d   1       7.405   1.057  -4.993  0.00  0.00     0.113 A 
ATOM      6  O   LIG d   1       6.864   1.578  -3.881  0.00  0.00    -0.427 OA
ATOM      7  C   LIG d   1       5.974   0.912  -3.124  0.00  0.00     0.348 A 
ATOM      8  O   LIG d   1       5.509   1.426  -2.124  0.00  0.00    -0.244 OA
ATOM      9  C   LIG d   1       5.570  -0.437  -3.519  0.00  0.00     0.108 A 
ATOM     10  C   LIG d   1       4.650  -1.187  -2.776  0.00  0.00     0.135 A 
ATOM     11  C   LIG d   1       4.308  -2.458  -3.201  0.00  0.00     0.022 A 
ATOM     12  H   LIG d   1       6.218  -2.692  -5.994  0.00  0.00     0.066 H 
ATOM     13  H   LIG d   1       7.554  -0.547  -6.345  0.00  0.00     0.066 H 
ATOM     14  H   LIG d   1       3.599  -3.040  -2.631  0.00  0.00     0.069 H 
ENDROOT
BRANCH   5  15
ATOM     15  C   LIG d   1       8.394   1.885  -5.772  0.00  0.00     0.037 C 
ATOM     16  H   LIG d   1       8.720   1.329  -6.652  0.00  0.00     0.037 H 
ATOM     17  H   LIG d   1       7.921   2.816  -6.086  0.00  0.00     0.037 H 
BRANCH  15  18
ATOM     18  C   LIG d   1       9.603   2.199  -4.890  0.00  0.00     0.101 C 
ATOM     19  H   LIG d   1      10.503   2.237  -5.505  0.00  0.00     0.066 H 
BRANCH  18  20
ATOM     20  C   LIG d   1       9.401   3.530  -4.214  0.00  0.00     0.070 C 
ATOM     21  O   LIG d   1       9.375   3.599  -3.008  0.00  0.00    -0.547 OA
ATOM     22  O   LIG d   1       9.249   4.642  -4.953  0.00  0.00    -0.547 OA
ENDBRANCH  18  20
BRANCH  18  23
ATOM     23  O   LIG d   1       9.748   1.180  -3.899  0.00  0.00    -0.386 OA
ATOM     24  H   LIG d   1       9.157   1.283  -3.139  0.00  0.00     0.210 HD
ENDBRANCH  18  23
ENDBRANCH  15  18
ENDBRANCH   5  15
BRANCH   1  25
ATOM     25  O   LIG d   1       4.524  -4.246  -4.752  0.00  0.00    -0.495 OA
BRANCH  25  26
ATOM     26  C   LIG d   1       4.629  -4.534  -6.148  0.00  0.00     0.079 C 
ATOM     27  H   LIG d   1       5.605  -4.212  -6.514  0.00  0.00     0.066 H 
ATOM     28  H   LIG d   1       4.518  -5.606  -6.307  0.00  0.00     0.066 H 
ATOM     29  H   LIG d   1       3.845  -4.003  -6.688  0.00  0.00     0.066 H 
ENDBRANCH  25  26
ENDBRANCH   1  25
BRANCH  10  30
ATOM     30  O   LIG d   1       4.097  -0.670  -1.650  0.00  0.00    -0.506 OA
ATOM     31  H   LIG d   1       3.736   0.220  -1.762  0.00  0.00     0.292 HD
ENDBRANCH  10  30
TORSDOF 7
ENDMDL
MODEL 4
REMARK VINA RESULT:      -5.1      5.414      9.068
REMARK  7 active torsions:
REMARK  status: ('A' for Active; 'I' for Inactive)
REMARK    1  A    between atoms: C_1  and  O_2 
REMARK    2  A    between atoms: O_2  and  C_3 
REMARK    3  A    between atoms: C_7  and  C_15 
REMARK    4  A    between atoms: C_12  and  O_14 
REMARK    5  A    between atoms: C_15  and  C_16 
REMARK    6  A    between atoms: C_16  and  C_18 
REMARK    7  A    between atoms: C_16  and  O_20 
ROOT
ATOM      1  C   LIG d   1      10.398   6.924  -0.515  0.00  0.00     0.124 A 
ATOM      2  C   LIG d   1      10.315   5.667  -1.095  0.00  0.00    -0.012 A 
ATOM      3  C   LIG d   1       9.982   5.553  -2.439  0.00  0.00    -0.001 A 
ATOM      4  C   LIG d   1       9.875   4.251  -3.108  0.00  0.00    -0.015 A 
ATOM      5  C   LIG d   1       9.557   4.209  -4.408  0.00  0.00     0.113 A 
ATOM      6  O   LIG d   1       9.319   5.312  -5.134  0.00  0.00    -0.427 OA
ATOM      7  C   LIG d   1       9.387   6.552  -4.617  0.00  0.00     0.348 A 
ATOM      8  O   LIG d   1       9.162   7.523  -5.314  0.00  0.00    -0.244 OA
ATOM      9  C   LIG d   1       9.732   6.718  -3.205  0.00  0.00     0.108 A 
ATOM     10  C   LIG d   1       9.821   7.979  -2.603  0.00  0.00     0.135 A 
ATOM     11  C   LIG d   1      10.152   8.070  -1.263  0.00  0.00     0.022 A 
ATOM     12  H   LIG d   1      10.508   4.784  -0.506  0.00  0.00     0.066 H 
ATOM     13  H   LIG d   1      10.054   3.339  -2.559  0.00  0.00     0.066 H 
ATOM     14  H   LIG d   1      10.222   9.041  -0.794  0.00  0.00     0.069 H 
ENDROOT
BRANCH   5  15
ATOM     15  C   LIG d   1       9.455   2.865  -5.082  0.00  0.00     0.037 C 
ATOM     16  H   LIG d   1       8.734   2.921  -5.898  0.00  0.00     0.037 H 
ATOM     17  H   LIG d   1      10.431   2.583  -5.479  0.00  0.00     0.037 H 
BRANCH  15  18
ATOM     18  C   LIG d   1       8.995   1.818  -4.066  0.00  0.00     0.101 C 
ATOM     19  H   LIG d   1       9.145   2.200  -3.056  0.00  0.00     0.066 H 
BRANCH  18  20
ATOM     20  C   LIG d   1       7.533   1.519  -4.278  0.00  0.00     0.070 C 
ATOM     21  O   LIG d   1       7.157   1.056  -5.328  0.00  0.00    -0.547 OA
ATOM     22  O   LIG d   1       6.648   1.769  -3.299  0.00  0.00    -0.547 OA
ENDBRANCH  18  20
BRANCH  18  23
ATOM     23  O   LIG d   1       9.755   0.620  -4.239  0.00  0.00    -0.386 OA
ATOM     24  H   LIG d   1       9.901   0.377  -5.165  0.00  0.00     0.210 HD
ENDBRANCH  18  23
ENDBRANCH  15  18
ENDBRANCH   5  15
BRANCH   1  25
ATOM     25  O   LIG d   1      10.723   7.036   0.799  0.00  0.00    -0.495 OA
BRANCH  25  26
ATOM     26  C   LIG d   1      11.053   5.829   1.491  0.00  0.00     0.079 C 
ATOM     27  H   LIG d   1      11.967   5.978   2.066  0.00  0.00     0.066 H 
ATOM     28  H   LIG d   1      10.239   5.563   2.164  0.00  0.00     0.066 H 
ATOM     29  H   LIG d   1      11.204   5.027   0.768  0.00  0.00     0.066 H 
ENDBRANCH  25  26
ENDBRANCH   1  25
BRANCH  10  30
ATOM     30  O   LIG d   1       9.583   9.101  -3.328  0.00  0.00    -0.506 OA
ATOM     31  H   LIG d   1       9.900   9.055  -4.240  0.00  0.00     0.292 HD
ENDBRANCH  10  30
TORSDOF 7
ENDMDL
MODEL 5
REMARK VINA RESULT:      -5.1      3.007      6.711
REMARK  7 active torsions:
REMARK  status: ('A' for Active; 'I' for Inactive)
REMARK    1  A    between atoms: C_1  and  O_2 
REMARK    2  A    between atoms: O_2  and  C_3 
REMARK    3  A    between atoms: C_7  and  C_15 
REMARK    4  A    between atoms: C_12  and  O_14 
REMARK    5  A    between atoms: C_15  and  C_16 
REMARK    6  A    between atoms: C_16  and  C_18 
REMARK    7  A    between atoms: C_16  and  O_20 
ROOT
ATOM      1  C   LIG d   1       3.942  -3.412  -8.902  0.00  0.00     0.124 A 
ATOM      2  C   LIG d   1       4.528  -3.424  -7.645  0.00  0.00    -0.012 A 
ATOM      3  C   LIG d   1       4.431  -2.302  -6.832  0.00  0.00    -0.001 A 
ATOM      4  C   LIG d   1       5.034  -2.253  -5.495  0.00  0.00    -0.015 A 
ATOM      5  C   LIG d   1       4.900  -1.143  -4.758  0.00  0.00     0.113 A 
ATOM      6  O   LIG d   1       4.241  -0.057  -5.192  0.00  0.00    -0.427 OA
ATOM      7  C   LIG d   1       3.658   0.003  -6.402  0.00  0.00     0.348 A 
ATOM      8  O   LIG d   1       3.072   1.010  -6.754  0.00  0.00    -0.244 OA
ATOM      9  C   LIG d   1       3.737  -1.156  -7.291  0.00  0.00     0.108 A 
ATOM     10  C   LIG d   1       3.151  -1.161  -8.563  0.00  0.00     0.135 A 
ATOM     11  C   LIG d   1       3.260  -2.288  -9.357  0.00  0.00     0.022 A 
ATOM     12  H   LIG d   1       5.055  -4.301  -7.301  0.00  0.00     0.066 H 
ATOM     13  H   LIG d   1       5.575  -3.104  -5.109  0.00  0.00     0.066 H 
ATOM     14  H   LIG d   1       2.809  -2.297 -10.339  0.00  0.00     0.069 H 
ENDROOT
BRANCH   5  15
ATOM     15  C   LIG d   1       5.519  -1.111  -3.384  0.00  0.00     0.037 C 
ATOM     16  H   LIG d   1       5.937  -2.091  -3.151  0.00  0.00     0.037 H 
ATOM     17  H   LIG d   1       6.313  -0.364  -3.361  0.00  0.00     0.037 H 
BRANCH  15  18
ATOM     18  C   LIG d   1       4.450  -0.753  -2.350  0.00  0.00     0.101 C 
ATOM     19  H   LIG d   1       4.690  -1.228  -1.399  0.00  0.00     0.066 H 
BRANCH  18  20
ATOM     20  C   LIG d   1       4.407   0.742  -2.169  0.00  0.00     0.070 C 
ATOM     21  O   LIG d   1       3.353   1.297  -1.967  0.00  0.00    -0.547 OA
ATOM     22  O   LIG d   1       5.541   1.459  -2.232  0.00  0.00    -0.547 OA
ENDBRANCH  18  20
BRANCH  18  23
ATOM     23  O   LIG d   1       3.176  -1.214  -2.804  0.00  0.00    -0.386 OA
ATOM     24  H   LIG d   1       2.659  -0.544  -3.272  0.00  0.00     0.210 HD
ENDBRANCH  18  23
ENDBRANCH  15  18
ENDBRANCH   5  15
BRANCH   1  25
ATOM     25  O   LIG d   1       4.036  -4.508  -9.697  0.00  0.00    -0.495 OA
BRANCH  25  26
ATOM     26  C   LIG d   1       2.810  -5.098 -10.137  0.00  0.00     0.079 C 
ATOM     27  H   LIG d   1       2.411  -5.738  -9.350  0.00  0.00     0.066 H 
ATOM     28  H   LIG d   1       2.090  -4.311 -10.364  0.00  0.00     0.066 H 
ATOM     29  H   LIG d   1       2.993  -5.692 -11.032  0.00  0.00     0.066 H 
ENDBRANCH  25  26
ENDBRANCH   1  25
BRANCH  10  30
ATOM     30  O   LIG d   1       2.483  -0.069  -9.012  0.00  0.00    -0.506 OA
ATOM     31  H   LIG d   1       2.097   0.473  -8.311  0.00  0.00     0.292 HD
ENDBRANCH  10  30
TORSDOF 7
ENDMDL
MODEL 6
REMARK VINA RESULT:      -5.0      3.174      5.599
REMARK  7 active torsions:
REMARK  status: ('A' for Active; 'I' for Inactive)
REMARK    1  A    between atoms: C_1  and  O_2 
REMARK    2  A    between atoms: O_2  and  C_3 
REMARK    3  A    between atoms: C_7  and  C_15 
REMARK    4  A    between atoms: C_12  and  O_14 
REMARK    5  A    between atoms: C_15  and  C_16 
REMARK    6  A    between atoms: C_16  and  C_18 
REMARK    7  A    between atoms: C_16  and  O_20 
ROOT
ATOM      1  C   LIG d   1       8.981  -2.897  -4.659  0.00  0.00     0.124 A 
ATOM      2  C   LIG d   1       7.788  -2.799  -3.958  0.00  0.00    -0.012 A 
ATOM      3  C   LIG d   1       7.170  -1.561  -3.826  0.00  0.00    -0.001 A 
ATOM      4  C   LIG d   1       5.910  -1.393  -3.093  0.00  0.00    -0.015 A 
ATOM      5  C   LIG d   1       5.362  -0.174  -3.007  0.00  0.00     0.113 A 
ATOM      6  O   LIG d   1       5.921   0.915  -3.558  0.00  0.00    -0.427 OA
ATOM      7  C   LIG d   1       7.076   0.870  -4.246  0.00  0.00     0.348 A 
ATOM      8  O   LIG d   1       7.546   1.884  -4.726  0.00  0.00    -0.244 OA
ATOM      9  C   LIG d   1       7.761  -0.412  -4.407  0.00  0.00     0.108 A 
ATOM     10  C   LIG d   1       8.965  -0.530  -5.112  0.00  0.00     0.135 A 
ATOM     11  C   LIG d   1       9.565  -1.771  -5.230  0.00  0.00     0.022 A 
ATOM     12  H   LIG d   1       7.343  -3.678  -3.518  0.00  0.00     0.066 H 
ATOM     13  H   LIG d   1       5.430  -2.243  -2.631  0.00  0.00     0.066 H 
ATOM     14  H   LIG d   1      10.494  -1.867  -5.773  0.00  0.00     0.069 H 
ENDROOT
BRANCH   5  15
ATOM     15  C   LIG d   1       4.065  -0.019  -2.256  0.00  0.00     0.037 C 
ATOM     16  H   LIG d   1       4.024  -0.749  -1.447  0.00  0.00     0.037 H 
ATOM     17  H   LIG d   1       4.005   0.987  -1.839  0.00  0.00     0.037 H 
BRANCH  15  18
ATOM     18  C   LIG d   1       2.891  -0.247  -3.210  0.00  0.00     0.101 C 
ATOM     19  H   LIG d   1       1.953  -0.107  -2.673  0.00  0.00     0.066 H 
BRANCH  18  20
ATOM     20  C   LIG d   1       2.970   0.735  -4.349  0.00  0.00     0.070 C 
ATOM     21  O   LIG d   1       3.104   0.339  -5.482  0.00  0.00    -0.547 OA
ATOM     22  O   LIG d   1       2.892   2.054  -4.105  0.00  0.00    -0.547 OA
ENDBRANCH  18  20
BRANCH  18  23
ATOM     23  O   LIG d   1       2.950  -1.579  -3.725  0.00  0.00    -0.386 OA
ATOM     24  H   LIG d   1       2.544  -1.681  -4.598  0.00  0.00     0.210 HD
ENDBRANCH  18  23
ENDBRANCH  15  18
ENDBRANCH   5  15
BRANCH   1  25
ATOM     25  O   LIG d   1       9.585  -4.106  -4.788  0.00  0.00    -0.495 OA
BRANCH  25  26
ATOM     26  C   LIG d   1       8.788  -5.262  -4.519  0.00  0.00     0.079 C 
ATOM     27  H   LIG d   1       8.942  -6.002  -5.305  0.00  0.00     0.066 H 
ATOM     28  H   LIG d   1       9.077  -5.687  -3.558  0.00  0.00     0.066 H 
ATOM     29  H   LIG d   1       7.736  -4.977  -4.488  0.00  0.00     0.066 H 
ENDBRANCH  25  26
ENDBRANCH   1  25
BRANCH  10  30
ATOM     30  O   LIG d   1       9.539   0.564  -5.673  0.00  0.00    -0.506 OA
ATOM     31  H   LIG d   1      10.335   0.371  -6.186  0.00  0.00     0.292 HD
ENDBRANCH  10  30
TORSDOF 7
ENDMDL
MODEL 7
REMARK VINA RESULT:      -5.0      2.581      6.101
REMARK  7 active torsions:
REMARK  status: ('A' for Active; 'I' for Inactive)
REMARK    1  A    between atoms: C_1  and  O_2 
REMARK    2  A    between atoms: O_2  and  C_3 
REMARK    3  A    between atoms: C_7  and  C_15 
REMARK    4  A    between atoms: C_12  and  O_14 
REMARK    5  A    between atoms: C_15  and  C_16 
REMARK    6  A    between atoms: C_16  and  C_18 
REMARK    7  A    between atoms: C_16  and  O_20 
ROOT
ATOM      1  C   LIG d   1       4.030  -1.680  -8.834  0.00  0.00     0.124 A 
ATOM      2  C   LIG d   1       4.486  -1.044  -7.690  0.00  0.00    -0.012 A 
ATOM      3  C   LIG d   1       4.669  -1.777  -6.524  0.00  0.00    -0.001 A 
ATOM      4  C   LIG d   1       5.145  -1.159  -5.281  0.00  0.00    -0.015 A 
ATOM      5  C   LIG d   1       5.307  -1.923  -4.193  0.00  0.00     0.113 A 
ATOM      6  O   LIG d   1       5.044  -3.239  -4.182  0.00  0.00    -0.427 OA
ATOM      7  C   LIG d   1       4.600  -3.900  -5.266  0.00  0.00     0.348 A 
ATOM      8  O   LIG d   1       4.373  -5.094  -5.208  0.00  0.00    -0.244 OA
ATOM      9  C   LIG d   1       4.391  -3.166  -6.513  0.00  0.00     0.108 A 
ATOM     10  C   LIG d   1       3.932  -3.793  -7.678  0.00  0.00     0.135 A 
ATOM     11  C   LIG d   1       3.754  -3.044  -8.828  0.00  0.00     0.022 A 
ATOM     12  H   LIG d   1       4.697   0.015  -7.705  0.00  0.00     0.066 H 
ATOM     13  H   LIG d   1       5.364  -0.103  -5.246  0.00  0.00     0.066 H 
ATOM     14  H   LIG d   1       3.400  -3.523  -9.730  0.00  0.00     0.069 H 
ENDROOT
BRANCH   5  15
ATOM     15  C   LIG d   1       5.802  -1.275  -2.925  0.00  0.00     0.037 C 
ATOM     16  H   LIG d   1       6.429  -1.978  -2.378  0.00  0.00     0.037 H 
ATOM     17  H   LIG d   1       6.384  -0.387  -3.173  0.00  0.00     0.037 H 
BRANCH  15  18
ATOM     18  C   LIG d   1       4.607  -0.875  -2.056  0.00  0.00     0.101 C 
ATOM     19  H   LIG d   1       4.794  -1.168  -1.023  0.00  0.00     0.066 H 
BRANCH  18  20
ATOM     20  C   LIG d   1       4.409   0.617  -2.128  0.00  0.00     0.070 C 
ATOM     21  O   LIG d   1       3.301   1.086  -2.023  0.00  0.00    -0.547 OA
ATOM     22  O   LIG d   1       5.466   1.426  -2.309  0.00  0.00    -0.547 OA
ENDBRANCH  18  20
BRANCH  18  23
ATOM     23  O   LIG d   1       3.431  -1.534  -2.532  0.00  0.00    -0.386 OA
ATOM     24  H   LIG d   1       3.531  -2.491  -2.635  0.00  0.00     0.210 HD
ENDBRANCH  18  23
ENDBRANCH  15  18
ENDBRANCH   5  15
BRANCH   1  25
ATOM     25  O   LIG d   1       3.850  -0.964  -9.974  0.00  0.00    -0.495 OA
BRANCH  25  26
ATOM     26  C   LIG d   1       4.584   0.257 -10.095  0.00  0.00     0.079 C 
ATOM     27  H   LIG d   1       5.547   0.154  -9.594  0.00  0.00     0.066 H 
ATOM     28  H   LIG d   1       4.745   0.482 -11.149  0.00  0.00     0.066 H 
ATOM     29  H   LIG d   1       4.019   1.067  -9.633  0.00  0.00     0.066 H 
ENDBRANCH  25  26
ENDBRANCH   1  25
BRANCH  10  30
ATOM     30  O   LIG d   1       3.662  -5.122  -7.679  0.00  0.00    -0.506 OA
ATOM     31  H   LIG d   1       2.834  -5.355  -8.119  0.00  0.00     0.292 HD
ENDBRANCH  10  30
TORSDOF 7
ENDMDL
MODEL 8
REMARK VINA RESULT:      -5.0      9.289     12.156
REMARK  7 active torsions:
REMARK  status: ('A' for Active; 'I' for Inactive)
REMARK    1  A    between atoms: C_1  and  O_2 
REMARK    2  A    between atoms: O_2  and  C_3 
REMARK    3  A    between atoms: C_7  and  C_15 
REMARK    4  A    between atoms: C_12  and  O_14 
REMARK    5  A    between atoms: C_15  and  C_16 
REMARK    6  A    between atoms: C_16  and  C_18 
REMARK    7  A    between atoms: C_16  and  O_20 
ROOT
ATOM      1  C   LIG d   1       9.533   6.070  -8.153  0.00  0.00     0.124 A 
ATOM      2  C   LIG d   1       9.836   5.934  -6.807  0.00  0.00    -0.012 A 
ATOM      3  C   LIG d   1       9.865   7.059  -5.993  0.00  0.00    -0.001 A 
ATOM      4  C   LIG d   1      10.184   6.980  -4.563  0.00  0.00    -0.015 A 
ATOM      5  C   LIG d   1      10.188   8.101  -3.831  0.00  0.00     0.113 A 
ATOM      6  O   LIG d   1       9.922   9.310  -4.351  0.00  0.00    -0.427 OA
ATOM      7  C   LIG d   1       9.622   9.492  -5.650  0.00  0.00     0.348 A 
ATOM      8  O   LIG d   1       9.389  10.608  -6.077  0.00  0.00    -0.244 OA
ATOM      9  C   LIG d   1       9.583   8.334  -6.542  0.00  0.00     0.108 A 
ATOM     10  C   LIG d   1       9.278   8.453  -7.904  0.00  0.00     0.135 A 
ATOM     11  C   LIG d   1       9.256   7.320  -8.697  0.00  0.00     0.022 A 
ATOM     12  H   LIG d   1      10.049   4.959  -6.395  0.00  0.00     0.066 H 
ATOM     13  H   LIG d   1      10.409   6.028  -4.106  0.00  0.00     0.066 H 
ATOM     14  H   LIG d   1       9.021   7.407  -9.748  0.00  0.00     0.069 H 
ENDROOT
BRANCH   5  15
ATOM     15  C   LIG d   1      10.513   8.003  -2.363  0.00  0.00     0.037 C 
ATOM     16  H   LIG d   1      11.550   7.690  -2.240  0.00  0.00     0.037 H 
ATOM     17  H   LIG d   1      10.369   8.975  -1.892  0.00  0.00     0.037 H 
BRANCH  15  18
ATOM     18  C   LIG d   1       9.590   6.975  -1.704  0.00  0.00     0.101 C 
ATOM     19  H   LIG d   1       9.139   6.346  -2.472  0.00  0.00     0.066 H 
BRANCH  18  20
ATOM     20  C   LIG d   1      10.387   6.117  -0.757  0.00  0.00     0.070 C 
ATOM     21  O   LIG d   1      10.325   6.312   0.434  0.00  0.00    -0.547 OA
ATOM     22  O   LIG d   1      11.168   5.135  -1.236  0.00  0.00    -0.547 OA
ENDBRANCH  18  20
BRANCH  18  23
ATOM     23  O   LIG d   1       8.561   7.654  -0.981  0.00  0.00    -0.386 OA
ATOM     24  H   LIG d   1       8.875   8.416  -0.472  0.00  0.00     0.210 HD
ENDBRANCH  18  23
ENDBRANCH  15  18
ENDBRANCH   5  15
BRANCH   1  25
ATOM     25  O   LIG d   1       9.505   4.970  -8.950  0.00  0.00    -0.495 OA
BRANCH  25  26
ATOM     26  C   LIG d   1       9.756   3.710  -8.323  0.00  0.00     0.079 C 
ATOM     27  H   LIG d   1       8.812   3.264  -8.011  0.00  0.00     0.066 H 
ATOM     28  H   LIG d   1      10.255   3.046  -9.029  0.00  0.00     0.066 H 
ATOM     29  H   LIG d   1      10.394   3.859  -7.452  0.00  0.00     0.066 H 
ENDBRANCH  25  26
ENDBRANCH   1  25
BRANCH  10  30
ATOM     30  O   LIG d   1       9.006   9.669  -8.440  0.00  0.00    -0.506 OA
ATOM     31  H   LIG d   1       8.364  10.187  -7.936  0.00  0.00     0.292 HD
ENDBRANCH  10  30
TORSDOF 7
ENDMDL
MODEL 9
REMARK VINA RESULT:      -4.9     11.889     14.009
REMARK  7 active torsions:
REMARK  status: ('A' for Active; 'I' for Inactive)
REMARK    1  A    between atoms: C_1  and  O_2 
REMARK    2  A    between atoms: O_2  and  C_3 
REMARK    3  A    between atoms: C_7  and  C_15 
REMARK    4  A    between atoms: C_12  and  O_14 
REMARK    5  A    between atoms: C_15  and  C_16 
REMARK    6  A    between atoms: C_16  and  C_18 
REMARK    7  A    between atoms: C_16  and  O_20 
ROOT
ATOM      1  C   LIG d   1      13.368   7.607  -0.329  0.00  0.00     0.124 A 
ATOM      2  C   LIG d   1      13.056   8.894  -0.741  0.00  0.00    -0.012 A 
ATOM      3  C   LIG d   1      11.730   9.240  -0.964  0.00  0.00    -0.001 A 
ATOM      4  C   LIG d   1      11.338  10.584  -1.405  0.00  0.00    -0.015 A 
ATOM      5  C   LIG d   1      10.041  10.857  -1.596  0.00  0.00     0.113 A 
ATOM      6  O   LIG d   1       9.072   9.947  -1.412  0.00  0.00    -0.427 OA
ATOM      7  C   LIG d   1       9.324   8.687  -1.014  0.00  0.00     0.348 A 
ATOM      8  O   LIG d   1       8.412   7.896  -0.861  0.00  0.00    -0.244 OA
ATOM      9  C   LIG d   1      10.707   8.280  -0.769  0.00  0.00     0.108 A 
ATOM     10  C   LIG d   1      11.040   6.985  -0.353  0.00  0.00     0.135 A 
ATOM     11  C   LIG d   1      12.367   6.660  -0.138  0.00  0.00     0.022 A 
ATOM     12  H   LIG d   1      13.840   9.622  -0.887  0.00  0.00     0.066 H 
ATOM     13  H   LIG d   1      12.087  11.345  -1.569  0.00  0.00     0.066 H 
ATOM     14  H   LIG d   1      12.629   5.662   0.184  0.00  0.00     0.069 H 
ENDROOT
BRANCH   5  15
ATOM     15  C   LIG d   1       9.654  12.244  -2.043  0.00  0.00     0.037 C 
ATOM     16  H   LIG d   1       9.069  12.728  -1.261  0.00  0.00     0.037 H 
ATOM     17  H   LIG d   1      10.554  12.827  -2.237  0.00  0.00     0.037 H 
BRANCH  15  18
ATOM     18  C   LIG d   1       8.819  12.153  -3.322  0.00  0.00     0.101 C 
ATOM     19  H   LIG d   1       8.601  13.157  -3.686  0.00  0.00     0.066 H 
BRANCH  18  20
ATOM     20  C   LIG d   1       9.588  11.394  -4.372  0.00  0.00     0.070 C 
ATOM     21  O   LIG d   1      10.626  11.839  -4.801  0.00  0.00    -0.547 OA
ATOM     22  O   LIG d   1       9.119  10.223  -4.832  0.00  0.00    -0.547 OA
ENDBRANCH  18  20
BRANCH  18  23
ATOM     23  O   LIG d   1       7.595  11.471  -3.044  0.00  0.00    -0.386 OA
ATOM     24  H   LIG d   1       7.302  10.882  -3.753  0.00  0.00     0.210 HD
ENDBRANCH  18  23
ENDBRANCH  15  18
ENDBRANCH   5  15
BRANCH   1  25
ATOM     25  O   LIG d   1      14.665   7.268  -0.111  0.00  0.00    -0.495 OA
BRANCH  25  26
ATOM     26  C   LIG d   1      15.637   8.309  -0.233  0.00  0.00     0.079 C 
ATOM     27  H   LIG d   1      16.076   8.513   0.743  0.00  0.00     0.066 H 
ATOM     28  H   LIG d   1      16.419   7.996  -0.925  0.00  0.00     0.066 H 
ATOM     29  H   LIG d   1      15.156   9.211  -0.612  0.00  0.00     0.066 H 
ENDBRANCH  25  26
ENDBRANCH   1  25
BRANCH  10  30
ATOM     30  O   LIG d   1      10.069   6.057  -0.163  0.00  0.00    -0.506 OA
ATOM     31  H   LIG d   1       9.204   6.431   0.056  0.00  0.00     0.292 HD
ENDBRANCH  10  30
TORSDOF 7
ENDMDL
