MODEL 1
REMARK VINA RESULT:      -6.4      0.000      0.000
REMARK  5 active torsions:
REMARK  status: ('A' for Active; 'I' for Inactive)
REMARK    1  A    between atoms: C_1  and  C_2 
REMARK    2  A    between atoms: C_5  and  O_29 
REMARK    3  A    between atoms: C_19  and  C_28 
REMARK    4  A    between atoms: C_24  and  C_25 
REMARK    5  A    between atoms: C_24  and  O_27 
ROOT
ATOM      1  C   LIG d   1       2.845   0.260  -4.721  0.00  0.00    -0.070 C 
ATOM      2  C   LIG d   1       2.474   0.539  -5.800  0.00  0.00    -0.116 C 
ATOM      3  H   LIG d   1       2.141   0.788  -6.764  0.00  0.00     0.123 H 
ENDROOT
BRANCH   1   4
ATOM      4  C   LIG d   1       3.310  -0.087  -3.372  0.00  0.00     0.132 C 
ATOM      5  C   LIG d   1       4.502  -1.047  -3.389  0.00  0.00     0.011 C 
ATOM      6  C   LIG d   1       4.495  -2.034  -4.519  0.00  0.00    -0.043 C 
ATOM      7  C   LIG d   1       5.763  -0.205  -3.245  0.00  0.00    -0.029 C 
ATOM      8  C   LIG d   1       5.182  -1.622  -5.802  0.00  0.00    -0.049 C 
ATOM      9  H   LIG d   1       3.447  -2.299  -4.749  0.00  0.00     0.027 H 
ATOM     10  H   LIG d   1       4.930  -2.980  -4.158  0.00  0.00     0.027 H 
ATOM     11  C   LIG d   1       6.485  -0.861  -5.600  0.00  0.00    -0.030 C 
ATOM     12  H   LIG d   1       4.501  -1.008  -6.413  0.00  0.00     0.027 H 
ATOM     13  H   LIG d   1       5.378  -2.523  -6.409  0.00  0.00     0.027 H 
ATOM     14  C   LIG d   1       7.681  -1.772  -5.452  0.00  0.00     0.003 C 
ATOM     15  C   LIG d   1       6.358   0.220  -4.570  0.00  0.00    -0.032 C 
ATOM     16  H   LIG d   1       6.662  -0.321  -6.570  0.00  0.00     0.031 H 
ATOM     17  C   LIG d   1       8.966  -0.968  -5.270  0.00  0.00     0.104 A 
ATOM     18  C   LIG d   1       7.854  -2.675  -6.674  0.00  0.00    -0.042 C 
ATOM     19  C   LIG d   1      10.228  -1.824  -5.096  0.00  0.00     0.005 C 
ATOM     20  O   LIG d   1       9.150   0.196  -6.087  0.00  0.00    -0.364 OA
ATOM     21  C   LIG d   1       8.897   0.423  -4.687  0.00  0.00     0.089 A 
ATOM     22  C   LIG d   1      10.360  -2.719  -6.334  0.00  0.00     0.058 C 
ATOM     23  H   LIG d   1      10.168  -2.432  -4.197  0.00  0.00     0.032 H 
ATOM     24  H   LIG d   1      11.103  -1.171  -5.026  0.00  0.00     0.032 H 
ATOM     25  C   LIG d   1       9.096  -3.551  -6.529  0.00  0.00    -0.026 C 
ATOM     26  H   LIG d   1      10.524  -2.095  -7.214  0.00  0.00     0.059 H 
ATOM     27  H   LIG d   1       8.983  -4.247  -5.701  0.00  0.00     0.029 H 
ATOM     28  H   LIG d   1       9.213  -4.144  -7.446  0.00  0.00     0.029 H 
ATOM     29  H   LIG d   1       9.740   0.757  -4.077  0.00  0.00     0.062 H 
ATOM     30  C   LIG d   1       7.570   1.106  -4.394  0.00  0.00    -0.021 C 
ATOM     31  H   LIG d   1       7.468   1.970  -5.059  0.00  0.00     0.029 H 
ATOM     32  H   LIG d   1       7.590   1.478  -3.366  0.00  0.00     0.029 H 
ATOM     33  H   LIG d   1       6.972  -3.311  -6.780  0.00  0.00     0.027 H 
ATOM     34  H   LIG d   1       7.947  -2.049  -7.566  0.00  0.00     0.027 H 
ATOM     35  H   LIG d   1       5.599   0.910  -4.993  0.00  0.00     0.031 H 
ATOM     36  H   LIG d   1       6.511  -0.743  -2.648  0.00  0.00     0.031 H 
ATOM     37  C   LIG d   1       5.319   1.067  -2.482  0.00  0.00    -0.046 C 
ATOM     38  C   LIG d   1       3.798   1.182  -2.648  0.00  0.00    -0.012 C 
ATOM     39  H   LIG d   1       5.580   0.983  -1.423  0.00  0.00     0.027 H 
ATOM     40  H   LIG d   1       5.807   1.951  -2.901  0.00  0.00     0.027 H 
ATOM     41  H   LIG d   1       3.317   1.258  -1.672  0.00  0.00     0.030 H 
ATOM     42  H   LIG d   1       3.553   2.063  -3.245  0.00  0.00     0.030 H 
BRANCH   5  43
ATOM     43  C   LIG d   1       4.390  -1.880  -2.090  0.00  0.00    -0.056 C 
ATOM     44  H   LIG d   1       3.832  -2.795  -2.293  0.00  0.00     0.024 H 
ATOM     45  H   LIG d   1       5.388  -2.134  -1.735  0.00  0.00     0.024 H 
ATOM     46  H   LIG d   1       3.870  -1.299  -1.329  0.00  0.00     0.024 H 
ENDBRANCH   5  43
BRANCH  14  47
ATOM     47  C   LIG d   1       7.512  -2.664  -4.226  0.00  0.00    -0.057 C 
ATOM     48  H   LIG d   1       6.494  -2.574  -3.850  0.00  0.00     0.024 H 
ATOM     49  H   LIG d   1       7.708  -3.700  -4.502  0.00  0.00     0.024 H 
ATOM     50  H   LIG d   1       8.214  -2.355  -3.452  0.00  0.00     0.024 H 
ENDBRANCH  14  47
BRANCH  22  51
ATOM     51  O   LIG d   1      11.477  -3.593  -6.165  0.00  0.00    -0.392 OA
ATOM     52  H   LIG d   1      11.747  -4.050  -6.974  0.00  0.00     0.210 HD
ENDBRANCH  22  51
BRANCH   4  53
ATOM     53  O   LIG d   1       2.233  -0.674  -2.630  0.00  0.00    -0.376 OA
ATOM     54  H   LIG d   1       1.378  -0.634  -3.079  0.00  0.00     0.211 HD
ENDBRANCH   4  53
ENDBRANCH   1   4
TORSDOF 5
ENDMDL
MODEL 2
REMARK VINA RESULT:      -5.6      2.666      6.052
REMARK  5 active torsions:
REMARK  status: ('A' for Active; 'I' for Inactive)
REMARK    1  A    between atoms: C_1  and  C_2 
REMARK    2  A    between atoms: C_5  and  O_29 
REMARK    3  A    between atoms: C_19  and  C_28 
REMARK    4  A    between atoms: C_24  and  C_25 
REMARK    5  A    between atoms: C_24  and  O_27 
ROOT
ATOM      1  C   LIG d   1       6.477  -6.212  -6.956  0.00  0.00    -0.070 C 
ATOM      2  C   LIG d   1       6.621  -7.060  -6.156  0.00  0.00    -0.116 C 
ATOM      3  H   LIG d   1       6.748  -7.818  -5.441  0.00  0.00     0.123 H 
ENDROOT
BRANCH   1   4
ATOM      4  C   LIG d   1       6.299  -5.152  -7.957  0.00  0.00     0.132 C 
ATOM      5  C   LIG d   1       5.498  -3.964  -7.421  0.00  0.00     0.011 C 
ATOM      6  C   LIG d   1       4.430  -4.325  -6.429  0.00  0.00    -0.043 C 
ATOM      7  C   LIG d   1       6.499  -2.908  -6.969  0.00  0.00    -0.029 C 
ATOM      8  C   LIG d   1       4.823  -4.346  -4.968  0.00  0.00    -0.049 C 
ATOM      9  H   LIG d   1       4.020  -5.314  -6.698  0.00  0.00     0.027 H 
ATOM     10  H   LIG d   1       3.578  -3.641  -6.570  0.00  0.00     0.027 H 
ATOM     11  C   LIG d   1       5.754  -3.216  -4.552  0.00  0.00    -0.030 C 
ATOM     12  H   LIG d   1       5.296  -5.309  -4.719  0.00  0.00     0.027 H 
ATOM     13  H   LIG d   1       3.908  -4.308  -4.351  0.00  0.00     0.027 H 
ATOM     14  C   LIG d   1       5.015  -1.958  -4.159  0.00  0.00     0.003 C 
ATOM     15  C   LIG d   1       6.889  -3.032  -5.513  0.00  0.00    -0.032 C 
ATOM     16  H   LIG d   1       6.233  -3.568  -3.597  0.00  0.00     0.031 H 
ATOM     17  C   LIG d   1       5.984  -0.859  -3.733  0.00  0.00     0.104 A 
ATOM     18  C   LIG d   1       4.046  -2.213  -3.004  0.00  0.00    -0.042 C 
ATOM     19  C   LIG d   1       5.310   0.461  -3.334  0.00  0.00     0.005 C 
ATOM     20  O   LIG d   1       7.094  -1.229  -2.903  0.00  0.00    -0.364 OA
ATOM     21  C   LIG d   1       7.398  -0.867  -4.265  0.00  0.00     0.089 A 
ATOM     22  C   LIG d   1       4.343   0.160  -2.182  0.00  0.00     0.058 C 
ATOM     23  H   LIG d   1       4.772   0.895  -4.173  0.00  0.00     0.032 H 
ATOM     24  H   LIG d   1       6.071   1.169  -2.993  0.00  0.00     0.032 H 
ATOM     25  C   LIG d   1       3.347  -0.921  -2.588  0.00  0.00    -0.026 C 
ATOM     26  H   LIG d   1       4.910  -0.176  -1.313  0.00  0.00     0.059 H 
ATOM     27  H   LIG d   1       2.710  -0.551  -3.389  0.00  0.00     0.029 H 
ATOM     28  H   LIG d   1       2.702  -1.136  -1.725  0.00  0.00     0.029 H 
ATOM     29  H   LIG d   1       7.882   0.099  -4.425  0.00  0.00     0.062 H 
ATOM     30  C   LIG d   1       7.931  -2.012  -5.112  0.00  0.00    -0.021 C 
ATOM     31  H   LIG d   1       8.719  -2.524  -4.551  0.00  0.00     0.029 H 
ATOM     32  H   LIG d   1       8.383  -1.594  -6.015  0.00  0.00     0.029 H 
ATOM     33  H   LIG d   1       3.299  -2.946  -3.314  0.00  0.00     0.027 H 
ATOM     34  H   LIG d   1       4.606  -2.618  -2.156  0.00  0.00     0.027 H 
ATOM     35  H   LIG d   1       7.442  -3.992  -5.465  0.00  0.00     0.031 H 
ATOM     36  H   LIG d   1       6.108  -1.903  -7.174  0.00  0.00     0.031 H 
ATOM     37  C   LIG d   1       7.762  -3.151  -7.832  0.00  0.00    -0.046 C 
ATOM     38  C   LIG d   1       7.673  -4.586  -8.366  0.00  0.00    -0.012 C 
ATOM     39  H   LIG d   1       7.796  -2.439  -8.662  0.00  0.00     0.027 H 
ATOM     40  H   LIG d   1       8.664  -3.035  -7.225  0.00  0.00     0.027 H 
ATOM     41  H   LIG d   1       7.765  -4.591  -9.453  0.00  0.00     0.030 H 
ATOM     42  H   LIG d   1       8.466  -5.197  -7.929  0.00  0.00     0.030 H 
BRANCH   5  43
ATOM     43  C   LIG d   1       4.763  -3.365  -8.643  0.00  0.00    -0.056 C 
ATOM     44  H   LIG d   1       5.478  -3.195  -9.449  0.00  0.00     0.024 H 
ATOM     45  H   LIG d   1       3.993  -4.059  -8.980  0.00  0.00     0.024 H 
ATOM     46  H   LIG d   1       4.302  -2.418  -8.362  0.00  0.00     0.024 H 
ENDBRANCH   5  43
BRANCH  14  47
ATOM     47  C   LIG d   1       4.208  -1.433  -5.343  0.00  0.00    -0.057 C 
ATOM     48  H   LIG d   1       3.195  -1.200  -5.017  0.00  0.00     0.024 H 
ATOM     49  H   LIG d   1       4.681  -0.532  -5.733  0.00  0.00     0.024 H 
ATOM     50  H   LIG d   1       4.173  -2.192  -6.124  0.00  0.00     0.024 H 
ENDBRANCH  14  47
BRANCH  22  51
ATOM     51  O   LIG d   1       3.631   1.353  -1.844  0.00  0.00    -0.392 OA
ATOM     52  H   LIG d   1       4.146   2.164  -1.956  0.00  0.00     0.210 HD
ENDBRANCH  22  51
BRANCH   4  53
ATOM     53  O   LIG d   1       5.643  -5.690  -9.112  0.00  0.00    -0.376 OA
ATOM     54  H   LIG d   1       4.753  -5.339  -9.257  0.00  0.00     0.211 HD
ENDBRANCH   4  53
ENDBRANCH   1   4
TORSDOF 5
ENDMDL
MODEL 3
REMARK VINA RESULT:      -5.5      3.228      5.092
REMARK  5 active torsions:
REMARK  status: ('A' for Active; 'I' for Inactive)
REMARK    1  A    between atoms: C_1  and  C_2 
REMARK    2  A    between atoms: C_5  and  O_29 
REMARK    3  A    between atoms: C_19  and  C_28 
REMARK    4  A    between atoms: C_24  and  C_25 
REMARK    5  A    between atoms: C_24  and  O_27 
ROOT
ATOM      1  C   LIG d   1       4.787   0.334  -2.921  0.00  0.00    -0.070 C 
ATOM      2  C   LIG d   1       4.392   1.415  -2.687  0.00  0.00    -0.116 C 
ATOM      3  H   LIG d   1       4.040   2.381  -2.477  0.00  0.00     0.123 H 
ENDROOT
BRANCH   1   4
ATOM      4  C   LIG d   1       5.282  -1.017  -3.215  0.00  0.00     0.132 C 
ATOM      5  C   LIG d   1       4.728  -1.574  -4.528  0.00  0.00     0.011 C 
ATOM      6  C   LIG d   1       3.328  -1.139  -4.852  0.00  0.00    -0.043 C 
ATOM      7  C   LIG d   1       5.773  -1.318  -5.607  0.00  0.00    -0.029 C 
ATOM      8  C   LIG d   1       3.168   0.128  -5.661  0.00  0.00    -0.049 C 
ATOM      9  H   LIG d   1       2.766  -1.029  -3.907  0.00  0.00     0.027 H 
ATOM     10  H   LIG d   1       2.815  -1.969  -5.365  0.00  0.00     0.027 H 
ATOM     11  C   LIG d   1       4.184   0.290  -6.783  0.00  0.00    -0.030 C 
ATOM     12  H   LIG d   1       3.224   1.007  -4.999  0.00  0.00     0.027 H 
ATOM     13  H   LIG d   1       2.150   0.155  -6.088  0.00  0.00     0.027 H 
ATOM     14  C   LIG d   1       3.755  -0.380  -8.067  0.00  0.00     0.003 C 
ATOM     15  C   LIG d   1       5.582  -0.003  -6.330  0.00  0.00    -0.032 C 
ATOM     16  H   LIG d   1       4.180   1.388  -7.026  0.00  0.00     0.031 H 
ATOM     17  C   LIG d   1       4.793  -0.179  -9.168  0.00  0.00     0.104 A 
ATOM     18  C   LIG d   1       2.418   0.167  -8.567  0.00  0.00    -0.042 C 
ATOM     19  C   LIG d   1       4.438  -0.847 -10.503  0.00  0.00     0.005 C 
ATOM     20  O   LIG d   1       5.389   1.119  -9.297  0.00  0.00    -0.364 OA
ATOM     21  C   LIG d   1       6.235   0.067  -8.793  0.00  0.00     0.089 A 
ATOM     22  C   LIG d   1       3.090  -0.278 -10.964  0.00  0.00     0.058 C 
ATOM     23  H   LIG d   1       4.374  -1.926 -10.396  0.00  0.00     0.032 H 
ATOM     24  H   LIG d   1       5.205  -0.607 -11.245  0.00  0.00     0.032 H 
ATOM     25  C   LIG d   1       2.027  -0.485  -9.891  0.00  0.00    -0.026 C 
ATOM     26  H   LIG d   1       3.199   0.788 -11.167  0.00  0.00     0.059 H 
ATOM     27  H   LIG d   1       1.842  -1.550  -9.758  0.00  0.00     0.029 H 
ATOM     28  H   LIG d   1       1.091  -0.029 -10.241  0.00  0.00     0.029 H 
ATOM     29  H   LIG d   1       7.005  -0.318  -9.468  0.00  0.00     0.062 H 
ATOM     30  C   LIG d   1       6.670   0.252  -7.348  0.00  0.00    -0.021 C 
ATOM     31  H   LIG d   1       7.031   1.277  -7.220  0.00  0.00     0.029 H 
ATOM     32  H   LIG d   1       7.507  -0.423  -7.148  0.00  0.00     0.029 H 
ATOM     33  H   LIG d   1       1.645  -0.032  -7.822  0.00  0.00     0.027 H 
ATOM     34  H   LIG d   1       2.507   1.248  -8.702  0.00  0.00     0.027 H 
ATOM     35  H   LIG d   1       5.780   0.761  -5.550  0.00  0.00     0.031 H 
ATOM     36  H   LIG d   1       5.787  -2.148  -6.325  0.00  0.00     0.031 H 
ATOM     37  C   LIG d   1       7.126  -1.268  -4.857  0.00  0.00    -0.046 C 
ATOM     38  C   LIG d   1       6.813  -0.985  -3.382  0.00  0.00    -0.012 C 
ATOM     39  H   LIG d   1       7.650  -2.223  -4.957  0.00  0.00     0.027 H 
ATOM     40  H   LIG d   1       7.756  -0.471  -5.262  0.00  0.00     0.027 H 
ATOM     41  H   LIG d   1       7.270  -1.746  -2.747  0.00  0.00     0.030 H 
ATOM     42  H   LIG d   1       7.193  -0.000  -3.101  0.00  0.00     0.030 H 
BRANCH   5  43
ATOM     43  C   LIG d   1       4.668  -3.109  -4.343  0.00  0.00    -0.056 C 
ATOM     44  H   LIG d   1       4.848  -3.598  -5.301  0.00  0.00     0.024 H 
ATOM     45  H   LIG d   1       5.430  -3.419  -3.628  0.00  0.00     0.024 H 
ATOM     46  H   LIG d   1       3.684  -3.393  -3.971  0.00  0.00     0.024 H 
ENDBRANCH   5  43
BRANCH  14  47
ATOM     47  C   LIG d   1       3.597  -1.882  -7.846  0.00  0.00    -0.057 C 
ATOM     48  H   LIG d   1       3.604  -2.393  -8.809  0.00  0.00     0.024 H 
ATOM     49  H   LIG d   1       4.421  -2.248  -7.235  0.00  0.00     0.024 H 
ATOM     50  H   LIG d   1       2.653  -2.077  -7.338  0.00  0.00     0.024 H 
ENDBRANCH  14  47
BRANCH  22  51
ATOM     51  O   LIG d   1       2.686  -0.944 -12.162  0.00  0.00    -0.392 OA
ATOM     52  H   LIG d   1       1.935  -0.529 -12.610  0.00  0.00     0.210 HD
ENDBRANCH  22  51
BRANCH   4  53
ATOM     53  O   LIG d   1       4.938  -1.898  -2.138  0.00  0.00    -0.376 OA
ATOM     54  H   LIG d   1       4.890  -2.830  -2.393  0.00  0.00     0.211 HD
ENDBRANCH   4  53
ENDBRANCH   1   4
TORSDOF 5
ENDMDL
MODEL 4
REMARK VINA RESULT:      -5.5      2.719      6.216
REMARK  5 active torsions:
REMARK  status: ('A' for Active; 'I' for Inactive)
REMARK    1  A    between atoms: C_1  and  C_2 
REMARK    2  A    between atoms: C_5  and  O_29 
REMARK    3  A    between atoms: C_19  and  C_28 
REMARK    4  A    between atoms: C_24  and  C_25 
REMARK    5  A    between atoms: C_24  and  O_27 
ROOT
ATOM      1  C   LIG d   1       7.607  -5.155  -7.609  0.00  0.00    -0.070 C 
ATOM      2  C   LIG d   1       8.661  -4.693  -7.844  0.00  0.00    -0.116 C 
ATOM      3  H   LIG d   1       9.603  -4.280  -8.054  0.00  0.00     0.123 H 
ENDROOT
BRANCH   1   4
ATOM      4  C   LIG d   1       6.290  -5.734  -7.316  0.00  0.00     0.132 C 
ATOM      5  C   LIG d   1       5.592  -5.045  -6.141  0.00  0.00     0.011 C 
ATOM      6  C   LIG d   1       6.515  -4.555  -5.064  0.00  0.00    -0.043 C 
ATOM      7  C   LIG d   1       4.637  -4.011  -6.724  0.00  0.00    -0.029 C 
ATOM      8  C   LIG d   1       7.046  -3.145  -5.198  0.00  0.00    -0.049 C 
ATOM      9  H   LIG d   1       7.372  -5.249  -4.992  0.00  0.00     0.027 H 
ATOM     10  H   LIG d   1       6.007  -4.665  -4.093  0.00  0.00     0.027 H 
ATOM     11  C   LIG d   1       6.023  -2.134  -5.699  0.00  0.00    -0.030 C 
ATOM     12  H   LIG d   1       7.919  -3.133  -5.869  0.00  0.00     0.027 H 
ATOM     13  H   LIG d   1       7.432  -2.813  -4.218  0.00  0.00     0.027 H 
ATOM     14  C   LIG d   1       5.194  -1.535  -4.588  0.00  0.00     0.003 C 
ATOM     15  C   LIG d   1       5.258  -2.641  -6.884  0.00  0.00    -0.032 C 
ATOM     16  H   LIG d   1       6.631  -1.273  -6.090  0.00  0.00     0.031 H 
ATOM     17  C   LIG d   1       4.196  -0.516  -5.133  0.00  0.00     0.104 A 
ATOM     18  C   LIG d   1       6.069  -0.835  -3.548  0.00  0.00    -0.042 C 
ATOM     19  C   LIG d   1       3.301   0.127  -4.065  0.00  0.00     0.005 C 
ATOM     20  O   LIG d   1       4.651   0.391  -6.147  0.00  0.00    -0.364 OA
ATOM     21  C   LIG d   1       3.723  -0.631  -6.563  0.00  0.00     0.089 A 
ATOM     22  C   LIG d   1       4.216   0.809  -3.040  0.00  0.00     0.058 C 
ATOM     23  H   LIG d   1       2.678  -0.617  -3.577  0.00  0.00     0.032 H 
ATOM     24  H   LIG d   1       2.659   0.879  -4.534  0.00  0.00     0.032 H 
ATOM     25  C   LIG d   1       5.210  -0.192  -2.461  0.00  0.00    -0.026 C 
ATOM     26  H   LIG d   1       4.758   1.622  -3.524  0.00  0.00     0.059 H 
ATOM     27  H   LIG d   1       4.679  -0.950  -1.891  0.00  0.00     0.029 H 
ATOM     28  H   LIG d   1       5.871   0.343  -1.766  0.00  0.00     0.029 H 
ATOM     29  H   LIG d   1       2.700  -0.313  -6.782  0.00  0.00     0.062 H 
ATOM     30  C   LIG d   1       4.308  -1.654  -7.523  0.00  0.00    -0.021 C 
ATOM     31  H   LIG d   1       4.842  -1.122  -8.317  0.00  0.00     0.029 H 
ATOM     32  H   LIG d   1       3.485  -2.204  -7.987  0.00  0.00     0.029 H 
ATOM     33  H   LIG d   1       6.743  -1.564  -3.094  0.00  0.00     0.027 H 
ATOM     34  H   LIG d   1       6.666  -0.067  -4.048  0.00  0.00     0.027 H 
ATOM     35  H   LIG d   1       6.033  -2.789  -7.664  0.00  0.00     0.031 H 
ATOM     36  H   LIG d   1       3.728  -3.947  -6.112  0.00  0.00     0.031 H 
ATOM     37  C   LIG d   1       4.270  -4.544  -8.131  0.00  0.00    -0.046 C 
ATOM     38  C   LIG d   1       5.359  -5.548  -8.530  0.00  0.00    -0.012 C 
ATOM     39  H   LIG d   1       3.292  -5.035  -8.105  0.00  0.00     0.027 H 
ATOM     40  H   LIG d   1       4.238  -3.723  -8.852  0.00  0.00     0.027 H 
ATOM     41  H   LIG d   1       4.910  -6.505  -8.800  0.00  0.00     0.030 H 
ATOM     42  H   LIG d   1       5.931  -5.162  -9.376  0.00  0.00     0.030 H 
BRANCH   5  43
ATOM     43  C   LIG d   1       4.704  -6.129  -5.485  0.00  0.00    -0.056 C 
ATOM     44  H   LIG d   1       4.111  -6.627  -6.253  0.00  0.00     0.024 H 
ATOM     45  H   LIG d   1       5.335  -6.860  -4.982  0.00  0.00     0.024 H 
ATOM     46  H   LIG d   1       4.038  -5.663  -4.759  0.00  0.00     0.024 H 
ENDBRANCH   5  43
BRANCH  14  47
ATOM     47  C   LIG d   1       4.401  -2.628  -3.878  0.00  0.00    -0.057 C 
ATOM     48  H   LIG d   1       4.006  -3.327  -4.615  0.00  0.00     0.024 H 
ATOM     49  H   LIG d   1       5.055  -3.160  -3.187  0.00  0.00     0.024 H 
ATOM     50  H   LIG d   1       3.577  -2.179  -3.325  0.00  0.00     0.024 H 
ENDBRANCH  14  47
BRANCH  22  51
ATOM     51  O   LIG d   1       3.417   1.344  -1.982  0.00  0.00    -0.392 OA
ATOM     52  H   LIG d   1       2.592   1.753  -2.279  0.00  0.00     0.210 HD
ENDBRANCH  22  51
BRANCH   4  53
ATOM     53  O   LIG d   1       6.433  -7.132  -7.035  0.00  0.00    -0.376 OA
ATOM     54  H   LIG d   1       6.544  -7.335  -6.096  0.00  0.00     0.211 HD
ENDBRANCH   4  53
ENDBRANCH   1   4
TORSDOF 5
ENDMDL
MODEL 5
REMARK VINA RESULT:      -5.4      3.406      5.654
REMARK  5 active torsions:
REMARK  status: ('A' for Active; 'I' for Inactive)
REMARK    1  A    between atoms: C_1  and  C_2 
REMARK    2  A    between atoms: C_5  and  O_29 
REMARK    3  A    between atoms: C_19  and  C_28 
REMARK    4  A    between atoms: C_24  and  C_25 
REMARK    5  A    between atoms: C_24  and  O_27 
ROOT
ATOM      1  C   LIG d   1       4.541  -1.735 -10.789  0.00  0.00    -0.070 C 
ATOM      2  C   LIG d   1       4.941  -2.821 -10.985  0.00  0.00    -0.116 C 
ATOM      3  H   LIG d   1       5.300  -3.792 -11.159  0.00  0.00     0.123 H 
ENDROOT
BRANCH   1   4
ATOM      4  C   LIG d   1       4.038  -0.377 -10.544  0.00  0.00     0.132 C 
ATOM      5  C   LIG d   1       3.624  -0.156  -9.088  0.00  0.00     0.011 C 
ATOM      6  C   LIG d   1       3.047  -1.365  -8.410  0.00  0.00    -0.043 C 
ATOM      7  C   LIG d   1       4.797   0.510  -8.379  0.00  0.00    -0.029 C 
ATOM      8  C   LIG d   1       4.012  -2.281  -7.692  0.00  0.00    -0.049 C 
ATOM      9  H   LIG d   1       2.489  -1.955  -9.160  0.00  0.00     0.027 H 
ATOM     10  H   LIG d   1       2.266  -1.031  -7.708  0.00  0.00     0.027 H 
ATOM     11  C   LIG d   1       5.111  -1.560  -6.926  0.00  0.00    -0.030 C 
ATOM     12  H   LIG d   1       4.474  -2.978  -8.410  0.00  0.00     0.027 H 
ATOM     13  H   LIG d   1       3.445  -2.922  -6.995  0.00  0.00     0.027 H 
ATOM     14  C   LIG d   1       4.699  -1.177  -5.524  0.00  0.00     0.003 C 
ATOM     15  C   LIG d   1       5.751  -0.474  -7.738  0.00  0.00    -0.032 C 
ATOM     16  H   LIG d   1       5.919  -2.329  -6.780  0.00  0.00     0.031 H 
ATOM     17  C   LIG d   1       5.836  -0.472  -4.788  0.00  0.00     0.104 A 
ATOM     18  C   LIG d   1       4.287  -2.401  -4.706  0.00  0.00    -0.042 C 
ATOM     19  C   LIG d   1       5.489  -0.035  -3.359  0.00  0.00     0.005 C 
ATOM     20  O   LIG d   1       7.160  -1.002  -4.939  0.00  0.00    -0.364 OA
ATOM     21  C   LIG d   1       6.892   0.261  -5.580  0.00  0.00     0.089 A 
ATOM     22  C   LIG d   1       5.074  -1.287  -2.576  0.00  0.00     0.058 C 
ATOM     23  H   LIG d   1       4.683   0.694  -3.358  0.00  0.00     0.032 H 
ATOM     24  H   LIG d   1       6.372   0.409  -2.890  0.00  0.00     0.032 H 
ATOM     25  C   LIG d   1       3.923  -2.000  -3.278  0.00  0.00    -0.026 C 
ATOM     26  H   LIG d   1       5.927  -1.962  -2.497  0.00  0.00     0.059 H 
ATOM     27  H   LIG d   1       3.038  -1.366  -3.268  0.00  0.00     0.029 H 
ATOM     28  H   LIG d   1       3.684  -2.909  -2.711  0.00  0.00     0.029 H 
ATOM     29  H   LIG d   1       7.334   1.152  -5.126  0.00  0.00     0.062 H 
ATOM     30  C   LIG d   1       6.936   0.213  -7.099  0.00  0.00    -0.021 C 
ATOM     31  H   LIG d   1       7.847  -0.311  -7.406  0.00  0.00     0.029 H 
ATOM     32  H   LIG d   1       6.998   1.237  -7.477  0.00  0.00     0.029 H 
ATOM     33  H   LIG d   1       3.427  -2.879  -5.179  0.00  0.00     0.027 H 
ATOM     34  H   LIG d   1       5.119  -3.110  -4.687  0.00  0.00     0.027 H 
ATOM     35  H   LIG d   1       6.201  -1.009  -8.599  0.00  0.00     0.031 H 
ATOM     36  H   LIG d   1       4.431   1.227  -7.632  0.00  0.00     0.031 H 
ATOM     37  C   LIG d   1       5.561   1.274  -9.488  0.00  0.00    -0.046 C 
ATOM     38  C   LIG d   1       5.152   0.649 -10.828  0.00  0.00    -0.012 C 
ATOM     39  H   LIG d   1       5.296   2.335  -9.468  0.00  0.00     0.027 H 
ATOM     40  H   LIG d   1       6.640   1.172  -9.345  0.00  0.00     0.027 H 
ATOM     41  H   LIG d   1       4.780   1.419 -11.506  0.00  0.00     0.030 H 
ATOM     42  H   LIG d   1       6.008   0.146 -11.283  0.00  0.00     0.030 H 
BRANCH   5  43
ATOM     43  C   LIG d   1       2.491   0.897  -9.126  0.00  0.00    -0.056 C 
ATOM     44  H   LIG d   1       1.727   0.636  -8.392  0.00  0.00     0.024 H 
ATOM     45  H   LIG d   1       2.900   1.879  -8.892  0.00  0.00     0.024 H 
ATOM     46  H   LIG d   1       2.046   0.916 -10.121  0.00  0.00     0.024 H 
ENDBRANCH   5  43
BRANCH  14  47
ATOM     47  C   LIG d   1       3.512  -0.219  -5.571  0.00  0.00    -0.057 C 
ATOM     48  H   LIG d   1       3.804   0.697  -6.084  0.00  0.00     0.024 H 
ATOM     49  H   LIG d   1       2.688  -0.689  -6.108  0.00  0.00     0.024 H 
ATOM     50  H   LIG d   1       3.196   0.018  -4.556  0.00  0.00     0.024 H 
ENDBRANCH  14  47
BRANCH  22  51
ATOM     51  O   LIG d   1       4.658  -0.903  -1.263  0.00  0.00    -0.392 OA
ATOM     52  H   LIG d   1       5.357  -0.495  -0.732  0.00  0.00     0.210 HD
ENDBRANCH  22  51
BRANCH   4  53
ATOM     53  O   LIG d   1       2.921  -0.117 -11.404  0.00  0.00    -0.376 OA
ATOM     54  H   LIG d   1       2.266  -0.828 -11.424  0.00  0.00     0.211 HD
ENDBRANCH   4  53
ENDBRANCH   1   4
TORSDOF 5
ENDMDL
MODEL 6
REMARK VINA RESULT:      -5.3      9.365     12.151
REMARK  5 active torsions:
REMARK  status: ('A' for Active; 'I' for Inactive)
REMARK    1  A    between atoms: C_1  and  C_2 
REMARK    2  A    between atoms: C_5  and  O_29 
REMARK    3  A    between atoms: C_19  and  C_28 
REMARK    4  A    between atoms: C_24  and  C_25 
REMARK    5  A    between atoms: C_24  and  O_27 
ROOT
ATOM      1  C   LIG d   1      11.298   5.758   0.421  0.00  0.00    -0.070 C 
ATOM      2  C   LIG d   1      10.992   6.076   1.510  0.00  0.00    -0.116 C 
ATOM      3  H   LIG d   1      10.719   6.360   2.483  0.00  0.00     0.123 H 
ENDROOT
BRANCH   1   4
ATOM      4  C   LIG d   1      11.682   5.361  -0.939  0.00  0.00     0.132 C 
ATOM      5  C   LIG d   1      11.124   6.305  -2.008  0.00  0.00     0.011 C 
ATOM      6  C   LIG d   1       9.779   6.889  -1.686  0.00  0.00    -0.043 C 
ATOM      7  C   LIG d   1      12.222   7.304  -2.348  0.00  0.00    -0.029 C 
ATOM      8  C   LIG d   1       9.758   8.200  -0.933  0.00  0.00    -0.049 C 
ATOM      9  H   LIG d   1       9.199   6.144  -1.114  0.00  0.00     0.027 H 
ATOM     10  H   LIG d   1       9.213   6.997  -2.626  0.00  0.00     0.027 H 
ATOM     11  C   LIG d   1      10.820   9.197  -1.376  0.00  0.00    -0.030 C 
ATOM     12  H   LIG d   1       9.869   8.016   0.148  0.00  0.00     0.027 H 
ATOM     13  H   LIG d   1       8.760   8.661  -1.044  0.00  0.00     0.027 H 
ATOM     14  C   LIG d   1      10.376  10.054  -2.538  0.00  0.00     0.003 C 
ATOM     15  C   LIG d   1      12.171   8.563  -1.511  0.00  0.00    -0.032 C 
ATOM     16  H   LIG d   1      10.920   9.918  -0.518  0.00  0.00     0.031 H 
ATOM     17  C   LIG d   1      11.464  11.048  -2.937  0.00  0.00     0.104 A 
ATOM     18  C   LIG d   1       9.110  10.842  -2.203  0.00  0.00    -0.042 C 
ATOM     19  C   LIG d   1      11.095  11.946  -4.125  0.00  0.00     0.005 C 
ATOM     20  O   LIG d   1      12.175  11.719  -1.887  0.00  0.00    -0.364 OA
ATOM     21  C   LIG d   1      12.909  10.729  -2.635  0.00  0.00     0.089 A 
ATOM     22  C   LIG d   1       9.818  12.711  -3.753  0.00  0.00     0.058 C 
ATOM     23  H   LIG d   1      10.933  11.358  -5.024  0.00  0.00     0.032 H 
ATOM     24  H   LIG d   1      11.904  12.660  -4.306  0.00  0.00     0.032 H 
ATOM     25  C   LIG d   1       8.706  11.740  -3.371  0.00  0.00    -0.026 C 
ATOM     26  H   LIG d   1      10.027  13.374  -2.912  0.00  0.00     0.059 H 
ATOM     27  H   LIG d   1       8.425  11.144  -4.237  0.00  0.00     0.029 H 
ATOM     28  H   LIG d   1       7.826  12.325  -3.072  0.00  0.00     0.029 H 
ATOM     29  H   LIG d   1      13.663  11.096  -3.337  0.00  0.00     0.062 H 
ATOM     30  C   LIG d   1      13.310   9.505  -1.827  0.00  0.00    -0.021 C 
ATOM     31  H   LIG d   1      13.756   9.840  -0.885  0.00  0.00     0.029 H 
ATOM     32  H   LIG d   1      14.078   8.960  -2.382  0.00  0.00     0.029 H 
ATOM     33  H   LIG d   1       8.298  10.145  -1.984  0.00  0.00     0.027 H 
ATOM     34  H   LIG d   1       9.297  11.453  -1.317  0.00  0.00     0.027 H 
ATOM     35  H   LIG d   1      12.410   8.212  -0.486  0.00  0.00     0.031 H 
ATOM     36  H   LIG d   1      12.188   7.556  -3.416  0.00  0.00     0.031 H 
ATOM     37  C   LIG d   1      13.550   6.569  -2.039  0.00  0.00    -0.046 C 
ATOM     38  C   LIG d   1      13.214   5.417  -1.084  0.00  0.00    -0.012 C 
ATOM     39  H   LIG d   1      13.991   6.181  -2.962  0.00  0.00     0.027 H 
ATOM     40  H   LIG d   1      14.260   7.251  -1.564  0.00  0.00     0.027 H 
ATOM     41  H   LIG d   1      13.581   4.472  -1.489  0.00  0.00     0.030 H 
ATOM     42  H   LIG d   1      13.670   5.596  -0.108  0.00  0.00     0.030 H 
BRANCH   5  43
ATOM     43  C   LIG d   1      10.924   5.438  -3.273  0.00  0.00    -0.056 C 
ATOM     44  H   LIG d   1       9.922   5.006  -3.263  0.00  0.00     0.024 H 
ATOM     45  H   LIG d   1      11.043   6.058  -4.161  0.00  0.00     0.024 H 
ATOM     46  H   LIG d   1      11.663   4.637  -3.286  0.00  0.00     0.024 H 
ENDBRANCH   5  43
BRANCH  14  47
ATOM     47  C   LIG d   1      10.080   9.177  -3.751  0.00  0.00    -0.057 C 
ATOM     48  H   LIG d   1      10.745   9.453  -4.569  0.00  0.00     0.024 H 
ATOM     49  H   LIG d   1      10.239   8.131  -3.491  0.00  0.00     0.024 H 
ATOM     50  H   LIG d   1       9.045   9.321  -4.060  0.00  0.00     0.024 H 
ENDBRANCH  14  47
BRANCH  22  51
ATOM     51  O   LIG d   1       9.396  13.492  -4.873  0.00  0.00    -0.392 OA
ATOM     52  H   LIG d   1       8.562  13.199  -5.265  0.00  0.00     0.210 HD
ENDBRANCH  22  51
BRANCH   4  53
ATOM     53  O   LIG d   1      11.227   4.026  -1.196  0.00  0.00    -0.376 OA
ATOM     54  H   LIG d   1      11.930   3.362  -1.185  0.00  0.00     0.211 HD
ENDBRANCH   4  53
ENDBRANCH   1   4
TORSDOF 5
ENDMDL
MODEL 7
REMARK VINA RESULT:      -5.3      3.071      4.582
REMARK  5 active torsions:
REMARK  status: ('A' for Active; 'I' for Inactive)
REMARK    1  A    between atoms: C_1  and  C_2 
REMARK    2  A    between atoms: C_5  and  O_29 
REMARK    3  A    between atoms: C_19  and  C_28 
REMARK    4  A    between atoms: C_24  and  C_25 
REMARK    5  A    between atoms: C_24  and  O_27 
ROOT
ATOM      1  C   LIG d   1       6.036   0.664  -3.390  0.00  0.00    -0.070 C 
ATOM      2  C   LIG d   1       7.197   0.836  -3.437  0.00  0.00    -0.116 C 
ATOM      3  H   LIG d   1       8.235   0.989  -3.479  0.00  0.00     0.123 H 
ENDROOT
BRANCH   1   4
ATOM      4  C   LIG d   1       4.585   0.452  -3.332  0.00  0.00     0.132 C 
ATOM      5  C   LIG d   1       4.025  -0.151  -4.623  0.00  0.00     0.011 C 
ATOM      6  C   LIG d   1       4.727   0.290  -5.875  0.00  0.00    -0.043 C 
ATOM      7  C   LIG d   1       3.918  -1.655  -4.412  0.00  0.00    -0.029 C 
ATOM      8  C   LIG d   1       5.901  -0.543  -6.339  0.00  0.00    -0.049 C 
ATOM      9  H   LIG d   1       5.066   1.333  -5.741  0.00  0.00     0.027 H 
ATOM     10  H   LIG d   1       3.984   0.359  -6.685  0.00  0.00     0.027 H 
ATOM     11  C   LIG d   1       5.704  -2.045  -6.188  0.00  0.00    -0.030 C 
ATOM     12  H   LIG d   1       6.812  -0.246  -5.795  0.00  0.00     0.027 H 
ATOM     13  H   LIG d   1       6.110  -0.310  -7.397  0.00  0.00     0.027 H 
ATOM     14  C   LIG d   1       5.011  -2.671  -7.375  0.00  0.00     0.003 C 
ATOM     15  C   LIG d   1       5.155  -2.414  -4.843  0.00  0.00    -0.032 C 
ATOM     16  H   LIG d   1       6.741  -2.480  -6.209  0.00  0.00     0.031 H 
ATOM     17  C   LIG d   1       4.849  -4.177  -7.189  0.00  0.00     0.104 A 
ATOM     18  C   LIG d   1       5.788  -2.431  -8.670  0.00  0.00    -0.042 C 
ATOM     19  C   LIG d   1       4.136  -4.885  -8.349  0.00  0.00     0.005 C 
ATOM     20  O   LIG d   1       5.957  -4.907  -6.643  0.00  0.00    -0.364 OA
ATOM     21  C   LIG d   1       4.803  -4.753  -5.794  0.00  0.00     0.089 A 
ATOM     22  C   LIG d   1       4.941  -4.613  -9.627  0.00  0.00     0.058 C 
ATOM     23  H   LIG d   1       3.118  -4.523  -8.462  0.00  0.00     0.032 H 
ATOM     24  H   LIG d   1       4.113  -5.962  -8.158  0.00  0.00     0.032 H 
ATOM     25  C   LIG d   1       5.099  -3.113  -9.850  0.00  0.00    -0.026 C 
ATOM     26  H   LIG d   1       5.925  -5.073  -9.538  0.00  0.00     0.059 H 
ATOM     27  H   LIG d   1       4.125  -2.665 -10.040  0.00  0.00     0.029 H 
ATOM     28  H   LIG d   1       5.713  -2.961 -10.747  0.00  0.00     0.029 H 
ATOM     29  H   LIG d   1       4.182  -5.639  -5.635  0.00  0.00     0.062 H 
ATOM     30  C   LIG d   1       5.043  -3.895  -4.562  0.00  0.00    -0.021 C 
ATOM     31  H   LIG d   1       5.968  -4.227  -4.080  0.00  0.00     0.029 H 
ATOM     32  H   LIG d   1       4.223  -4.061  -3.858  0.00  0.00     0.029 H 
ATOM     33  H   LIG d   1       5.852  -1.357  -8.859  0.00  0.00     0.027 H 
ATOM     34  H   LIG d   1       6.799  -2.829  -8.555  0.00  0.00     0.027 H 
ATOM     35  H   LIG d   1       5.935  -2.078  -4.130  0.00  0.00     0.031 H 
ATOM     36  H   LIG d   1       3.032  -2.048  -4.928  0.00  0.00     0.031 H 
ATOM     37  C   LIG d   1       3.744  -1.840  -2.885  0.00  0.00    -0.046 C 
ATOM     38  C   LIG d   1       4.251  -0.556  -2.216  0.00  0.00    -0.012 C 
ATOM     39  H   LIG d   1       2.690  -2.004  -2.642  0.00  0.00     0.027 H 
ATOM     40  H   LIG d   1       4.327  -2.696  -2.536  0.00  0.00     0.027 H 
ATOM     41  H   LIG d   1       3.482  -0.142  -1.562  0.00  0.00     0.030 H 
ATOM     42  H   LIG d   1       5.149  -0.768  -1.632  0.00  0.00     0.030 H 
BRANCH   5  43
ATOM     43  C   LIG d   1       2.574   0.372  -4.739  0.00  0.00    -0.056 C 
ATOM     44  H   LIG d   1       2.095  -0.075  -5.611  0.00  0.00     0.024 H 
ATOM     45  H   LIG d   1       2.019   0.103  -3.841  0.00  0.00     0.024 H 
ATOM     46  H   LIG d   1       2.586   1.456  -4.847  0.00  0.00     0.024 H 
ENDBRANCH   5  43
BRANCH  14  47
ATOM     47  C   LIG d   1       3.618  -2.071  -7.543  0.00  0.00    -0.057 C 
ATOM     48  H   LIG d   1       3.700  -0.992  -7.672  0.00  0.00     0.024 H 
ATOM     49  H   LIG d   1       3.139  -2.506  -8.420  0.00  0.00     0.024 H 
ATOM     50  H   LIG d   1       3.020  -2.287  -6.658  0.00  0.00     0.024 H 
ENDBRANCH  14  47
BRANCH  22  51
ATOM     51  O   LIG d   1       4.255  -5.185 -10.743  0.00  0.00    -0.392 OA
ATOM     52  H   LIG d   1       4.763  -5.171 -11.566  0.00  0.00     0.210 HD
ENDBRANCH  22  51
BRANCH   4  53
ATOM     53  O   LIG d   1       3.928   1.697  -3.062  0.00  0.00    -0.376 OA
ATOM     54  H   LIG d   1       2.974   1.681  -3.220  0.00  0.00     0.211 HD
ENDBRANCH   4  53
ENDBRANCH   1   4
TORSDOF 5
ENDMDL
MODEL 8
REMARK VINA RESULT:      -5.2      3.296      6.169
REMARK  5 active torsions:
REMARK  status: ('A' for Active; 'I' for Inactive)
REMARK    1  A    between atoms: C_1  and  C_2 
REMARK    2  A    between atoms: C_5  and  O_29 
REMARK    3  A    between atoms: C_19  and  C_28 
REMARK    4  A    between atoms: C_24  and  C_25 
REMARK    5  A    between atoms: C_24  and  O_27 
ROOT
ATOM      1  C   LIG d   1       3.066  -0.428 -10.633  0.00  0.00    -0.070 C 
ATOM      2  C   LIG d   1       1.945  -0.753 -10.758  0.00  0.00    -0.116 C 
ATOM      3  H   LIG d   1       0.942  -1.044 -10.869  0.00  0.00     0.123 H 
ENDROOT
BRANCH   1   4
ATOM      4  C   LIG d   1       4.469  -0.022 -10.479  0.00  0.00     0.132 C 
ATOM      5  C   LIG d   1       4.837   0.286  -9.026  0.00  0.00     0.011 C 
ATOM      6  C   LIG d   1       3.728   0.889  -8.213  0.00  0.00    -0.043 C 
ATOM      7  C   LIG d   1       5.484  -0.966  -8.448  0.00  0.00    -0.029 C 
ATOM      8  C   LIG d   1       2.815  -0.065  -7.475  0.00  0.00    -0.049 C 
ATOM      9  H   LIG d   1       3.112   1.525  -8.874  0.00  0.00     0.027 H 
ATOM     10  H   LIG d   1       4.168   1.603  -7.499  0.00  0.00     0.027 H 
ATOM     11  C   LIG d   1       3.528  -1.251  -6.840  0.00  0.00    -0.030 C 
ATOM     12  H   LIG d   1       2.033  -0.440  -8.155  0.00  0.00     0.027 H 
ATOM     13  H   LIG d   1       2.272   0.493  -6.692  0.00  0.00     0.027 H 
ATOM     14  C   LIG d   1       4.052  -0.951  -5.456  0.00  0.00     0.003 C 
ATOM     15  C   LIG d   1       4.499  -1.899  -7.779  0.00  0.00    -0.032 C 
ATOM     16  H   LIG d   1       2.724  -2.020  -6.674  0.00  0.00     0.031 H 
ATOM     17  C   LIG d   1       4.742  -2.171  -4.851  0.00  0.00     0.104 A 
ATOM     18  C   LIG d   1       2.929  -0.522  -4.510  0.00  0.00    -0.042 C 
ATOM     19  C   LIG d   1       5.319  -1.940  -3.448  0.00  0.00     0.005 C 
ATOM     20  O   LIG d   1       4.120  -3.450  -5.031  0.00  0.00    -0.364 OA
ATOM     21  C   LIG d   1       5.339  -3.215  -5.764  0.00  0.00     0.089 A 
ATOM     22  C   LIG d   1       4.166  -1.504  -2.535  0.00  0.00     0.058 C 
ATOM     23  H   LIG d   1       6.095  -1.180  -3.463  0.00  0.00     0.032 H 
ATOM     24  H   LIG d   1       5.744  -2.876  -3.072  0.00  0.00     0.032 H 
ATOM     25  C   LIG d   1       3.471  -0.272  -3.104  0.00  0.00    -0.026 C 
ATOM     26  H   LIG d   1       3.447  -2.320  -2.448  0.00  0.00     0.059 H 
ATOM     27  H   LIG d   1       4.157   0.572  -3.099  0.00  0.00     0.029 H 
ATOM     28  H   LIG d   1       2.629  -0.017  -2.447  0.00  0.00     0.029 H 
ATOM     29  H   LIG d   1       6.235  -3.736  -5.416  0.00  0.00     0.062 H 
ATOM     30  C   LIG d   1       5.161  -3.160  -7.273  0.00  0.00    -0.021 C 
ATOM     31  H   LIG d   1       4.557  -4.018  -7.585  0.00  0.00     0.029 H 
ATOM     32  H   LIG d   1       6.144  -3.258  -7.742  0.00  0.00     0.029 H 
ATOM     33  H   LIG d   1       2.469   0.393  -4.889  0.00  0.00     0.027 H 
ATOM     34  H   LIG d   1       2.173  -1.310  -4.478  0.00  0.00     0.027 H 
ATOM     35  H   LIG d   1       3.867  -2.263  -8.615  0.00  0.00     0.031 H 
ATOM     36  H   LIG d   1       6.282  -0.690  -7.747  0.00  0.00     0.031 H 
ATOM     37  C   LIG d   1       6.102  -1.701  -9.662  0.00  0.00    -0.046 C 
ATOM     38  C   LIG d   1       5.395  -1.173 -10.916  0.00  0.00    -0.012 C 
ATOM     39  H   LIG d   1       7.176  -1.500  -9.719  0.00  0.00     0.027 H 
ATOM     40  H   LIG d   1       5.946  -2.780  -9.573  0.00  0.00     0.027 H 
ATOM     41  H   LIG d   1       6.127  -0.804 -11.636  0.00  0.00     0.030 H 
ATOM     42  H   LIG d   1       4.802  -1.968 -11.374  0.00  0.00     0.030 H 
BRANCH   5  43
ATOM     43  C   LIG d   1       5.951   1.356  -9.091  0.00  0.00    -0.056 C 
ATOM     44  H   LIG d   1       6.926   0.871  -9.017  0.00  0.00     0.024 H 
ATOM     45  H   LIG d   1       5.885   1.894 -10.036  0.00  0.00     0.024 H 
ATOM     46  H   LIG d   1       5.832   2.057  -8.265  0.00  0.00     0.024 H 
ENDBRANCH   5  43
BRANCH  14  47
ATOM     47  C   LIG d   1       5.075   0.180  -5.517  0.00  0.00    -0.057 C 
ATOM     48  H   LIG d   1       5.767   0.089  -4.680  0.00  0.00     0.024 H 
ATOM     49  H   LIG d   1       5.628   0.118  -6.454  0.00  0.00     0.024 H 
ATOM     50  H   LIG d   1       4.561   1.139  -5.461  0.00  0.00     0.024 H 
ENDBRANCH  14  47
BRANCH  22  51
ATOM     51  O   LIG d   1       4.684  -1.195  -1.240  0.00  0.00    -0.392 OA
ATOM     52  H   LIG d   1       5.639  -1.327  -1.156  0.00  0.00     0.210 HD
ENDBRANCH  22  51
BRANCH   4  53
ATOM     53  O   LIG d   1       4.726   1.131 -11.292  0.00  0.00    -0.376 OA
ATOM     54  H   LIG d   1       5.581   1.112 -11.742  0.00  0.00     0.211 HD
ENDBRANCH   4  53
ENDBRANCH   1   4
TORSDOF 5
ENDMDL
MODEL 9
REMARK VINA RESULT:      -5.2      1.677      6.393
REMARK  5 active torsions:
REMARK  status: ('A' for Active; 'I' for Inactive)
REMARK    1  A    between atoms: C_1  and  C_2 
REMARK    2  A    between atoms: C_5  and  O_29 
REMARK    3  A    between atoms: C_19  and  C_28 
REMARK    4  A    between atoms: C_24  and  C_25 
REMARK    5  A    between atoms: C_24  and  O_27 
ROOT
ATOM      1  C   LIG d   1      11.052  -3.677  -4.704  0.00  0.00    -0.070 C 
ATOM      2  C   LIG d   1      11.600  -3.210  -3.777  0.00  0.00    -0.116 C 
ATOM      3  H   LIG d   1      12.091  -2.791  -2.948  0.00  0.00     0.123 H 
ENDROOT
BRANCH   1   4
ATOM      4  C   LIG d   1      10.365  -4.262  -5.863  0.00  0.00     0.132 C 
ATOM      5  C   LIG d   1       8.841  -4.219  -5.727  0.00  0.00     0.011 C 
ATOM      6  C   LIG d   1       8.333  -4.376  -4.323  0.00  0.00    -0.043 C 
ATOM      7  C   LIG d   1       8.353  -2.988  -6.480  0.00  0.00    -0.029 C 
ATOM      8  C   LIG d   1       8.150  -3.114  -3.510  0.00  0.00    -0.049 C 
ATOM      9  H   LIG d   1       9.013  -5.053  -3.776  0.00  0.00     0.027 H 
ATOM     10  H   LIG d   1       7.382  -4.932  -4.357  0.00  0.00     0.027 H 
ATOM     11  C   LIG d   1       7.575  -1.941  -4.292  0.00  0.00    -0.030 C 
ATOM     12  H   LIG d   1       9.110  -2.810  -3.064  0.00  0.00     0.027 H 
ATOM     13  H   LIG d   1       7.492  -3.333  -2.651  0.00  0.00     0.027 H 
ATOM     14  C   LIG d   1       6.064  -1.937  -4.322  0.00  0.00     0.003 C 
ATOM     15  C   LIG d   1       8.254  -1.752  -5.614  0.00  0.00    -0.032 C 
ATOM     16  H   LIG d   1       7.845  -1.029  -3.691  0.00  0.00     0.031 H 
ATOM     17  C   LIG d   1       5.532  -0.736  -5.100  0.00  0.00     0.104 A 
ATOM     18  C   LIG d   1       5.474  -1.891  -2.912  0.00  0.00    -0.042 C 
ATOM     19  C   LIG d   1       4.001  -0.670  -5.191  0.00  0.00     0.005 C 
ATOM     20  O   LIG d   1       6.166   0.533  -4.890  0.00  0.00    -0.364 OA
ATOM     21  C   LIG d   1       6.392  -0.100  -6.166  0.00  0.00     0.089 A 
ATOM     22  C   LIG d   1       3.450  -0.634  -3.760  0.00  0.00     0.058 C 
ATOM     23  H   LIG d   1       3.603  -1.528  -5.726  0.00  0.00     0.032 H 
ATOM     24  H   LIG d   1       3.708   0.245  -5.715  0.00  0.00     0.032 H 
ATOM     25  C   LIG d   1       3.949  -1.836  -2.965  0.00  0.00    -0.026 C 
ATOM     26  H   LIG d   1       3.774   0.286  -3.271  0.00  0.00     0.059 H 
ATOM     27  H   LIG d   1       3.544  -2.752  -3.390  0.00  0.00     0.029 H 
ATOM     28  H   LIG d   1       3.568  -1.751  -1.938  0.00  0.00     0.029 H 
ATOM     29  H   LIG d   1       5.884   0.333  -7.032  0.00  0.00     0.062 H 
ATOM     30  C   LIG d   1       7.830  -0.534  -6.403  0.00  0.00    -0.021 C 
ATOM     31  H   LIG d   1       8.493   0.296  -6.142  0.00  0.00     0.029 H 
ATOM     32  H   LIG d   1       7.959  -0.740  -7.469  0.00  0.00     0.029 H 
ATOM     33  H   LIG d   1       5.786  -2.780  -2.361  0.00  0.00     0.027 H 
ATOM     34  H   LIG d   1       5.856  -1.005  -2.398  0.00  0.00     0.027 H 
ATOM     35  H   LIG d   1       9.308  -1.528  -5.348  0.00  0.00     0.031 H 
ATOM     36  H   LIG d   1       7.388  -3.196  -6.959  0.00  0.00     0.031 H 
ATOM     37  C   LIG d   1       9.420  -2.731  -7.572  0.00  0.00    -0.046 C 
ATOM     38  C   LIG d   1      10.700  -3.452  -7.130  0.00  0.00    -0.012 C 
ATOM     39  H   LIG d   1       9.078  -3.122  -8.535  0.00  0.00     0.027 H 
ATOM     40  H   LIG d   1       9.612  -1.659  -7.671  0.00  0.00     0.027 H 
ATOM     41  H   LIG d   1      11.046  -4.124  -7.916  0.00  0.00     0.030 H 
ATOM     42  H   LIG d   1      11.481  -2.723  -6.904  0.00  0.00     0.030 H 
BRANCH   5  43
ATOM     43  C   LIG d   1       8.313  -5.442  -6.513  0.00  0.00    -0.056 C 
ATOM     44  H   LIG d   1       7.223  -5.459  -6.470  0.00  0.00     0.024 H 
ATOM     45  H   LIG d   1       8.634  -5.372  -7.552  0.00  0.00     0.024 H 
ATOM     46  H   LIG d   1       8.708  -6.357  -6.071  0.00  0.00     0.024 H 
ENDBRANCH   5  43
BRANCH  14  47
ATOM     47  C   LIG d   1       5.551  -3.200  -5.007  0.00  0.00    -0.057 C 
ATOM     48  H   LIG d   1       4.765  -3.648  -4.400  0.00  0.00     0.024 H 
ATOM     49  H   LIG d   1       5.151  -2.944  -5.988  0.00  0.00     0.024 H 
ATOM     50  H   LIG d   1       6.370  -3.909  -5.122  0.00  0.00     0.024 H 
ENDBRANCH  14  47
BRANCH  22  51
ATOM     51  O   LIG d   1       2.022  -0.661  -3.807  0.00  0.00    -0.392 OA
ATOM     52  H   LIG d   1       1.594  -0.194  -3.075  0.00  0.00     0.210 HD
ENDBRANCH  22  51
BRANCH   4  53
ATOM     53  O   LIG d   1      10.791  -5.619  -6.038  0.00  0.00    -0.376 OA
ATOM     54  H   LIG d   1      10.073  -6.234  -6.242  0.00  0.00     0.211 HD
ENDBRANCH   4  53
ENDBRANCH   1   4
TORSDOF 5
ENDMDL
MODEL 10
REMARK VINA RESULT:      -5.1      2.471      6.150
REMARK  5 active torsions:
REMARK  status: ('A' for Active; 'I' for Inactive)
REMARK    1  A    between atoms: C_1  and  C_2 
REMARK    2  A    between atoms: C_5  and  O_29 
REMARK    3  A    between atoms: C_19  and  C_28 
REMARK    4  A    between atoms: C_24  and  C_25 
REMARK    5  A    between atoms: C_24  and  O_27 
ROOT
ATOM      1  C   LIG d   1      10.066   3.689  -5.676  0.00  0.00    -0.070 C 
ATOM      2  C   LIG d   1       9.534   4.723  -5.507  0.00  0.00    -0.116 C 
ATOM      3  H   LIG d   1       9.058   5.646  -5.356  0.00  0.00     0.123 H 
ENDROOT
BRANCH   1   4
ATOM      4  C   LIG d   1      10.732   2.398  -5.886  0.00  0.00     0.132 C 
ATOM      5  C   LIG d   1      10.046   1.253  -5.136  0.00  0.00     0.011 C 
ATOM      6  C   LIG d   1       9.436   1.643  -3.821  0.00  0.00    -0.043 C 
ATOM      7  C   LIG d   1       9.118   0.556  -6.123  0.00  0.00    -0.029 C 
ATOM      8  C   LIG d   1       7.997   2.106  -3.837  0.00  0.00    -0.049 C 
ATOM      9  H   LIG d   1      10.057   2.435  -3.365  0.00  0.00     0.027 H 
ATOM     10  H   LIG d   1       9.541   0.796  -3.124  0.00  0.00     0.027 H 
ATOM     11  C   LIG d   1       7.093   1.317  -4.774  0.00  0.00    -0.030 C 
ATOM     12  H   LIG d   1       7.948   3.173  -4.108  0.00  0.00     0.027 H 
ATOM     13  H   LIG d   1       7.591   2.052  -2.812  0.00  0.00     0.027 H 
ATOM     14  C   LIG d   1       6.510   0.082  -4.129  0.00  0.00     0.003 C 
ATOM     15  C   LIG d   1       7.712   1.116  -6.124  0.00  0.00    -0.032 C 
ATOM     16  H   LIG d   1       6.206   1.983  -4.956  0.00  0.00     0.031 H 
ATOM     17  C   LIG d   1       5.599  -0.668  -5.096  0.00  0.00     0.104 A 
ATOM     18  C   LIG d   1       5.696   0.431  -2.882  0.00  0.00    -0.042 C 
ATOM     19  C   LIG d   1       4.978  -1.948  -4.519  0.00  0.00     0.005 C 
ATOM     20  O   LIG d   1       4.707   0.104  -5.912  0.00  0.00    -0.364 OA
ATOM     21  C   LIG d   1       5.816  -0.525  -6.584  0.00  0.00     0.089 A 
ATOM     22  C   LIG d   1       4.180  -1.556  -3.269  0.00  0.00     0.058 C 
ATOM     23  H   LIG d   1       5.746  -2.674  -4.263  0.00  0.00     0.032 H 
ATOM     24  H   LIG d   1       4.302  -2.389  -5.257  0.00  0.00     0.032 H 
ATOM     25  C   LIG d   1       5.072  -0.823  -2.273  0.00  0.00    -0.026 C 
ATOM     26  H   LIG d   1       3.351  -0.910  -3.559  0.00  0.00     0.059 H 
ATOM     27  H   LIG d   1       5.843  -1.497  -1.905  0.00  0.00     0.029 H 
ATOM     28  H   LIG d   1       4.457  -0.524  -1.414  0.00  0.00     0.029 H 
ATOM     29  H   LIG d   1       5.589  -1.390  -7.213  0.00  0.00     0.062 H 
ATOM     30  C   LIG d   1       6.834   0.449  -7.158  0.00  0.00    -0.021 C 
ATOM     31  H   LIG d   1       6.299   1.226  -7.713  0.00  0.00     0.029 H 
ATOM     32  H   LIG d   1       7.467  -0.090  -7.867  0.00  0.00     0.029 H 
ATOM     33  H   LIG d   1       6.348   0.906  -2.146  0.00  0.00     0.027 H 
ATOM     34  H   LIG d   1       4.908   1.136  -3.160  0.00  0.00     0.027 H 
ATOM     35  H   LIG d   1       7.835   2.144  -6.522  0.00  0.00     0.031 H 
ATOM     36  H   LIG d   1       9.097  -0.523  -5.926  0.00  0.00     0.031 H 
ATOM     37  C   LIG d   1       9.743   0.810  -7.516  0.00  0.00    -0.046 C 
ATOM     38  C   LIG d   1      10.676   2.020  -7.378  0.00  0.00    -0.012 C 
ATOM     39  H   LIG d   1      10.307  -0.069  -7.843  0.00  0.00     0.027 H 
ATOM     40  H   LIG d   1       8.961   1.025  -8.250  0.00  0.00     0.027 H 
ATOM     41  H   LIG d   1      11.676   1.767  -7.733  0.00  0.00     0.030 H 
ATOM     42  H   LIG d   1      10.286   2.860  -7.956  0.00  0.00     0.030 H 
BRANCH   5  43
ATOM     43  C   LIG d   1      11.164   0.236  -4.806  0.00  0.00    -0.056 C 
ATOM     44  H   LIG d   1      10.774  -0.527  -4.131  0.00  0.00     0.024 H 
ATOM     45  H   LIG d   1      11.510  -0.235  -5.725  0.00  0.00     0.024 H 
ATOM     46  H   LIG d   1      11.996   0.752  -4.327  0.00  0.00     0.024 H 
ENDBRANCH   5  43
BRANCH  14  47
ATOM     47  C   LIG d   1       7.628  -0.869  -3.711  0.00  0.00    -0.057 C 
ATOM     48  H   LIG d   1       7.800  -1.597  -4.503  0.00  0.00     0.024 H 
ATOM     49  H   LIG d   1       8.540  -0.300  -3.535  0.00  0.00     0.024 H 
ATOM     50  H   LIG d   1       7.341  -1.388  -2.797  0.00  0.00     0.024 H 
ENDBRANCH  14  47
BRANCH  22  51
ATOM     51  O   LIG d   1       3.661  -2.737  -2.655  0.00  0.00    -0.392 OA
ATOM     52  H   LIG d   1       4.038  -3.559  -3.000  0.00  0.00     0.210 HD
ENDBRANCH  22  51
BRANCH   4  53
ATOM     53  O   LIG d   1      12.100   2.491  -5.469  0.00  0.00    -0.376 OA
ATOM     54  H   LIG d   1      12.600   1.670  -5.575  0.00  0.00     0.211 HD
ENDBRANCH   4  53
ENDBRANCH   1   4
TORSDOF 5
ENDMDL
