MODEL 1
REMARK VINA RESULT:      -3.9      0.000      0.000
REMARK  6 active torsions:
REMARK  status: ('A' for Active; 'I' for Inactive)
REMARK    1  A    between atoms: C_1  and  C_2 
REMARK    2  A    between atoms: C_2  and  C_4 
REMARK    3  A    between atoms: C_2  and  O_7 
REMARK    4  A    between atoms: C_4  and  C_6 
REMARK    5  A    between atoms: O_7  and  C_8 
REMARK    6  A    between atoms: C_8  and  C_10 
ROOT
ATOM      1  C   LIG d   1       4.145  -1.011  -3.407  0.00  0.00     0.157 C 
ATOM      2  H   LIG d   1       4.596  -1.402  -4.209  0.00  0.00     0.081 H 
ENDROOT
BRANCH   1   3
ATOM      3  C   LIG d   1       3.830  -2.125  -2.406  0.00  0.00    -0.021 C 
ATOM      4  H   LIG d   1       3.620  -3.048  -2.944  0.00  0.00     0.027 H 
ATOM      5  H   LIG d   1       4.687  -2.274  -1.748  0.00  0.00     0.027 H 
ATOM      6  H   LIG d   1       2.961  -1.845  -1.812  0.00  0.00     0.027 H 
ENDBRANCH   1   3
BRANCH   1   7
ATOM      7  C   LIG d   1       5.053   0.003  -2.762  0.00  0.00     0.170 C 
ATOM      8  O   LIG d   1       6.203   0.098  -3.119  0.00  0.00    -0.294 OA
BRANCH   7   9
ATOM      9  C   LIG d   1       4.525   0.904  -1.675  0.00  0.00    -0.002 C 
ATOM     10  H   LIG d   1       5.179   1.642  -1.507  0.00  0.00     0.031 H 
ATOM     11  H   LIG d   1       3.570   1.328  -1.986  0.00  0.00     0.031 H 
ATOM     12  H   LIG d   1       4.386   0.327  -0.761  0.00  0.00     0.031 H 
ENDBRANCH   7   9
ENDBRANCH   1   7
BRANCH   1  13
ATOM     13  O   LIG d   1       2.909  -0.364  -3.814  0.00  0.00    -0.454 OA
BRANCH  13  14
ATOM     14  C   LIG d   1       2.949   0.376  -4.933  0.00  0.00     0.305 C 
ATOM     15  O   LIG d   1       2.555   1.518  -4.917  0.00  0.00    -0.251 OA
BRANCH  14  16
ATOM     16  C   LIG d   1       3.488  -0.218  -6.210  0.00  0.00     0.033 C 
ATOM     17  H   LIG d   1       4.473   0.201  -6.417  0.00  0.00     0.034 H 
ATOM     18  H   LIG d   1       3.570  -1.300  -6.102  0.00  0.00     0.034 H 
ATOM     19  H   LIG d   1       2.812   0.015  -7.033  0.00  0.00     0.034 H 
ENDBRANCH  14  16
ENDBRANCH  13  14
ENDBRANCH   1  13
TORSDOF 6
ENDMDL
MODEL 2
REMARK VINA RESULT:      -3.9      1.657      1.999
REMARK  6 active torsions:
REMARK  status: ('A' for Active; 'I' for Inactive)
REMARK    1  A    between atoms: C_1  and  C_2 
REMARK    2  A    between atoms: C_2  and  C_4 
REMARK    3  A    between atoms: C_2  and  O_7 
REMARK    4  A    between atoms: C_4  and  C_6 
REMARK    5  A    between atoms: O_7  and  C_8 
REMARK    6  A    between atoms: C_8  and  C_10 
ROOT
ATOM      1  C   LIG d   1       3.556   0.031  -3.908  0.00  0.00     0.157 C 
ATOM      2  H   LIG d   1       4.387  -0.483  -4.122  0.00  0.00     0.081 H 
ENDROOT
BRANCH   1   3
ATOM      3  C   LIG d   1       2.560  -0.886  -3.194  0.00  0.00    -0.021 C 
ATOM      4  H   LIG d   1       2.490  -1.832  -3.730  0.00  0.00     0.027 H 
ATOM      5  H   LIG d   1       2.902  -1.070  -2.176  0.00  0.00     0.027 H 
ATOM      6  H   LIG d   1       1.582  -0.409  -3.169  0.00  0.00     0.027 H 
ENDBRANCH   1   3
BRANCH   1   7
ATOM      7  C   LIG d   1       3.899   1.194  -3.014  0.00  0.00     0.170 C 
ATOM      8  O   LIG d   1       3.659   2.322  -3.371  0.00  0.00    -0.294 OA
BRANCH   7   9
ATOM      9  C   LIG d   1       4.535   0.947  -1.670  0.00  0.00    -0.002 C 
ATOM     10  H   LIG d   1       4.089   1.519  -0.981  0.00  0.00     0.031 H 
ATOM     11  H   LIG d   1       4.422  -0.103  -1.401  0.00  0.00     0.031 H 
ATOM     12  H   LIG d   1       5.595   1.199  -1.718  0.00  0.00     0.031 H 
ENDBRANCH   7   9
ENDBRANCH   1   7
BRANCH   1  13
ATOM     13  O   LIG d   1       2.962   0.525  -5.138  0.00  0.00    -0.454 OA
BRANCH  13  14
ATOM     14  C   LIG d   1       3.550   0.159  -6.288  0.00  0.00     0.305 C 
ATOM     15  O   LIG d   1       4.749   0.016  -6.336  0.00  0.00    -0.251 OA
BRANCH  14  16
ATOM     16  C   LIG d   1       2.714  -0.075  -7.520  0.00  0.00     0.033 C 
ATOM     17  H   LIG d   1       1.952  -0.825  -7.305  0.00  0.00     0.034 H 
ATOM     18  H   LIG d   1       2.232   0.857  -7.816  0.00  0.00     0.034 H 
ATOM     19  H   LIG d   1       3.352  -0.427  -8.331  0.00  0.00     0.034 H 
ENDBRANCH  14  16
ENDBRANCH  13  14
ENDBRANCH   1  13
TORSDOF 6
ENDMDL
MODEL 3
REMARK VINA RESULT:      -3.9      1.683      2.998
REMARK  6 active torsions:
REMARK  status: ('A' for Active; 'I' for Inactive)
REMARK    1  A    between atoms: C_1  and  C_2 
REMARK    2  A    between atoms: C_2  and  C_4 
REMARK    3  A    between atoms: C_2  and  O_7 
REMARK    4  A    between atoms: C_4  and  C_6 
REMARK    5  A    between atoms: O_7  and  C_8 
REMARK    6  A    between atoms: C_8  and  C_10 
ROOT
ATOM      1  C   LIG d   1       3.268  -0.096  -3.732  0.00  0.00     0.157 C 
ATOM      2  H   LIG d   1       2.790  -0.712  -3.105  0.00  0.00     0.081 H 
ENDROOT
BRANCH   1   3
ATOM      3  C   LIG d   1       2.297   0.385  -4.813  0.00  0.00    -0.021 C 
ATOM      4  H   LIG d   1       2.702   0.147  -5.796  0.00  0.00     0.027 H 
ATOM      5  H   LIG d   1       1.336  -0.114  -4.686  0.00  0.00     0.027 H 
ATOM      6  H   LIG d   1       2.161   1.462  -4.727  0.00  0.00     0.027 H 
ENDBRANCH   1   3
BRANCH   1   7
ATOM      7  C   LIG d   1       3.795   1.091  -2.967  0.00  0.00     0.170 C 
ATOM      8  O   LIG d   1       3.619   2.208  -3.389  0.00  0.00    -0.294 OA
BRANCH   7   9
ATOM      9  C   LIG d   1       4.535   0.881  -1.671  0.00  0.00    -0.002 C 
ATOM     10  H   LIG d   1       3.944   0.399  -1.025  0.00  0.00     0.031 H 
ATOM     11  H   LIG d   1       5.432   0.290  -1.855  0.00  0.00     0.031 H 
ATOM     12  H   LIG d   1       4.816   1.848  -1.253  0.00  0.00     0.031 H 
ENDBRANCH   7   9
ENDBRANCH   1   7
BRANCH   1  13
ATOM     13  O   LIG d   1       4.374  -0.801  -4.355  0.00  0.00    -0.454 OA
BRANCH  13  14
ATOM     14  C   LIG d   1       4.675  -2.014  -3.867  0.00  0.00     0.305 C 
ATOM     15  O   LIG d   1       3.860  -2.623  -3.214  0.00  0.00    -0.251 OA
BRANCH  14  16
ATOM     16  C   LIG d   1       6.030  -2.619  -4.135  0.00  0.00     0.033 C 
ATOM     17  H   LIG d   1       5.966  -3.286  -4.994  0.00  0.00     0.034 H 
ATOM     18  H   LIG d   1       6.747  -1.825  -4.344  0.00  0.00     0.034 H 
ATOM     19  H   LIG d   1       6.356  -3.182  -3.260  0.00  0.00     0.034 H 
ENDBRANCH  14  16
ENDBRANCH  13  14
ENDBRANCH   1  13
TORSDOF 6
ENDMDL
MODEL 4
REMARK VINA RESULT:      -3.7      1.332      2.151
REMARK  6 active torsions:
REMARK  status: ('A' for Active; 'I' for Inactive)
REMARK    1  A    between atoms: C_1  and  C_2 
REMARK    2  A    between atoms: C_2  and  C_4 
REMARK    3  A    between atoms: C_2  and  O_7 
REMARK    4  A    between atoms: C_4  and  C_6 
REMARK    5  A    between atoms: O_7  and  C_8 
REMARK    6  A    between atoms: C_8  and  C_10 
ROOT
ATOM      1  C   LIG d   1       3.787  -0.024  -2.780  0.00  0.00     0.157 C 
ATOM      2  H   LIG d   1       2.813  -0.032  -2.554  0.00  0.00     0.081 H 
ENDROOT
BRANCH   1   3
ATOM      3  C   LIG d   1       4.540   0.834  -1.760  0.00  0.00    -0.021 C 
ATOM      4  H   LIG d   1       5.126   0.189  -1.106  0.00  0.00     0.027 H 
ATOM      5  H   LIG d   1       5.206   1.520  -2.285  0.00  0.00     0.027 H 
ATOM      6  H   LIG d   1       3.826   1.402  -1.167  0.00  0.00     0.027 H 
ENDBRANCH   1   3
BRANCH   1   7
ATOM      7  C   LIG d   1       4.323  -1.432  -2.745  0.00  0.00     0.170 C 
ATOM      8  O   LIG d   1       3.593  -2.349  -2.454  0.00  0.00    -0.294 OA
BRANCH   7   9
ATOM      9  C   LIG d   1       5.768  -1.696  -3.082  0.00  0.00    -0.002 C 
ATOM     10  H   LIG d   1       6.180  -2.257  -2.363  0.00  0.00     0.031 H 
ATOM     11  H   LIG d   1       5.830  -2.222  -4.035  0.00  0.00     0.031 H 
ATOM     12  H   LIG d   1       6.303  -0.749  -3.154  0.00  0.00     0.031 H 
ENDBRANCH   7   9
ENDBRANCH   1   7
BRANCH   1  13
ATOM     13  O   LIG d   1       3.972   0.532  -4.109  0.00  0.00    -0.454 OA
BRANCH  13  14
ATOM     14  C   LIG d   1       3.046   0.227  -5.031  0.00  0.00     0.305 C 
ATOM     15  O   LIG d   1       1.876   0.209  -4.730  0.00  0.00    -0.251 OA
BRANCH  14  16
ATOM     16  C   LIG d   1       3.465  -0.091  -6.444  0.00  0.00     0.033 C 
ATOM     17  H   LIG d   1       4.548  -0.201  -6.485  0.00  0.00     0.034 H 
ATOM     18  H   LIG d   1       2.993  -1.021  -6.762  0.00  0.00     0.034 H 
ATOM     19  H   LIG d   1       3.155   0.718  -7.106  0.00  0.00     0.034 H 
ENDBRANCH  14  16
ENDBRANCH  13  14
ENDBRANCH   1  13
TORSDOF 6
ENDMDL
MODEL 5
REMARK VINA RESULT:      -3.6      1.391      2.107
REMARK  6 active torsions:
REMARK  status: ('A' for Active; 'I' for Inactive)
REMARK    1  A    between atoms: C_1  and  C_2 
REMARK    2  A    between atoms: C_2  and  C_4 
REMARK    3  A    between atoms: C_2  and  O_7 
REMARK    4  A    between atoms: C_4  and  C_6 
REMARK    5  A    between atoms: O_7  and  C_8 
REMARK    6  A    between atoms: C_8  and  C_10 
ROOT
ATOM      1  C   LIG d   1       4.767   0.371  -2.985  0.00  0.00     0.157 C 
ATOM      2  H   LIG d   1       4.571  -0.609  -2.967  0.00  0.00     0.081 H 
ENDROOT
BRANCH   1   3
ATOM      3  C   LIG d   1       4.526   0.966  -1.596  0.00  0.00    -0.021 C 
ATOM      4  H   LIG d   1       4.691   2.043  -1.629  0.00  0.00     0.027 H 
ATOM      5  H   LIG d   1       3.499   0.764  -1.289  0.00  0.00     0.027 H 
ATOM      6  H   LIG d   1       5.214   0.514  -0.883  0.00  0.00     0.027 H 
ENDBRANCH   1   3
BRANCH   1   7
ATOM      7  C   LIG d   1       6.205   0.589  -3.383  0.00  0.00     0.170 C 
ATOM      8  O   LIG d   1       6.662   1.706  -3.404  0.00  0.00    -0.294 OA
BRANCH   7   9
ATOM      9  C   LIG d   1       7.072  -0.589  -3.745  0.00  0.00    -0.002 C 
ATOM     10  H   LIG d   1       7.990  -0.453  -3.372  0.00  0.00     0.031 H 
ATOM     11  H   LIG d   1       6.641  -1.500  -3.330  0.00  0.00     0.031 H 
ATOM     12  H   LIG d   1       7.131  -0.676  -4.830  0.00  0.00     0.031 H 
ENDBRANCH   7   9
ENDBRANCH   1   7
BRANCH   1  13
ATOM     13  O   LIG d   1       3.895   1.021  -3.947  0.00  0.00    -0.454 OA
BRANCH  13  14
ATOM     14  C   LIG d   1       2.966   0.257  -4.542  0.00  0.00     0.305 C 
ATOM     15  O   LIG d   1       2.247  -0.450  -3.875  0.00  0.00    -0.251 OA
BRANCH  14  16
ATOM     16  C   LIG d   1       2.817   0.281  -6.042  0.00  0.00     0.033 C 
ATOM     17  H   LIG d   1       2.217  -0.571  -6.360  0.00  0.00     0.034 H 
ATOM     18  H   LIG d   1       2.325   1.205  -6.343  0.00  0.00     0.034 H 
ATOM     19  H   LIG d   1       3.802   0.226  -6.505  0.00  0.00     0.034 H 
ENDBRANCH  14  16
ENDBRANCH  13  14
ENDBRANCH   1  13
TORSDOF 6
ENDMDL
MODEL 6
REMARK VINA RESULT:      -3.6      1.990      3.265
REMARK  6 active torsions:
REMARK  status: ('A' for Active; 'I' for Inactive)
REMARK    1  A    between atoms: C_1  and  C_2 
REMARK    2  A    between atoms: C_2  and  C_4 
REMARK    3  A    between atoms: C_2  and  O_7 
REMARK    4  A    between atoms: C_4  and  C_6 
REMARK    5  A    between atoms: O_7  and  C_8 
REMARK    6  A    between atoms: C_8  and  C_10 
ROOT
ATOM      1  C   LIG d   1       4.182  -1.221  -3.376  0.00  0.00     0.157 C 
ATOM      2  H   LIG d   1       3.406  -0.615  -3.556  0.00  0.00     0.081 H 
ENDROOT
BRANCH   1   3
ATOM      3  C   LIG d   1       3.795  -2.242  -2.304  0.00  0.00    -0.021 C 
ATOM      4  H   LIG d   1       2.803  -2.006  -1.920  0.00  0.00     0.027 H 
ATOM      5  H   LIG d   1       3.787  -3.241  -2.741  0.00  0.00     0.027 H 
ATOM      6  H   LIG d   1       4.518  -2.206  -1.491  0.00  0.00     0.027 H 
ENDBRANCH   1   3
BRANCH   1   7
ATOM      7  C   LIG d   1       4.561  -1.942  -4.644  0.00  0.00     0.170 C 
ATOM      8  O   LIG d   1       4.542  -1.357  -5.700  0.00  0.00    -0.294 OA
BRANCH   7   9
ATOM      9  C   LIG d   1       4.970  -3.391  -4.591  0.00  0.00    -0.002 C 
ATOM     10  H   LIG d   1       5.892  -3.490  -4.966  0.00  0.00     0.031 H 
ATOM     11  H   LIG d   1       4.959  -3.736  -3.558  0.00  0.00     0.031 H 
ATOM     12  H   LIG d   1       4.274  -3.987  -5.181  0.00  0.00     0.031 H 
ENDBRANCH   7   9
ENDBRANCH   1   7
BRANCH   1  13
ATOM     13  O   LIG d   1       5.311  -0.435  -2.910  0.00  0.00    -0.454 OA
BRANCH  13  14
ATOM     14  C   LIG d   1       5.125   0.888  -2.790  0.00  0.00     0.305 C 
ATOM     15  O   LIG d   1       6.018   1.653  -3.069  0.00  0.00    -0.251 OA
BRANCH  14  16
ATOM     16  C   LIG d   1       3.799   1.421  -2.308  0.00  0.00     0.033 C 
ATOM     17  H   LIG d   1       3.647   1.128  -1.269  0.00  0.00     0.034 H 
ATOM     18  H   LIG d   1       3.797   2.509  -2.382  0.00  0.00     0.034 H 
ATOM     19  H   LIG d   1       2.998   1.013  -2.923  0.00  0.00     0.034 H 
ENDBRANCH  14  16
ENDBRANCH  13  14
ENDBRANCH   1  13
TORSDOF 6
ENDMDL
MODEL 7
REMARK VINA RESULT:      -3.6      1.573      2.812
REMARK  6 active torsions:
REMARK  status: ('A' for Active; 'I' for Inactive)
REMARK    1  A    between atoms: C_1  and  C_2 
REMARK    2  A    between atoms: C_2  and  C_4 
REMARK    3  A    between atoms: C_2  and  O_7 
REMARK    4  A    between atoms: C_4  and  C_6 
REMARK    5  A    between atoms: O_7  and  C_8 
REMARK    6  A    between atoms: C_8  and  C_10 
ROOT
ATOM      1  C   LIG d   1       3.858  -0.654  -4.343  0.00  0.00     0.157 C 
ATOM      2  H   LIG d   1       3.845  -0.792  -5.333  0.00  0.00     0.081 H 
ENDROOT
BRANCH   1   3
ATOM      3  C   LIG d   1       2.434  -0.390  -3.847  0.00  0.00    -0.021 C 
ATOM      4  H   LIG d   1       2.225   0.678  -3.897  0.00  0.00     0.027 H 
ATOM      5  H   LIG d   1       1.725  -0.929  -4.476  0.00  0.00     0.027 H 
ATOM      6  H   LIG d   1       2.339  -0.731  -2.817  0.00  0.00     0.027 H 
ENDBRANCH   1   3
BRANCH   1   7
ATOM      7  C   LIG d   1       4.404  -1.887  -3.670  0.00  0.00     0.170 C 
ATOM      8  O   LIG d   1       5.317  -2.495  -4.174  0.00  0.00    -0.294 OA
BRANCH   7   9
ATOM      9  C   LIG d   1       3.814  -2.355  -2.365  0.00  0.00    -0.002 C 
ATOM     10  H   LIG d   1       3.410  -3.262  -2.489  0.00  0.00     0.031 H 
ATOM     11  H   LIG d   1       4.597  -2.406  -1.609  0.00  0.00     0.031 H 
ATOM     12  H   LIG d   1       3.043  -1.656  -2.043  0.00  0.00     0.031 H 
ENDBRANCH   7   9
ENDBRANCH   1   7
BRANCH   1  13
ATOM     13  O   LIG d   1       4.700   0.485  -4.023  0.00  0.00    -0.454 OA
BRANCH  13  14
ATOM     14  C   LIG d   1       4.261   1.317  -3.066  0.00  0.00     0.305 C 
ATOM     15  O   LIG d   1       3.615   2.294  -3.363  0.00  0.00    -0.251 OA
BRANCH  14  16
ATOM     16  C   LIG d   1       4.573   1.031  -1.619  0.00  0.00     0.033 C 
ATOM     17  H   LIG d   1       4.215   1.855  -1.001  0.00  0.00     0.034 H 
ATOM     18  H   LIG d   1       4.079   0.108  -1.316  0.00  0.00     0.034 H 
ATOM     19  H   LIG d   1       5.651   0.924  -1.494  0.00  0.00     0.034 H 
ENDBRANCH  14  16
ENDBRANCH  13  14
ENDBRANCH   1  13
TORSDOF 6
ENDMDL
MODEL 8
REMARK VINA RESULT:      -3.6      2.557      3.635
REMARK  6 active torsions:
REMARK  status: ('A' for Active; 'I' for Inactive)
REMARK    1  A    between atoms: C_1  and  C_2 
REMARK    2  A    between atoms: C_2  and  C_4 
REMARK    3  A    between atoms: C_2  and  O_7 
REMARK    4  A    between atoms: C_4  and  C_6 
REMARK    5  A    between atoms: O_7  and  C_8 
REMARK    6  A    between atoms: C_8  and  C_10 
ROOT
ATOM      1  C   LIG d   1       5.325   0.311  -2.900  0.00  0.00     0.157 C 
ATOM      2  H   LIG d   1       4.957   0.584  -3.789  0.00  0.00     0.081 H 
ENDROOT
BRANCH   1   3
ATOM      3  C   LIG d   1       4.489   0.943  -1.785  0.00  0.00    -0.021 C 
ATOM      4  H   LIG d   1       5.146   1.272  -0.980  0.00  0.00     0.027 H 
ATOM      5  H   LIG d   1       3.943   1.799  -2.182  0.00  0.00     0.027 H 
ATOM      6  H   LIG d   1       3.783   0.208  -1.400  0.00  0.00     0.027 H 
ENDBRANCH   1   3
BRANCH   1   7
ATOM      7  C   LIG d   1       5.277  -1.190  -2.775  0.00  0.00     0.170 C 
ATOM      8  O   LIG d   1       6.242  -1.852  -3.073  0.00  0.00    -0.294 OA
BRANCH   7   9
ATOM      9  C   LIG d   1       4.026  -1.864  -2.272  0.00  0.00    -0.002 C 
ATOM     10  H   LIG d   1       3.568  -1.265  -1.615  0.00  0.00     0.031 H 
ATOM     11  H   LIG d   1       3.358  -2.064  -3.110  0.00  0.00     0.031 H 
ATOM     12  H   LIG d   1       4.290  -2.802  -1.784  0.00  0.00     0.031 H 
ENDBRANCH   7   9
ENDBRANCH   1   7
BRANCH   1  13
ATOM     13  O   LIG d   1       6.701   0.762  -2.787  0.00  0.00    -0.454 OA
BRANCH  13  14
ATOM     14  C   LIG d   1       7.256   1.304  -3.882  0.00  0.00     0.305 C 
ATOM     15  O   LIG d   1       6.751   1.129  -4.966  0.00  0.00    -0.251 OA
BRANCH  14  16
ATOM     16  C   LIG d   1       8.510   2.132  -3.760  0.00  0.00     0.033 C 
ATOM     17  H   LIG d   1       8.969   1.954  -2.788  0.00  0.00     0.034 H 
ATOM     18  H   LIG d   1       9.208   1.853  -4.548  0.00  0.00     0.034 H 
ATOM     19  H   LIG d   1       8.258   3.189  -3.856  0.00  0.00     0.034 H 
ENDBRANCH  14  16
ENDBRANCH  13  14
ENDBRANCH   1  13
TORSDOF 6
ENDMDL
MODEL 9
REMARK VINA RESULT:      -3.5      1.784      3.415
REMARK  6 active torsions:
REMARK  status: ('A' for Active; 'I' for Inactive)
REMARK    1  A    between atoms: C_1  and  C_2 
REMARK    2  A    between atoms: C_2  and  C_4 
REMARK    3  A    between atoms: C_2  and  O_7 
REMARK    4  A    between atoms: C_4  and  C_6 
REMARK    5  A    between atoms: O_7  and  C_8 
REMARK    6  A    between atoms: C_8  and  C_10 
ROOT
ATOM      1  C   LIG d   1       4.317   0.181  -3.256  0.00  0.00     0.157 C 
ATOM      2  H   LIG d   1       5.293   0.361  -3.383  0.00  0.00     0.081 H 
ENDROOT
BRANCH   1   3
ATOM      3  C   LIG d   1       3.715   1.256  -2.348  0.00  0.00    -0.021 C 
ATOM      4  H   LIG d   1       3.011   0.794  -1.657  0.00  0.00     0.027 H 
ATOM      5  H   LIG d   1       4.511   1.743  -1.785  0.00  0.00     0.027 H 
ATOM      6  H   LIG d   1       3.195   1.995  -2.956  0.00  0.00     0.027 H 
ENDBRANCH   1   3
BRANCH   1   7
ATOM      7  C   LIG d   1       3.623   0.205  -4.593  0.00  0.00     0.170 C 
ATOM      8  O   LIG d   1       4.272   0.248  -5.610  0.00  0.00    -0.294 OA
BRANCH   7   9
ATOM      9  C   LIG d   1       2.118   0.168  -4.660  0.00  0.00    -0.002 C 
ATOM     10  H   LIG d   1       1.832  -0.051  -5.593  0.00  0.00     0.031 H 
ATOM     11  H   LIG d   1       1.742  -0.593  -3.976  0.00  0.00     0.031 H 
ATOM     12  H   LIG d   1       1.718   1.142  -4.377  0.00  0.00     0.031 H 
ENDBRANCH   7   9
ENDBRANCH   1   7
BRANCH   1  13
ATOM     13  O   LIG d   1       4.142  -1.123  -2.642  0.00  0.00    -0.454 OA
BRANCH  13  14
ATOM     14  C   LIG d   1       4.789  -2.154  -3.208  0.00  0.00     0.305 C 
ATOM     15  O   LIG d   1       4.182  -3.151  -3.521  0.00  0.00    -0.251 OA
BRANCH  14  16
ATOM     16  C   LIG d   1       6.274  -2.068  -3.453  0.00  0.00     0.033 C 
ATOM     17  H   LIG d   1       6.597  -2.936  -4.028  0.00  0.00     0.034 H 
ATOM     18  H   LIG d   1       6.498  -1.159  -4.011  0.00  0.00     0.034 H 
ATOM     19  H   LIG d   1       6.800  -2.048  -2.498  0.00  0.00     0.034 H 
ENDBRANCH  14  16
ENDBRANCH  13  14
ENDBRANCH   1  13
TORSDOF 6
ENDMDL
