MODEL 1
REMARK VINA RESULT:      -4.7      0.000      0.000
REMARK  10 active torsions:
REMARK  status: ('A' for Active; 'I' for Inactive)
REMARK    1  A    between atoms: C_1  and  N_2 
REMARK    2  A    between atoms: N_2  and  C_3 
REMARK    3  A    between atoms: N_5  and  C_6 
REMARK    4  A    between atoms: N_5  and  C_7 
REMARK    5  A    between atoms: C_7  and  C_8 
REMARK    6  A    between atoms: C_8  and  C_9 
REMARK    7  A    between atoms: C_13  and  O_18 
REMARK    8  A    between atoms: C_14  and  C_15 
REMARK    9  A    between atoms: N_16  and  N_17 
REMARK   10  A    between atoms: O_18  and  C_19 
ROOT
ATOM      1  C   LIG d   1       4.008  -1.495  -4.981  0.00  0.00    -0.030 A 
ATOM      2  C   LIG d   1       3.523  -0.250  -5.325  0.00  0.00    -0.012 A 
ATOM      3  C   LIG d   1       3.440   0.127  -6.658  0.00  0.00     0.170 A 
ATOM      4  C   LIG d   1       3.838  -0.756  -7.659  0.00  0.00     0.208 A 
ATOM      5  C   LIG d   1       4.322  -2.011  -7.324  0.00  0.00     0.174 A 
ATOM      6  C   LIG d   1       4.409  -2.387  -5.977  0.00  0.00     0.043 A 
ATOM      7  O   LIG d   1       3.654  -0.152  -8.872  0.00  0.00    -0.449 OA
ATOM      8  C   LIG d   1       3.526   1.253  -8.584  0.00  0.00     0.233 C 
ATOM      9  O   LIG d   1       3.007   1.283  -7.242  0.00  0.00    -0.453 OA
ATOM     10  H   LIG d   1       3.209   0.436  -4.551  0.00  0.00     0.066 H 
ATOM     11  H   LIG d   1       4.498   1.744  -8.630  0.00  0.00     0.117 H 
ATOM     12  H   LIG d   1       2.826   1.723  -9.275  0.00  0.00     0.117 H 
ENDROOT
BRANCH   1  13
ATOM     13  C   LIG d   1       4.099  -1.894  -3.531  0.00  0.00    -0.011 C 
ATOM     14  H   LIG d   1       3.850  -2.950  -3.428  0.00  0.00     0.033 H 
ATOM     15  H   LIG d   1       3.400  -1.298  -2.946  0.00  0.00     0.033 H 
BRANCH  13  16
ATOM     16  C   LIG d   1       5.522  -1.654  -3.024  0.00  0.00     0.017 C 
ATOM     17  H   LIG d   1       6.234  -2.124  -3.704  0.00  0.00     0.047 H 
ATOM     18  H   LIG d   1       5.632  -2.086  -2.029  0.00  0.00     0.047 H 
BRANCH  16  19
ATOM     19  N   LIG d   1       5.784  -0.214  -2.962  0.00  0.00    -0.316 N 
ATOM     20  C   LIG d   1       6.771   0.324  -3.706  0.00  0.00     0.132 C 
ATOM     21  S   LIG d   1       7.719  -0.675  -4.722  0.00  0.00    -0.019 SA
BRANCH  20  22
ATOM     22  N   LIG d   1       7.012   1.649  -3.649  0.00  0.00    -0.330 N 
ATOM     23  H   LIG d   1       6.309   2.258  -3.377  0.00  0.00     0.147 HD
BRANCH  22  24
ATOM     24  C   LIG d   1       8.336   2.168  -3.998  0.00  0.00    -0.001 C 
ATOM     25  H   LIG d   1       8.230   2.982  -4.715  0.00  0.00     0.043 H 
ATOM     26  H   LIG d   1       8.831   2.536  -3.100  0.00  0.00     0.043 H 
ATOM     27  H   LIG d   1       8.934   1.371  -4.442  0.00  0.00     0.043 H 
ENDBRANCH  22  24
ENDBRANCH  20  22
BRANCH  19  28
ATOM     28  C   LIG d   1       4.973   0.641  -2.092  0.00  0.00     0.002 C 
ATOM     29  H   LIG d   1       5.409   0.660  -1.093  0.00  0.00     0.043 H 
ATOM     30  H   LIG d   1       4.949   1.653  -2.497  0.00  0.00     0.043 H 
ATOM     31  H   LIG d   1       3.959   0.246  -2.038  0.00  0.00     0.043 H 
ENDBRANCH  19  28
ENDBRANCH  16  19
ENDBRANCH  13  16
ENDBRANCH   1  13
BRANCH   6  32
ATOM     32  C   LIG d   1       4.922  -3.720  -5.614  0.00  0.00     0.056 C 
ATOM     33  N   LIG d   1       4.139  -4.754  -5.667  0.00  0.00    -0.197 NA
ATOM     34  H   LIG d   1       5.950  -3.837  -5.303  0.00  0.00     0.085 H 
BRANCH  33  35
ATOM     35  N   LIG d   1       4.627  -6.021  -5.321  0.00  0.00    -0.282 N 
ATOM     36  H   LIG d   1       4.454  -6.383  -4.439  0.00  0.00     0.164 HD
ATOM     37  H   LIG d   1       5.138  -6.536  -5.965  0.00  0.00     0.164 HD
ENDBRANCH  33  35
ENDBRANCH   6  32
BRANCH   5  38
ATOM     38  O   LIG d   1       4.710  -2.874  -8.300  0.00  0.00    -0.491 OA
BRANCH  38  39
ATOM     39  C   LIG d   1       3.676  -3.539  -9.028  0.00  0.00     0.079 C 
ATOM     40  H   LIG d   1       2.898  -2.821  -9.290  0.00  0.00     0.066 H 
ATOM     41  H   LIG d   1       4.092  -3.971  -9.938  0.00  0.00     0.066 H 
ATOM     42  H   LIG d   1       3.247  -4.329  -8.411  0.00  0.00     0.066 H 
ENDBRANCH  38  39
ENDBRANCH   5  38
TORSDOF 10
ENDMDL
MODEL 2
REMARK VINA RESULT:      -4.7      9.918     14.176
REMARK  10 active torsions:
REMARK  status: ('A' for Active; 'I' for Inactive)
REMARK    1  A    between atoms: C_1  and  N_2 
REMARK    2  A    between atoms: N_2  and  C_3 
REMARK    3  A    between atoms: N_5  and  C_6 
REMARK    4  A    between atoms: N_5  and  C_7 
REMARK    5  A    between atoms: C_7  and  C_8 
REMARK    6  A    between atoms: C_8  and  C_9 
REMARK    7  A    between atoms: C_13  and  O_18 
REMARK    8  A    between atoms: C_14  and  C_15 
REMARK    9  A    between atoms: N_16  and  N_17 
REMARK   10  A    between atoms: O_18  and  C_19 
ROOT
ATOM      1  C   LIG d   1      10.583   8.826   0.103  0.00  0.00    -0.030 A 
ATOM      2  C   LIG d   1      11.653   8.541   0.924  0.00  0.00    -0.012 A 
ATOM      3  C   LIG d   1      12.193   9.525   1.740  0.00  0.00     0.170 A 
ATOM      4  C   LIG d   1      11.649  10.807   1.741  0.00  0.00     0.208 A 
ATOM      5  C   LIG d   1      10.570  11.102   0.923  0.00  0.00     0.174 A 
ATOM      6  C   LIG d   1      10.029  10.108   0.096  0.00  0.00     0.043 A 
ATOM      7  O   LIG d   1      12.351  11.579   2.625  0.00  0.00    -0.449 OA
ATOM      8  C   LIG d   1      13.583  10.870   2.858  0.00  0.00     0.233 C 
ATOM      9  O   LIG d   1      13.235   9.493   2.622  0.00  0.00    -0.453 OA
ATOM     10  H   LIG d   1      12.076   7.546   0.930  0.00  0.00     0.066 H 
ATOM     11  H   LIG d   1      14.351  11.197   2.158  0.00  0.00     0.117 H 
ATOM     12  H   LIG d   1      13.916  11.010   3.887  0.00  0.00     0.117 H 
ENDROOT
BRANCH   1  13
ATOM     13  C   LIG d   1      10.007   7.752  -0.783  0.00  0.00    -0.011 C 
ATOM     14  H   LIG d   1       9.247   8.186  -1.433  0.00  0.00     0.033 H 
ATOM     15  H   LIG d   1       9.556   6.975  -0.166  0.00  0.00     0.033 H 
BRANCH  13  16
ATOM     16  C   LIG d   1      11.120   7.143  -1.637  0.00  0.00     0.017 C 
ATOM     17  H   LIG d   1      12.067   7.627  -1.399  0.00  0.00     0.047 H 
ATOM     18  H   LIG d   1      10.892   7.292  -2.693  0.00  0.00     0.047 H 
BRANCH  16  19
ATOM     19  N   LIG d   1      11.222   5.708  -1.358  0.00  0.00    -0.316 N 
ATOM     20  C   LIG d   1      10.778   4.813  -2.262  0.00  0.00     0.132 C 
ATOM     21  S   LIG d   1      10.095   5.351  -3.736  0.00  0.00    -0.019 SA
BRANCH  20  22
ATOM     22  N   LIG d   1      10.871   3.493  -2.005  0.00  0.00    -0.330 N 
ATOM     23  H   LIG d   1      11.014   3.185  -1.096  0.00  0.00     0.147 HD
BRANCH  22  24
ATOM     24  C   LIG d   1      10.756   2.523  -3.097  0.00  0.00    -0.001 C 
ATOM     25  H   LIG d   1      10.371   1.581  -2.708  0.00  0.00     0.043 H 
ATOM     26  H   LIG d   1      10.076   2.909  -3.855  0.00  0.00     0.043 H 
ATOM     27  H   LIG d   1      11.739   2.358  -3.540  0.00  0.00     0.043 H 
ENDBRANCH  22  24
ENDBRANCH  20  22
BRANCH  19  28
ATOM     28  C   LIG d   1      11.805   5.247  -0.096  0.00  0.00     0.002 C 
ATOM     29  H   LIG d   1      12.503   4.433  -0.294  0.00  0.00     0.043 H 
ATOM     30  H   LIG d   1      12.335   6.072   0.382  0.00  0.00     0.043 H 
ATOM     31  H   LIG d   1      11.012   4.894   0.563  0.00  0.00     0.043 H 
ENDBRANCH  19  28
ENDBRANCH  16  19
ENDBRANCH  13  16
ENDBRANCH   1  13
BRANCH   6  32
ATOM     32  C   LIG d   1       8.882  10.414  -0.776  0.00  0.00     0.056 C 
ATOM     33  N   LIG d   1       9.076  10.962  -1.936  0.00  0.00    -0.197 NA
ATOM     34  H   LIG d   1       7.879  10.181  -0.450  0.00  0.00     0.085 H 
BRANCH  33  35
ATOM     35  N   LIG d   1       7.984  11.254  -2.765  0.00  0.00    -0.282 N 
ATOM     36  H   LIG d   1       7.839  12.161  -3.074  0.00  0.00     0.164 HD
ATOM     37  H   LIG d   1       7.375  10.547  -3.029  0.00  0.00     0.164 HD
ENDBRANCH  33  35
ENDBRANCH   6  32
BRANCH   5  38
ATOM     38  O   LIG d   1      10.037  12.353   0.922  0.00  0.00    -0.491 OA
BRANCH  38  39
ATOM     39  C   LIG d   1      10.762  13.367   0.223  0.00  0.00     0.079 C 
ATOM     40  H   LIG d   1      11.525  12.902  -0.403  0.00  0.00     0.066 H 
ATOM     41  H   LIG d   1      10.076  13.936  -0.405  0.00  0.00     0.066 H 
ATOM     42  H   LIG d   1      11.238  14.034   0.941  0.00  0.00     0.066 H 
ENDBRANCH  38  39
ENDBRANCH   5  38
TORSDOF 10
ENDMDL
MODEL 3
REMARK VINA RESULT:      -4.7      8.893     11.179
REMARK  10 active torsions:
REMARK  status: ('A' for Active; 'I' for Inactive)
REMARK    1  A    between atoms: C_1  and  N_2 
REMARK    2  A    between atoms: N_2  and  C_3 
REMARK    3  A    between atoms: N_5  and  C_6 
REMARK    4  A    between atoms: N_5  and  C_7 
REMARK    5  A    between atoms: C_7  and  C_8 
REMARK    6  A    between atoms: C_8  and  C_9 
REMARK    7  A    between atoms: C_13  and  O_18 
REMARK    8  A    between atoms: C_14  and  C_15 
REMARK    9  A    between atoms: N_16  and  N_17 
REMARK   10  A    between atoms: O_18  and  C_19 
ROOT
ATOM      1  C   LIG d   1       9.562   6.284  -4.281  0.00  0.00    -0.030 A 
ATOM      2  C   LIG d   1       9.695   5.086  -4.950  0.00  0.00    -0.012 A 
ATOM      3  C   LIG d   1      10.115   3.948  -4.275  0.00  0.00     0.170 A 
ATOM      4  C   LIG d   1      10.395   4.009  -2.913  0.00  0.00     0.208 A 
ATOM      5  C   LIG d   1      10.260   5.207  -2.229  0.00  0.00     0.174 A 
ATOM      6  C   LIG d   1       9.840   6.356  -2.914  0.00  0.00     0.043 A 
ATOM      7  O   LIG d   1      10.780   2.766  -2.490  0.00  0.00    -0.449 OA
ATOM      8  C   LIG d   1      11.125   2.045  -3.688  0.00  0.00     0.233 C 
ATOM      9  O   LIG d   1      10.323   2.670  -4.707  0.00  0.00    -0.453 OA
ATOM     10  H   LIG d   1       9.474   5.034  -6.007  0.00  0.00     0.066 H 
ATOM     11  H   LIG d   1      12.185   2.158  -3.912  0.00  0.00     0.117 H 
ATOM     12  H   LIG d   1      10.864   0.991  -3.588  0.00  0.00     0.117 H 
ENDROOT
BRANCH   1  13
ATOM     13  C   LIG d   1       9.110   7.516  -5.023  0.00  0.00    -0.011 C 
ATOM     14  H   LIG d   1       8.816   8.283  -4.307  0.00  0.00     0.033 H 
ATOM     15  H   LIG d   1       8.261   7.266  -5.657  0.00  0.00     0.033 H 
BRANCH  13  16
ATOM     16  C   LIG d   1      10.258   8.039  -5.888  0.00  0.00     0.017 C 
ATOM     17  H   LIG d   1      10.727   7.207  -6.413  0.00  0.00     0.047 H 
ATOM     18  H   LIG d   1      10.997   8.531  -5.255  0.00  0.00     0.047 H 
BRANCH  16  19
ATOM     19  N   LIG d   1       9.736   8.999  -6.864  0.00  0.00    -0.316 N 
ATOM     20  C   LIG d   1       9.988  10.314  -6.718  0.00  0.00     0.132 C 
ATOM     21  S   LIG d   1      10.919  10.865  -5.390  0.00  0.00    -0.019 SA
BRANCH  20  22
ATOM     22  N   LIG d   1       9.507  11.197  -7.615  0.00  0.00    -0.330 N 
ATOM     23  H   LIG d   1       9.102  10.881  -8.437  0.00  0.00     0.147 HD
BRANCH  22  24
ATOM     24  C   LIG d   1       9.599  12.635  -7.350  0.00  0.00    -0.001 C 
ATOM     25  H   LIG d   1      10.310  13.088  -8.041  0.00  0.00     0.043 H 
ATOM     26  H   LIG d   1       8.619  13.092  -7.485  0.00  0.00     0.043 H 
ATOM     27  H   LIG d   1       9.936  12.795  -6.326  0.00  0.00     0.043 H 
ENDBRANCH  22  24
ENDBRANCH  20  22
BRANCH  19  28
ATOM     28  C   LIG d   1       8.939   8.528  -8.000  0.00  0.00     0.002 C 
ATOM     29  H   LIG d   1       9.491   8.693  -8.925  0.00  0.00     0.043 H 
ATOM     30  H   LIG d   1       8.734   7.464  -7.884  0.00  0.00     0.043 H 
ATOM     31  H   LIG d   1       7.998   9.078  -8.035  0.00  0.00     0.043 H 
ENDBRANCH  19  28
ENDBRANCH  16  19
ENDBRANCH  13  16
ENDBRANCH   1  13
BRANCH   6  32
ATOM     32  C   LIG d   1       9.694   7.633  -2.195  0.00  0.00     0.056 C 
ATOM     33  N   LIG d   1       8.685   7.818  -1.398  0.00  0.00    -0.197 NA
ATOM     34  H   LIG d   1      10.425   8.417  -2.330  0.00  0.00     0.085 H 
BRANCH  33  35
ATOM     35  N   LIG d   1       8.546   9.033  -0.714  0.00  0.00    -0.282 N 
ATOM     36  H   LIG d   1       8.073   9.771  -1.129  0.00  0.00     0.164 HD
ATOM     37  H   LIG d   1       8.922   9.136   0.174  0.00  0.00     0.164 HD
ENDBRANCH  33  35
ENDBRANCH   6  32
BRANCH   5  38
ATOM     38  O   LIG d   1      10.533   5.268  -0.899  0.00  0.00    -0.491 OA
BRANCH  38  39
ATOM     39  C   LIG d   1      11.910   5.321  -0.521  0.00  0.00     0.079 C 
ATOM     40  H   LIG d   1      12.085   4.638   0.311  0.00  0.00     0.066 H 
ATOM     41  H   LIG d   1      12.531   5.027  -1.368  0.00  0.00     0.066 H 
ATOM     42  H   LIG d   1      12.165   6.336  -0.217  0.00  0.00     0.066 H 
ENDBRANCH  38  39
ENDBRANCH   5  38
TORSDOF 10
ENDMDL
MODEL 4
REMARK VINA RESULT:      -4.6      3.672      5.574
REMARK  10 active torsions:
REMARK  status: ('A' for Active; 'I' for Inactive)
REMARK    1  A    between atoms: C_1  and  N_2 
REMARK    2  A    between atoms: N_2  and  C_3 
REMARK    3  A    between atoms: N_5  and  C_6 
REMARK    4  A    between atoms: N_5  and  C_7 
REMARK    5  A    between atoms: C_7  and  C_8 
REMARK    6  A    between atoms: C_8  and  C_9 
REMARK    7  A    between atoms: C_13  and  O_18 
REMARK    8  A    between atoms: C_14  and  C_15 
REMARK    9  A    between atoms: N_16  and  N_17 
REMARK   10  A    between atoms: O_18  and  C_19 
ROOT
ATOM      1  C   LIG d   1       3.404  -0.112  -5.931  0.00  0.00    -0.030 A 
ATOM      2  C   LIG d   1       3.019   0.697  -4.884  0.00  0.00    -0.012 A 
ATOM      3  C   LIG d   1       3.772   0.743  -3.719  0.00  0.00     0.170 A 
ATOM      4  C   LIG d   1       4.929  -0.024  -3.605  0.00  0.00     0.208 A 
ATOM      5  C   LIG d   1       5.328  -0.837  -4.655  0.00  0.00     0.174 A 
ATOM      6  C   LIG d   1       4.563  -0.885  -5.828  0.00  0.00     0.043 A 
ATOM      7  O   LIG d   1       5.484   0.202  -2.376  0.00  0.00    -0.449 OA
ATOM      8  C   LIG d   1       4.437   0.798  -1.587  0.00  0.00     0.233 C 
ATOM      9  O   LIG d   1       3.601   1.449  -2.563  0.00  0.00    -0.453 OA
ATOM     10  H   LIG d   1       2.125   1.297  -4.970  0.00  0.00     0.066 H 
ATOM     11  H   LIG d   1       3.876   0.031  -1.053  0.00  0.00     0.117 H 
ATOM     12  H   LIG d   1       4.851   1.527  -0.891  0.00  0.00     0.117 H 
ENDROOT
BRANCH   1  13
ATOM     13  C   LIG d   1       2.578  -0.159  -7.191  0.00  0.00    -0.011 C 
ATOM     14  H   LIG d   1       1.519  -0.158  -6.930  0.00  0.00     0.033 H 
ATOM     15  H   LIG d   1       2.814  -1.066  -7.746  0.00  0.00     0.033 H 
BRANCH  13  16
ATOM     16  C   LIG d   1       2.892   1.064  -8.053  0.00  0.00     0.017 C 
ATOM     17  H   LIG d   1       3.798   1.545  -7.685  0.00  0.00     0.047 H 
ATOM     18  H   LIG d   1       2.061   1.769  -8.002  0.00  0.00     0.047 H 
BRANCH  16  19
ATOM     19  N   LIG d   1       3.092   0.645  -9.443  0.00  0.00    -0.316 N 
ATOM     20  C   LIG d   1       4.198   1.029 -10.110  0.00  0.00     0.132 C 
ATOM     21  S   LIG d   1       5.370   2.006  -9.334  0.00  0.00    -0.019 SA
BRANCH  20  22
ATOM     22  N   LIG d   1       4.381   0.644 -11.389  0.00  0.00    -0.330 N 
ATOM     23  H   LIG d   1       3.831   1.021 -12.092  0.00  0.00     0.147 HD
BRANCH  22  24
ATOM     24  C   LIG d   1       5.411  -0.345 -11.716  0.00  0.00    -0.001 C 
ATOM     25  H   LIG d   1       5.676  -0.905 -10.819  0.00  0.00     0.043 H 
ATOM     26  H   LIG d   1       5.030  -1.029 -12.473  0.00  0.00     0.043 H 
ATOM     27  H   LIG d   1       6.296   0.165 -12.099  0.00  0.00     0.043 H 
ENDBRANCH  22  24
ENDBRANCH  20  22
BRANCH  19  28
ATOM     28  C   LIG d   1       2.088  -0.190 -10.107  0.00  0.00     0.002 C 
ATOM     29  H   LIG d   1       1.829  -1.030  -9.461  0.00  0.00     0.043 H 
ATOM     30  H   LIG d   1       1.196   0.403 -10.307  0.00  0.00     0.043 H 
ATOM     31  H   LIG d   1       2.493  -0.566 -11.046  0.00  0.00     0.043 H 
ENDBRANCH  19  28
ENDBRANCH  16  19
ENDBRANCH  13  16
ENDBRANCH   1  13
BRANCH   6  32
ATOM     32  C   LIG d   1       4.980  -1.747  -6.948  0.00  0.00     0.056 C 
ATOM     33  N   LIG d   1       5.869  -1.326  -7.795  0.00  0.00    -0.197 NA
ATOM     34  H   LIG d   1       4.547  -2.729  -7.064  0.00  0.00     0.085 H 
BRANCH  33  35
ATOM     35  N   LIG d   1       6.265  -2.146  -8.861  0.00  0.00    -0.282 N 
ATOM     36  H   LIG d   1       5.877  -3.028  -8.964  0.00  0.00     0.164 HD
ATOM     37  H   LIG d   1       6.927  -1.829  -9.495  0.00  0.00     0.164 HD
ENDBRANCH  33  35
ENDBRANCH   6  32
BRANCH   5  38
ATOM     38  O   LIG d   1       6.457  -1.586  -4.546  0.00  0.00    -0.491 OA
BRANCH  38  39
ATOM     39  C   LIG d   1       7.705  -0.901  -4.672  0.00  0.00     0.079 C 
ATOM     40  H   LIG d   1       8.077  -1.009  -5.691  0.00  0.00     0.066 H 
ATOM     41  H   LIG d   1       7.563   0.157  -4.448  0.00  0.00     0.066 H 
ATOM     42  H   LIG d   1       8.426  -1.327  -3.975  0.00  0.00     0.066 H 
ENDBRANCH  38  39
ENDBRANCH   5  38
TORSDOF 10
ENDMDL
MODEL 5
REMARK VINA RESULT:      -4.6      9.320     11.557
REMARK  10 active torsions:
REMARK  status: ('A' for Active; 'I' for Inactive)
REMARK    1  A    between atoms: C_1  and  N_2 
REMARK    2  A    between atoms: N_2  and  C_3 
REMARK    3  A    between atoms: N_5  and  C_6 
REMARK    4  A    between atoms: N_5  and  C_7 
REMARK    5  A    between atoms: C_7  and  C_8 
REMARK    6  A    between atoms: C_8  and  C_9 
REMARK    7  A    between atoms: C_13  and  O_18 
REMARK    8  A    between atoms: C_14  and  C_15 
REMARK    9  A    between atoms: N_16  and  N_17 
REMARK   10  A    between atoms: O_18  and  C_19 
ROOT
ATOM      1  C   LIG d   1       9.918   7.122  -3.461  0.00  0.00    -0.030 A 
ATOM      2  C   LIG d   1       9.986   8.498  -3.405  0.00  0.00    -0.012 A 
ATOM      3  C   LIG d   1      10.110   9.145  -2.183  0.00  0.00     0.170 A 
ATOM      4  C   LIG d   1      10.177   8.405  -1.005  0.00  0.00     0.208 A 
ATOM      5  C   LIG d   1      10.115   7.021  -1.051  0.00  0.00     0.174 A 
ATOM      6  C   LIG d   1       9.984   6.370  -2.286  0.00  0.00     0.043 A 
ATOM      7  O   LIG d   1      10.302   9.269   0.047  0.00  0.00    -0.449 OA
ATOM      8  C   LIG d   1       9.899  10.554  -0.463  0.00  0.00     0.233 C 
ATOM      9  O   LIG d   1      10.192  10.472  -1.870  0.00  0.00    -0.453 OA
ATOM     10  H   LIG d   1       9.938   9.076  -4.317  0.00  0.00     0.066 H 
ATOM     11  H   LIG d   1       8.832  10.713  -0.303  0.00  0.00     0.117 H 
ATOM     12  H   LIG d   1      10.480  11.350   0.003  0.00  0.00     0.117 H 
ENDROOT
BRANCH   1  13
ATOM     13  C   LIG d   1       9.777   6.428  -4.791  0.00  0.00    -0.011 C 
ATOM     14  H   LIG d   1       8.734   6.456  -5.107  0.00  0.00     0.033 H 
ATOM     15  H   LIG d   1      10.100   5.392  -4.696  0.00  0.00     0.033 H 
BRANCH  13  16
ATOM     16  C   LIG d   1      10.645   7.140  -5.832  0.00  0.00     0.017 C 
ATOM     17  H   LIG d   1      11.652   6.724  -5.810  0.00  0.00     0.047 H 
ATOM     18  H   LIG d   1      10.686   8.205  -5.604  0.00  0.00     0.047 H 
BRANCH  16  19
ATOM     19  N   LIG d   1      10.066   6.948  -7.164  0.00  0.00    -0.316 N 
ATOM     20  C   LIG d   1       9.722   8.017  -7.909  0.00  0.00     0.132 C 
ATOM     21  S   LIG d   1       9.959   9.599  -7.298  0.00  0.00    -0.019 SA
BRANCH  20  22
ATOM     22  N   LIG d   1       9.189   7.841  -9.134  0.00  0.00    -0.330 N 
ATOM     23  H   LIG d   1       8.263   7.565  -9.225  0.00  0.00     0.147 HD
BRANCH  22  24
ATOM     24  C   LIG d   1      10.007   8.066 -10.328  0.00  0.00    -0.001 C 
ATOM     25  H   LIG d   1      10.862   7.392 -10.315  0.00  0.00     0.043 H 
ATOM     26  H   LIG d   1       9.409   7.879 -11.219  0.00  0.00     0.043 H 
ATOM     27  H   LIG d   1      10.359   9.099 -10.338  0.00  0.00     0.043 H 
ENDBRANCH  22  24
ENDBRANCH  20  22
BRANCH  19  28
ATOM     28  C   LIG d   1       9.862   5.595  -7.686  0.00  0.00     0.002 C 
ATOM     29  H   LIG d   1      10.797   5.222  -8.105  0.00  0.00     0.043 H 
ATOM     30  H   LIG d   1       9.539   4.939  -6.878  0.00  0.00     0.043 H 
ATOM     31  H   LIG d   1       9.099   5.618  -8.464  0.00  0.00     0.043 H 
ENDBRANCH  19  28
ENDBRANCH  16  19
ENDBRANCH  13  16
ENDBRANCH   1  13
BRANCH   6  32
ATOM     32  C   LIG d   1       9.918   4.900  -2.343  0.00  0.00     0.056 C 
ATOM     33  N   LIG d   1      11.008   4.197  -2.277  0.00  0.00    -0.197 NA
ATOM     34  H   LIG d   1       8.962   4.405  -2.440  0.00  0.00     0.085 H 
BRANCH  33  35
ATOM     35  N   LIG d   1      10.944   2.798  -2.332  0.00  0.00    -0.282 N 
ATOM     36  H   LIG d   1      10.213   2.364  -2.797  0.00  0.00     0.164 HD
ATOM     37  H   LIG d   1      11.633   2.265  -1.906  0.00  0.00     0.164 HD
ENDBRANCH  33  35
ENDBRANCH   6  32
BRANCH   5  38
ATOM     38  O   LIG d   1      10.180   6.297   0.097  0.00  0.00    -0.491 OA
BRANCH  38  39
ATOM     39  C   LIG d   1      11.469   6.148   0.698  0.00  0.00     0.079 C 
ATOM     40  H   LIG d   1      11.926   5.220   0.352  0.00  0.00     0.066 H 
ATOM     41  H   LIG d   1      12.101   6.991   0.416  0.00  0.00     0.066 H 
ATOM     42  H   LIG d   1      11.363   6.118   1.783  0.00  0.00     0.066 H 
ENDBRANCH  38  39
ENDBRANCH   5  38
TORSDOF 10
ENDMDL
MODEL 6
REMARK VINA RESULT:      -4.5      9.455     12.123
REMARK  10 active torsions:
REMARK  status: ('A' for Active; 'I' for Inactive)
REMARK    1  A    between atoms: C_1  and  N_2 
REMARK    2  A    between atoms: N_2  and  C_3 
REMARK    3  A    between atoms: N_5  and  C_6 
REMARK    4  A    between atoms: N_5  and  C_7 
REMARK    5  A    between atoms: C_7  and  C_8 
REMARK    6  A    between atoms: C_8  and  C_9 
REMARK    7  A    between atoms: C_13  and  O_18 
REMARK    8  A    between atoms: C_14  and  C_15 
REMARK    9  A    between atoms: N_16  and  N_17 
REMARK   10  A    between atoms: O_18  and  C_19 
ROOT
ATOM      1  C   LIG d   1      10.156   8.255  -3.560  0.00  0.00    -0.030 A 
ATOM      2  C   LIG d   1      10.065   7.198  -4.441  0.00  0.00    -0.012 A 
ATOM      3  C   LIG d   1       9.935   5.900  -3.967  0.00  0.00     0.170 A 
ATOM      4  C   LIG d   1       9.885   5.659  -2.597  0.00  0.00     0.208 A 
ATOM      5  C   LIG d   1       9.971   6.715  -1.703  0.00  0.00     0.174 A 
ATOM      6  C   LIG d   1      10.107   8.024  -2.184  0.00  0.00     0.043 A 
ATOM      7  O   LIG d   1       9.751   4.313  -2.395  0.00  0.00    -0.449 OA
ATOM      8  C   LIG d   1      10.129   3.699  -3.641  0.00  0.00     0.233 C 
ATOM      9  O   LIG d   1       9.831   4.707  -4.624  0.00  0.00    -0.453 OA
ATOM     10  H   LIG d   1      10.098   7.381  -5.505  0.00  0.00     0.066 H 
ATOM     11  H   LIG d   1      11.194   3.464  -3.645  0.00  0.00     0.117 H 
ATOM     12  H   LIG d   1       9.537   2.802  -3.821  0.00  0.00     0.117 H 
ENDROOT
BRANCH   1  13
ATOM     13  C   LIG d   1      10.302   9.661  -4.083  0.00  0.00    -0.011 C 
ATOM     14  H   LIG d   1      11.340   9.838  -4.364  0.00  0.00     0.033 H 
ATOM     15  H   LIG d   1      10.010  10.369  -3.309  0.00  0.00     0.033 H 
BRANCH  13  16
ATOM     16  C   LIG d   1       9.404   9.846  -5.308  0.00  0.00     0.017 C 
ATOM     17  H   LIG d   1       8.582  10.516  -5.058  0.00  0.00     0.047 H 
ATOM     18  H   LIG d   1       9.003   8.879  -5.615  0.00  0.00     0.047 H 
BRANCH  16  19
ATOM     19  N   LIG d   1      10.186  10.420  -6.406  0.00  0.00    -0.316 N 
ATOM     20  C   LIG d   1      10.118   9.877  -7.637  0.00  0.00     0.132 C 
ATOM     21  S   LIG d   1       9.118   8.517  -7.920  0.00  0.00    -0.019 SA
BRANCH  20  22
ATOM     22  N   LIG d   1      10.838  10.405  -8.647  0.00  0.00    -0.330 N 
ATOM     23  H   LIG d   1      10.705  11.331  -8.905  0.00  0.00     0.147 HD
BRANCH  22  24
ATOM     24  C   LIG d   1      11.820   9.581  -9.356  0.00  0.00    -0.001 C 
ATOM     25  H   LIG d   1      11.769   9.792 -10.424  0.00  0.00     0.043 H 
ATOM     26  H   LIG d   1      12.819   9.809  -8.986  0.00  0.00     0.043 H 
ATOM     27  H   LIG d   1      11.601   8.527  -9.184  0.00  0.00     0.043 H 
ENDBRANCH  22  24
ENDBRANCH  20  22
BRANCH  19  28
ATOM     28  C   LIG d   1      11.042  11.584  -6.164  0.00  0.00     0.002 C 
ATOM     29  H   LIG d   1      11.789  11.335  -5.410  0.00  0.00     0.043 H 
ATOM     30  H   LIG d   1      11.542  11.866  -7.091  0.00  0.00     0.043 H 
ATOM     31  H   LIG d   1      10.433  12.416  -5.812  0.00  0.00     0.043 H 
ENDBRANCH  19  28
ENDBRANCH  16  19
ENDBRANCH  13  16
ENDBRANCH   1  13
BRANCH   6  32
ATOM     32  C   LIG d   1      10.198   9.152  -1.241  0.00  0.00     0.056 C 
ATOM     33  N   LIG d   1       9.118   9.656  -0.725  0.00  0.00    -0.197 NA
ATOM     34  H   LIG d   1      11.163   9.560  -0.978  0.00  0.00     0.085 H 
BRANCH  33  35
ATOM     35  N   LIG d   1       9.205  10.730   0.172  0.00  0.00    -0.282 N 
ATOM     36  H   LIG d   1       9.736  10.646   0.979  0.00  0.00     0.164 HD
ATOM     37  H   LIG d   1       8.735  11.557  -0.015  0.00  0.00     0.164 HD
ENDBRANCH  33  35
ENDBRANCH   6  32
BRANCH   5  38
ATOM     38  O   LIG d   1       9.922   6.482  -0.365  0.00  0.00    -0.491 OA
BRANCH  38  39
ATOM     39  C   LIG d   1      11.113   5.984   0.250  0.00  0.00     0.079 C 
ATOM     40  H   LIG d   1      11.001   4.917   0.446  0.00  0.00     0.066 H 
ATOM     41  H   LIG d   1      11.960   6.143  -0.417  0.00  0.00     0.066 H 
ATOM     42  H   LIG d   1      11.284   6.509   1.190  0.00  0.00     0.066 H 
ENDBRANCH  38  39
ENDBRANCH   5  38
TORSDOF 10
ENDMDL
MODEL 7
REMARK VINA RESULT:      -4.5      4.000      6.440
REMARK  10 active torsions:
REMARK  status: ('A' for Active; 'I' for Inactive)
REMARK    1  A    between atoms: C_1  and  N_2 
REMARK    2  A    between atoms: N_2  and  C_3 
REMARK    3  A    between atoms: N_5  and  C_6 
REMARK    4  A    between atoms: N_5  and  C_7 
REMARK    5  A    between atoms: C_7  and  C_8 
REMARK    6  A    between atoms: C_8  and  C_9 
REMARK    7  A    between atoms: C_13  and  O_18 
REMARK    8  A    between atoms: C_14  and  C_15 
REMARK    9  A    between atoms: N_16  and  N_17 
REMARK   10  A    between atoms: O_18  and  C_19 
ROOT
ATOM      1  C   LIG d   1       3.539   0.285  -6.661  0.00  0.00    -0.030 A 
ATOM      2  C   LIG d   1       2.739   0.099  -5.554  0.00  0.00    -0.012 A 
ATOM      3  C   LIG d   1       3.256  -0.482  -4.404  0.00  0.00     0.170 A 
ATOM      4  C   LIG d   1       4.592  -0.871  -4.359  0.00  0.00     0.208 A 
ATOM      5  C   LIG d   1       5.406  -0.684  -5.465  0.00  0.00     0.174 A 
ATOM      6  C   LIG d   1       4.881  -0.102  -6.627  0.00  0.00     0.043 A 
ATOM      7  O   LIG d   1       4.850  -1.405  -3.127  0.00  0.00    -0.449 OA
ATOM      8  C   LIG d   1       3.560  -1.712  -2.565  0.00  0.00     0.233 C 
ATOM      9  O   LIG d   1       2.676  -0.770  -3.202  0.00  0.00    -0.453 OA
ATOM     10  H   LIG d   1       1.703   0.405  -5.583  0.00  0.00     0.066 H 
ATOM     11  H   LIG d   1       3.270  -2.734  -2.807  0.00  0.00     0.117 H 
ATOM     12  H   LIG d   1       3.568  -1.560  -1.486  0.00  0.00     0.117 H 
ENDROOT
BRANCH   1  13
ATOM     13  C   LIG d   1       2.968   0.912  -7.907  0.00  0.00    -0.011 C 
ATOM     14  H   LIG d   1       3.772   1.366  -8.487  0.00  0.00     0.033 H 
ATOM     15  H   LIG d   1       2.245   1.678  -7.629  0.00  0.00     0.033 H 
BRANCH  13  16
ATOM     16  C   LIG d   1       2.277  -0.162  -8.748  0.00  0.00     0.017 C 
ATOM     17  H   LIG d   1       1.200   0.007  -8.740  0.00  0.00     0.047 H 
ATOM     18  H   LIG d   1       2.492  -1.146  -8.330  0.00  0.00     0.047 H 
BRANCH  16  19
ATOM     19  N   LIG d   1       2.771  -0.099 -10.125  0.00  0.00    -0.316 N 
ATOM     20  C   LIG d   1       2.474  -1.085 -10.994  0.00  0.00     0.132 C 
ATOM     21  S   LIG d   1       1.520  -2.414 -10.488  0.00  0.00    -0.019 SA
BRANCH  20  22
ATOM     22  N   LIG d   1       2.929  -1.027 -12.262  0.00  0.00    -0.330 N 
ATOM     23  H   LIG d   1       3.640  -0.409 -12.493  0.00  0.00     0.147 HD
BRANCH  22  24
ATOM     24  C   LIG d   1       2.351  -1.897 -13.289  0.00  0.00    -0.001 C 
ATOM     25  H   LIG d   1       3.065  -2.679 -13.546  0.00  0.00     0.043 H 
ATOM     26  H   LIG d   1       1.436  -2.350 -12.908  0.00  0.00     0.043 H 
ATOM     27  H   LIG d   1       2.123  -1.308 -14.177  0.00  0.00     0.043 H 
ENDBRANCH  22  24
ENDBRANCH  20  22
BRANCH  19  28
ATOM     28  C   LIG d   1       3.588   1.038 -10.559  0.00  0.00     0.002 C 
ATOM     29  H   LIG d   1       3.095   1.968 -10.276  0.00  0.00     0.043 H 
ATOM     30  H   LIG d   1       4.566   0.985 -10.081  0.00  0.00     0.043 H 
ATOM     31  H   LIG d   1       3.709   1.005 -11.641  0.00  0.00     0.043 H 
ENDBRANCH  19  28
ENDBRANCH  16  19
ENDBRANCH  13  16
ENDBRANCH   1  13
BRANCH   6  32
ATOM     32  C   LIG d   1       5.740   0.101  -7.806  0.00  0.00     0.056 C 
ATOM     33  N   LIG d   1       6.391   1.215  -7.952  0.00  0.00    -0.197 NA
ATOM     34  H   LIG d   1       5.829  -0.677  -8.550  0.00  0.00     0.085 H 
BRANCH  33  35
ATOM     35  N   LIG d   1       7.208   1.408  -9.074  0.00  0.00    -0.282 N 
ATOM     36  H   LIG d   1       8.025   1.923  -8.996  0.00  0.00     0.164 HD
ATOM     37  H   LIG d   1       6.955   1.025  -9.929  0.00  0.00     0.164 HD
ENDBRANCH  33  35
ENDBRANCH   6  32
BRANCH   5  38
ATOM     38  O   LIG d   1       6.711  -1.064  -5.424  0.00  0.00    -0.491 OA
BRANCH  38  39
ATOM     39  C   LIG d   1       6.986  -2.458  -5.578  0.00  0.00     0.079 C 
ATOM     40  H   LIG d   1       6.807  -2.970  -4.632  0.00  0.00     0.066 H 
ATOM     41  H   LIG d   1       6.334  -2.875  -6.345  0.00  0.00     0.066 H 
ATOM     42  H   LIG d   1       8.027  -2.593  -5.871  0.00  0.00     0.066 H 
ENDBRANCH  38  39
ENDBRANCH   5  38
TORSDOF 10
ENDMDL
MODEL 8
REMARK VINA RESULT:      -4.5      8.749     10.759
REMARK  10 active torsions:
REMARK  status: ('A' for Active; 'I' for Inactive)
REMARK    1  A    between atoms: C_1  and  N_2 
REMARK    2  A    between atoms: N_2  and  C_3 
REMARK    3  A    between atoms: N_5  and  C_6 
REMARK    4  A    between atoms: N_5  and  C_7 
REMARK    5  A    between atoms: C_7  and  C_8 
REMARK    6  A    between atoms: C_8  and  C_9 
REMARK    7  A    between atoms: C_13  and  O_18 
REMARK    8  A    between atoms: C_14  and  C_15 
REMARK    9  A    between atoms: N_16  and  N_17 
REMARK   10  A    between atoms: O_18  and  C_19 
ROOT
ATOM      1  C   LIG d   1       9.615   6.277  -4.193  0.00  0.00    -0.030 A 
ATOM      2  C   LIG d   1       9.487   7.117  -5.278  0.00  0.00    -0.012 A 
ATOM      3  C   LIG d   1       9.672   8.485  -5.133  0.00  0.00     0.170 A 
ATOM      4  C   LIG d   1      10.000   9.016  -3.888  0.00  0.00     0.208 A 
ATOM      5  C   LIG d   1      10.136   8.179  -2.791  0.00  0.00     0.174 A 
ATOM      6  C   LIG d   1       9.943   6.799  -2.940  0.00  0.00     0.043 A 
ATOM      7  O   LIG d   1      10.132  10.371  -4.013  0.00  0.00    -0.449 OA
ATOM      8  C   LIG d   1       9.482  10.707  -5.253  0.00  0.00     0.233 C 
ATOM      9  O   LIG d   1       9.599   9.505  -6.038  0.00  0.00    -0.453 OA
ATOM     10  H   LIG d   1       9.237   6.708  -6.247  0.00  0.00     0.066 H 
ATOM     11  H   LIG d   1       8.434  10.952  -5.083  0.00  0.00     0.117 H 
ATOM     12  H   LIG d   1       9.995  11.535  -5.742  0.00  0.00     0.117 H 
ENDROOT
BRANCH   1  13
ATOM     13  C   LIG d   1       9.406   4.794  -4.359  0.00  0.00    -0.011 C 
ATOM     14  H   LIG d   1       8.505   4.617  -4.947  0.00  0.00     0.033 H 
ATOM     15  H   LIG d   1       9.297   4.330  -3.379  0.00  0.00     0.033 H 
BRANCH  13  16
ATOM     16  C   LIG d   1      10.612   4.186  -5.079  0.00  0.00     0.017 C 
ATOM     17  H   LIG d   1      11.188   4.980  -5.554  0.00  0.00     0.047 H 
ATOM     18  H   LIG d   1      10.266   3.484  -5.838  0.00  0.00     0.047 H 
BRANCH  16  19
ATOM     19  N   LIG d   1      11.456   3.482  -4.111  0.00  0.00    -0.316 N 
ATOM     20  C   LIG d   1      12.748   3.835  -3.961  0.00  0.00     0.132 C 
ATOM     21  S   LIG d   1      13.403   5.106  -4.902  0.00  0.00    -0.019 SA
BRANCH  20  22
ATOM     22  N   LIG d   1      13.525   3.186  -3.071  0.00  0.00    -0.330 N 
ATOM     23  H   LIG d   1      13.279   3.172  -2.133  0.00  0.00     0.147 HD
BRANCH  22  24
ATOM     24  C   LIG d   1      14.741   2.504  -3.520  0.00  0.00    -0.001 C 
ATOM     25  H   LIG d   1      15.537   2.664  -2.793  0.00  0.00     0.043 H 
ATOM     26  H   LIG d   1      14.544   1.437  -3.616  0.00  0.00     0.043 H 
ATOM     27  H   LIG d   1      15.047   2.905  -4.487  0.00  0.00     0.043 H 
ENDBRANCH  22  24
ENDBRANCH  20  22
BRANCH  19  28
ATOM     28  C   LIG d   1      10.896   2.393  -3.306  0.00  0.00     0.002 C 
ATOM     29  H   LIG d   1      10.487   1.627  -3.965  0.00  0.00     0.043 H 
ATOM     30  H   LIG d   1      11.680   1.959  -2.686  0.00  0.00     0.043 H 
ATOM     31  H   LIG d   1      10.103   2.785  -2.668  0.00  0.00     0.043 H 
ENDBRANCH  19  28
ENDBRANCH  16  19
ENDBRANCH  13  16
ENDBRANCH   1  13
BRANCH   6  32
ATOM     32  C   LIG d   1      10.087   5.903  -1.779  0.00  0.00     0.056 C 
ATOM     33  N   LIG d   1      11.269   5.572  -1.357  0.00  0.00    -0.197 NA
ATOM     34  H   LIG d   1       9.208   5.522  -1.279  0.00  0.00     0.085 H 
BRANCH  33  35
ATOM     35  N   LIG d   1      11.404   4.720  -0.252  0.00  0.00    -0.282 N 
ATOM     36  H   LIG d   1      11.122   5.016   0.627  0.00  0.00     0.164 HD
ATOM     37  H   LIG d   1      11.781   3.833  -0.368  0.00  0.00     0.164 HD
ENDBRANCH  33  35
ENDBRANCH   6  32
BRANCH   5  38
ATOM     38  O   LIG d   1      10.456   8.696  -1.575  0.00  0.00    -0.491 OA
BRANCH  38  39
ATOM     39  C   LIG d   1       9.396   9.290  -0.824  0.00  0.00     0.079 C 
ATOM     40  H   LIG d   1       9.806   9.771   0.065  0.00  0.00     0.066 H 
ATOM     41  H   LIG d   1       8.888  10.035  -1.437  0.00  0.00     0.066 H 
ATOM     42  H   LIG d   1       8.685   8.519  -0.524  0.00  0.00     0.066 H 
ENDBRANCH  38  39
ENDBRANCH   5  38
TORSDOF 10
ENDMDL
MODEL 9
REMARK VINA RESULT:      -4.2      4.061      6.858
REMARK  10 active torsions:
REMARK  status: ('A' for Active; 'I' for Inactive)
REMARK    1  A    between atoms: C_1  and  N_2 
REMARK    2  A    between atoms: N_2  and  C_3 
REMARK    3  A    between atoms: N_5  and  C_6 
REMARK    4  A    between atoms: N_5  and  C_7 
REMARK    5  A    between atoms: C_7  and  C_8 
REMARK    6  A    between atoms: C_8  and  C_9 
REMARK    7  A    between atoms: C_13  and  O_18 
REMARK    8  A    between atoms: C_14  and  C_15 
REMARK    9  A    between atoms: N_16  and  N_17 
REMARK   10  A    between atoms: O_18  and  C_19 
ROOT
ATOM      1  C   LIG d   1       8.577   1.555  -4.723  0.00  0.00    -0.030 A 
ATOM      2  C   LIG d   1       8.953   2.189  -3.558  0.00  0.00    -0.012 A 
ATOM      3  C   LIG d   1       9.520   3.456  -3.600  0.00  0.00     0.170 A 
ATOM      4  C   LIG d   1       9.701   4.099  -4.822  0.00  0.00     0.208 A 
ATOM      5  C   LIG d   1       9.321   3.472  -5.998  0.00  0.00     0.174 A 
ATOM      6  C   LIG d   1       8.754   2.191  -5.954  0.00  0.00     0.043 A 
ATOM      7  O   LIG d   1      10.267   5.322  -4.591  0.00  0.00    -0.449 OA
ATOM      8  C   LIG d   1      10.803   5.251  -3.257  0.00  0.00     0.233 C 
ATOM      9  O   LIG d   1       9.970   4.275  -2.605  0.00  0.00    -0.453 OA
ATOM     10  H   LIG d   1       8.810   1.696  -2.607  0.00  0.00     0.066 H 
ATOM     11  H   LIG d   1      11.840   4.917  -3.278  0.00  0.00     0.117 H 
ATOM     12  H   LIG d   1      10.721   6.218  -2.760  0.00  0.00     0.117 H 
ENDROOT
BRANCH   1  13
ATOM     13  C   LIG d   1       7.967   0.178  -4.668  0.00  0.00    -0.011 C 
ATOM     14  H   LIG d   1       8.723  -0.541  -4.352  0.00  0.00     0.033 H 
ATOM     15  H   LIG d   1       7.597  -0.095  -5.656  0.00  0.00     0.033 H 
BRANCH  13  16
ATOM     16  C   LIG d   1       6.808   0.172  -3.669  0.00  0.00     0.017 C 
ATOM     17  H   LIG d   1       6.657   1.180  -3.283  0.00  0.00     0.047 H 
ATOM     18  H   LIG d   1       7.042  -0.501  -2.844  0.00  0.00     0.047 H 
BRANCH  16  19
ATOM     19  N   LIG d   1       5.588  -0.283  -4.339  0.00  0.00    -0.316 N 
ATOM     20  C   LIG d   1       4.397  -0.174  -3.716  0.00  0.00     0.132 C 
ATOM     21  S   LIG d   1       4.311   0.495  -2.143  0.00  0.00    -0.019 SA
BRANCH  20  22
ATOM     22  N   LIG d   1       3.274  -0.594  -4.332  0.00  0.00    -0.330 N 
ATOM     23  H   LIG d   1       3.113  -1.543  -4.453  0.00  0.00     0.147 HD
BRANCH  22  24
ATOM     24  C   LIG d   1       2.297   0.383  -4.820  0.00  0.00    -0.001 C 
ATOM     25  H   LIG d   1       2.818   1.264  -5.192  0.00  0.00     0.043 H 
ATOM     26  H   LIG d   1       1.711  -0.060  -5.624  0.00  0.00     0.043 H 
ATOM     27  H   LIG d   1       1.634   0.672  -4.003  0.00  0.00     0.043 H 
ENDBRANCH  22  24
ENDBRANCH  20  22
BRANCH  19  28
ATOM     28  C   LIG d   1       5.661  -0.856  -5.685  0.00  0.00     0.002 C 
ATOM     29  H   LIG d   1       6.626  -0.614  -6.131  0.00  0.00     0.043 H 
ATOM     30  H   LIG d   1       5.550  -1.939  -5.625  0.00  0.00     0.043 H 
ATOM     31  H   LIG d   1       4.862  -0.443  -6.300  0.00  0.00     0.043 H 
ENDBRANCH  19  28
ENDBRANCH  16  19
ENDBRANCH  13  16
ENDBRANCH   1  13
BRANCH   6  32
ATOM     32  C   LIG d   1       8.347   1.519  -7.200  0.00  0.00     0.056 C 
ATOM     33  N   LIG d   1       7.169   1.737  -7.700  0.00  0.00    -0.197 NA
ATOM     34  H   LIG d   1       9.028   0.845  -7.698  0.00  0.00     0.085 H 
BRANCH  33  35
ATOM     35  N   LIG d   1       6.781   1.097  -8.885  0.00  0.00    -0.282 N 
ATOM     36  H   LIG d   1       6.015   0.504  -8.888  0.00  0.00     0.164 HD
ATOM     37  H   LIG d   1       7.280   1.248  -9.703  0.00  0.00     0.164 HD
ENDBRANCH  33  35
ENDBRANCH   6  32
BRANCH   5  38
ATOM     38  O   LIG d   1       9.497   4.098  -7.192  0.00  0.00    -0.491 OA
BRANCH  38  39
ATOM     39  C   LIG d   1      10.818   4.093  -7.738  0.00  0.00     0.079 C 
ATOM     40  H   LIG d   1      11.127   5.118  -7.949  0.00  0.00     0.066 H 
ATOM     41  H   LIG d   1      11.507   3.648  -7.020  0.00  0.00     0.066 H 
ATOM     42  H   LIG d   1      10.828   3.514  -8.661  0.00  0.00     0.066 H 
ENDBRANCH  38  39
ENDBRANCH   5  38
TORSDOF 10
ENDMDL
MODEL 10
REMARK VINA RESULT:      -4.2      7.406     10.394
REMARK  10 active torsions:
REMARK  status: ('A' for Active; 'I' for Inactive)
REMARK    1  A    between atoms: C_1  and  N_2 
REMARK    2  A    between atoms: N_2  and  C_3 
REMARK    3  A    between atoms: N_5  and  C_6 
REMARK    4  A    between atoms: N_5  and  C_7 
REMARK    5  A    between atoms: C_7  and  C_8 
REMARK    6  A    between atoms: C_8  and  C_9 
REMARK    7  A    between atoms: C_13  and  O_18 
REMARK    8  A    between atoms: C_14  and  C_15 
REMARK    9  A    between atoms: N_16  and  N_17 
REMARK   10  A    between atoms: O_18  and  C_19 
ROOT
ATOM      1  C   LIG d   1       9.496   6.258  -4.191  0.00  0.00    -0.030 A 
ATOM      2  C   LIG d   1       9.356   7.054  -5.307  0.00  0.00    -0.012 A 
ATOM      3  C   LIG d   1       9.640   8.411  -5.242  0.00  0.00     0.170 A 
ATOM      4  C   LIG d   1      10.079   8.975  -4.047  0.00  0.00     0.208 A 
ATOM      5  C   LIG d   1      10.228   8.182  -2.920  0.00  0.00     0.174 A 
ATOM      6  C   LIG d   1       9.936   6.813  -2.987  0.00  0.00     0.043 A 
ATOM      7  O   LIG d   1      10.291  10.311  -4.247  0.00  0.00    -0.449 OA
ATOM      8  C   LIG d   1       9.589  10.633  -5.461  0.00  0.00     0.233 C 
ATOM      9  O   LIG d   1       9.577   9.392  -6.190  0.00  0.00    -0.453 OA
ATOM     10  H   LIG d   1       9.019   6.619  -6.238  0.00  0.00     0.066 H 
ATOM     11  H   LIG d   1       8.571  10.957  -5.241  0.00  0.00     0.117 H 
ATOM     12  H   LIG d   1      10.123  11.400  -6.021  0.00  0.00     0.117 H 
ENDROOT
BRANCH   1  13
ATOM     13  C   LIG d   1       9.180   4.786  -4.270  0.00  0.00    -0.011 C 
ATOM     14  H   LIG d   1       8.248   4.644  -4.817  0.00  0.00     0.033 H 
ATOM     15  H   LIG d   1       9.075   4.383  -3.263  0.00  0.00     0.033 H 
BRANCH  13  16
ATOM     16  C   LIG d   1      10.314   4.059  -4.995  0.00  0.00     0.017 C 
ATOM     17  H   LIG d   1      11.250   4.596  -4.837  0.00  0.00     0.047 H 
ATOM     18  H   LIG d   1      10.096   4.018  -6.063  0.00  0.00     0.047 H 
BRANCH  16  19
ATOM     19  N   LIG d   1      10.437   2.698  -4.470  0.00  0.00    -0.316 N 
ATOM     20  C   LIG d   1      10.019   1.651  -5.207  0.00  0.00     0.132 C 
ATOM     21  S   LIG d   1       9.343   1.911  -6.758  0.00  0.00    -0.019 SA
BRANCH  20  22
ATOM     22  N   LIG d   1      10.131   0.397  -4.724  0.00  0.00    -0.330 N 
ATOM     23  H   LIG d   1       9.671   0.150  -3.906  0.00  0.00     0.147 HD
BRANCH  22  24
ATOM     24  C   LIG d   1      10.948  -0.591  -5.432  0.00  0.00    -0.001 C 
ATOM     25  H   LIG d   1      11.181  -0.222  -6.430  0.00  0.00     0.043 H 
ATOM     26  H   LIG d   1      11.872  -0.760  -4.881  0.00  0.00     0.043 H 
ATOM     27  H   LIG d   1      10.396  -1.529  -5.511  0.00  0.00     0.043 H 
ENDBRANCH  22  24
ENDBRANCH  20  22
BRANCH  19  28
ATOM     28  C   LIG d   1      11.015   2.474  -3.142  0.00  0.00     0.002 C 
ATOM     29  H   LIG d   1      11.403   3.415  -2.752  0.00  0.00     0.043 H 
ATOM     30  H   LIG d   1      10.246   2.092  -2.471  0.00  0.00     0.043 H 
ATOM     31  H   LIG d   1      11.826   1.750  -3.216  0.00  0.00     0.043 H 
ENDBRANCH  19  28
ENDBRANCH  16  19
ENDBRANCH  13  16
ENDBRANCH   1  13
BRANCH   6  32
ATOM     32  C   LIG d   1      10.093   5.964  -1.794  0.00  0.00     0.056 C 
ATOM     33  N   LIG d   1      11.273   5.563  -1.433  0.00  0.00    -0.197 NA
ATOM     34  H   LIG d   1       9.225   5.675  -1.218  0.00  0.00     0.085 H 
BRANCH  33  35
ATOM     35  N   LIG d   1      11.422   4.755  -0.297  0.00  0.00    -0.282 N 
ATOM     36  H   LIG d   1      12.291   4.389  -0.072  0.00  0.00     0.164 HD
ATOM     37  H   LIG d   1      10.655   4.562   0.264  0.00  0.00     0.164 HD
ENDBRANCH  33  35
ENDBRANCH   6  32
BRANCH   5  38
ATOM     38  O   LIG d   1      10.657   8.731  -1.752  0.00  0.00    -0.491 OA
BRANCH  38  39
ATOM     39  C   LIG d   1       9.687   9.429  -0.968  0.00  0.00     0.079 C 
ATOM     40  H   LIG d   1       8.896   8.739  -0.671  0.00  0.00     0.066 H 
ATOM     41  H   LIG d   1      10.165   9.838  -0.078  0.00  0.00     0.066 H 
ATOM     42  H   LIG d   1       9.259  10.240  -1.558  0.00  0.00     0.066 H 
ENDBRANCH  38  39
ENDBRANCH   5  38
TORSDOF 10
ENDMDL
