MODEL 1
REMARK VINA RESULT:      -6.3      0.000      0.000
REMARK  9 active torsions:
REMARK  status: ('A' for Active; 'I' for Inactive)
REMARK    1  A    between atoms: C_1  and  C_2 
REMARK    2  A    between atoms: C_5  and  N_23 
REMARK    3  A    between atoms: C_10  and  C_11 
REMARK    4  A    between atoms: C_11  and  C_13 
REMARK    5  A    between atoms: C_15  and  O_21 
REMARK    6  A    between atoms: C_18  and  O_19 
REMARK    7  A    between atoms: O_19  and  C_20 
REMARK    8  A    between atoms: O_21  and  C_22 
REMARK       I    between atoms: N_23  and  C_24 
REMARK    9  A    between atoms: C_24  and  C_26 
ROOT
ATOM      1  C   LIG d   1       2.327  -2.393 -10.105  0.00  0.00     0.006 A 
ATOM      2  C   LIG d   1       2.653  -1.260  -9.241  0.00  0.00     0.025 A 
ATOM      3  C   LIG d   1       3.213  -1.140  -7.966  0.00  0.00    -0.029 A 
ATOM      4  C   LIG d   1       3.387   0.116  -7.415  0.00  0.00     0.035 A 
ATOM      5  C   LIG d   1       3.007   1.252  -8.126  0.00  0.00    -0.037 A 
ATOM      6  C   LIG d   1       2.454   1.143  -9.383  0.00  0.00    -0.017 A 
ATOM      7  C   LIG d   1       2.270  -0.110  -9.957  0.00  0.00     0.136 A 
ATOM      8  O   LIG d   1       1.766  -0.516 -11.140  0.00  0.00    -0.451 OA
ATOM      9  C   LIG d   1       1.798  -1.861 -11.241  0.00  0.00     0.179 A 
ATOM     10  H   LIG d   1       3.508  -2.021  -7.416  0.00  0.00     0.064 H 
ATOM     11  H   LIG d   1       3.146   2.230  -7.688  0.00  0.00     0.064 H 
ATOM     12  H   LIG d   1       2.163   2.031  -9.924  0.00  0.00     0.066 H 
ENDROOT
BRANCH   9  13
ATOM     13  C   LIG d   1       1.328  -2.633 -12.397  0.00  0.00     0.232 C 
ATOM     14  O   LIG d   1       2.131  -3.184 -13.127  0.00  0.00    -0.283 OA
BRANCH  13  15
ATOM     15  C   LIG d   1      -0.116  -2.747 -12.671  0.00  0.00     0.070 A 
ATOM     16  C   LIG d   1      -0.812  -3.911 -12.313  0.00  0.00     0.131 A 
ATOM     17  C   LIG d   1      -2.170  -4.010 -12.574  0.00  0.00    -0.016 A 
ATOM     18  C   LIG d   1      -2.837  -2.968 -13.185  0.00  0.00    -0.017 A 
ATOM     19  H   LIG d   1      -2.708  -4.906 -12.298  0.00  0.00     0.066 H 
ATOM     20  C   LIG d   1      -2.153  -1.811 -13.543  0.00  0.00     0.121 A 
ATOM     21  H   LIG d   1      -3.894  -3.051 -13.386  0.00  0.00     0.066 H 
ATOM     22  C   LIG d   1      -0.801  -1.695 -13.285  0.00  0.00    -0.005 A 
ATOM     23  H   LIG d   1      -0.273  -0.793 -13.559  0.00  0.00     0.066 H 
BRANCH  16  24
ATOM     24  O   LIG d   1      -0.157  -4.937 -11.712  0.00  0.00    -0.494 OA
BRANCH  24  25
ATOM     25  C   LIG d   1      -0.677  -5.394 -10.461  0.00  0.00     0.079 C 
ATOM     26  H   LIG d   1      -0.408  -6.440 -10.317  0.00  0.00     0.066 H 
ATOM     27  H   LIG d   1      -0.257  -4.795  -9.653  0.00  0.00     0.066 H 
ATOM     28  H   LIG d   1      -1.762  -5.295 -10.461  0.00  0.00     0.066 H 
ENDBRANCH  24  25
ENDBRANCH  16  24
BRANCH  20  29
ATOM     29  O   LIG d   1      -2.819  -0.789 -14.143  0.00  0.00    -0.495 OA
BRANCH  29  30
ATOM     30  C   LIG d   1      -2.857   0.459 -13.447  0.00  0.00     0.079 C 
ATOM     31  H   LIG d   1      -3.847   0.903 -13.549  0.00  0.00     0.066 H 
ATOM     32  H   LIG d   1      -2.642   0.292 -12.391  0.00  0.00     0.066 H 
ATOM     33  H   LIG d   1      -2.111   1.133 -13.867  0.00  0.00     0.066 H 
ENDBRANCH  29  30
ENDBRANCH  20  29
ENDBRANCH  13  15
ENDBRANCH   9  13
BRANCH   1  34
ATOM     34  C   LIG d   1       2.535  -3.854  -9.802  0.00  0.00    -0.035 C 
ATOM     35  H   LIG d   1       1.570  -4.330  -9.628  0.00  0.00     0.028 H 
ATOM     36  H   LIG d   1       3.030  -4.333 -10.647  0.00  0.00     0.028 H 
ATOM     37  H   LIG d   1       3.156  -3.956  -8.912  0.00  0.00     0.028 H 
ENDBRANCH   1  34
BRANCH   4  38
ATOM     38  N   LIG d   1       3.948   0.246  -6.139  0.00  0.00    -0.279 N 
ATOM     39  C   LIG d   1       3.154   0.234  -5.049  0.00  0.00     0.283 C 
ATOM     40  O   LIG d   1       1.945   0.192  -5.178  0.00  0.00    -0.267 OA
ATOM     41  H   LIG d   1       4.908   0.344  -6.038  0.00  0.00     0.155 HD
BRANCH  39  42
ATOM     42  C   LIG d   1       3.748   0.272  -3.709  0.00  0.00     0.189 A 
ATOM     43  O   LIG d   1       4.412   1.312  -3.165  0.00  0.00    -0.458 OA
ATOM     44  C   LIG d   1       4.809   0.989  -1.927  0.00  0.00     0.093 A 
ATOM     45  C   LIG d   1       4.412  -0.275  -1.660  0.00  0.00    -0.023 A 
ATOM     46  H   LIG d   1       5.360   1.630  -1.256  0.00  0.00     0.103 H 
ATOM     47  C   LIG d   1       3.731  -0.743  -2.795  0.00  0.00    -0.011 A 
ATOM     48  H   LIG d   1       4.584  -0.822  -0.745  0.00  0.00     0.065 H 
ATOM     49  H   LIG d   1       3.281  -1.716  -2.921  0.00  0.00     0.066 H 
ENDBRANCH  39  42
ENDBRANCH   4  38
TORSDOF 9
ENDMDL
MODEL 2
REMARK VINA RESULT:      -6.2      8.258     13.267
REMARK  9 active torsions:
REMARK  status: ('A' for Active; 'I' for Inactive)
REMARK    1  A    between atoms: C_1  and  C_2 
REMARK    2  A    between atoms: C_5  and  N_23 
REMARK    3  A    between atoms: C_10  and  C_11 
REMARK    4  A    between atoms: C_11  and  C_13 
REMARK    5  A    between atoms: C_15  and  O_21 
REMARK    6  A    between atoms: C_18  and  O_19 
REMARK    7  A    between atoms: O_19  and  C_20 
REMARK    8  A    between atoms: O_21  and  C_22 
REMARK       I    between atoms: N_23  and  C_24 
REMARK    9  A    between atoms: C_24  and  C_26 
ROOT
ATOM      1  C   LIG d   1      10.184   4.758  -3.439  0.00  0.00     0.006 A 
ATOM      2  C   LIG d   1       9.469   3.655  -4.079  0.00  0.00     0.025 A 
ATOM      3  C   LIG d   1       8.757   2.552  -3.601  0.00  0.00    -0.029 A 
ATOM      4  C   LIG d   1       8.189   1.667  -4.498  0.00  0.00     0.035 A 
ATOM      5  C   LIG d   1       8.327   1.876  -5.870  0.00  0.00    -0.037 A 
ATOM      6  C   LIG d   1       9.027   2.960  -6.350  0.00  0.00    -0.017 A 
ATOM      7  C   LIG d   1       9.606   3.863  -5.464  0.00  0.00     0.136 A 
ATOM      8  O   LIG d   1      10.331   4.987  -5.639  0.00  0.00    -0.451 OA
ATOM      9  C   LIG d   1      10.675   5.526  -4.451  0.00  0.00     0.179 A 
ATOM     10  H   LIG d   1       8.651   2.391  -2.539  0.00  0.00     0.064 H 
ATOM     11  H   LIG d   1       7.880   1.179  -6.565  0.00  0.00     0.064 H 
ATOM     12  H   LIG d   1       9.126   3.111  -7.414  0.00  0.00     0.066 H 
ENDROOT
BRANCH   9  13
ATOM     13  C   LIG d   1      11.463   6.752  -4.276  0.00  0.00     0.232 C 
ATOM     14  O   LIG d   1      12.676   6.689  -4.201  0.00  0.00    -0.283 OA
BRANCH  13  15
ATOM     15  C   LIG d   1      10.786   8.060  -4.199  0.00  0.00     0.070 A 
ATOM     16  C   LIG d   1      10.402   8.725  -5.373  0.00  0.00     0.131 A 
ATOM     17  C   LIG d   1       9.766   9.954  -5.291  0.00  0.00    -0.016 A 
ATOM     18  C   LIG d   1       9.511  10.523  -4.061  0.00  0.00    -0.017 A 
ATOM     19  H   LIG d   1       9.469  10.468  -6.195  0.00  0.00     0.066 H 
ATOM     20  C   LIG d   1       9.888   9.869  -2.893  0.00  0.00     0.121 A 
ATOM     21  H   LIG d   1       9.015  11.481  -4.003  0.00  0.00     0.066 H 
ATOM     22  C   LIG d   1      10.518   8.641  -2.957  0.00  0.00    -0.005 A 
ATOM     23  H   LIG d   1      10.806   8.133  -2.048  0.00  0.00     0.066 H 
BRANCH  16  24
ATOM     24  O   LIG d   1      10.653   8.166  -6.584  0.00  0.00    -0.494 OA
BRANCH  24  25
ATOM     25  C   LIG d   1       9.527   7.914  -7.427  0.00  0.00     0.079 C 
ATOM     26  H   LIG d   1       9.621   8.498  -8.343  0.00  0.00     0.066 H 
ATOM     27  H   LIG d   1       9.488   6.853  -7.674  0.00  0.00     0.066 H 
ATOM     28  H   LIG d   1       8.612   8.199  -6.907  0.00  0.00     0.066 H 
ENDBRANCH  24  25
ENDBRANCH  16  24
BRANCH  20  29
ATOM     29  O   LIG d   1       9.631  10.437  -1.684  0.00  0.00    -0.495 OA
BRANCH  29  30
ATOM     30  C   LIG d   1       8.853   9.672  -0.761  0.00  0.00     0.079 C 
ATOM     31  H   LIG d   1       8.077  10.304  -0.329  0.00  0.00     0.066 H 
ATOM     32  H   LIG d   1       8.390   8.834  -1.282  0.00  0.00     0.066 H 
ATOM     33  H   LIG d   1       9.498   9.295   0.033  0.00  0.00     0.066 H 
ENDBRANCH  29  30
ENDBRANCH  20  29
ENDBRANCH  13  15
ENDBRANCH   9  13
BRANCH   1  34
ATOM     34  C   LIG d   1      10.345   4.998  -1.961  0.00  0.00    -0.035 C 
ATOM     35  H   LIG d   1      10.125   6.042  -1.737  0.00  0.00     0.028 H 
ATOM     36  H   LIG d   1       9.657   4.355  -1.412  0.00  0.00     0.028 H 
ATOM     37  H   LIG d   1      11.369   4.771  -1.664  0.00  0.00     0.028 H 
ENDBRANCH   1  34
BRANCH   4  38
ATOM     38  N   LIG d   1       7.474   0.559  -4.029  0.00  0.00    -0.279 N 
ATOM     39  C   LIG d   1       6.217   0.714  -3.568  0.00  0.00     0.283 C 
ATOM     40  O   LIG d   1       5.732   1.827  -3.484  0.00  0.00    -0.267 OA
ATOM     41  H   LIG d   1       7.883  -0.321  -4.035  0.00  0.00     0.155 HD
BRANCH  39  42
ATOM     42  C   LIG d   1       5.434  -0.459  -3.167  0.00  0.00     0.189 A 
ATOM     43  O   LIG d   1       5.326  -1.614  -3.855  0.00  0.00    -0.458 OA
ATOM     44  C   LIG d   1       4.532  -2.460  -3.186  0.00  0.00     0.093 A 
ATOM     45  C   LIG d   1       4.107  -1.853  -2.055  0.00  0.00    -0.023 A 
ATOM     46  H   LIG d   1       4.270  -3.459  -3.499  0.00  0.00     0.103 H 
ATOM     47  C   LIG d   1       4.679  -0.571  -2.034  0.00  0.00    -0.011 A 
ATOM     48  H   LIG d   1       3.452  -2.274  -1.307  0.00  0.00     0.065 H 
ATOM     49  H   LIG d   1       4.549   0.180  -1.269  0.00  0.00     0.066 H 
ENDBRANCH  39  42
ENDBRANCH   4  38
TORSDOF 9
ENDMDL
MODEL 3
REMARK VINA RESULT:      -6.2      0.984      2.489
REMARK  9 active torsions:
REMARK  status: ('A' for Active; 'I' for Inactive)
REMARK    1  A    between atoms: C_1  and  C_2 
REMARK    2  A    between atoms: C_5  and  N_23 
REMARK    3  A    between atoms: C_10  and  C_11 
REMARK    4  A    between atoms: C_11  and  C_13 
REMARK    5  A    between atoms: C_15  and  O_21 
REMARK    6  A    between atoms: C_18  and  O_19 
REMARK    7  A    between atoms: O_19  and  C_20 
REMARK    8  A    between atoms: O_21  and  C_22 
REMARK       I    between atoms: N_23  and  C_24 
REMARK    9  A    between atoms: C_24  and  C_26 
ROOT
ATOM      1  C   LIG d   1       2.414  -2.630  -9.998  0.00  0.00     0.006 A 
ATOM      2  C   LIG d   1       2.683  -1.458  -9.167  0.00  0.00     0.025 A 
ATOM      3  C   LIG d   1       3.258  -1.272  -7.907  0.00  0.00    -0.029 A 
ATOM      4  C   LIG d   1       3.362   0.005  -7.388  0.00  0.00     0.035 A 
ATOM      5  C   LIG d   1       2.896   1.098  -8.118  0.00  0.00    -0.037 A 
ATOM      6  C   LIG d   1       2.327   0.923  -9.360  0.00  0.00    -0.017 A 
ATOM      7  C   LIG d   1       2.213  -0.352  -9.900  0.00  0.00     0.136 A 
ATOM      8  O   LIG d   1       1.714  -0.818 -11.064  0.00  0.00    -0.451 OA
ATOM      9  C   LIG d   1       1.830  -2.160 -11.134  0.00  0.00     0.179 A 
ATOM     10  H   LIG d   1       3.619  -2.118  -7.342  0.00  0.00     0.064 H 
ATOM     11  H   LIG d   1       2.980   2.093  -7.705  0.00  0.00     0.064 H 
ATOM     12  H   LIG d   1       1.970   1.778  -9.915  0.00  0.00     0.066 H 
ENDROOT
BRANCH   9  13
ATOM     13  C   LIG d   1       1.389  -2.988 -12.263  0.00  0.00     0.232 C 
ATOM     14  O   LIG d   1       2.153  -3.218 -13.183  0.00  0.00    -0.283 OA
BRANCH  13  15
ATOM     15  C   LIG d   1       0.025  -3.548 -12.279  0.00  0.00     0.070 A 
ATOM     16  C   LIG d   1      -0.969  -2.961 -13.076  0.00  0.00     0.131 A 
ATOM     17  C   LIG d   1      -2.248  -3.494 -13.085  0.00  0.00    -0.016 A 
ATOM     18  C   LIG d   1      -2.546  -4.599 -12.313  0.00  0.00    -0.017 A 
ATOM     19  H   LIG d   1      -3.015  -3.043 -13.698  0.00  0.00     0.066 H 
ATOM     20  C   LIG d   1      -1.565  -5.186 -11.521  0.00  0.00     0.121 A 
ATOM     21  H   LIG d   1      -3.544  -5.009 -12.324  0.00  0.00     0.066 H 
ATOM     22  C   LIG d   1      -0.284  -4.670 -11.505  0.00  0.00    -0.005 A 
ATOM     23  H   LIG d   1       0.478  -5.131 -10.893  0.00  0.00     0.066 H 
BRANCH  16  24
ATOM     24  O   LIG d   1      -0.678  -1.874 -13.835  0.00  0.00    -0.494 OA
BRANCH  24  25
ATOM     25  C   LIG d   1      -1.552  -1.596 -14.931  0.00  0.00     0.079 C 
ATOM     26  H   LIG d   1      -2.554  -1.955 -14.696  0.00  0.00     0.066 H 
ATOM     27  H   LIG d   1      -1.583  -0.521 -15.107  0.00  0.00     0.066 H 
ATOM     28  H   LIG d   1      -1.186  -2.100 -15.825  0.00  0.00     0.066 H 
ENDBRANCH  24  25
ENDBRANCH  16  24
BRANCH  20  29
ATOM     29  O   LIG d   1      -1.867  -6.275 -10.765  0.00  0.00    -0.495 OA
BRANCH  29  30
ATOM     30  C   LIG d   1      -2.295  -6.035  -9.423  0.00  0.00     0.079 C 
ATOM     31  H   LIG d   1      -2.013  -6.880  -8.794  0.00  0.00     0.066 H 
ATOM     32  H   LIG d   1      -1.818  -5.129  -9.047  0.00  0.00     0.066 H 
ATOM     33  H   LIG d   1      -3.377  -5.911  -9.402  0.00  0.00     0.066 H 
ENDBRANCH  29  30
ENDBRANCH  20  29
ENDBRANCH  13  15
ENDBRANCH   9  13
BRANCH   1  34
ATOM     34  C   LIG d   1       2.721  -4.067  -9.665  0.00  0.00    -0.035 C 
ATOM     35  H   LIG d   1       3.501  -4.435 -10.333  0.00  0.00     0.028 H 
ATOM     36  H   LIG d   1       3.064  -4.136  -8.633  0.00  0.00     0.028 H 
ATOM     37  H   LIG d   1       1.822  -4.670  -9.791  0.00  0.00     0.028 H 
ENDBRANCH   1  34
BRANCH   4  38
ATOM     38  N   LIG d   1       3.937   0.202  -6.127  0.00  0.00    -0.279 N 
ATOM     39  C   LIG d   1       3.157   0.234  -5.028  0.00  0.00     0.283 C 
ATOM     40  O   LIG d   1       1.947   0.174  -5.138  0.00  0.00    -0.267 OA
ATOM     41  H   LIG d   1       4.897   0.314  -6.043  0.00  0.00     0.155 HD
BRANCH  39  42
ATOM     42  C   LIG d   1       3.767   0.342  -3.699  0.00  0.00     0.189 A 
ATOM     43  O   LIG d   1       4.418   1.417  -3.209  0.00  0.00    -0.458 OA
ATOM     44  C   LIG d   1       4.837   1.156  -1.965  0.00  0.00     0.093 A 
ATOM     45  C   LIG d   1       4.467  -0.103  -1.637  0.00  0.00    -0.023 A 
ATOM     46  H   LIG d   1       5.384   1.836  -1.329  0.00  0.00     0.103 H 
ATOM     47  C   LIG d   1       3.782  -0.633  -2.741  0.00  0.00    -0.011 A 
ATOM     48  H   LIG d   1       4.662  -0.606  -0.702  0.00  0.00     0.065 H 
ATOM     49  H   LIG d   1       3.349  -1.619  -2.818  0.00  0.00     0.066 H 
ENDBRANCH  39  42
ENDBRANCH   4  38
TORSDOF 9
ENDMDL
MODEL 4
REMARK VINA RESULT:      -6.0      8.232     13.180
REMARK  9 active torsions:
REMARK  status: ('A' for Active; 'I' for Inactive)
REMARK    1  A    between atoms: C_1  and  C_2 
REMARK    2  A    between atoms: C_5  and  N_23 
REMARK    3  A    between atoms: C_10  and  C_11 
REMARK    4  A    between atoms: C_11  and  C_13 
REMARK    5  A    between atoms: C_15  and  O_21 
REMARK    6  A    between atoms: C_18  and  O_19 
REMARK    7  A    between atoms: O_19  and  C_20 
REMARK    8  A    between atoms: O_21  and  C_22 
REMARK       I    between atoms: N_23  and  C_24 
REMARK    9  A    between atoms: C_24  and  C_26 
ROOT
ATOM      1  C   LIG d   1      10.171   4.669  -3.460  0.00  0.00     0.006 A 
ATOM      2  C   LIG d   1       9.443   3.576  -4.102  0.00  0.00     0.025 A 
ATOM      3  C   LIG d   1       8.730   2.472  -3.626  0.00  0.00    -0.029 A 
ATOM      4  C   LIG d   1       8.148   1.599  -4.526  0.00  0.00     0.035 A 
ATOM      5  C   LIG d   1       8.273   1.818  -5.897  0.00  0.00    -0.037 A 
ATOM      6  C   LIG d   1       8.974   2.903  -6.374  0.00  0.00    -0.017 A 
ATOM      7  C   LIG d   1       9.567   3.795  -5.487  0.00  0.00     0.136 A 
ATOM      8  O   LIG d   1      10.296   4.916  -5.659  0.00  0.00    -0.451 OA
ATOM      9  C   LIG d   1      10.656   5.443  -4.470  0.00  0.00     0.179 A 
ATOM     10  H   LIG d   1       8.634   2.303  -2.565  0.00  0.00     0.064 H 
ATOM     11  H   LIG d   1       7.815   1.131  -6.593  0.00  0.00     0.064 H 
ATOM     12  H   LIG d   1       9.063   3.063  -7.439  0.00  0.00     0.066 H 
ENDROOT
BRANCH   9  13
ATOM     13  C   LIG d   1      11.452   6.663  -4.292  0.00  0.00     0.232 C 
ATOM     14  O   LIG d   1      12.631   6.582  -3.999  0.00  0.00    -0.283 OA
BRANCH  13  15
ATOM     15  C   LIG d   1      10.827   7.986  -4.477  0.00  0.00     0.070 A 
ATOM     16  C   LIG d   1      10.454   8.751  -3.363  0.00  0.00     0.131 A 
ATOM     17  C   LIG d   1       9.867   9.994  -3.546  0.00  0.00    -0.016 A 
ATOM     18  C   LIG d   1       9.650  10.478  -4.820  0.00  0.00    -0.017 A 
ATOM     19  H   LIG d   1       9.579  10.585  -2.689  0.00  0.00     0.066 H 
ATOM     20  C   LIG d   1      10.018   9.724  -5.929  0.00  0.00     0.121 A 
ATOM     21  H   LIG d   1       9.192  11.446  -4.957  0.00  0.00     0.066 H 
ATOM     22  C   LIG d   1      10.609   8.486  -5.764  0.00  0.00    -0.005 A 
ATOM     23  H   LIG d   1      10.898   7.905  -6.627  0.00  0.00     0.066 H 
BRANCH  16  24
ATOM     24  O   LIG d   1      10.667   8.276  -2.110  0.00  0.00    -0.494 OA
BRANCH  24  25
ATOM     25  C   LIG d   1       9.610   8.450  -1.162  0.00  0.00     0.079 C 
ATOM     26  H   LIG d   1       8.843   7.695  -1.332  0.00  0.00     0.066 H 
ATOM     27  H   LIG d   1      10.007   8.345  -0.153  0.00  0.00     0.066 H 
ATOM     28  H   LIG d   1       9.176   9.443  -1.281  0.00  0.00     0.066 H 
ENDBRANCH  24  25
ENDBRANCH  16  24
BRANCH  20  29
ATOM     29  O   LIG d   1       9.801  10.210  -7.181  0.00  0.00    -0.495 OA
BRANCH  29  30
ATOM     30  C   LIG d   1      10.827  11.030  -7.745  0.00  0.00     0.079 C 
ATOM     31  H   LIG d   1      11.265  10.524  -8.606  0.00  0.00     0.066 H 
ATOM     32  H   LIG d   1      10.398  11.980  -8.064  0.00  0.00     0.066 H 
ATOM     33  H   LIG d   1      11.600  11.212  -6.999  0.00  0.00     0.066 H 
ENDBRANCH  29  30
ENDBRANCH  20  29
ENDBRANCH  13  15
ENDBRANCH   9  13
BRANCH   1  34
ATOM     34  C   LIG d   1      10.348   4.895  -1.982  0.00  0.00    -0.035 C 
ATOM     35  H   LIG d   1       9.372   5.036  -1.516  0.00  0.00     0.028 H 
ATOM     36  H   LIG d   1      10.841   4.030  -1.538  0.00  0.00     0.028 H 
ATOM     37  H   LIG d   1      10.958   5.783  -1.819  0.00  0.00     0.028 H 
ENDBRANCH   1  34
BRANCH   4  38
ATOM     38  N   LIG d   1       7.431   0.490  -4.058  0.00  0.00    -0.279 N 
ATOM     39  C   LIG d   1       6.175   0.646  -3.595  0.00  0.00     0.283 C 
ATOM     40  O   LIG d   1       5.693   1.760  -3.506  0.00  0.00    -0.267 OA
ATOM     41  H   LIG d   1       7.838  -0.390  -4.068  0.00  0.00     0.155 HD
BRANCH  39  42
ATOM     42  C   LIG d   1       5.390  -0.526  -3.197  0.00  0.00     0.189 A 
ATOM     43  O   LIG d   1       5.313  -1.694  -3.867  0.00  0.00    -0.458 OA
ATOM     44  C   LIG d   1       4.507  -2.535  -3.206  0.00  0.00     0.093 A 
ATOM     45  C   LIG d   1       4.043  -1.912  -2.099  0.00  0.00    -0.023 A 
ATOM     46  H   LIG d   1       4.263  -3.541  -3.510  0.00  0.00     0.103 H 
ATOM     47  C   LIG d   1       4.603  -0.625  -2.084  0.00  0.00    -0.011 A 
ATOM     48  H   LIG d   1       3.369  -2.326  -1.364  0.00  0.00     0.065 H 
ATOM     49  H   LIG d   1       4.444   0.139  -1.337  0.00  0.00     0.066 H 
ENDBRANCH  39  42
ENDBRANCH   4  38
TORSDOF 9
ENDMDL
MODEL 5
REMARK VINA RESULT:      -6.0      5.642     12.492
REMARK  9 active torsions:
REMARK  status: ('A' for Active; 'I' for Inactive)
REMARK    1  A    between atoms: C_1  and  C_2 
REMARK    2  A    between atoms: C_5  and  N_23 
REMARK    3  A    between atoms: C_10  and  C_11 
REMARK    4  A    between atoms: C_11  and  C_13 
REMARK    5  A    between atoms: C_15  and  O_21 
REMARK    6  A    between atoms: C_18  and  O_19 
REMARK    7  A    between atoms: O_19  and  C_20 
REMARK    8  A    between atoms: O_21  and  C_22 
REMARK       I    between atoms: N_23  and  C_24 
REMARK    9  A    between atoms: C_24  and  C_26 
ROOT
ATOM      1  C   LIG d   1       9.134   2.374  -5.558  0.00  0.00     0.006 A 
ATOM      2  C   LIG d   1       8.015   1.445  -5.407  0.00  0.00     0.025 A 
ATOM      3  C   LIG d   1       7.223   0.724  -6.305  0.00  0.00    -0.029 A 
ATOM      4  C   LIG d   1       6.212  -0.085  -5.822  0.00  0.00     0.035 A 
ATOM      5  C   LIG d   1       5.985  -0.180  -4.450  0.00  0.00    -0.037 A 
ATOM      6  C   LIG d   1       6.761   0.528  -3.558  0.00  0.00    -0.017 A 
ATOM      7  C   LIG d   1       7.784   1.347  -4.022  0.00  0.00     0.136 A 
ATOM      8  O   LIG d   1       8.682   2.139  -3.401  0.00  0.00    -0.451 OA
ATOM      9  C   LIG d   1       9.487   2.747  -4.298  0.00  0.00     0.179 A 
ATOM     10  H   LIG d   1       7.400   0.798  -7.367  0.00  0.00     0.064 H 
ATOM     11  H   LIG d   1       5.192  -0.814  -4.081  0.00  0.00     0.064 H 
ATOM     12  H   LIG d   1       6.575   0.446  -2.497  0.00  0.00     0.066 H 
ENDROOT
BRANCH   9  13
ATOM     13  C   LIG d   1      10.574   3.675  -3.963  0.00  0.00     0.232 C 
ATOM     14  O   LIG d   1      11.725   3.387  -4.239  0.00  0.00    -0.283 OA
BRANCH  13  15
ATOM     15  C   LIG d   1      10.273   4.957  -3.301  0.00  0.00     0.070 A 
ATOM     16  C   LIG d   1       9.876   6.067  -4.061  0.00  0.00     0.131 A 
ATOM     17  C   LIG d   1       9.595   7.269  -3.430  0.00  0.00    -0.016 A 
ATOM     18  C   LIG d   1       9.705   7.375  -2.058  0.00  0.00    -0.017 A 
ATOM     19  H   LIG d   1       9.288   8.125  -4.014  0.00  0.00     0.066 H 
ATOM     20  C   LIG d   1      10.098   6.279  -1.299  0.00  0.00     0.121 A 
ATOM     21  H   LIG d   1       9.485   8.314  -1.573  0.00  0.00     0.066 H 
ATOM     22  C   LIG d   1      10.377   5.073  -1.912  0.00  0.00    -0.005 A 
ATOM     23  H   LIG d   1      10.678   4.221  -1.319  0.00  0.00     0.066 H 
BRANCH  16  24
ATOM     24  O   LIG d   1       9.768   5.964  -5.410  0.00  0.00    -0.494 OA
BRANCH  24  25
ATOM     25  C   LIG d   1      10.711   6.697  -6.194  0.00  0.00     0.079 C 
ATOM     26  H   LIG d   1      10.723   7.737  -5.868  0.00  0.00     0.066 H 
ATOM     27  H   LIG d   1      11.702   6.264  -6.068  0.00  0.00     0.066 H 
ATOM     28  H   LIG d   1      10.424   6.649  -7.245  0.00  0.00     0.066 H 
ENDBRANCH  24  25
ENDBRANCH  16  24
BRANCH  20  29
ATOM     29  O   LIG d   1      10.203   6.393   0.052  0.00  0.00    -0.495 OA
BRANCH  29  30
ATOM     30  C   LIG d   1      11.296   5.717   0.678  0.00  0.00     0.079 C 
ATOM     31  H   LIG d   1      11.946   6.447   1.161  0.00  0.00     0.066 H 
ATOM     32  H   LIG d   1      10.913   5.021   1.425  0.00  0.00     0.066 H 
ATOM     33  H   LIG d   1      11.862   5.167  -0.073  0.00  0.00     0.066 H 
ENDBRANCH  29  30
ENDBRANCH  20  29
ENDBRANCH  13  15
ENDBRANCH   9  13
BRANCH   1  34
ATOM     34  C   LIG d   1       9.770   2.825  -6.847  0.00  0.00    -0.035 C 
ATOM     35  H   LIG d   1       9.305   2.303  -7.684  0.00  0.00     0.028 H 
ATOM     36  H   LIG d   1       9.629   3.900  -6.965  0.00  0.00     0.028 H 
ATOM     37  H   LIG d   1      10.836   2.600  -6.826  0.00  0.00     0.028 H 
ENDBRANCH   1  34
BRANCH   4  38
ATOM     38  N   LIG d   1       5.414  -0.812  -6.714  0.00  0.00    -0.279 N 
ATOM     39  C   LIG d   1       4.215  -0.327  -7.095  0.00  0.00     0.283 C 
ATOM     40  O   LIG d   1       3.791   0.703  -6.603  0.00  0.00    -0.267 OA
ATOM     41  H   LIG d   1       5.723  -1.664  -7.058  0.00  0.00     0.155 HD
BRANCH  39  42
ATOM     42  C   LIG d   1       3.423  -1.039  -8.102  0.00  0.00     0.189 A 
ATOM     43  O   LIG d   1       3.583  -2.325  -8.474  0.00  0.00    -0.458 OA
ATOM     44  C   LIG d   1       2.681  -2.634  -9.414  0.00  0.00     0.093 A 
ATOM     45  C   LIG d   1       1.929  -1.540  -9.669  0.00  0.00    -0.023 A 
ATOM     46  H   LIG d   1       2.575  -3.595  -9.893  0.00  0.00     0.103 H 
ATOM     47  C   LIG d   1       2.396  -0.513  -8.834  0.00  0.00    -0.011 A 
ATOM     48  H   LIG d   1       1.120  -1.469 -10.381  0.00  0.00     0.065 H 
ATOM     49  H   LIG d   1       2.017   0.497  -8.780  0.00  0.00     0.066 H 
ENDBRANCH  39  42
ENDBRANCH   4  38
TORSDOF 9
ENDMDL
MODEL 6
REMARK VINA RESULT:      -5.9      5.412      8.472
REMARK  9 active torsions:
REMARK  status: ('A' for Active; 'I' for Inactive)
REMARK    1  A    between atoms: C_1  and  C_2 
REMARK    2  A    between atoms: C_5  and  N_23 
REMARK    3  A    between atoms: C_10  and  C_11 
REMARK    4  A    between atoms: C_11  and  C_13 
REMARK    5  A    between atoms: C_15  and  O_21 
REMARK    6  A    between atoms: C_18  and  O_19 
REMARK    7  A    between atoms: O_19  and  C_20 
REMARK    8  A    between atoms: O_21  and  C_22 
REMARK       I    between atoms: N_23  and  C_24 
REMARK    9  A    between atoms: C_24  and  C_26 
ROOT
ATOM      1  C   LIG d   1       7.414   0.767  -4.757  0.00  0.00     0.006 A 
ATOM      2  C   LIG d   1       8.375   1.857  -4.596  0.00  0.00     0.025 A 
ATOM      3  C   LIG d   1       8.891   2.543  -3.494  0.00  0.00    -0.029 A 
ATOM      4  C   LIG d   1       9.807   3.558  -3.692  0.00  0.00     0.035 A 
ATOM      5  C   LIG d   1      10.211   3.896  -4.983  0.00  0.00    -0.037 A 
ATOM      6  C   LIG d   1       9.707   3.226  -6.075  0.00  0.00    -0.017 A 
ATOM      7  C   LIG d   1       8.785   2.200  -5.898  0.00  0.00     0.136 A 
ATOM      8  O   LIG d   1       8.135   1.388  -6.758  0.00  0.00    -0.451 OA
ATOM      9  C   LIG d   1       7.326   0.536  -6.095  0.00  0.00     0.179 A 
ATOM     10  H   LIG d   1       8.578   2.281  -2.494  0.00  0.00     0.064 H 
ATOM     11  H   LIG d   1      10.927   4.691  -5.129  0.00  0.00     0.064 H 
ATOM     12  H   LIG d   1      10.028   3.496  -7.070  0.00  0.00     0.066 H 
ENDROOT
BRANCH   9  13
ATOM     13  C   LIG d   1       6.476  -0.483  -6.724  0.00  0.00     0.232 C 
ATOM     14  O   LIG d   1       6.778  -1.660  -6.644  0.00  0.00    -0.283 OA
BRANCH  13  15
ATOM     15  C   LIG d   1       5.254  -0.083  -7.444  0.00  0.00     0.070 A 
ATOM     16  C   LIG d   1       4.001  -0.191  -6.821  0.00  0.00     0.131 A 
ATOM     17  C   LIG d   1       2.857   0.189  -7.506  0.00  0.00    -0.016 A 
ATOM     18  C   LIG d   1       2.947   0.670  -8.796  0.00  0.00    -0.017 A 
ATOM     19  H   LIG d   1       1.891   0.106  -7.028  0.00  0.00     0.066 H 
ATOM     20  C   LIG d   1       4.186   0.780  -9.419  0.00  0.00     0.121 A 
ATOM     21  H   LIG d   1       2.053   0.964  -9.324  0.00  0.00     0.066 H 
ATOM     22  C   LIG d   1       5.336   0.412  -8.748  0.00  0.00    -0.005 A 
ATOM     23  H   LIG d   1       6.298   0.502  -9.233  0.00  0.00     0.066 H 
BRANCH  16  24
ATOM     24  O   LIG d   1       3.911  -0.664  -5.553  0.00  0.00    -0.494 OA
BRANCH  24  25
ATOM     25  C   LIG d   1       3.065   0.053  -4.652  0.00  0.00     0.079 C 
ATOM     26  H   LIG d   1       2.231   0.486  -5.203  0.00  0.00     0.066 H 
ATOM     27  H   LIG d   1       2.684  -0.628  -3.891  0.00  0.00     0.066 H 
ATOM     28  H   LIG d   1       3.637   0.849  -4.173  0.00  0.00     0.066 H 
ENDBRANCH  24  25
ENDBRANCH  16  24
BRANCH  20  29
ATOM     29  O   LIG d   1       4.265   1.257 -10.690  0.00  0.00    -0.495 OA
BRANCH  29  30
ATOM     30  C   LIG d   1       3.913   0.358 -11.744  0.00  0.00     0.079 C 
ATOM     31  H   LIG d   1       3.485  -0.550 -11.319  0.00  0.00     0.066 H 
ATOM     32  H   LIG d   1       3.181   0.833 -12.397  0.00  0.00     0.066 H 
ATOM     33  H   LIG d   1       4.803   0.105 -12.319  0.00  0.00     0.066 H 
ENDBRANCH  29  30
ENDBRANCH  20  29
ENDBRANCH  13  15
ENDBRANCH   9  13
BRANCH   1  34
ATOM     34  C   LIG d   1       6.673   0.043  -3.663  0.00  0.00    -0.035 C 
ATOM     35  H   LIG d   1       6.206  -0.853  -4.072  0.00  0.00     0.028 H 
ATOM     36  H   LIG d   1       7.372  -0.238  -2.875  0.00  0.00     0.028 H 
ATOM     37  H   LIG d   1       5.904   0.696  -3.250  0.00  0.00     0.028 H 
ENDBRANCH   1  34
BRANCH   4  38
ATOM     38  N   LIG d   1      10.330   4.250  -2.593  0.00  0.00    -0.279 N 
ATOM     39  C   LIG d   1       9.948   5.520  -2.351  0.00  0.00     0.283 C 
ATOM     40  O   LIG d   1       9.211   6.093  -3.132  0.00  0.00    -0.267 OA
ATOM     41  H   LIG d   1      10.968   3.816  -2.005  0.00  0.00     0.155 HD
BRANCH  39  42
ATOM     42  C   LIG d   1      10.420   6.211  -1.147  0.00  0.00     0.189 A 
ATOM     43  O   LIG d   1      10.994   5.632  -0.073  0.00  0.00    -0.458 OA
ATOM     44  C   LIG d   1      11.299   6.571   0.831  0.00  0.00     0.093 A 
ATOM     45  C   LIG d   1      10.914   7.775   0.352  0.00  0.00    -0.023 A 
ATOM     46  H   LIG d   1      11.769   6.396   1.786  0.00  0.00     0.103 H 
ATOM     47  C   LIG d   1      10.351   7.556  -0.914  0.00  0.00    -0.011 A 
ATOM     48  H   LIG d   1      11.021   8.728   0.850  0.00  0.00     0.065 H 
ATOM     49  H   LIG d   1       9.942   8.304  -1.576  0.00  0.00     0.066 H 
ENDBRANCH  39  42
ENDBRANCH   4  38
TORSDOF 9
ENDMDL
MODEL 7
REMARK VINA RESULT:      -5.8      2.673      9.413
REMARK  9 active torsions:
REMARK  status: ('A' for Active; 'I' for Inactive)
REMARK    1  A    between atoms: C_1  and  C_2 
REMARK    2  A    between atoms: C_5  and  N_23 
REMARK    3  A    between atoms: C_10  and  C_11 
REMARK    4  A    between atoms: C_11  and  C_13 
REMARK    5  A    between atoms: C_15  and  O_21 
REMARK    6  A    between atoms: C_18  and  O_19 
REMARK    7  A    between atoms: O_19  and  C_20 
REMARK    8  A    between atoms: O_21  and  C_22 
REMARK       I    between atoms: N_23  and  C_24 
REMARK    9  A    between atoms: C_24  and  C_26 
ROOT
ATOM      1  C   LIG d   1       3.072  -0.881  -8.426  0.00  0.00     0.006 A 
ATOM      2  C   LIG d   1       2.390  -1.729  -9.402  0.00  0.00     0.025 A 
ATOM      3  C   LIG d   1       1.387  -1.505 -10.350  0.00  0.00    -0.029 A 
ATOM      4  C   LIG d   1       0.947  -2.554 -11.135  0.00  0.00     0.035 A 
ATOM      5  C   LIG d   1       1.500  -3.824 -10.982  0.00  0.00    -0.037 A 
ATOM      6  C   LIG d   1       2.488  -4.053 -10.050  0.00  0.00    -0.017 A 
ATOM      7  C   LIG d   1       2.946  -3.013  -9.250  0.00  0.00     0.136 A 
ATOM      8  O   LIG d   1       3.878  -2.940  -8.277  0.00  0.00    -0.451 OA
ATOM      9  C   LIG d   1       3.964  -1.686  -7.786  0.00  0.00     0.179 A 
ATOM     10  H   LIG d   1       0.960  -0.521 -10.468  0.00  0.00     0.064 H 
ATOM     11  H   LIG d   1       1.151  -4.639 -11.599  0.00  0.00     0.064 H 
ATOM     12  H   LIG d   1       2.909  -5.042  -9.941  0.00  0.00     0.066 H 
ENDROOT
BRANCH   9  13
ATOM     13  C   LIG d   1       4.877  -1.258  -6.720  0.00  0.00     0.232 C 
ATOM     14  O   LIG d   1       5.923  -0.702  -7.002  0.00  0.00    -0.283 OA
BRANCH  13  15
ATOM     15  C   LIG d   1       4.525  -1.493  -5.307  0.00  0.00     0.070 A 
ATOM     16  C   LIG d   1       4.804  -2.731  -4.708  0.00  0.00     0.131 A 
ATOM     17  C   LIG d   1       4.469  -2.943  -3.379  0.00  0.00    -0.016 A 
ATOM     18  C   LIG d   1       3.864  -1.942  -2.647  0.00  0.00    -0.017 A 
ATOM     19  H   LIG d   1       4.683  -3.895  -2.916  0.00  0.00     0.066 H 
ATOM     20  C   LIG d   1       3.586  -0.713  -3.235  0.00  0.00     0.121 A 
ATOM     21  H   LIG d   1       3.606  -2.113  -1.613  0.00  0.00     0.066 H 
ATOM     22  C   LIG d   1       3.917  -0.484  -4.557  0.00  0.00    -0.005 A 
ATOM     23  H   LIG d   1       3.704   0.474  -5.010  0.00  0.00     0.066 H 
BRANCH  16  24
ATOM     24  O   LIG d   1       5.399  -3.716  -5.427  0.00  0.00    -0.494 OA
BRANCH  24  25
ATOM     25  C   LIG d   1       4.770  -5.000  -5.411  0.00  0.00     0.079 C 
ATOM     26  H   LIG d   1       4.596  -5.331  -6.435  0.00  0.00     0.066 H 
ATOM     27  H   LIG d   1       5.417  -5.714  -4.903  0.00  0.00     0.066 H 
ATOM     28  H   LIG d   1       3.819  -4.932  -4.884  0.00  0.00     0.066 H 
ENDBRANCH  24  25
ENDBRANCH  16  24
BRANCH  20  29
ATOM     29  O   LIG d   1       2.990   0.268  -2.506  0.00  0.00    -0.495 OA
BRANCH  29  30
ATOM     30  C   LIG d   1       3.627   1.547  -2.496  0.00  0.00     0.079 C 
ATOM     31  H   LIG d   1       3.934   1.809  -3.510  0.00  0.00     0.066 H 
ATOM     32  H   LIG d   1       2.929   2.298  -2.124  0.00  0.00     0.066 H 
ATOM     33  H   LIG d   1       4.503   1.513  -1.849  0.00  0.00     0.066 H 
ENDBRANCH  29  30
ENDBRANCH  20  29
ENDBRANCH  13  15
ENDBRANCH   9  13
BRANCH   1  34
ATOM     34  C   LIG d   1       2.839   0.586  -8.179  0.00  0.00    -0.035 C 
ATOM     35  H   LIG d   1       2.144   0.709  -7.348  0.00  0.00     0.028 H 
ATOM     36  H   LIG d   1       3.786   1.069  -7.935  0.00  0.00     0.028 H 
ATOM     37  H   LIG d   1       2.418   1.044  -9.074  0.00  0.00     0.028 H 
ENDBRANCH   1  34
BRANCH   4  38
ATOM     38  N   LIG d   1      -0.056  -2.339 -12.088  0.00  0.00    -0.279 N 
ATOM     39  C   LIG d   1       0.270  -2.174 -13.385  0.00  0.00     0.283 C 
ATOM     40  O   LIG d   1       1.440  -2.131 -13.718  0.00  0.00    -0.267 OA
ATOM     41  H   LIG d   1      -0.986  -2.310 -11.815  0.00  0.00     0.155 HD
BRANCH  39  42
ATOM     42  C   LIG d   1      -0.785  -2.047 -14.395  0.00  0.00     0.189 A 
ATOM     43  O   LIG d   1      -0.735  -2.517 -15.658  0.00  0.00    -0.458 OA
ATOM     44  C   LIG d   1      -1.877  -2.220 -16.291  0.00  0.00     0.093 A 
ATOM     45  C   LIG d   1      -2.680  -1.542 -15.441  0.00  0.00    -0.023 A 
ATOM     46  H   LIG d   1      -2.116  -2.476 -17.312  0.00  0.00     0.103 H 
ATOM     47  C   LIG d   1      -1.990  -1.426 -14.224  0.00  0.00    -0.011 A 
ATOM     48  H   LIG d   1      -3.667  -1.161 -15.656  0.00  0.00     0.065 H 
ATOM     49  H   LIG d   1      -2.343  -0.941 -13.326  0.00  0.00     0.066 H 
ENDBRANCH  39  42
ENDBRANCH   4  38
TORSDOF 9
ENDMDL
MODEL 8
REMARK VINA RESULT:      -5.7      5.611      9.087
REMARK  9 active torsions:
REMARK  status: ('A' for Active; 'I' for Inactive)
REMARK    1  A    between atoms: C_1  and  C_2 
REMARK    2  A    between atoms: C_5  and  N_23 
REMARK    3  A    between atoms: C_10  and  C_11 
REMARK    4  A    between atoms: C_11  and  C_13 
REMARK    5  A    between atoms: C_15  and  O_21 
REMARK    6  A    between atoms: C_18  and  O_19 
REMARK    7  A    between atoms: O_19  and  C_20 
REMARK    8  A    between atoms: O_21  and  C_22 
REMARK       I    between atoms: N_23  and  C_24 
REMARK    9  A    between atoms: C_24  and  C_26 
ROOT
ATOM      1  C   LIG d   1       7.735   0.828  -4.511  0.00  0.00     0.006 A 
ATOM      2  C   LIG d   1       8.664   1.954  -4.431  0.00  0.00     0.025 A 
ATOM      3  C   LIG d   1       9.250   2.656  -3.374  0.00  0.00    -0.029 A 
ATOM      4  C   LIG d   1      10.105   3.707  -3.647  0.00  0.00     0.035 A 
ATOM      5  C   LIG d   1      10.380   4.062  -4.967  0.00  0.00    -0.037 A 
ATOM      6  C   LIG d   1       9.806   3.376  -6.014  0.00  0.00    -0.017 A 
ATOM      7  C   LIG d   1       8.943   2.315  -5.762  0.00  0.00     0.136 A 
ATOM      8  O   LIG d   1       8.251   1.481  -6.565  0.00  0.00    -0.451 OA
ATOM      9  C   LIG d   1       7.537   0.597  -5.838  0.00  0.00     0.179 A 
ATOM     10  H   LIG d   1       9.037   2.380  -2.352  0.00  0.00     0.064 H 
ATOM     11  H   LIG d   1      11.049   4.885  -5.171  0.00  0.00     0.064 H 
ATOM     12  H   LIG d   1      10.027   3.661  -7.032  0.00  0.00     0.066 H 
ENDROOT
BRANCH   9  13
ATOM     13  C   LIG d   1       6.674  -0.452  -6.394  0.00  0.00     0.232 C 
ATOM     14  O   LIG d   1       7.145  -1.537  -6.685  0.00  0.00    -0.283 OA
BRANCH  13  15
ATOM     15  C   LIG d   1       5.236  -0.196  -6.593  0.00  0.00     0.070 A 
ATOM     16  C   LIG d   1       4.747   0.127  -7.868  0.00  0.00     0.131 A 
ATOM     17  C   LIG d   1       3.393   0.366  -8.046  0.00  0.00    -0.016 A 
ATOM     18  C   LIG d   1       2.527   0.287  -6.974  0.00  0.00    -0.017 A 
ATOM     19  H   LIG d   1       3.015   0.616  -9.027  0.00  0.00     0.066 H 
ATOM     20  C   LIG d   1       3.005  -0.034  -5.708  0.00  0.00     0.121 A 
ATOM     21  H   LIG d   1       1.474   0.474  -7.119  0.00  0.00     0.066 H 
ATOM     22  C   LIG d   1       4.351  -0.280  -5.515  0.00  0.00    -0.005 A 
ATOM     23  H   LIG d   1       4.719  -0.533  -4.531  0.00  0.00     0.066 H 
BRANCH  16  24
ATOM     24  O   LIG d   1       5.597   0.206  -8.922  0.00  0.00    -0.494 OA
BRANCH  24  25
ATOM     25  C   LIG d   1       5.856   1.508  -9.451  0.00  0.00     0.079 C 
ATOM     26  H   LIG d   1       6.617   2.001  -8.846  0.00  0.00     0.066 H 
ATOM     27  H   LIG d   1       6.209   1.420 -10.478  0.00  0.00     0.066 H 
ATOM     28  H   LIG d   1       4.938   2.097  -9.432  0.00  0.00     0.066 H 
ENDBRANCH  24  25
ENDBRANCH  16  24
BRANCH  20  29
ATOM     29  O   LIG d   1       2.144  -0.111  -4.658  0.00  0.00    -0.495 OA
BRANCH  29  30
ATOM     30  C   LIG d   1       2.702  -0.443  -3.385  0.00  0.00     0.079 C 
ATOM     31  H   LIG d   1       3.219   0.426  -2.976  0.00  0.00     0.066 H 
ATOM     32  H   LIG d   1       1.903  -0.742  -2.705  0.00  0.00     0.066 H 
ATOM     33  H   LIG d   1       3.408  -1.265  -3.499  0.00  0.00     0.066 H 
ENDBRANCH  29  30
ENDBRANCH  20  29
ENDBRANCH  13  15
ENDBRANCH   9  13
BRANCH   1  34
ATOM     34  C   LIG d   1       7.122   0.074  -3.360  0.00  0.00    -0.035 C 
ATOM     35  H   LIG d   1       6.574  -0.788  -3.741  0.00  0.00     0.028 H 
ATOM     36  H   LIG d   1       7.910  -0.265  -2.687  0.00  0.00     0.028 H 
ATOM     37  H   LIG d   1       6.439   0.728  -2.818  0.00  0.00     0.028 H 
ENDBRANCH   1  34
BRANCH   4  38
ATOM     38  N   LIG d   1      10.698   4.416  -2.595  0.00  0.00    -0.279 N 
ATOM     39  C   LIG d   1      10.186   5.601  -2.208  0.00  0.00     0.283 C 
ATOM     40  O   LIG d   1       9.260   6.094  -2.824  0.00  0.00    -0.267 OA
ATOM     41  H   LIG d   1      11.477   4.054  -2.144  0.00  0.00     0.155 HD
BRANCH  39  42
ATOM     42  C   LIG d   1      10.746   6.296  -1.045  0.00  0.00     0.189 A 
ATOM     43  O   LIG d   1      10.372   6.122   0.239  0.00  0.00    -0.458 OA
ATOM     44  C   LIG d   1      11.101   6.921   1.028  0.00  0.00     0.093 A 
ATOM     45  C   LIG d   1      11.953   7.633   0.257  0.00  0.00    -0.023 A 
ATOM     46  H   LIG d   1      11.019   6.990   2.102  0.00  0.00     0.103 H 
ATOM     47  C   LIG d   1      11.734   7.240  -1.072  0.00  0.00    -0.011 A 
ATOM     48  H   LIG d   1      12.670   8.365   0.599  0.00  0.00     0.065 H 
ATOM     49  H   LIG d   1      12.246   7.611  -1.947  0.00  0.00     0.066 H 
ENDBRANCH  39  42
ENDBRANCH   4  38
TORSDOF 9
ENDMDL
MODEL 9
REMARK VINA RESULT:      -5.7      2.570      3.764
REMARK  9 active torsions:
REMARK  status: ('A' for Active; 'I' for Inactive)
REMARK    1  A    between atoms: C_1  and  C_2 
REMARK    2  A    between atoms: C_5  and  N_23 
REMARK    3  A    between atoms: C_10  and  C_11 
REMARK    4  A    between atoms: C_11  and  C_13 
REMARK    5  A    between atoms: C_15  and  O_21 
REMARK    6  A    between atoms: C_18  and  O_19 
REMARK    7  A    between atoms: O_19  and  C_20 
REMARK    8  A    between atoms: O_21  and  C_22 
REMARK       I    between atoms: N_23  and  C_24 
REMARK    9  A    between atoms: C_24  and  C_26 
ROOT
ATOM      1  C   LIG d   1       1.994  -1.726 -10.593  0.00  0.00     0.006 A 
ATOM      2  C   LIG d   1       2.490  -0.743  -9.632  0.00  0.00     0.025 A 
ATOM      3  C   LIG d   1       2.518  -0.677  -8.236  0.00  0.00    -0.029 A 
ATOM      4  C   LIG d   1       3.071   0.429  -7.618  0.00  0.00     0.035 A 
ATOM      5  C   LIG d   1       3.596   1.470  -8.383  0.00  0.00    -0.037 A 
ATOM      6  C   LIG d   1       3.572   1.413  -9.759  0.00  0.00    -0.017 A 
ATOM      7  C   LIG d   1       3.021   0.310 -10.401  0.00  0.00     0.136 A 
ATOM      8  O   LIG d   1       2.863  -0.015 -11.701  0.00  0.00    -0.451 OA
ATOM      9  C   LIG d   1       2.261  -1.216 -11.826  0.00  0.00     0.179 A 
ATOM     10  H   LIG d   1       2.111  -1.483  -7.645  0.00  0.00     0.064 H 
ATOM     11  H   LIG d   1       4.025   2.331  -7.892  0.00  0.00     0.064 H 
ATOM     12  H   LIG d   1       3.982   2.225 -10.340  0.00  0.00     0.066 H 
ENDROOT
BRANCH   9  13
ATOM     13  C   LIG d   1       1.939  -1.870 -13.100  0.00  0.00     0.232 C 
ATOM     14  O   LIG d   1       0.780  -2.117 -13.381  0.00  0.00    -0.283 OA
BRANCH  13  15
ATOM     15  C   LIG d   1       3.017  -2.221 -14.043  0.00  0.00     0.070 A 
ATOM     16  C   LIG d   1       3.642  -3.475 -13.964  0.00  0.00     0.131 A 
ATOM     17  C   LIG d   1       4.655  -3.796 -14.855  0.00  0.00    -0.016 A 
ATOM     18  C   LIG d   1       5.048  -2.887 -15.816  0.00  0.00    -0.017 A 
ATOM     19  H   LIG d   1       5.137  -4.761 -14.796  0.00  0.00     0.066 H 
ATOM     20  C   LIG d   1       4.432  -1.643 -15.899  0.00  0.00     0.121 A 
ATOM     21  H   LIG d   1       5.838  -3.143 -16.507  0.00  0.00     0.066 H 
ATOM     22  C   LIG d   1       3.418  -1.309 -15.023  0.00  0.00    -0.005 A 
ATOM     23  H   LIG d   1       2.938  -0.344 -15.093  0.00  0.00     0.066 H 
BRANCH  16  24
ATOM     24  O   LIG d   1       3.256  -4.369 -13.020  0.00  0.00    -0.494 OA
BRANCH  24  25
ATOM     25  C   LIG d   1       4.217  -4.709 -12.018  0.00  0.00     0.079 C 
ATOM     26  H   LIG d   1       3.902  -4.299 -11.059  0.00  0.00     0.066 H 
ATOM     27  H   LIG d   1       4.294  -5.793 -11.942  0.00  0.00     0.066 H 
ATOM     28  H   LIG d   1       5.188  -4.294 -12.290  0.00  0.00     0.066 H 
ENDBRANCH  24  25
ENDBRANCH  16  24
BRANCH  20  29
ATOM     29  O   LIG d   1       4.826  -0.755 -16.851  0.00  0.00    -0.495 OA
BRANCH  29  30
ATOM     30  C   LIG d   1       4.561   0.627 -16.598  0.00  0.00     0.079 C 
ATOM     31  H   LIG d   1       5.132   1.241 -17.295  0.00  0.00     0.066 H 
ATOM     32  H   LIG d   1       3.496   0.823 -16.731  0.00  0.00     0.066 H 
ATOM     33  H   LIG d   1       4.850   0.872 -15.576  0.00  0.00     0.066 H 
ENDBRANCH  29  30
ENDBRANCH  20  29
ENDBRANCH  13  15
ENDBRANCH   9  13
BRANCH   1  34
ATOM     34  C   LIG d   1       1.325  -3.040 -10.282  0.00  0.00    -0.035 C 
ATOM     35  H   LIG d   1       0.576  -2.891  -9.504  0.00  0.00     0.028 H 
ATOM     36  H   LIG d   1       0.843  -3.424 -11.182  0.00  0.00     0.028 H 
ATOM     37  H   LIG d   1       2.070  -3.756  -9.936  0.00  0.00     0.028 H 
ENDBRANCH   1  34
BRANCH   4  38
ATOM     38  N   LIG d   1       3.103   0.504  -6.221  0.00  0.00    -0.279 N 
ATOM     39  C   LIG d   1       4.077  -0.126  -5.534  0.00  0.00     0.283 C 
ATOM     40  O   LIG d   1       4.880  -0.827  -6.122  0.00  0.00    -0.267 OA
ATOM     41  H   LIG d   1       2.426   1.011  -5.746  0.00  0.00     0.155 HD
BRANCH  39  42
ATOM     42  C   LIG d   1       4.168   0.032  -4.080  0.00  0.00     0.189 A 
ATOM     43  O   LIG d   1       4.412   1.183  -3.420  0.00  0.00    -0.458 OA
ATOM     44  C   LIG d   1       4.420   0.949  -2.102  0.00  0.00     0.093 A 
ATOM     45  C   LIG d   1       4.190  -0.367  -1.893  0.00  0.00    -0.023 A 
ATOM     46  H   LIG d   1       4.589   1.687  -1.333  0.00  0.00     0.103 H 
ATOM     47  C   LIG d   1       4.027  -0.963  -3.153  0.00  0.00    -0.011 A 
ATOM     48  H   LIG d   1       4.140  -0.866  -0.937  0.00  0.00     0.065 H 
ATOM     49  H   LIG d   1       3.828  -2.005  -3.353  0.00  0.00     0.066 H 
ENDBRANCH  39  42
ENDBRANCH   4  38
TORSDOF 9
ENDMDL
