MODEL 1
REMARK VINA RESULT:      -5.9      0.000      0.000
REMARK  7 active torsions:
REMARK  status: ('A' for Active; 'I' for Inactive)
REMARK    1  A    between atoms: C_1  and  C_2 
REMARK    2  A    between atoms: C_4  and  C_22 
REMARK    3  A    between atoms: C_7  and  O_8 
REMARK    4  A    between atoms: C_9  and  C_21 
REMARK    5  A    between atoms: C_14  and  C_17 
REMARK    6  A    between atoms: C_17  and  C_19 
REMARK    7  A    between atoms: C_22  and  C_24 
ROOT
ATOM      1  C   LIG d   1       6.323  -5.810  -5.387  0.00  0.00    -0.015 A 
ATOM      2  C   LIG d   1       7.669  -5.849  -5.074  0.00  0.00    -0.088 A 
ATOM      3  C   LIG d   1       8.333  -4.676  -4.675  0.00  0.00     0.052 A 
ATOM      4  C   LIG d   1       7.619  -3.461  -4.581  0.00  0.00     0.146 A 
ATOM      5  C   LIG d   1       6.275  -3.447  -4.922  0.00  0.00     0.053 A 
ATOM      6  C   LIG d   1       5.628  -4.608  -5.312  0.00  0.00     0.127 A 
ATOM      7  C   LIG d   1       5.845  -2.015  -4.786  0.00  0.00     0.070 C 
ATOM      8  C   LIG d   1       7.003  -1.398  -4.006  0.00  0.00     0.123 C 
ATOM      9  C   LIG d   1       6.872  -0.262  -3.300  0.00  0.00     0.025 C 
ATOM     10  C   LIG d   1       5.599   0.274  -3.046  0.00  0.00     0.192 C 
ATOM     11  O   LIG d   1       5.518   1.312  -2.419  0.00  0.00    -0.287 OA
ATOM     12  C   LIG d   1       4.332  -0.385  -3.521  0.00  0.00     0.053 C 
ATOM     13  C   LIG d   1       4.620  -1.822  -3.926  0.00  0.00    -0.100 C 
ATOM     14  O   LIG d   1       3.918  -2.742  -3.585  0.00  0.00    -0.875 OA
ATOM     15  O   LIG d   1       8.026  -2.234  -4.167  0.00  0.00    -0.458 OA
ATOM     16  O   LIG d   1       8.349  -7.019  -5.154  0.00  0.00    -0.873 OA
ATOM     17  H   LIG d   1       7.765   0.252  -2.915  0.00  0.00     0.069 H 
ENDROOT
BRANCH   3  18
ATOM     18  C   LIG d   1       9.758  -4.714  -4.358  0.00  0.00     0.163 C 
ATOM     19  O   LIG d   1      10.580  -4.644  -5.248  0.00  0.00    -0.292 OA
BRANCH  18  20
ATOM     20  C   LIG d   1      10.209  -4.837  -2.925  0.00  0.00    -0.001 C 
ATOM     21  H   LIG d   1       9.752  -4.037  -2.326  0.00  0.00     0.031 H 
ATOM     22  H   LIG d   1      11.305  -4.751  -2.877  0.00  0.00     0.031 H 
ATOM     23  H   LIG d   1       9.901  -5.816  -2.527  0.00  0.00     0.031 H 
ENDBRANCH  18  20
ENDBRANCH   3  18
BRANCH   1  24
ATOM     24  C   LIG d   1       5.609  -7.069  -5.809  0.00  0.00    -0.037 C 
ATOM     25  H   LIG d   1       5.478  -7.068  -6.902  0.00  0.00     0.028 H 
ATOM     26  H   LIG d   1       4.625  -7.113  -5.322  0.00  0.00     0.028 H 
ATOM     27  H   LIG d   1       6.205  -7.944  -5.513  0.00  0.00     0.028 H 
ENDBRANCH   1  24
BRANCH   6  28
ATOM     28  O   LIG d   1       4.308  -4.572  -5.623  0.00  0.00    -0.506 OA
ATOM     29  H   LIG d   1       3.982  -4.740  -6.659  0.00  0.00     0.292 HD
ENDBRANCH   6  28
BRANCH   7  30
ATOM     30  C   LIG d   1       5.684  -1.354  -6.157  0.00  0.00    -0.045 C 
ATOM     31  H   LIG d   1       6.663  -0.994  -6.507  0.00  0.00     0.025 H 
ATOM     32  H   LIG d   1       4.988  -0.506  -6.075  0.00  0.00     0.025 H 
ATOM     33  H   LIG d   1       5.286  -2.088  -6.873  0.00  0.00     0.025 H 
ENDBRANCH   7  30
BRANCH  12  34
ATOM     34  C   LIG d   1       2.868  -0.091  -3.728  0.00  0.00     0.163 C 
ATOM     35  O   LIG d   1       2.056  -0.460  -2.914  0.00  0.00    -0.292 OA
BRANCH  34  36
ATOM     36  C   LIG d   1       2.418   0.665  -4.952  0.00  0.00    -0.001 C 
ATOM     37  H   LIG d   1       1.995  -0.040  -5.682  0.00  0.00     0.031 H 
ATOM     38  H   LIG d   1       3.279   1.184  -5.399  0.00  0.00     0.031 H 
ATOM     39  H   LIG d   1       1.653   1.402  -4.667  0.00  0.00     0.031 H 
ENDBRANCH  34  36
ENDBRANCH  12  34
TORSDOF 7
ENDMDL
MODEL 2
REMARK VINA RESULT:      -5.9      3.467      5.595
REMARK  7 active torsions:
REMARK  status: ('A' for Active; 'I' for Inactive)
REMARK    1  A    between atoms: C_1  and  C_2 
REMARK    2  A    between atoms: C_4  and  C_22 
REMARK    3  A    between atoms: C_7  and  O_8 
REMARK    4  A    between atoms: C_9  and  C_21 
REMARK    5  A    between atoms: C_14  and  C_17 
REMARK    6  A    between atoms: C_17  and  C_19 
REMARK    7  A    between atoms: C_22  and  C_24 
ROOT
ATOM      1  C   LIG d   1       3.978  -0.131  -9.741  0.00  0.00    -0.015 A 
ATOM      2  C   LIG d   1       3.986  -1.444 -10.176  0.00  0.00    -0.088 A 
ATOM      3  C   LIG d   1       4.239  -2.485  -9.266  0.00  0.00     0.052 A 
ATOM      4  C   LIG d   1       4.471  -2.190  -7.905  0.00  0.00     0.146 A 
ATOM      5  C   LIG d   1       4.480  -0.863  -7.502  0.00  0.00     0.053 A 
ATOM      6  C   LIG d   1       4.227   0.157  -8.404  0.00  0.00     0.127 A 
ATOM      7  C   LIG d   1       4.823  -0.894  -6.040  0.00  0.00     0.070 C 
ATOM      8  C   LIG d   1       4.629  -2.367  -5.690  0.00  0.00     0.123 C 
ATOM      9  C   LIG d   1       4.415  -2.786  -4.431  0.00  0.00     0.025 C 
ATOM     10  C   LIG d   1       4.114  -1.863  -3.416  0.00  0.00     0.192 C 
ATOM     11  O   LIG d   1       3.943  -2.274  -2.285  0.00  0.00    -0.287 OA
ATOM     12  C   LIG d   1       3.994  -0.384  -3.674  0.00  0.00     0.053 C 
ATOM     13  C   LIG d   1       3.858  -0.132  -5.166  0.00  0.00    -0.100 C 
ATOM     14  O   LIG d   1       3.035   0.625  -5.621  0.00  0.00    -0.875 OA
ATOM     15  O   LIG d   1       4.674  -3.019  -6.849  0.00  0.00    -0.458 OA
ATOM     16  O   LIG d   1       3.750  -1.726 -11.481  0.00  0.00    -0.873 OA
ATOM     17  H   LIG d   1       4.474  -3.858  -4.191  0.00  0.00     0.069 H 
ENDROOT
BRANCH   3  18
ATOM     18  C   LIG d   1       4.260  -3.871  -9.728  0.00  0.00     0.163 C 
ATOM     19  O   LIG d   1       5.289  -4.352 -10.156  0.00  0.00    -0.292 OA
BRANCH  18  20
ATOM     20  C   LIG d   1       3.006  -4.704  -9.672  0.00  0.00    -0.001 C 
ATOM     21  H   LIG d   1       2.918  -5.170  -8.680  0.00  0.00     0.031 H 
ATOM     22  H   LIG d   1       3.052  -5.489 -10.443  0.00  0.00     0.031 H 
ATOM     23  H   LIG d   1       2.131  -4.063  -9.855  0.00  0.00     0.031 H 
ENDBRANCH  18  20
ENDBRANCH   3  18
BRANCH   1  24
ATOM     24  C   LIG d   1       3.701   0.985 -10.715  0.00  0.00    -0.037 C 
ATOM     25  H   LIG d   1       4.542   1.694 -10.709  0.00  0.00     0.028 H 
ATOM     26  H   LIG d   1       2.779   1.506 -10.421  0.00  0.00     0.028 H 
ATOM     27  H   LIG d   1       3.581   0.568 -11.725  0.00  0.00     0.028 H 
ENDBRANCH   1  24
BRANCH   6  28
ATOM     28  O   LIG d   1       4.222   1.446  -7.980  0.00  0.00    -0.506 OA
ATOM     29  H   LIG d   1       4.874   2.186  -8.465  0.00  0.00     0.292 HD
ENDBRANCH   6  28
BRANCH   7  30
ATOM     30  C   LIG d   1       6.270  -0.453  -5.804  0.00  0.00    -0.045 C 
ATOM     31  H   LIG d   1       6.700  -0.090  -6.748  0.00  0.00     0.025 H 
ATOM     32  H   LIG d   1       6.858  -1.308  -5.437  0.00  0.00     0.025 H 
ATOM     33  H   LIG d   1       6.290   0.353  -5.057  0.00  0.00     0.025 H 
ENDBRANCH   7  30
BRANCH  12  34
ATOM     34  C   LIG d   1       3.967   0.931  -2.939  0.00  0.00     0.163 C 
ATOM     35  O   LIG d   1       3.453   1.897  -3.449  0.00  0.00    -0.292 OA
BRANCH  34  36
ATOM     36  C   LIG d   1       4.582   1.040  -1.567  0.00  0.00    -0.001 C 
ATOM     37  H   LIG d   1       5.670   0.895  -1.641  0.00  0.00     0.031 H 
ATOM     38  H   LIG d   1       4.153   0.268  -0.911  0.00  0.00     0.031 H 
ATOM     39  H   LIG d   1       4.371   2.036  -1.149  0.00  0.00     0.031 H 
ENDBRANCH  34  36
ENDBRANCH  12  34
TORSDOF 7
ENDMDL
MODEL 3
REMARK VINA RESULT:      -5.5      3.357      6.364
REMARK  7 active torsions:
REMARK  status: ('A' for Active; 'I' for Inactive)
REMARK    1  A    between atoms: C_1  and  C_2 
REMARK    2  A    between atoms: C_4  and  C_22 
REMARK    3  A    between atoms: C_7  and  O_8 
REMARK    4  A    between atoms: C_9  and  C_21 
REMARK    5  A    between atoms: C_14  and  C_17 
REMARK    6  A    between atoms: C_17  and  C_19 
REMARK    7  A    between atoms: C_22  and  C_24 
ROOT
ATOM      1  C   LIG d   1       6.350  -1.915  -4.514  0.00  0.00    -0.015 A 
ATOM      2  C   LIG d   1       5.415  -1.380  -3.648  0.00  0.00    -0.088 A 
ATOM      3  C   LIG d   1       4.350  -0.611  -4.148  0.00  0.00     0.052 A 
ATOM      4  C   LIG d   1       4.229  -0.398  -5.539  0.00  0.00     0.146 A 
ATOM      5  C   LIG d   1       5.193  -0.928  -6.382  0.00  0.00     0.053 A 
ATOM      6  C   LIG d   1       6.238  -1.687  -5.881  0.00  0.00     0.127 A 
ATOM      7  C   LIG d   1       4.815  -0.464  -7.759  0.00  0.00     0.070 C 
ATOM      8  C   LIG d   1       3.389   0.038  -7.556  0.00  0.00     0.123 C 
ATOM      9  C   LIG d   1       2.513   0.152  -8.569  0.00  0.00     0.025 C 
ATOM     10  C   LIG d   1       2.796  -0.420  -9.821  0.00  0.00     0.192 C 
ATOM     11  O   LIG d   1       1.990  -0.283 -10.720  0.00  0.00    -0.287 OA
ATOM     12  C   LIG d   1       4.057  -1.195 -10.091  0.00  0.00     0.053 C 
ATOM     13  C   LIG d   1       4.720  -1.574  -8.777  0.00  0.00    -0.100 C 
ATOM     14  O   LIG d   1       5.142  -2.685  -8.563  0.00  0.00    -0.875 OA
ATOM     15  O   LIG d   1       3.267   0.248  -6.247  0.00  0.00    -0.458 OA
ATOM     16  O   LIG d   1       5.527  -1.595  -2.314  0.00  0.00    -0.873 OA
ATOM     17  H   LIG d   1       1.568   0.695  -8.421  0.00  0.00     0.069 H 
ENDROOT
BRANCH   3  18
ATOM     18  C   LIG d   1       3.370  -0.033  -3.231  0.00  0.00     0.163 C 
ATOM     19  O   LIG d   1       2.360  -0.647  -2.956  0.00  0.00    -0.292 OA
BRANCH  18  20
ATOM     20  C   LIG d   1       3.615   1.325  -2.624  0.00  0.00    -0.001 C 
ATOM     21  H   LIG d   1       4.064   1.988  -3.377  0.00  0.00     0.031 H 
ATOM     22  H   LIG d   1       4.299   1.226  -1.768  0.00  0.00     0.031 H 
ATOM     23  H   LIG d   1       2.660   1.751  -2.283  0.00  0.00     0.031 H 
ENDBRANCH  18  20
ENDBRANCH   3  18
BRANCH   1  24
ATOM     24  C   LIG d   1       7.488  -2.745  -3.978  0.00  0.00    -0.037 C 
ATOM     25  H   LIG d   1       7.214  -3.152  -2.994  0.00  0.00     0.028 H 
ATOM     26  H   LIG d   1       8.384  -2.116  -3.879  0.00  0.00     0.028 H 
ATOM     27  H   LIG d   1       7.696  -3.573  -4.672  0.00  0.00     0.028 H 
ENDBRANCH   1  24
BRANCH   6  28
ATOM     28  O   LIG d   1       7.158  -2.211  -6.729  0.00  0.00    -0.506 OA
ATOM     29  H   LIG d   1       7.462  -1.651  -7.625  0.00  0.00     0.292 HD
ENDBRANCH   6  28
BRANCH   7  30
ATOM     30  C   LIG d   1       5.737   0.662  -8.235  0.00  0.00    -0.045 C 
ATOM     31  H   LIG d   1       5.168   1.601  -8.294  0.00  0.00     0.025 H 
ATOM     32  H   LIG d   1       6.138   0.411  -9.229  0.00  0.00     0.025 H 
ATOM     33  H   LIG d   1       6.568   0.780  -7.524  0.00  0.00     0.025 H 
ENDBRANCH   7  30
BRANCH  12  34
ATOM     34  C   LIG d   1       4.882  -1.721 -11.238  0.00  0.00     0.163 C 
ATOM     35  O   LIG d   1       4.513  -2.693 -11.853  0.00  0.00    -0.292 OA
BRANCH  34  36
ATOM     36  C   LIG d   1       6.169  -1.034 -11.617  0.00  0.00    -0.001 C 
ATOM     37  H   LIG d   1       6.553  -1.466 -12.553  0.00  0.00     0.031 H 
ATOM     38  H   LIG d   1       6.910  -1.177 -10.816  0.00  0.00     0.031 H 
ATOM     39  H   LIG d   1       5.983   0.041 -11.756  0.00  0.00     0.031 H 
ENDBRANCH  34  36
ENDBRANCH  12  34
TORSDOF 7
ENDMDL
MODEL 4
REMARK VINA RESULT:      -5.5      1.305      6.722
REMARK  7 active torsions:
REMARK  status: ('A' for Active; 'I' for Inactive)
REMARK    1  A    between atoms: C_1  and  C_2 
REMARK    2  A    between atoms: C_4  and  C_22 
REMARK    3  A    between atoms: C_7  and  O_8 
REMARK    4  A    between atoms: C_9  and  C_21 
REMARK    5  A    between atoms: C_14  and  C_17 
REMARK    6  A    between atoms: C_17  and  C_19 
REMARK    7  A    between atoms: C_22  and  C_24 
ROOT
ATOM      1  C   LIG d   1       6.765   0.230  -3.943  0.00  0.00    -0.015 A 
ATOM      2  C   LIG d   1       5.414   0.426  -3.726  0.00  0.00    -0.088 A 
ATOM      3  C   LIG d   1       4.490  -0.566  -4.097  0.00  0.00     0.052 A 
ATOM      4  C   LIG d   1       4.946  -1.770  -4.678  0.00  0.00     0.146 A 
ATOM      5  C   LIG d   1       6.305  -1.930  -4.904  0.00  0.00     0.053 A 
ATOM      6  C   LIG d   1       7.208  -0.948  -4.533  0.00  0.00     0.127 A 
ATOM      7  C   LIG d   1       6.440  -3.260  -5.587  0.00  0.00     0.070 C 
ATOM      8  C   LIG d   1       5.070  -3.890  -5.352  0.00  0.00     0.123 C 
ATOM      9  C   LIG d   1       4.866  -5.217  -5.412  0.00  0.00     0.025 C 
ATOM     10  C   LIG d   1       5.957  -6.102  -5.451  0.00  0.00     0.192 C 
ATOM     11  O   LIG d   1       5.737  -7.295  -5.523  0.00  0.00    -0.287 OA
ATOM     12  C   LIG d   1       7.386  -5.630  -5.407  0.00  0.00     0.053 C 
ATOM     13  C   LIG d   1       7.436  -4.186  -4.935  0.00  0.00    -0.100 C 
ATOM     14  O   LIG d   1       8.220  -3.807  -4.099  0.00  0.00    -0.875 OA
ATOM     15  O   LIG d   1       4.258  -2.878  -5.055  0.00  0.00    -0.458 OA
ATOM     16  O   LIG d   1       4.979   1.577  -3.157  0.00  0.00    -0.873 OA
ATOM     17  H   LIG d   1       3.842  -5.616  -5.431  0.00  0.00     0.069 H 
ENDROOT
BRANCH   3  18
ATOM     18  C   LIG d   1       3.061  -0.353  -3.881  0.00  0.00     0.163 C 
ATOM     19  O   LIG d   1       2.528  -0.781  -2.878  0.00  0.00    -0.292 OA
BRANCH  18  20
ATOM     20  C   LIG d   1       2.248   0.400  -4.902  0.00  0.00    -0.001 C 
ATOM     21  H   LIG d   1       2.056  -0.249  -5.769  0.00  0.00     0.031 H 
ATOM     22  H   LIG d   1       2.804   1.291  -5.228  0.00  0.00     0.031 H 
ATOM     23  H   LIG d   1       1.291   0.708  -4.455  0.00  0.00     0.031 H 
ENDBRANCH  18  20
ENDBRANCH   3  18
BRANCH   1  24
ATOM     24  C   LIG d   1       7.756   1.291  -3.540  0.00  0.00    -0.037 C 
ATOM     25  H   LIG d   1       8.737   0.827  -3.359  0.00  0.00     0.028 H 
ATOM     26  H   LIG d   1       7.410   1.786  -2.621  0.00  0.00     0.028 H 
ATOM     27  H   LIG d   1       7.846   2.034  -4.346  0.00  0.00     0.028 H 
ENDBRANCH   1  24
BRANCH   6  28
ATOM     28  O   LIG d   1       8.535  -1.137  -4.748  0.00  0.00    -0.506 OA
ATOM     29  H   LIG d   1       9.272  -0.537  -4.196  0.00  0.00     0.292 HD
ENDBRANCH   6  28
BRANCH   7  30
ATOM     30  C   LIG d   1       6.722  -3.087  -7.082  0.00  0.00    -0.045 C 
ATOM     31  H   LIG d   1       6.542  -2.041  -7.369  0.00  0.00     0.025 H 
ATOM     32  H   LIG d   1       6.055  -3.746  -7.659  0.00  0.00     0.025 H 
ATOM     33  H   LIG d   1       7.769  -3.350  -7.290  0.00  0.00     0.025 H 
ENDBRANCH   7  30
BRANCH  12  34
ATOM     34  C   LIG d   1       8.786  -6.119  -5.677  0.00  0.00     0.163 C 
ATOM     35  O   LIG d   1       9.300  -6.920  -4.934  0.00  0.00    -0.292 OA
BRANCH  34  36
ATOM     36  C   LIG d   1       9.545  -5.606  -6.874  0.00  0.00    -0.001 C 
ATOM     37  H   LIG d   1      10.164  -4.748  -6.575  0.00  0.00     0.031 H 
ATOM     38  H   LIG d   1       8.832  -5.290  -7.651  0.00  0.00     0.031 H 
ATOM     39  H   LIG d   1      10.189  -6.405  -7.269  0.00  0.00     0.031 H 
ENDBRANCH  34  36
ENDBRANCH  12  34
TORSDOF 7
ENDMDL
MODEL 5
REMARK VINA RESULT:      -5.3     11.482     14.678
REMARK  7 active torsions:
REMARK  status: ('A' for Active; 'I' for Inactive)
REMARK    1  A    between atoms: C_1  and  C_2 
REMARK    2  A    between atoms: C_4  and  C_22 
REMARK    3  A    between atoms: C_7  and  O_8 
REMARK    4  A    between atoms: C_9  and  C_21 
REMARK    5  A    between atoms: C_14  and  C_17 
REMARK    6  A    between atoms: C_17  and  C_19 
REMARK    7  A    between atoms: C_22  and  C_24 
ROOT
ATOM      1  C   LIG d   1       9.814  10.190  -5.094  0.00  0.00    -0.015 A 
ATOM      2  C   LIG d   1       9.514  11.514  -4.830  0.00  0.00    -0.088 A 
ATOM      3  C   LIG d   1       9.487  11.979  -3.504  0.00  0.00     0.052 A 
ATOM      4  C   LIG d   1       9.781  11.096  -2.443  0.00  0.00     0.146 A 
ATOM      5  C   LIG d   1      10.056   9.768  -2.735  0.00  0.00     0.053 A 
ATOM      6  C   LIG d   1      10.083   9.319  -4.045  0.00  0.00     0.127 A 
ATOM      7  C   LIG d   1      10.247   9.100  -1.404  0.00  0.00     0.070 C 
ATOM      8  C   LIG d   1      10.393  10.288  -0.458  0.00  0.00     0.123 C 
ATOM      9  C   LIG d   1      10.990  10.186   0.742  0.00  0.00     0.025 C 
ATOM     10  C   LIG d   1      11.725   9.035   1.073  0.00  0.00     0.192 C 
ATOM     11  O   LIG d   1      12.237   8.968   2.173  0.00  0.00    -0.287 OA
ATOM     12  C   LIG d   1      11.903   7.884   0.120  0.00  0.00     0.053 C 
ATOM     13  C   LIG d   1      11.533   8.320  -1.288  0.00  0.00    -0.100 C 
ATOM     14  O   LIG d   1      12.220   8.059  -2.246  0.00  0.00    -0.875 OA
ATOM     15  O   LIG d   1       9.875  11.327  -1.108  0.00  0.00    -0.458 OA
ATOM     16  O   LIG d   1       9.245  12.364  -5.852  0.00  0.00    -0.873 OA
ATOM     17  H   LIG d   1      10.905  11.006   1.470  0.00  0.00     0.069 H 
ENDROOT
BRANCH   3  18
ATOM     18  C   LIG d   1       9.157  13.375  -3.225  0.00  0.00     0.163 C 
ATOM     19  O   LIG d   1       8.002  13.701  -3.048  0.00  0.00    -0.292 OA
BRANCH  18  20
ATOM     20  C   LIG d   1      10.251  14.409  -3.154  0.00  0.00    -0.001 C 
ATOM     21  H   LIG d   1      10.794  14.435  -4.110  0.00  0.00     0.031 H 
ATOM     22  H   LIG d   1      10.948  14.150  -2.343  0.00  0.00     0.031 H 
ATOM     23  H   LIG d   1       9.809  15.397  -2.957  0.00  0.00     0.031 H 
ENDBRANCH  18  20
ENDBRANCH   3  18
BRANCH   1  24
ATOM     24  C   LIG d   1       9.849   9.693  -6.516  0.00  0.00    -0.037 C 
ATOM     25  H   LIG d   1       9.773   8.595  -6.523  0.00  0.00     0.028 H 
ATOM     26  H   LIG d   1      10.794   9.998  -6.987  0.00  0.00     0.028 H 
ATOM     27  H   LIG d   1       9.005  10.122  -7.075  0.00  0.00     0.028 H 
ENDBRANCH   1  24
BRANCH   6  28
ATOM     28  O   LIG d   1      10.374   8.019  -4.306  0.00  0.00    -0.506 OA
ATOM     29  H   LIG d   1      10.726   7.724  -5.304  0.00  0.00     0.292 HD
ENDBRANCH   6  28
BRANCH   7  30
ATOM     30  C   LIG d   1       9.032   8.244  -1.037  0.00  0.00    -0.045 C 
ATOM     31  H   LIG d   1       8.222   8.432  -1.757  0.00  0.00     0.025 H 
ATOM     32  H   LIG d   1       8.691   8.508  -0.024  0.00  0.00     0.025 H 
ATOM     33  H   LIG d   1       9.309   7.181  -1.066  0.00  0.00     0.025 H 
ENDBRANCH   7  30
BRANCH  12  34
ATOM     34  C   LIG d   1      12.328   6.437   0.102  0.00  0.00     0.163 C 
ATOM     35  O   LIG d   1      13.491   6.151  -0.052  0.00  0.00    -0.292 OA
BRANCH  34  36
ATOM     36  C   LIG d   1      11.300   5.349   0.275  0.00  0.00    -0.001 C 
ATOM     37  H   LIG d   1      10.361   5.651  -0.212  0.00  0.00     0.031 H 
ATOM     38  H   LIG d   1      11.120   5.182   1.347  0.00  0.00     0.031 H 
ATOM     39  H   LIG d   1      11.670   4.420  -0.184  0.00  0.00     0.031 H 
ENDBRANCH  34  36
ENDBRANCH  12  34
TORSDOF 7
ENDMDL
MODEL 6
REMARK VINA RESULT:      -5.3      6.920     10.881
REMARK  7 active torsions:
REMARK  status: ('A' for Active; 'I' for Inactive)
REMARK    1  A    between atoms: C_1  and  C_2 
REMARK    2  A    between atoms: C_4  and  C_22 
REMARK    3  A    between atoms: C_7  and  O_8 
REMARK    4  A    between atoms: C_9  and  C_21 
REMARK    5  A    between atoms: C_14  and  C_17 
REMARK    6  A    between atoms: C_17  and  C_19 
REMARK    7  A    between atoms: C_22  and  C_24 
ROOT
ATOM      1  C   LIG d   1       9.477  -8.019  -1.986  0.00  0.00    -0.015 A 
ATOM      2  C   LIG d   1       8.543  -9.000  -2.264  0.00  0.00    -0.088 A 
ATOM      3  C   LIG d   1       8.545 -10.202  -1.537  0.00  0.00     0.052 A 
ATOM      4  C   LIG d   1       9.495 -10.402  -0.511  0.00  0.00     0.146 A 
ATOM      5  C   LIG d   1      10.434  -9.411  -0.268  0.00  0.00     0.053 A 
ATOM      6  C   LIG d   1      10.423  -8.228  -0.988  0.00  0.00     0.127 A 
ATOM      7  C   LIG d   1      11.322  -9.961   0.811  0.00  0.00     0.070 C 
ATOM      8  C   LIG d   1      10.518 -11.154   1.320  0.00  0.00     0.123 C 
ATOM      9  C   LIG d   1      10.711 -11.686   2.539  0.00  0.00     0.025 C 
ATOM     10  C   LIG d   1      11.490 -11.012   3.494  0.00  0.00     0.192 C 
ATOM     11  O   LIG d   1      11.658 -11.529   4.580  0.00  0.00    -0.287 OA
ATOM     12  C   LIG d   1      12.124  -9.673   3.224  0.00  0.00     0.053 C 
ATOM     13  C   LIG d   1      11.488  -9.042   1.996  0.00  0.00    -0.100 C 
ATOM     14  O   LIG d   1      11.143  -7.885   1.970  0.00  0.00    -0.875 OA
ATOM     15  O   LIG d   1       9.650 -11.439   0.352  0.00  0.00    -0.458 OA
ATOM     16  O   LIG d   1       7.624  -8.801  -3.241  0.00  0.00    -0.873 OA
ATOM     17  H   LIG d   1      10.256 -12.655   2.794  0.00  0.00     0.069 H 
ENDROOT
BRANCH   3  18
ATOM     18  C   LIG d   1       7.567 -11.244  -1.841  0.00  0.00     0.163 C 
ATOM     19  O   LIG d   1       7.808 -12.073  -2.693  0.00  0.00    -0.292 OA
BRANCH  18  20
ATOM     20  C   LIG d   1       6.257 -11.288  -1.096  0.00  0.00    -0.001 C 
ATOM     21  H   LIG d   1       5.590 -10.503  -1.479  0.00  0.00     0.031 H 
ATOM     22  H   LIG d   1       6.440 -11.124  -0.024  0.00  0.00     0.031 H 
ATOM     23  H   LIG d   1       5.787 -12.272  -1.241  0.00  0.00     0.031 H 
ENDBRANCH  18  20
ENDBRANCH   3  18
BRANCH   1  24
ATOM     24  C   LIG d   1       9.471  -6.727  -2.761  0.00  0.00    -0.037 C 
ATOM     25  H   LIG d   1       8.432  -6.436  -2.979  0.00  0.00     0.028 H 
ATOM     26  H   LIG d   1      10.019  -6.863  -3.704  0.00  0.00     0.028 H 
ATOM     27  H   LIG d   1       9.955  -5.940  -2.165  0.00  0.00     0.028 H 
ENDBRANCH   1  24
BRANCH   6  28
ATOM     28  O   LIG d   1      11.341  -7.266  -0.718  0.00  0.00    -0.506 OA
ATOM     29  H   LIG d   1      12.043  -6.941  -1.499  0.00  0.00     0.292 HD
ENDBRANCH   6  28
BRANCH   7  30
ATOM     30  C   LIG d   1      12.672 -10.402   0.243  0.00  0.00    -0.045 C 
ATOM     31  H   LIG d   1      13.142  -9.559  -0.283  0.00  0.00     0.025 H 
ATOM     32  H   LIG d   1      12.519 -11.235  -0.460  0.00  0.00     0.025 H 
ATOM     33  H   LIG d   1      13.326 -10.732   1.064  0.00  0.00     0.025 H 
ENDBRANCH   7  30
BRANCH  12  34
ATOM     34  C   LIG d   1      13.183  -8.751   3.771  0.00  0.00     0.163 C 
ATOM     35  O   LIG d   1      13.055  -8.267   4.869  0.00  0.00    -0.292 OA
BRANCH  34  36
ATOM     36  C   LIG d   1      14.403  -8.433   2.944  0.00  0.00    -0.001 C 
ATOM     37  H   LIG d   1      14.459  -9.126   2.092  0.00  0.00     0.031 H 
ATOM     38  H   LIG d   1      15.305  -8.542   3.565  0.00  0.00     0.031 H 
ATOM     39  H   LIG d   1      14.335  -7.399   2.575  0.00  0.00     0.031 H 
ENDBRANCH  34  36
ENDBRANCH  12  34
TORSDOF 7
ENDMDL
MODEL 7
REMARK VINA RESULT:      -5.3      8.350     11.266
REMARK  7 active torsions:
REMARK  status: ('A' for Active; 'I' for Inactive)
REMARK    1  A    between atoms: C_1  and  C_2 
REMARK    2  A    between atoms: C_4  and  C_22 
REMARK    3  A    between atoms: C_7  and  O_8 
REMARK    4  A    between atoms: C_9  and  C_21 
REMARK    5  A    between atoms: C_14  and  C_17 
REMARK    6  A    between atoms: C_17  and  C_19 
REMARK    7  A    between atoms: C_22  and  C_24 
ROOT
ATOM      1  C   LIG d   1       9.941   6.221  -5.231  0.00  0.00    -0.015 A 
ATOM      2  C   LIG d   1       9.710   4.869  -5.060  0.00  0.00    -0.088 A 
ATOM      3  C   LIG d   1      10.031   4.248  -3.840  0.00  0.00     0.052 A 
ATOM      4  C   LIG d   1      10.577   5.011  -2.785  0.00  0.00     0.146 A 
ATOM      5  C   LIG d   1      10.820   6.361  -2.993  0.00  0.00     0.053 A 
ATOM      6  C   LIG d   1      10.498   6.965  -4.197  0.00  0.00     0.127 A 
ATOM      7  C   LIG d   1      11.459   6.849  -1.725  0.00  0.00     0.070 C 
ATOM      8  C   LIG d   1      11.180   5.704  -0.755  0.00  0.00     0.123 C 
ATOM      9  C   LIG d   1      11.191   5.870   0.579  0.00  0.00     0.025 C 
ATOM     10  C   LIG d   1      11.217   7.160   1.134  0.00  0.00     0.192 C 
ATOM     11  O   LIG d   1      11.244   7.273   2.343  0.00  0.00    -0.287 OA
ATOM     12  C   LIG d   1      11.212   8.407   0.290  0.00  0.00     0.053 C 
ATOM     13  C   LIG d   1      10.792   8.065  -1.130  0.00  0.00    -0.100 C 
ATOM     14  O   LIG d   1       9.982   8.720  -1.739  0.00  0.00    -0.875 OA
ATOM     15  O   LIG d   1      10.905   4.649  -1.518  0.00  0.00    -0.458 OA
ATOM     16  O   LIG d   1       9.173   4.141  -6.070  0.00  0.00    -0.873 OA
ATOM     17  H   LIG d   1      11.179   4.992   1.242  0.00  0.00     0.069 H 
ENDROOT
BRANCH   3  18
ATOM     18  C   LIG d   1       9.799   2.817  -3.664  0.00  0.00     0.163 C 
ATOM     19  O   LIG d   1       8.717   2.419  -3.286  0.00  0.00    -0.292 OA
BRANCH  18  20
ATOM     20  C   LIG d   1      10.903   1.833  -3.955  0.00  0.00    -0.001 C 
ATOM     21  H   LIG d   1      11.377   2.085  -4.915  0.00  0.00     0.031 H 
ATOM     22  H   LIG d   1      10.484   0.817  -4.008  0.00  0.00     0.031 H 
ATOM     23  H   LIG d   1      11.655   1.878  -3.152  0.00  0.00     0.031 H 
ENDBRANCH  18  20
ENDBRANCH   3  18
BRANCH   1  24
ATOM     24  C   LIG d   1       9.591   6.888  -6.536  0.00  0.00    -0.037 C 
ATOM     25  H   LIG d   1       9.965   6.278  -7.372  0.00  0.00     0.028 H 
ATOM     26  H   LIG d   1      10.053   7.885  -6.574  0.00  0.00     0.028 H 
ATOM     27  H   LIG d   1       8.499   6.987  -6.616  0.00  0.00     0.028 H 
ENDBRANCH   1  24
BRANCH   6  28
ATOM     28  O   LIG d   1      10.727   8.291  -4.368  0.00  0.00    -0.506 OA
ATOM     29  H   LIG d   1      11.456   8.631  -5.118  0.00  0.00     0.292 HD
ENDBRANCH   6  28
BRANCH   7  30
ATOM     30  C   LIG d   1      12.963   7.064  -1.912  0.00  0.00    -0.045 C 
ATOM     31  H   LIG d   1      13.249   8.038  -1.491  0.00  0.00     0.025 H 
ATOM     32  H   LIG d   1      13.205   7.043  -2.986  0.00  0.00     0.025 H 
ATOM     33  H   LIG d   1      13.515   6.265  -1.396  0.00  0.00     0.025 H 
ENDBRANCH   7  30
BRANCH  12  34
ATOM     34  C   LIG d   1      11.488   9.885   0.389  0.00  0.00     0.163 C 
ATOM     35  O   LIG d   1      10.681  10.617   0.910  0.00  0.00    -0.292 OA
BRANCH  34  36
ATOM     36  C   LIG d   1      12.771  10.450  -0.165  0.00  0.00    -0.001 C 
ATOM     37  H   LIG d   1      13.455  10.686   0.664  0.00  0.00     0.031 H 
ATOM     38  H   LIG d   1      12.553  11.367  -0.732  0.00  0.00     0.031 H 
ATOM     39  H   LIG d   1      13.241   9.710  -0.829  0.00  0.00     0.031 H 
ENDBRANCH  34  36
ENDBRANCH  12  34
TORSDOF 7
ENDMDL
MODEL 8
REMARK VINA RESULT:      -5.2      5.446      7.708
REMARK  7 active torsions:
REMARK  status: ('A' for Active; 'I' for Inactive)
REMARK    1  A    between atoms: C_1  and  C_2 
REMARK    2  A    between atoms: C_4  and  C_22 
REMARK    3  A    between atoms: C_7  and  O_8 
REMARK    4  A    between atoms: C_9  and  C_21 
REMARK    5  A    between atoms: C_14  and  C_17 
REMARK    6  A    between atoms: C_17  and  C_19 
REMARK    7  A    between atoms: C_22  and  C_24 
ROOT
ATOM      1  C   LIG d   1       9.498  -9.744  -0.949  0.00  0.00    -0.015 A 
ATOM      2  C   LIG d   1      10.123  -8.522  -1.114  0.00  0.00    -0.088 A 
ATOM      3  C   LIG d   1       9.776  -7.693  -2.195  0.00  0.00     0.052 A 
ATOM      4  C   LIG d   1       8.777  -8.105  -3.104  0.00  0.00     0.146 A 
ATOM      5  C   LIG d   1       8.183  -9.346  -2.927  0.00  0.00     0.053 A 
ATOM      6  C   LIG d   1       8.529 -10.154  -1.858  0.00  0.00     0.127 A 
ATOM      7  C   LIG d   1       7.239  -9.502  -4.085  0.00  0.00     0.070 C 
ATOM      8  C   LIG d   1       7.164  -8.084  -4.641  0.00  0.00     0.123 C 
ATOM      9  C   LIG d   1       6.139  -7.660  -5.400  0.00  0.00     0.025 C 
ATOM     10  C   LIG d   1       4.969  -8.431  -5.509  0.00  0.00     0.192 C 
ATOM     11  O   LIG d   1       4.069  -8.027  -6.218  0.00  0.00    -0.287 OA
ATOM     12  C   LIG d   1       4.789  -9.737  -4.783  0.00  0.00     0.053 C 
ATOM     13  C   LIG d   1       5.830  -9.863  -3.683  0.00  0.00    -0.100 C 
ATOM     14  O   LIG d   1       5.549 -10.225  -2.567  0.00  0.00    -0.875 OA
ATOM     15  O   LIG d   1       8.241  -7.458  -4.171  0.00  0.00    -0.458 OA
ATOM     16  O   LIG d   1      11.073  -8.123  -0.233  0.00  0.00    -0.873 OA
ATOM     17  H   LIG d   1       6.212  -6.704  -5.940  0.00  0.00     0.069 H 
ENDROOT
BRANCH   3  18
ATOM     18  C   LIG d   1      10.447  -6.408  -2.377  0.00  0.00     0.163 C 
ATOM     19  O   LIG d   1      11.550  -6.365  -2.879  0.00  0.00    -0.292 OA
BRANCH  18  20
ATOM     20  C   LIG d   1       9.767  -5.135  -1.943  0.00  0.00    -0.001 C 
ATOM     21  H   LIG d   1       8.906  -5.378  -1.304  0.00  0.00     0.031 H 
ATOM     22  H   LIG d   1       9.421  -4.583  -2.830  0.00  0.00     0.031 H 
ATOM     23  H   LIG d   1      10.479  -4.513  -1.380  0.00  0.00     0.031 H 
ENDBRANCH  18  20
ENDBRANCH   3  18
BRANCH   1  24
ATOM     24  C   LIG d   1       9.866 -10.629   0.213  0.00  0.00    -0.037 C 
ATOM     25  H   LIG d   1       9.207 -10.407   1.067  0.00  0.00     0.028 H 
ATOM     26  H   LIG d   1      10.911 -10.444   0.498  0.00  0.00     0.028 H 
ATOM     27  H   LIG d   1       9.745 -11.683  -0.076  0.00  0.00     0.028 H 
ENDBRANCH   1  24
BRANCH   6  28
ATOM     28  O   LIG d   1       7.919 -11.355  -1.696  0.00  0.00    -0.506 OA
ATOM     29  H   LIG d   1       6.908 -11.517  -2.097  0.00  0.00     0.292 HD
ENDBRANCH   6  28
BRANCH   7  30
ATOM     30  C   LIG d   1       7.798 -10.478  -5.124  0.00  0.00    -0.045 C 
ATOM     31  H   LIG d   1       8.877 -10.305  -5.245  0.00  0.00     0.025 H 
ATOM     32  H   LIG d   1       7.290 -10.317  -6.087  0.00  0.00     0.025 H 
ATOM     33  H   LIG d   1       7.627 -11.510  -4.787  0.00  0.00     0.025 H 
ENDBRANCH   7  30
BRANCH  12  34
ATOM     34  C   LIG d   1       3.915 -10.966  -4.788  0.00  0.00     0.163 C 
ATOM     35  O   LIG d   1       2.876 -10.970  -4.173  0.00  0.00    -0.292 OA
BRANCH  34  36
ATOM     36  C   LIG d   1       4.339 -12.188  -5.561  0.00  0.00    -0.001 C 
ATOM     37  H   LIG d   1       5.134 -12.712  -5.010  0.00  0.00     0.031 H 
ATOM     38  H   LIG d   1       4.716 -11.885  -6.549  0.00  0.00     0.031 H 
ATOM     39  H   LIG d   1       3.476 -12.859  -5.687  0.00  0.00     0.031 H 
ENDBRANCH  34  36
ENDBRANCH  12  34
TORSDOF 7
ENDMDL
MODEL 9
REMARK VINA RESULT:      -5.2     10.102     13.121
REMARK  7 active torsions:
REMARK  status: ('A' for Active; 'I' for Inactive)
REMARK    1  A    between atoms: C_1  and  C_2 
REMARK    2  A    between atoms: C_4  and  C_22 
REMARK    3  A    between atoms: C_7  and  O_8 
REMARK    4  A    between atoms: C_9  and  C_21 
REMARK    5  A    between atoms: C_14  and  C_17 
REMARK    6  A    between atoms: C_17  and  C_19 
REMARK    7  A    between atoms: C_22  and  C_24 
ROOT
ATOM      1  C   LIG d   1      10.407   6.281  -2.599  0.00  0.00    -0.015 A 
ATOM      2  C   LIG d   1      10.040   7.141  -1.581  0.00  0.00    -0.088 A 
ATOM      3  C   LIG d   1       9.985   8.526  -1.815  0.00  0.00     0.052 A 
ATOM      4  C   LIG d   1      10.292   9.036  -3.095  0.00  0.00     0.146 A 
ATOM      5  C   LIG d   1      10.679   8.152  -4.092  0.00  0.00     0.053 A 
ATOM      6  C   LIG d   1      10.727   6.789  -3.853  0.00  0.00     0.127 A 
ATOM      7  C   LIG d   1      10.999   9.010  -5.282  0.00  0.00     0.070 C 
ATOM      8  C   LIG d   1      10.394  10.354  -4.889  0.00  0.00     0.123 C 
ATOM      9  C   LIG d   1      10.069  11.292  -5.796  0.00  0.00     0.025 C 
ATOM     10  C   LIG d   1      10.043  10.977  -7.165  0.00  0.00     0.192 C 
ATOM     11  O   LIG d   1       9.762  11.852  -7.959  0.00  0.00    -0.287 OA
ATOM     12  C   LIG d   1      10.350   9.598  -7.686  0.00  0.00     0.053 C 
ATOM     13  C   LIG d   1      10.290   8.593  -6.547  0.00  0.00    -0.100 C 
ATOM     14  O   LIG d   1       9.718   7.535  -6.648  0.00  0.00    -0.875 OA
ATOM     15  O   LIG d   1      10.251  10.309  -3.566  0.00  0.00    -0.458 OA
ATOM     16  O   LIG d   1       9.734   6.649  -0.356  0.00  0.00    -0.873 OA
ATOM     17  H   LIG d   1       9.820  12.312  -5.468  0.00  0.00     0.069 H 
ENDROOT
BRANCH   3  18
ATOM     18  C   LIG d   1       9.612   9.437  -0.735  0.00  0.00     0.163 C 
ATOM     19  O   LIG d   1       8.449   9.745  -0.575  0.00  0.00    -0.292 OA
BRANCH  18  20
ATOM     20  C   LIG d   1      10.670   9.992   0.183  0.00  0.00    -0.001 C 
ATOM     21  H   LIG d   1      11.659   9.872  -0.282  0.00  0.00     0.031 H 
ATOM     22  H   LIG d   1      10.647   9.450   1.140  0.00  0.00     0.031 H 
ATOM     23  H   LIG d   1      10.477  11.060   0.362  0.00  0.00     0.031 H 
ENDBRANCH  18  20
ENDBRANCH   3  18
BRANCH   1  24
ATOM     24  C   LIG d   1      10.458   4.796  -2.351  0.00  0.00    -0.037 C 
ATOM     25  H   LIG d   1       9.436   4.408  -2.231  0.00  0.00     0.028 H 
ATOM     26  H   LIG d   1      11.036   4.597  -1.437  0.00  0.00     0.028 H 
ATOM     27  H   LIG d   1      10.941   4.298  -3.205  0.00  0.00     0.028 H 
ENDBRANCH   1  24
BRANCH   6  28
ATOM     28  O   LIG d   1      11.090   5.943  -4.850  0.00  0.00    -0.506 OA
ATOM     29  H   LIG d   1      11.885   5.203  -4.682  0.00  0.00     0.292 HD
ENDBRANCH   6  28
BRANCH   7  30
ATOM     30  C   LIG d   1      12.511   9.121  -5.490  0.00  0.00    -0.045 C 
ATOM     31  H   LIG d   1      12.887  10.015  -4.971  0.00  0.00     0.025 H 
ATOM     32  H   LIG d   1      12.727   9.204  -6.566  0.00  0.00     0.025 H 
ATOM     33  H   LIG d   1      13.004   8.226  -5.084  0.00  0.00     0.025 H 
ENDBRANCH   7  30
BRANCH  12  34
ATOM     34  C   LIG d   1      10.698   8.884  -8.967  0.00  0.00     0.163 C 
ATOM     35  O   LIG d   1       9.868   8.763  -9.835  0.00  0.00    -0.292 OA
BRANCH  34  36
ATOM     36  C   LIG d   1      12.082   8.320  -9.162  0.00  0.00    -0.001 C 
ATOM     37  H   LIG d   1      12.344   8.354 -10.230  0.00  0.00     0.031 H 
ATOM     38  H   LIG d   1      12.105   7.277  -8.813  0.00  0.00     0.031 H 
ATOM     39  H   LIG d   1      12.805   8.916  -8.586  0.00  0.00     0.031 H 
ENDBRANCH  34  36
ENDBRANCH  12  34
TORSDOF 7
ENDMDL
MODEL 10
REMARK VINA RESULT:      -5.1     10.840     13.620
REMARK  7 active torsions:
REMARK  status: ('A' for Active; 'I' for Inactive)
REMARK    1  A    between atoms: C_1  and  C_2 
REMARK    2  A    between atoms: C_4  and  C_22 
REMARK    3  A    between atoms: C_7  and  O_8 
REMARK    4  A    between atoms: C_9  and  C_21 
REMARK    5  A    between atoms: C_14  and  C_17 
REMARK    6  A    between atoms: C_17  and  C_19 
REMARK    7  A    between atoms: C_22  and  C_24 
ROOT
ATOM      1  C   LIG d   1       9.701   7.042  -3.648  0.00  0.00    -0.015 A 
ATOM      2  C   LIG d   1      10.135   6.352  -2.530  0.00  0.00    -0.088 A 
ATOM      3  C   LIG d   1      10.720   7.047  -1.457  0.00  0.00     0.052 A 
ATOM      4  C   LIG d   1      10.850   8.452  -1.517  0.00  0.00     0.146 A 
ATOM      5  C   LIG d   1      10.427   9.115  -2.659  0.00  0.00     0.053 A 
ATOM      6  C   LIG d   1       9.850   8.423  -3.711  0.00  0.00     0.127 A 
ATOM      7  C   LIG d   1      10.770  10.559  -2.431  0.00  0.00     0.070 C 
ATOM      8  C   LIG d   1      11.070  10.592  -0.935  0.00  0.00     0.123 C 
ATOM      9  C   LIG d   1      11.012  11.724  -0.213  0.00  0.00     0.025 C 
ATOM     10  C   LIG d   1      10.431  12.883  -0.754  0.00  0.00     0.192 C 
ATOM     11  O   LIG d   1      10.411  13.894  -0.080  0.00  0.00    -0.287 OA
ATOM     12  C   LIG d   1       9.834  12.921  -2.135  0.00  0.00     0.053 C 
ATOM     13  C   LIG d   1       9.614  11.505  -2.640  0.00  0.00    -0.100 C 
ATOM     14  O   LIG d   1       8.586  11.161  -3.172  0.00  0.00    -0.875 OA
ATOM     15  O   LIG d   1      11.319   9.330  -0.593  0.00  0.00    -0.458 OA
ATOM     16  O   LIG d   1       9.997   5.005  -2.470  0.00  0.00    -0.873 OA
ATOM     17  H   LIG d   1      11.419  11.746   0.809  0.00  0.00     0.069 H 
ENDROOT
BRANCH   3  18
ATOM     18  C   LIG d   1      11.191   6.317  -0.283  0.00  0.00     0.163 C 
ATOM     19  O   LIG d   1      10.442   6.124   0.653  0.00  0.00    -0.292 OA
BRANCH  18  20
ATOM     20  C   LIG d   1      12.606   5.803  -0.233  0.00  0.00    -0.001 C 
ATOM     21  H   LIG d   1      13.301   6.648  -0.121  0.00  0.00     0.031 H 
ATOM     22  H   LIG d   1      12.833   5.263  -1.165  0.00  0.00     0.031 H 
ATOM     23  H   LIG d   1      12.718   5.119   0.622  0.00  0.00     0.031 H 
ENDBRANCH  18  20
ENDBRANCH   3  18
BRANCH   1  24
ATOM     24  C   LIG d   1       9.069   6.298  -4.796  0.00  0.00    -0.037 C 
ATOM     25  H   LIG d   1       8.100   6.758  -5.041  0.00  0.00     0.028 H 
ATOM     26  H   LIG d   1       8.915   5.247  -4.511  0.00  0.00     0.028 H 
ATOM     27  H   LIG d   1       9.730   6.347  -5.673  0.00  0.00     0.028 H 
ENDBRANCH   1  24
BRANCH   6  28
ATOM     28  O   LIG d   1       9.426   9.097  -4.810  0.00  0.00    -0.506 OA
ATOM     29  H   LIG d   1       9.502   8.632  -5.803  0.00  0.00     0.292 HD
ENDBRANCH   6  28
BRANCH   7  30
ATOM     30  C   LIG d   1      11.994  10.971  -3.252  0.00  0.00    -0.045 C 
ATOM     31  H   LIG d   1      11.809  10.763  -4.316  0.00  0.00     0.025 H 
ATOM     32  H   LIG d   1      12.872  10.399  -2.914  0.00  0.00     0.025 H 
ATOM     33  H   LIG d   1      12.182  12.046  -3.116  0.00  0.00     0.025 H 
ENDBRANCH   7  30
BRANCH  12  34
ATOM     34  C   LIG d   1       9.381  13.904  -3.186  0.00  0.00     0.163 C 
ATOM     35  O   LIG d   1       8.371  14.543  -3.020  0.00  0.00    -0.292 OA
BRANCH  34  36
ATOM     36  C   LIG d   1      10.192  14.087  -4.443  0.00  0.00    -0.001 C 
ATOM     37  H   LIG d   1       9.831  13.392  -5.216  0.00  0.00     0.031 H 
ATOM     38  H   LIG d   1      11.251  13.881  -4.230  0.00  0.00     0.031 H 
ATOM     39  H   LIG d   1      10.084  15.122  -4.801  0.00  0.00     0.031 H 
ENDBRANCH  34  36
ENDBRANCH  12  34
TORSDOF 7
ENDMDL
