MODEL 1
REMARK VINA RESULT:      -5.8      0.000      0.000
REMARK  10 active torsions:
REMARK  status: ('A' for Active; 'I' for Inactive)
REMARK    1  A    between atoms: C_1  and  C_2 
REMARK    2  A    between atoms: C_2  and  O_3 
REMARK    3  A    between atoms: O_3  and  C_4 
REMARK    4  A    between atoms: C_4  and  C_6 
REMARK    5  A    between atoms: C_6  and  C_8 
REMARK    6  A    between atoms: C_6  and  O_9 
REMARK    7  A    between atoms: O_9  and  C_10 
REMARK    8  A    between atoms: C_15  and  C_21 
REMARK    9  A    between atoms: C_24  and  O_27 
REMARK   10  A    between atoms: O_27  and  C_28 
ROOT
ATOM      1  C   LIG d   1       6.282  -1.341  -5.067  0.00  0.00     0.125 A 
ATOM      2  C   LIG d   1       7.206  -2.161  -4.423  0.00  0.00    -0.019 A 
ATOM      3  C   LIG d   1       7.123  -3.517  -4.536  0.00  0.00    -0.048 A 
ATOM      4  C   LIG d   1       6.103  -4.094  -5.308  0.00  0.00     0.018 A 
ATOM      5  C   LIG d   1       6.013  -5.506  -5.430  0.00  0.00    -0.036 A 
ATOM      6  C   LIG d   1       5.008  -6.040  -6.190  0.00  0.00     0.067 A 
ATOM      7  C   LIG d   1       4.060  -5.140  -6.850  0.00  0.00     0.345 A 
ATOM      8  O   LIG d   1       3.161  -5.599  -7.529  0.00  0.00    -0.244 OA
ATOM      9  O   LIG d   1       4.180  -3.809  -6.709  0.00  0.00    -0.422 OA
ATOM     10  C   LIG d   1       5.169  -3.271  -5.961  0.00  0.00     0.143 A 
ATOM     11  C   LIG d   1       5.265  -1.893  -5.829  0.00  0.00     0.023 A 
ATOM     12  H   LIG d   1       7.992  -1.719  -3.828  0.00  0.00     0.065 H 
ATOM     13  H   LIG d   1       7.842  -4.147  -4.033  0.00  0.00     0.063 H 
ATOM     14  H   LIG d   1       6.727  -6.146  -4.933  0.00  0.00     0.063 H 
ATOM     15  H   LIG d   1       4.550  -1.251  -6.323  0.00  0.00     0.069 H 
ENDROOT
BRANCH   1  16
ATOM     16  O   LIG d   1       6.376   0.008  -4.945  0.00  0.00    -0.478 OA
BRANCH  16  17
ATOM     17  C   LIG d   1       6.718   0.520  -3.656  0.00  0.00     0.193 C 
ATOM     18  H   LIG d   1       7.273  -0.236  -3.100  0.00  0.00     0.085 H 
BRANCH  17  19
ATOM     19  C   LIG d   1       5.459   0.872  -2.906  0.00  0.00     0.348 C 
ATOM     20  O   LIG d   1       4.925   1.940  -3.090  0.00  0.00    -0.247 OA
BRANCH  19  21
ATOM     21  O   LIG d   1       4.931   0.001  -2.033  0.00  0.00    -0.462 OA
BRANCH  21  22
ATOM     22  C   LIG d   1       3.696  -0.656  -2.422  0.00  0.00     0.090 C 
ATOM     23  H   LIG d   1       2.898  -0.364  -1.738  0.00  0.00     0.069 H 
ATOM     24  H   LIG d   1       3.431  -0.360  -3.437  0.00  0.00     0.069 H 
BRANCH  22  25
ATOM     25  C   LIG d   1       3.885  -2.173  -2.367  0.00  0.00    -0.031 C 
ATOM     26  H   LIG d   1       3.982  -2.564  -3.380  0.00  0.00     0.026 H 
ATOM     27  H   LIG d   1       4.786  -2.407  -1.799  0.00  0.00     0.026 H 
ATOM     28  H   LIG d   1       3.021  -2.630  -1.882  0.00  0.00     0.026 H 
ENDBRANCH  22  25
ENDBRANCH  21  22
ENDBRANCH  19  21
ENDBRANCH  17  19
BRANCH  17  29
ATOM     29  C   LIG d   1       7.582   1.771  -3.817  0.00  0.00    -0.017 C 
ATOM     30  H   LIG d   1       7.127   2.436  -4.551  0.00  0.00     0.027 H 
ATOM     31  H   LIG d   1       7.658   2.287  -2.858  0.00  0.00     0.027 H 
ATOM     32  H   LIG d   1       8.579   1.486  -4.154  0.00  0.00     0.027 H 
ENDBRANCH  17  29
ENDBRANCH  16  17
ENDBRANCH   1  16
BRANCH   6  33
ATOM     33  C   LIG d   1       4.882  -7.508  -6.342  0.00  0.00    -0.011 A 
ATOM     34  C   LIG d   1       4.813  -8.076  -7.614  0.00  0.00    -0.050 A 
ATOM     35  C   LIG d   1       4.697  -9.442  -7.753  0.00  0.00    -0.019 A 
ATOM     36  H   LIG d   1       4.853  -7.445  -8.490  0.00  0.00     0.062 H 
ATOM     37  C   LIG d   1       4.647 -10.255  -6.627  0.00  0.00     0.120 A 
ATOM     38  H   LIG d   1       4.644  -9.883  -8.738  0.00  0.00     0.065 H 
ATOM     39  C   LIG d   1       4.714  -9.693  -5.359  0.00  0.00    -0.019 A 
ATOM     40  C   LIG d   1       4.837  -8.327  -5.214  0.00  0.00    -0.050 A 
ATOM     41  H   LIG d   1       4.675 -10.327  -4.486  0.00  0.00     0.065 H 
ATOM     42  H   LIG d   1       4.893  -7.891  -4.227  0.00  0.00     0.062 H 
BRANCH  37  43
ATOM     43  O   LIG d   1       4.532 -11.601  -6.768  0.00  0.00    -0.495 OA
BRANCH  43  44
ATOM     44  C   LIG d   1       3.550 -12.255  -5.960  0.00  0.00     0.079 C 
ATOM     45  H   LIG d   1       2.575 -11.800  -6.133  0.00  0.00     0.066 H 
ATOM     46  H   LIG d   1       3.509 -13.312  -6.224  0.00  0.00     0.066 H 
ATOM     47  H   LIG d   1       3.818 -12.154  -4.908  0.00  0.00     0.066 H 
ENDBRANCH  43  44
ENDBRANCH  37  43
ENDBRANCH   6  33
TORSDOF 10
ENDMDL
MODEL 2
REMARK VINA RESULT:      -5.6      7.084     14.726
REMARK  10 active torsions:
REMARK  status: ('A' for Active; 'I' for Inactive)
REMARK    1  A    between atoms: C_1  and  C_2 
REMARK    2  A    between atoms: C_2  and  O_3 
REMARK    3  A    between atoms: O_3  and  C_4 
REMARK    4  A    between atoms: C_4  and  C_6 
REMARK    5  A    between atoms: C_6  and  C_8 
REMARK    6  A    between atoms: C_6  and  O_9 
REMARK    7  A    between atoms: O_9  and  C_10 
REMARK    8  A    between atoms: C_15  and  C_21 
REMARK    9  A    between atoms: C_24  and  O_27 
REMARK   10  A    between atoms: O_27  and  C_28 
ROOT
ATOM      1  C   LIG d   1       9.612   3.875  -4.240  0.00  0.00     0.125 A 
ATOM      2  C   LIG d   1       9.508   5.033  -5.009  0.00  0.00    -0.019 A 
ATOM      3  C   LIG d   1       9.680   6.259  -4.437  0.00  0.00    -0.048 A 
ATOM      4  C   LIG d   1       9.964   6.358  -3.066  0.00  0.00     0.018 A 
ATOM      5  C   LIG d   1      10.145   7.632  -2.466  0.00  0.00    -0.036 A 
ATOM      6  C   LIG d   1      10.423   7.698  -1.128  0.00  0.00     0.067 A 
ATOM      7  C   LIG d   1      10.524   6.455  -0.360  0.00  0.00     0.345 A 
ATOM      8  O   LIG d   1      10.771   6.497   0.831  0.00  0.00    -0.244 OA
ATOM      9  O   LIG d   1      10.346   5.269  -0.966  0.00  0.00    -0.422 OA
ATOM     10  C   LIG d   1      10.072   5.193  -2.287  0.00  0.00     0.143 A 
ATOM     11  C   LIG d   1       9.888   3.954  -2.885  0.00  0.00     0.023 A 
ATOM     12  H   LIG d   1       9.288   4.959  -6.064  0.00  0.00     0.065 H 
ATOM     13  H   LIG d   1       9.596   7.152  -5.038  0.00  0.00     0.063 H 
ATOM     14  H   LIG d   1      10.066   8.533  -3.057  0.00  0.00     0.063 H 
ATOM     15  H   LIG d   1       9.963   3.052  -2.295  0.00  0.00     0.069 H 
ENDROOT
BRANCH   1  16
ATOM     16  O   LIG d   1       9.438   2.661  -4.823  0.00  0.00    -0.478 OA
BRANCH  16  17
ATOM     17  C   LIG d   1       8.100   2.284  -5.150  0.00  0.00     0.193 C 
ATOM     18  H   LIG d   1       7.460   3.167  -5.139  0.00  0.00     0.085 H 
BRANCH  17  19
ATOM     19  C   LIG d   1       7.597   1.286  -4.138  0.00  0.00     0.348 C 
ATOM     20  O   LIG d   1       8.110   0.196  -4.060  0.00  0.00    -0.247 OA
BRANCH  19  21
ATOM     21  O   LIG d   1       6.580   1.610  -3.325  0.00  0.00    -0.462 OA
BRANCH  21  22
ATOM     22  C   LIG d   1       5.672   0.542  -2.948  0.00  0.00     0.090 C 
ATOM     23  H   LIG d   1       5.126   0.201  -3.827  0.00  0.00     0.069 H 
ATOM     24  H   LIG d   1       6.242  -0.289  -2.531  0.00  0.00     0.069 H 
BRANCH  22  25
ATOM     25  C   LIG d   1       4.684   1.057  -1.900  0.00  0.00    -0.031 C 
ATOM     26  H   LIG d   1       3.673   0.761  -2.178  0.00  0.00     0.026 H 
ATOM     27  H   LIG d   1       4.932   0.633  -0.927  0.00  0.00     0.026 H 
ATOM     28  H   LIG d   1       4.744   2.145  -1.848  0.00  0.00     0.026 H 
ENDBRANCH  22  25
ENDBRANCH  21  22
ENDBRANCH  19  21
ENDBRANCH  17  19
BRANCH  17  29
ATOM     29  C   LIG d   1       8.073   1.654  -6.544  0.00  0.00    -0.017 C 
ATOM     30  H   LIG d   1       8.617   2.291  -7.242  0.00  0.00     0.027 H 
ATOM     31  H   LIG d   1       8.545   0.671  -6.507  0.00  0.00     0.027 H 
ATOM     32  H   LIG d   1       7.041   1.548  -6.877  0.00  0.00     0.027 H 
ENDBRANCH  17  29
ENDBRANCH  16  17
ENDBRANCH   1  16
BRANCH   6  33
ATOM     33  C   LIG d   1      10.619   9.009  -0.466  0.00  0.00    -0.011 A 
ATOM     34  C   LIG d   1      11.901   9.428  -0.109  0.00  0.00    -0.050 A 
ATOM     35  C   LIG d   1      12.080  10.648   0.506  0.00  0.00    -0.019 A 
ATOM     36  H   LIG d   1      12.753   8.797  -0.316  0.00  0.00     0.062 H 
ATOM     37  C   LIG d   1      10.986  11.461   0.771  0.00  0.00     0.120 A 
ATOM     38  H   LIG d   1      13.073  10.974   0.782  0.00  0.00     0.065 H 
ATOM     39  C   LIG d   1       9.708  11.048   0.419  0.00  0.00    -0.019 A 
ATOM     40  C   LIG d   1       9.523   9.830  -0.202  0.00  0.00    -0.050 A 
ATOM     41  H   LIG d   1       8.859  11.682   0.627  0.00  0.00     0.065 H 
ATOM     42  H   LIG d   1       8.529   9.510  -0.480  0.00  0.00     0.062 H 
BRANCH  37  43
ATOM     43  O   LIG d   1      11.166  12.663   1.378  0.00  0.00    -0.495 OA
BRANCH  43  44
ATOM     44  C   LIG d   1      12.514  13.109   1.548  0.00  0.00     0.079 C 
ATOM     45  H   LIG d   1      12.929  12.671   2.455  0.00  0.00     0.066 H 
ATOM     46  H   LIG d   1      13.109  12.799   0.690  0.00  0.00     0.066 H 
ATOM     47  H   LIG d   1      12.530  14.196   1.628  0.00  0.00     0.066 H 
ENDBRANCH  43  44
ENDBRANCH  37  43
ENDBRANCH   6  33
TORSDOF 10
ENDMDL
MODEL 3
REMARK VINA RESULT:      -5.6      6.053      7.785
REMARK  10 active torsions:
REMARK  status: ('A' for Active; 'I' for Inactive)
REMARK    1  A    between atoms: C_1  and  C_2 
REMARK    2  A    between atoms: C_2  and  O_3 
REMARK    3  A    between atoms: O_3  and  C_4 
REMARK    4  A    between atoms: C_4  and  C_6 
REMARK    5  A    between atoms: C_6  and  C_8 
REMARK    6  A    between atoms: C_6  and  O_9 
REMARK    7  A    between atoms: O_9  and  C_10 
REMARK    8  A    between atoms: C_15  and  C_21 
REMARK    9  A    between atoms: C_24  and  O_27 
REMARK   10  A    between atoms: O_27  and  C_28 
ROOT
ATOM      1  C   LIG d   1       3.695   0.062  -7.566  0.00  0.00     0.125 A 
ATOM      2  C   LIG d   1       3.321   1.152  -8.351  0.00  0.00    -0.019 A 
ATOM      3  C   LIG d   1       2.686   0.959  -9.542  0.00  0.00    -0.048 A 
ATOM      4  C   LIG d   1       2.405  -0.343  -9.982  0.00  0.00     0.018 A 
ATOM      5  C   LIG d   1       1.743  -0.549 -11.221  0.00  0.00    -0.036 A 
ATOM      6  C   LIG d   1       1.481  -1.830 -11.625  0.00  0.00     0.067 A 
ATOM      7  C   LIG d   1       1.892  -2.945 -10.767  0.00  0.00     0.345 A 
ATOM      8  O   LIG d   1       1.666  -4.090 -11.112  0.00  0.00    -0.244 OA
ATOM      9  O   LIG d   1       2.516  -2.706  -9.601  0.00  0.00    -0.422 OA
ATOM     10  C   LIG d   1       2.779  -1.445  -9.193  0.00  0.00     0.143 A 
ATOM     11  C   LIG d   1       3.430  -1.230  -7.987  0.00  0.00     0.023 A 
ATOM     12  H   LIG d   1       3.537   2.155  -8.014  0.00  0.00     0.065 H 
ATOM     13  H   LIG d   1       2.401   1.807 -10.146  0.00  0.00     0.063 H 
ATOM     14  H   LIG d   1       1.451   0.291 -11.834  0.00  0.00     0.063 H 
ATOM     15  H   LIG d   1       3.726  -2.070  -7.375  0.00  0.00     0.069 H 
ENDROOT
BRANCH   1  16
ATOM     16  O   LIG d   1       4.326   0.270  -6.382  0.00  0.00    -0.478 OA
BRANCH  16  17
ATOM     17  C   LIG d   1       4.055  -0.659  -5.331  0.00  0.00     0.193 C 
ATOM     18  H   LIG d   1       3.489  -1.502  -5.727  0.00  0.00     0.085 H 
BRANCH  17  19
ATOM     19  C   LIG d   1       3.253   0.023  -4.252  0.00  0.00     0.348 C 
ATOM     20  O   LIG d   1       2.266  -0.512  -3.806  0.00  0.00    -0.247 OA
BRANCH  19  21
ATOM     21  O   LIG d   1       3.634   1.223  -3.789  0.00  0.00    -0.462 OA
BRANCH  21  22
ATOM     22  C   LIG d   1       3.521   1.444  -2.359  0.00  0.00     0.090 C 
ATOM     23  H   LIG d   1       3.528   2.515  -2.155  0.00  0.00     0.069 H 
ATOM     24  H   LIG d   1       2.588   1.012  -1.997  0.00  0.00     0.069 H 
BRANCH  22  25
ATOM     25  C   LIG d   1       4.701   0.781  -1.644  0.00  0.00    -0.031 C 
ATOM     26  H   LIG d   1       4.335  -0.032  -1.019  0.00  0.00     0.026 H 
ATOM     27  H   LIG d   1       5.397   0.386  -2.384  0.00  0.00     0.026 H 
ATOM     28  H   LIG d   1       5.210   1.518  -1.023  0.00  0.00     0.026 H 
ENDBRANCH  22  25
ENDBRANCH  21  22
ENDBRANCH  19  21
ENDBRANCH  17  19
BRANCH  17  29
ATOM     29  C   LIG d   1       5.374  -1.163  -4.743  0.00  0.00    -0.017 C 
ATOM     30  H   LIG d   1       6.004  -1.553  -5.542  0.00  0.00     0.027 H 
ATOM     31  H   LIG d   1       5.888  -0.340  -4.244  0.00  0.00     0.027 H 
ATOM     32  H   LIG d   1       5.172  -1.955  -4.021  0.00  0.00     0.027 H 
ENDBRANCH  17  29
ENDBRANCH  16  17
ENDBRANCH   1  16
BRANCH   6  33
ATOM     33  C   LIG d   1       0.792  -2.086 -12.912  0.00  0.00    -0.011 A 
ATOM     34  C   LIG d   1      -0.600  -2.027 -12.983  0.00  0.00    -0.050 A 
ATOM     35  C   LIG d   1      -1.238  -2.264 -14.181  0.00  0.00    -0.019 A 
ATOM     36  H   LIG d   1      -1.177  -1.793 -12.100  0.00  0.00     0.062 H 
ATOM     37  C   LIG d   1      -0.498  -2.563 -15.317  0.00  0.00     0.120 A 
ATOM     38  H   LIG d   1      -2.316  -2.218 -14.237  0.00  0.00     0.065 H 
ATOM     39  C   LIG d   1       0.888  -2.624 -15.250  0.00  0.00    -0.019 A 
ATOM     40  C   LIG d   1       1.533  -2.382 -14.055  0.00  0.00    -0.050 A 
ATOM     41  H   LIG d   1       1.462  -2.857 -16.135  0.00  0.00     0.065 H 
ATOM     42  H   LIG d   1       2.611  -2.425 -14.004  0.00  0.00     0.062 H 
BRANCH  37  43
ATOM     43  O   LIG d   1      -1.130  -2.797 -16.497  0.00  0.00    -0.495 OA
BRANCH  43  44
ATOM     44  C   LIG d   1      -1.726  -4.085 -16.669  0.00  0.00     0.079 C 
ATOM     45  H   LIG d   1      -2.721  -3.970 -17.097  0.00  0.00     0.066 H 
ATOM     46  H   LIG d   1      -1.110  -4.683 -17.339  0.00  0.00     0.066 H 
ATOM     47  H   LIG d   1      -1.801  -4.583 -15.702  0.00  0.00     0.066 H 
ENDBRANCH  43  44
ENDBRANCH  37  43
ENDBRANCH   6  33
TORSDOF 10
ENDMDL
MODEL 4
REMARK VINA RESULT:      -5.3     12.052     13.484
REMARK  10 active torsions:
REMARK  status: ('A' for Active; 'I' for Inactive)
REMARK    1  A    between atoms: C_1  and  C_2 
REMARK    2  A    between atoms: C_2  and  O_3 
REMARK    3  A    between atoms: O_3  and  C_4 
REMARK    4  A    between atoms: C_4  and  C_6 
REMARK    5  A    between atoms: C_6  and  C_8 
REMARK    6  A    between atoms: C_6  and  O_9 
REMARK    7  A    between atoms: O_9  and  C_10 
REMARK    8  A    between atoms: C_15  and  C_21 
REMARK    9  A    between atoms: C_24  and  O_27 
REMARK   10  A    between atoms: O_27  and  C_28 
ROOT
ATOM      1  C   LIG d   1       9.875   6.768  -1.667  0.00  0.00     0.125 A 
ATOM      2  C   LIG d   1      10.077   5.455  -2.087  0.00  0.00    -0.019 A 
ATOM      3  C   LIG d   1      10.134   5.157  -3.417  0.00  0.00    -0.048 A 
ATOM      4  C   LIG d   1       9.991   6.178  -4.369  0.00  0.00     0.018 A 
ATOM      5  C   LIG d   1      10.052   5.873  -5.755  0.00  0.00    -0.036 A 
ATOM      6  C   LIG d   1       9.910   6.889  -6.661  0.00  0.00     0.067 A 
ATOM      7  C   LIG d   1       9.701   8.254  -6.173  0.00  0.00     0.345 A 
ATOM      8  O   LIG d   1       9.574   9.169  -6.966  0.00  0.00    -0.244 OA
ATOM      9  O   LIG d   1       9.651   8.500  -4.853  0.00  0.00    -0.422 OA
ATOM     10  C   LIG d   1       9.790   7.505  -3.950  0.00  0.00     0.143 A 
ATOM     11  C   LIG d   1       9.728   7.788  -2.592  0.00  0.00     0.023 A 
ATOM     12  H   LIG d   1      10.186   4.668  -1.356  0.00  0.00     0.065 H 
ATOM     13  H   LIG d   1      10.289   4.138  -3.736  0.00  0.00     0.063 H 
ATOM     14  H   LIG d   1      10.207   4.858  -6.087  0.00  0.00     0.063 H 
ATOM     15  H   LIG d   1       9.568   8.803  -2.259  0.00  0.00     0.069 H 
ENDROOT
BRANCH   1  16
ATOM     16  O   LIG d   1       9.820   7.050  -0.340  0.00  0.00    -0.478 OA
BRANCH  16  17
ATOM     17  C   LIG d   1      11.065   7.231   0.337  0.00  0.00     0.193 C 
ATOM     18  H   LIG d   1      11.877   6.859  -0.288  0.00  0.00     0.085 H 
BRANCH  17  19
ATOM     19  C   LIG d   1      11.045   6.473   1.640  0.00  0.00     0.348 C 
ATOM     20  O   LIG d   1      10.684   5.320   1.661  0.00  0.00    -0.247 OA
BRANCH  19  21
ATOM     21  O   LIG d   1      11.428   7.078   2.774  0.00  0.00    -0.462 OA
BRANCH  21  22
ATOM     22  C   LIG d   1      11.010   6.464   4.022  0.00  0.00     0.090 C 
ATOM     23  H   LIG d   1       9.925   6.363   4.032  0.00  0.00     0.069 H 
ATOM     24  H   LIG d   1      11.467   5.478   4.113  0.00  0.00     0.069 H 
BRANCH  22  25
ATOM     25  C   LIG d   1      11.452   7.340   5.196  0.00  0.00    -0.031 C 
ATOM     26  H   LIG d   1      12.387   6.956   5.602  0.00  0.00     0.026 H 
ATOM     27  H   LIG d   1      11.599   8.363   4.849  0.00  0.00     0.026 H 
ATOM     28  H   LIG d   1      10.684   7.325   5.970  0.00  0.00     0.026 H 
ENDBRANCH  22  25
ENDBRANCH  21  22
ENDBRANCH  19  21
ENDBRANCH  17  19
BRANCH  17  29
ATOM     29  C   LIG d   1      11.281   8.720   0.618  0.00  0.00    -0.017 C 
ATOM     30  H   LIG d   1      10.582   9.307   0.023  0.00  0.00     0.027 H 
ATOM     31  H   LIG d   1      11.111   8.918   1.677  0.00  0.00     0.027 H 
ATOM     32  H   LIG d   1      12.303   8.996   0.356  0.00  0.00     0.027 H 
ENDBRANCH  17  29
ENDBRANCH  16  17
ENDBRANCH   1  16
BRANCH   6  33
ATOM     33  C   LIG d   1       9.968   6.611  -8.115  0.00  0.00    -0.011 A 
ATOM     34  C   LIG d   1       8.802   6.293  -8.813  0.00  0.00    -0.050 A 
ATOM     35  C   LIG d   1       8.859   6.035 -10.166  0.00  0.00    -0.019 A 
ATOM     36  H   LIG d   1       7.856   6.249  -8.293  0.00  0.00     0.062 H 
ATOM     37  C   LIG d   1      10.074   6.092 -10.835  0.00  0.00     0.120 A 
ATOM     38  H   LIG d   1       7.957   5.789 -10.707  0.00  0.00     0.065 H 
ATOM     39  C   LIG d   1      11.237   6.408 -10.144  0.00  0.00    -0.019 A 
ATOM     40  C   LIG d   1      11.186   6.672  -8.791  0.00  0.00    -0.050 A 
ATOM     41  H   LIG d   1      12.180   6.451 -10.667  0.00  0.00     0.065 H 
ATOM     42  H   LIG d   1      12.090   6.922  -8.255  0.00  0.00     0.062 H 
BRANCH  37  43
ATOM     43  O   LIG d   1      10.126   5.838 -12.168  0.00  0.00    -0.495 OA
BRANCH  43  44
ATOM     44  C   LIG d   1       9.032   6.305 -12.961  0.00  0.00     0.079 C 
ATOM     45  H   LIG d   1       9.060   7.393 -13.013  0.00  0.00     0.066 H 
ATOM     46  H   LIG d   1       9.110   5.892 -13.967  0.00  0.00     0.066 H 
ATOM     47  H   LIG d   1       8.093   5.985 -12.509  0.00  0.00     0.066 H 
ENDBRANCH  43  44
ENDBRANCH  37  43
ENDBRANCH   6  33
TORSDOF 10
ENDMDL
MODEL 5
REMARK VINA RESULT:      -5.3      4.504     11.322
REMARK  10 active torsions:
REMARK  status: ('A' for Active; 'I' for Inactive)
REMARK    1  A    between atoms: C_1  and  C_2 
REMARK    2  A    between atoms: C_2  and  O_3 
REMARK    3  A    between atoms: O_3  and  C_4 
REMARK    4  A    between atoms: C_4  and  C_6 
REMARK    5  A    between atoms: C_6  and  C_8 
REMARK    6  A    between atoms: C_6  and  O_9 
REMARK    7  A    between atoms: O_9  and  C_10 
REMARK    8  A    between atoms: C_15  and  C_21 
REMARK    9  A    between atoms: C_24  and  O_27 
REMARK   10  A    between atoms: O_27  and  C_28 
ROOT
ATOM      1  C   LIG d   1       7.010  -0.280  -4.626  0.00  0.00     0.125 A 
ATOM      2  C   LIG d   1       7.109  -0.024  -5.993  0.00  0.00    -0.019 A 
ATOM      3  C   LIG d   1       7.761   1.087  -6.441  0.00  0.00    -0.048 A 
ATOM      4  C   LIG d   1       8.338   1.978  -5.523  0.00  0.00     0.018 A 
ATOM      5  C   LIG d   1       9.018   3.135  -5.985  0.00  0.00    -0.036 A 
ATOM      6  C   LIG d   1       9.572   3.986  -5.067  0.00  0.00     0.067 A 
ATOM      7  C   LIG d   1       9.444   3.676  -3.641  0.00  0.00     0.345 A 
ATOM      8  O   LIG d   1       9.931   4.422  -2.812  0.00  0.00    -0.244 OA
ATOM      9  O   LIG d   1       8.792   2.569  -3.246  0.00  0.00    -0.422 OA
ATOM     10  C   LIG d   1       8.242   1.723  -4.144  0.00  0.00     0.143 A 
ATOM     11  C   LIG d   1       7.569   0.590  -3.706  0.00  0.00     0.023 A 
ATOM     12  H   LIG d   1       6.666  -0.708  -6.701  0.00  0.00     0.065 H 
ATOM     13  H   LIG d   1       7.833   1.281  -7.501  0.00  0.00     0.063 H 
ATOM     14  H   LIG d   1       9.099   3.340  -7.043  0.00  0.00     0.063 H 
ATOM     15  H   LIG d   1       7.485   0.387  -2.649  0.00  0.00     0.069 H 
ENDROOT
BRANCH   1  16
ATOM     16  O   LIG d   1       6.358  -1.390  -4.195  0.00  0.00    -0.478 OA
BRANCH  16  17
ATOM     17  C   LIG d   1       5.114  -1.698  -4.825  0.00  0.00     0.193 C 
ATOM     18  H   LIG d   1       5.062  -1.197  -5.792  0.00  0.00     0.085 H 
BRANCH  17  19
ATOM     19  C   LIG d   1       3.978  -1.225  -3.953  0.00  0.00     0.348 C 
ATOM     20  O   LIG d   1       3.330  -2.025  -3.321  0.00  0.00    -0.247 OA
BRANCH  19  21
ATOM     21  O   LIG d   1       3.688   0.083  -3.880  0.00  0.00    -0.462 OA
BRANCH  21  22
ATOM     22  C   LIG d   1       3.303   0.601  -2.580  0.00  0.00     0.090 C 
ATOM     23  H   LIG d   1       2.753   1.533  -2.709  0.00  0.00     0.069 H 
ATOM     24  H   LIG d   1       2.671  -0.126  -2.071  0.00  0.00     0.069 H 
BRANCH  22  25
ATOM     25  C   LIG d   1       4.557   0.860  -1.742  0.00  0.00    -0.031 C 
ATOM     26  H   LIG d   1       4.294   0.857  -0.685  0.00  0.00     0.026 H 
ATOM     27  H   LIG d   1       5.291   0.078  -1.936  0.00  0.00     0.026 H 
ATOM     28  H   LIG d   1       4.979   1.830  -2.009  0.00  0.00     0.026 H 
ENDBRANCH  22  25
ENDBRANCH  21  22
ENDBRANCH  19  21
ENDBRANCH  17  19
BRANCH  17  29
ATOM     29  C   LIG d   1       5.004  -3.210  -5.028  0.00  0.00    -0.017 C 
ATOM     30  H   LIG d   1       5.799  -3.710  -4.474  0.00  0.00     0.027 H 
ATOM     31  H   LIG d   1       4.036  -3.557  -4.665  0.00  0.00     0.027 H 
ATOM     32  H   LIG d   1       5.099  -3.443  -6.089  0.00  0.00     0.027 H 
ENDBRANCH  17  29
ENDBRANCH  16  17
ENDBRANCH   1  16
BRANCH   6  33
ATOM     33  C   LIG d   1      10.291   5.204  -5.510  0.00  0.00    -0.011 A 
ATOM     34  C   LIG d   1       9.607   6.414  -5.632  0.00  0.00    -0.050 A 
ATOM     35  C   LIG d   1      10.278   7.545  -6.043  0.00  0.00    -0.019 A 
ATOM     36  H   LIG d   1       8.553   6.464  -5.403  0.00  0.00     0.062 H 
ATOM     37  C   LIG d   1      11.634   7.482  -6.337  0.00  0.00     0.120 A 
ATOM     38  H   LIG d   1       9.750   8.483  -6.138  0.00  0.00     0.065 H 
ATOM     39  C   LIG d   1      12.318   6.279  -6.218  0.00  0.00    -0.019 A 
ATOM     40  C   LIG d   1      11.653   5.145  -5.801  0.00  0.00    -0.050 A 
ATOM     41  H   LIG d   1      13.372   6.232  -6.447  0.00  0.00     0.065 H 
ATOM     42  H   LIG d   1      12.186   4.210  -5.705  0.00  0.00     0.062 H 
BRANCH  37  43
ATOM     43  O   LIG d   1      12.293   8.598  -6.743  0.00  0.00    -0.495 OA
BRANCH  43  44
ATOM     44  C   LIG d   1      11.609   9.845  -6.591  0.00  0.00     0.079 C 
ATOM     45  H   LIG d   1      12.167  10.629  -7.103  0.00  0.00     0.066 H 
ATOM     46  H   LIG d   1      10.612   9.768  -7.023  0.00  0.00     0.066 H 
ATOM     47  H   LIG d   1      11.528  10.088  -5.531  0.00  0.00     0.066 H 
ENDBRANCH  43  44
ENDBRANCH  37  43
ENDBRANCH   6  33
TORSDOF 10
ENDMDL
MODEL 6
REMARK VINA RESULT:      -5.1      7.946      9.632
REMARK  10 active torsions:
REMARK  status: ('A' for Active; 'I' for Inactive)
REMARK    1  A    between atoms: C_1  and  C_2 
REMARK    2  A    between atoms: C_2  and  O_3 
REMARK    3  A    between atoms: O_3  and  C_4 
REMARK    4  A    between atoms: C_4  and  C_6 
REMARK    5  A    between atoms: C_6  and  C_8 
REMARK    6  A    between atoms: C_6  and  O_9 
REMARK    7  A    between atoms: O_9  and  C_10 
REMARK    8  A    between atoms: C_15  and  C_21 
REMARK    9  A    between atoms: C_24  and  O_27 
REMARK   10  A    between atoms: O_27  and  C_28 
ROOT
ATOM      1  C   LIG d   1      11.217  -9.919   0.809  0.00  0.00     0.125 A 
ATOM      2  C   LIG d   1      10.577 -11.113   1.135  0.00  0.00    -0.019 A 
ATOM      3  C   LIG d   1       9.473 -11.515   0.442  0.00  0.00    -0.048 A 
ATOM      4  C   LIG d   1       8.977 -10.724  -0.606  0.00  0.00     0.018 A 
ATOM      5  C   LIG d   1       7.829 -11.139  -1.330  0.00  0.00    -0.036 A 
ATOM      6  C   LIG d   1       7.369 -10.348  -2.348  0.00  0.00     0.067 A 
ATOM      7  C   LIG d   1       8.075  -9.102  -2.655  0.00  0.00     0.345 A 
ATOM      8  O   LIG d   1       7.679  -8.387  -3.557  0.00  0.00    -0.244 OA
ATOM      9  O   LIG d   1       9.159  -8.746  -1.945  0.00  0.00    -0.422 OA
ATOM     10  C   LIG d   1       9.621  -9.519  -0.939  0.00  0.00     0.143 A 
ATOM     11  C   LIG d   1      10.740  -9.123  -0.219  0.00  0.00     0.023 A 
ATOM     12  H   LIG d   1      10.956 -11.723   1.942  0.00  0.00     0.065 H 
ATOM     13  H   LIG d   1       8.980 -12.440   0.701  0.00  0.00     0.063 H 
ATOM     14  H   LIG d   1       7.328 -12.063  -1.083  0.00  0.00     0.063 H 
ATOM     15  H   LIG d   1      11.239  -8.197  -0.463  0.00  0.00     0.069 H 
ENDROOT
BRANCH   1  16
ATOM     16  O   LIG d   1      12.315  -9.531   1.507  0.00  0.00    -0.478 OA
BRANCH  16  17
ATOM     17  C   LIG d   1      12.194  -8.353   2.305  0.00  0.00     0.193 C 
ATOM     18  H   LIG d   1      12.119  -7.480   1.657  0.00  0.00     0.085 H 
BRANCH  17  19
ATOM     19  C   LIG d   1      13.406  -8.218   3.192  0.00  0.00     0.348 C 
ATOM     20  O   LIG d   1      14.380  -7.624   2.796  0.00  0.00    -0.247 OA
BRANCH  19  21
ATOM     21  O   LIG d   1      13.402  -8.759   4.419  0.00  0.00    -0.462 OA
BRANCH  21  22
ATOM     22  C   LIG d   1      14.089 -10.028   4.583  0.00  0.00     0.090 C 
ATOM     23  H   LIG d   1      14.756 -10.192   3.736  0.00  0.00     0.069 H 
ATOM     24  H   LIG d   1      14.672 -10.010   5.504  0.00  0.00     0.069 H 
BRANCH  22  25
ATOM     25  C   LIG d   1      13.062 -11.160   4.651  0.00  0.00    -0.031 C 
ATOM     26  H   LIG d   1      12.096 -10.755   4.949  0.00  0.00     0.026 H 
ATOM     27  H   LIG d   1      12.974 -11.629   3.671  0.00  0.00     0.026 H 
ATOM     28  H   LIG d   1      13.388 -11.902   5.382  0.00  0.00     0.026 H 
ENDBRANCH  22  25
ENDBRANCH  21  22
ENDBRANCH  19  21
ENDBRANCH  17  19
BRANCH  17  29
ATOM     29  C   LIG d   1      10.937  -8.451   3.173  0.00  0.00    -0.017 C 
ATOM     30  H   LIG d   1      11.027  -7.772   4.021  0.00  0.00     0.027 H 
ATOM     31  H   LIG d   1      10.064  -8.177   2.579  0.00  0.00     0.027 H 
ATOM     32  H   LIG d   1      10.823  -9.472   3.536  0.00  0.00     0.027 H 
ENDBRANCH  17  29
ENDBRANCH  16  17
ENDBRANCH   1  16
BRANCH   6  33
ATOM     33  C   LIG d   1       6.174 -10.747  -3.127  0.00  0.00    -0.011 A 
ATOM     34  C   LIG d   1       4.902 -10.369  -2.699  0.00  0.00    -0.050 A 
ATOM     35  C   LIG d   1       3.792 -10.741  -3.427  0.00  0.00    -0.019 A 
ATOM     36  H   LIG d   1       4.786  -9.784  -1.799  0.00  0.00     0.062 H 
ATOM     37  C   LIG d   1       3.939 -11.493  -4.586  0.00  0.00     0.120 A 
ATOM     38  H   LIG d   1       2.806 -10.449  -3.096  0.00  0.00     0.065 H 
ATOM     39  C   LIG d   1       5.204 -11.872  -5.015  0.00  0.00    -0.019 A 
ATOM     40  C   LIG d   1       6.319 -11.498  -4.294  0.00  0.00    -0.050 A 
ATOM     41  H   LIG d   1       5.315 -12.457  -5.915  0.00  0.00     0.065 H 
ATOM     42  H   LIG d   1       7.303 -11.790  -4.630  0.00  0.00     0.062 H 
BRANCH  37  43
ATOM     43  O   LIG d   1       2.843 -11.858  -5.300  0.00  0.00    -0.495 OA
BRANCH  43  44
ATOM     44  C   LIG d   1       3.042 -12.800  -6.357  0.00  0.00     0.079 C 
ATOM     45  H   LIG d   1       2.890 -13.810  -5.977  0.00  0.00     0.066 H 
ATOM     46  H   LIG d   1       2.330 -12.602  -7.158  0.00  0.00     0.066 H 
ATOM     47  H   LIG d   1       4.057 -12.705  -6.742  0.00  0.00     0.066 H 
ENDBRANCH  43  44
ENDBRANCH  37  43
ENDBRANCH   6  33
TORSDOF 10
ENDMDL
MODEL 7
REMARK VINA RESULT:      -5.0      7.634      9.405
REMARK  10 active torsions:
REMARK  status: ('A' for Active; 'I' for Inactive)
REMARK    1  A    between atoms: C_1  and  C_2 
REMARK    2  A    between atoms: C_2  and  O_3 
REMARK    3  A    between atoms: O_3  and  C_4 
REMARK    4  A    between atoms: C_4  and  C_6 
REMARK    5  A    between atoms: C_6  and  C_8 
REMARK    6  A    between atoms: C_6  and  O_9 
REMARK    7  A    between atoms: O_9  and  C_10 
REMARK    8  A    between atoms: C_15  and  C_21 
REMARK    9  A    between atoms: C_24  and  O_27 
REMARK   10  A    between atoms: O_27  and  C_28 
ROOT
ATOM      1  C   LIG d   1      11.231  -8.347   0.030  0.00  0.00     0.125 A 
ATOM      2  C   LIG d   1      10.936  -7.546  -1.071  0.00  0.00    -0.019 A 
ATOM      3  C   LIG d   1       9.874  -7.842  -1.875  0.00  0.00    -0.048 A 
ATOM      4  C   LIG d   1       9.073  -8.958  -1.593  0.00  0.00     0.018 A 
ATOM      5  C   LIG d   1       7.966  -9.270  -2.426  0.00  0.00    -0.036 A 
ATOM      6  C   LIG d   1       7.201 -10.364  -2.126  0.00  0.00     0.067 A 
ATOM      7  C   LIG d   1       7.549 -11.177  -0.958  0.00  0.00     0.345 A 
ATOM      8  O   LIG d   1       6.878 -12.153  -0.677  0.00  0.00    -0.244 OA
ATOM      9  O   LIG d   1       8.604 -10.847  -0.195  0.00  0.00    -0.422 OA
ATOM     10  C   LIG d   1       9.366  -9.768  -0.482  0.00  0.00     0.143 A 
ATOM     11  C   LIG d   1      10.454  -9.456   0.322  0.00  0.00     0.023 A 
ATOM     12  H   LIG d   1      11.552  -6.686  -1.290  0.00  0.00     0.065 H 
ATOM     13  H   LIG d   1       9.652  -7.218  -2.727  0.00  0.00     0.063 H 
ATOM     14  H   LIG d   1       7.732  -8.653  -3.281  0.00  0.00     0.063 H 
ATOM     15  H   LIG d   1      10.691 -10.074   1.174  0.00  0.00     0.069 H 
ENDROOT
BRANCH   1  16
ATOM     16  O   LIG d   1      12.291  -8.041   0.822  0.00  0.00    -0.478 OA
BRANCH  16  17
ATOM     17  C   LIG d   1      13.131  -9.122   1.229  0.00  0.00     0.193 C 
ATOM     18  H   LIG d   1      12.603 -10.065   1.089  0.00  0.00     0.085 H 
BRANCH  17  19
ATOM     19  C   LIG d   1      13.492  -8.959   2.683  0.00  0.00     0.348 C 
ATOM     20  O   LIG d   1      14.425  -8.258   2.998  0.00  0.00    -0.247 OA
BRANCH  19  21
ATOM     21  O   LIG d   1      12.778  -9.591   3.627  0.00  0.00    -0.462 OA
BRANCH  21  22
ATOM     22  C   LIG d   1      12.520 -11.005   3.421  0.00  0.00     0.090 C 
ATOM     23  H   LIG d   1      12.758 -11.272   2.391  0.00  0.00     0.069 H 
ATOM     24  H   LIG d   1      13.141 -11.590   4.100  0.00  0.00     0.069 H 
BRANCH  22  25
ATOM     25  C   LIG d   1      11.044 -11.300   3.698  0.00  0.00    -0.031 C 
ATOM     26  H   LIG d   1      10.423 -10.621   3.115  0.00  0.00     0.026 H 
ATOM     27  H   LIG d   1      10.821 -12.329   3.416  0.00  0.00     0.026 H 
ATOM     28  H   LIG d   1      10.839 -11.161   4.760  0.00  0.00     0.026 H 
ENDBRANCH  22  25
ENDBRANCH  21  22
ENDBRANCH  19  21
ENDBRANCH  17  19
BRANCH  17  29
ATOM     29  C   LIG d   1      14.407  -9.124   0.384  0.00  0.00    -0.017 C 
ATOM     30  H   LIG d   1      15.236  -9.506   0.979  0.00  0.00     0.027 H 
ATOM     31  H   LIG d   1      14.263  -9.760  -0.490  0.00  0.00     0.027 H 
ATOM     32  H   LIG d   1      14.631  -8.107   0.060  0.00  0.00     0.027 H 
ENDBRANCH  17  29
ENDBRANCH  16  17
ENDBRANCH   1  16
BRANCH   6  33
ATOM     33  C   LIG d   1       6.038 -10.721  -2.971  0.00  0.00    -0.011 A 
ATOM     34  C   LIG d   1       4.767 -10.247  -2.648  0.00  0.00    -0.050 A 
ATOM     35  C   LIG d   1       3.686 -10.580  -3.436  0.00  0.00    -0.019 A 
ATOM     36  H   LIG d   1       4.629  -9.618  -1.780  0.00  0.00     0.062 H 
ATOM     37  C   LIG d   1       3.862 -11.388  -4.552  0.00  0.00     0.120 A 
ATOM     38  H   LIG d   1       2.701 -10.213  -3.186  0.00  0.00     0.065 H 
ATOM     39  C   LIG d   1       5.125 -11.863  -4.877  0.00  0.00    -0.019 A 
ATOM     40  C   LIG d   1       6.211 -11.528  -4.095  0.00  0.00    -0.050 A 
ATOM     41  H   LIG d   1       5.259 -12.491  -5.745  0.00  0.00     0.065 H 
ATOM     42  H   LIG d   1       7.195 -11.894  -4.351  0.00  0.00     0.062 H 
BRANCH  37  43
ATOM     43  O   LIG d   1       2.795 -11.714  -5.327  0.00  0.00    -0.495 OA
BRANCH  43  44
ATOM     44  C   LIG d   1       2.983 -12.762  -6.281  0.00  0.00     0.079 C 
ATOM     45  H   LIG d   1       2.096 -13.395  -6.305  0.00  0.00     0.066 H 
ATOM     46  H   LIG d   1       3.147 -12.329  -7.268  0.00  0.00     0.066 H 
ATOM     47  H   LIG d   1       3.850 -13.360  -5.999  0.00  0.00     0.066 H 
ENDBRANCH  43  44
ENDBRANCH  37  43
ENDBRANCH   6  33
TORSDOF 10
ENDMDL
MODEL 8
REMARK VINA RESULT:      -5.0      2.618      3.411
REMARK  10 active torsions:
REMARK  status: ('A' for Active; 'I' for Inactive)
REMARK    1  A    between atoms: C_1  and  C_2 
REMARK    2  A    between atoms: C_2  and  O_3 
REMARK    3  A    between atoms: O_3  and  C_4 
REMARK    4  A    between atoms: C_4  and  C_6 
REMARK    5  A    between atoms: C_6  and  C_8 
REMARK    6  A    between atoms: C_6  and  O_9 
REMARK    7  A    between atoms: O_9  and  C_10 
REMARK    8  A    between atoms: C_15  and  C_21 
REMARK    9  A    between atoms: C_24  and  O_27 
REMARK   10  A    between atoms: O_27  and  C_28 
ROOT
ATOM      1  C   LIG d   1       5.871  -3.533  -5.772  0.00  0.00     0.125 A 
ATOM      2  C   LIG d   1       7.234  -3.780  -5.621  0.00  0.00    -0.019 A 
ATOM      3  C   LIG d   1       7.685  -5.048  -5.398  0.00  0.00    -0.048 A 
ATOM      4  C   LIG d   1       6.773  -6.112  -5.322  0.00  0.00     0.018 A 
ATOM      5  C   LIG d   1       7.237  -7.433  -5.091  0.00  0.00    -0.036 A 
ATOM      6  C   LIG d   1       6.325  -8.451  -5.022  0.00  0.00     0.067 A 
ATOM      7  C   LIG d   1       4.902  -8.144  -5.188  0.00  0.00     0.345 A 
ATOM      8  O   LIG d   1       4.078  -9.038  -5.130  0.00  0.00    -0.244 OA
ATOM      9  O   LIG d   1       4.504  -6.879  -5.405  0.00  0.00    -0.422 OA
ATOM     10  C   LIG d   1       5.397  -5.867  -5.475  0.00  0.00     0.143 A 
ATOM     11  C   LIG d   1       4.956  -4.569  -5.694  0.00  0.00     0.023 A 
ATOM     12  H   LIG d   1       7.938  -2.963  -5.679  0.00  0.00     0.065 H 
ATOM     13  H   LIG d   1       8.742  -5.233  -5.281  0.00  0.00     0.063 H 
ATOM     14  H   LIG d   1       8.292  -7.632  -4.974  0.00  0.00     0.063 H 
ATOM     15  H   LIG d   1       3.901  -4.369  -5.808  0.00  0.00     0.069 H 
ENDROOT
BRANCH   1  16
ATOM     16  O   LIG d   1       5.437  -2.265  -5.993  0.00  0.00    -0.478 OA
BRANCH  16  17
ATOM     17  C   LIG d   1       5.606  -1.327  -4.929  0.00  0.00     0.193 C 
ATOM     18  H   LIG d   1       5.992  -1.841  -4.048  0.00  0.00     0.085 H 
BRANCH  17  19
ATOM     19  C   LIG d   1       4.278  -0.694  -4.600  0.00  0.00     0.348 C 
ATOM     20  O   LIG d   1       3.797   0.123  -5.349  0.00  0.00    -0.247 OA
BRANCH  19  21
ATOM     21  O   LIG d   1       3.631  -1.038  -3.477  0.00  0.00    -0.462 OA
BRANCH  21  22
ATOM     22  C   LIG d   1       4.389  -0.992  -2.239  0.00  0.00     0.090 C 
ATOM     23  H   LIG d   1       3.867  -1.564  -1.472  0.00  0.00     0.069 H 
ATOM     24  H   LIG d   1       5.378  -1.423  -2.402  0.00  0.00     0.069 H 
BRANCH  22  25
ATOM     25  C   LIG d   1       4.535   0.461  -1.782  0.00  0.00    -0.031 C 
ATOM     26  H   LIG d   1       4.214   0.549  -0.745  0.00  0.00     0.026 H 
ATOM     27  H   LIG d   1       5.579   0.764  -1.867  0.00  0.00     0.026 H 
ATOM     28  H   LIG d   1       3.918   1.103  -2.411  0.00  0.00     0.026 H 
ENDBRANCH  22  25
ENDBRANCH  21  22
ENDBRANCH  19  21
ENDBRANCH  17  19
BRANCH  17  29
ATOM     29  C   LIG d   1       6.595  -0.242  -5.359  0.00  0.00    -0.017 C 
ATOM     30  H   LIG d   1       7.171  -0.592  -6.215  0.00  0.00     0.027 H 
ATOM     31  H   LIG d   1       6.048   0.661  -5.634  0.00  0.00     0.027 H 
ATOM     32  H   LIG d   1       7.272  -0.018  -4.534  0.00  0.00     0.027 H 
ENDBRANCH  17  29
ENDBRANCH  16  17
ENDBRANCH   1  16
BRANCH   6  33
ATOM     33  C   LIG d   1       6.771  -9.844  -4.784  0.00  0.00    -0.011 A 
ATOM     34  C   LIG d   1       6.800 -10.356  -3.487  0.00  0.00    -0.050 A 
ATOM     35  C   LIG d   1       7.214 -11.653  -3.268  0.00  0.00    -0.019 A 
ATOM     36  H   LIG d   1       6.497  -9.738  -2.655  0.00  0.00     0.062 H 
ATOM     37  C   LIG d   1       7.603 -12.449  -4.338  0.00  0.00     0.120 A 
ATOM     38  H   LIG d   1       7.237 -12.051  -2.264  0.00  0.00     0.065 H 
ATOM     39  C   LIG d   1       7.576 -11.942  -5.630  0.00  0.00    -0.019 A 
ATOM     40  C   LIG d   1       7.157 -10.648  -5.856  0.00  0.00    -0.050 A 
ATOM     41  H   LIG d   1       7.880 -12.563  -6.460  0.00  0.00     0.065 H 
ATOM     42  H   LIG d   1       7.133 -10.255  -6.862  0.00  0.00     0.062 H 
BRANCH  37  43
ATOM     43  O   LIG d   1       8.011 -13.726  -4.118  0.00  0.00    -0.495 OA
BRANCH  43  44
ATOM     44  C   LIG d   1       8.836 -13.956  -2.973  0.00  0.00     0.079 C 
ATOM     45  H   LIG d   1       9.750 -14.462  -3.280  0.00  0.00     0.066 H 
ATOM     46  H   LIG d   1       9.088 -13.002  -2.510  0.00  0.00     0.066 H 
ATOM     47  H   LIG d   1       8.298 -14.577  -2.257  0.00  0.00     0.066 H 
ENDBRANCH  43  44
ENDBRANCH  37  43
ENDBRANCH   6  33
TORSDOF 10
ENDMDL
MODEL 9
REMARK VINA RESULT:      -4.9      8.003     14.490
REMARK  10 active torsions:
REMARK  status: ('A' for Active; 'I' for Inactive)
REMARK    1  A    between atoms: C_1  and  C_2 
REMARK    2  A    between atoms: C_2  and  O_3 
REMARK    3  A    between atoms: O_3  and  C_4 
REMARK    4  A    between atoms: C_4  and  C_6 
REMARK    5  A    between atoms: C_6  and  C_8 
REMARK    6  A    between atoms: C_6  and  O_9 
REMARK    7  A    between atoms: O_9  and  C_10 
REMARK    8  A    between atoms: C_15  and  C_21 
REMARK    9  A    between atoms: C_24  and  O_27 
REMARK   10  A    between atoms: O_27  and  C_28 
ROOT
ATOM      1  C   LIG d   1       9.732   3.801  -5.382  0.00  0.00     0.125 A 
ATOM      2  C   LIG d   1       9.660   5.028  -6.040  0.00  0.00    -0.019 A 
ATOM      3  C   LIG d   1       9.741   6.194  -5.337  0.00  0.00    -0.048 A 
ATOM      4  C   LIG d   1       9.900   6.161  -3.943  0.00  0.00     0.018 A 
ATOM      5  C   LIG d   1       9.986   7.373  -3.207  0.00  0.00    -0.036 A 
ATOM      6  C   LIG d   1      10.141   7.310  -1.849  0.00  0.00     0.067 A 
ATOM      7  C   LIG d   1      10.213   5.999  -1.201  0.00  0.00     0.345 A 
ATOM      8  O   LIG d   1      10.352   5.926   0.006  0.00  0.00    -0.244 OA
ATOM      9  O   LIG d   1      10.128   4.876  -1.934  0.00  0.00    -0.422 OA
ATOM     10  C   LIG d   1       9.975   4.926  -3.275  0.00  0.00     0.143 A 
ATOM     11  C   LIG d   1       9.884   3.750  -4.006  0.00  0.00     0.023 A 
ATOM     12  H   LIG d   1       9.537   5.055  -7.112  0.00  0.00     0.065 H 
ATOM     13  H   LIG d   1       9.682   7.141  -5.853  0.00  0.00     0.063 H 
ATOM     14  H   LIG d   1       9.930   8.326  -3.711  0.00  0.00     0.063 H 
ATOM     15  H   LIG d   1       9.935   2.796  -3.503  0.00  0.00     0.069 H 
ENDROOT
BRANCH   1  16
ATOM     16  O   LIG d   1       9.650   2.649  -6.094  0.00  0.00    -0.478 OA
BRANCH  16  17
ATOM     17  C   LIG d   1       9.182   2.750  -7.440  0.00  0.00     0.193 C 
ATOM     18  H   LIG d   1       9.032   3.799  -7.695  0.00  0.00     0.085 H 
BRANCH  17  19
ATOM     19  C   LIG d   1       7.877   2.008  -7.577  0.00  0.00     0.348 C 
ATOM     20  O   LIG d   1       7.411   1.428  -6.626  0.00  0.00    -0.247 OA
BRANCH  19  21
ATOM     21  O   LIG d   1       7.235   1.992  -8.754  0.00  0.00    -0.462 OA
BRANCH  21  22
ATOM     22  C   LIG d   1       5.937   1.342  -8.789  0.00  0.00     0.090 C 
ATOM     23  H   LIG d   1       5.961   0.518  -9.502  0.00  0.00     0.069 H 
ATOM     24  H   LIG d   1       5.697   0.956  -7.797  0.00  0.00     0.069 H 
BRANCH  22  25
ATOM     25  C   LIG d   1       4.870   2.354  -9.213  0.00  0.00    -0.031 C 
ATOM     26  H   LIG d   1       3.999   2.256  -8.566  0.00  0.00     0.026 H 
ATOM     27  H   LIG d   1       5.274   3.363  -9.129  0.00  0.00     0.026 H 
ATOM     28  H   LIG d   1       4.580   2.163 -10.247  0.00  0.00     0.026 H 
ENDBRANCH  22  25
ENDBRANCH  21  22
ENDBRANCH  19  21
ENDBRANCH  17  19
BRANCH  17  29
ATOM     29  C   LIG d   1      10.217   2.140  -8.387  0.00  0.00    -0.017 C 
ATOM     30  H   LIG d   1      11.066   2.817  -8.484  0.00  0.00     0.027 H 
ATOM     31  H   LIG d   1      10.559   1.185  -7.986  0.00  0.00     0.027 H 
ATOM     32  H   LIG d   1       9.766   1.980  -9.367  0.00  0.00     0.027 H 
ENDBRANCH  17  29
ENDBRANCH  16  17
ENDBRANCH   1  16
BRANCH   6  33
ATOM     33  C   LIG d   1      10.236   8.552  -1.047  0.00  0.00    -0.011 A 
ATOM     34  C   LIG d   1       9.081   9.265  -0.722  0.00  0.00    -0.050 A 
ATOM     35  C   LIG d   1       9.171  10.419   0.025  0.00  0.00    -0.019 A 
ATOM     36  H   LIG d   1       8.116   8.911  -1.056  0.00  0.00     0.062 H 
ATOM     37  C   LIG d   1      10.411  10.875   0.455  0.00  0.00     0.120 A 
ATOM     38  H   LIG d   1       8.278  10.971   0.277  0.00  0.00     0.065 H 
ATOM     39  C   LIG d   1      11.563  10.169   0.133  0.00  0.00    -0.019 A 
ATOM     40  C   LIG d   1      11.478   9.010  -0.610  0.00  0.00    -0.050 A 
ATOM     41  H   LIG d   1      12.526  10.525   0.468  0.00  0.00     0.065 H 
ATOM     42  H   LIG d   1      12.374   8.459  -0.856  0.00  0.00     0.062 H 
BRANCH  37  43
ATOM     43  O   LIG d   1      10.497  12.013   1.191  0.00  0.00    -0.495 OA
BRANCH  43  44
ATOM     44  C   LIG d   1      10.601  13.244   0.471  0.00  0.00     0.079 C 
ATOM     45  H   LIG d   1      11.082  13.064  -0.489  0.00  0.00     0.066 H 
ATOM     46  H   LIG d   1       9.605  13.654   0.307  0.00  0.00     0.066 H 
ATOM     47  H   LIG d   1      11.195  13.954   1.049  0.00  0.00     0.066 H 
ENDBRANCH  43  44
ENDBRANCH  37  43
ENDBRANCH   6  33
TORSDOF 10
ENDMDL
MODEL 10
REMARK VINA RESULT:      -4.8      7.654     11.078
REMARK  10 active torsions:
REMARK  status: ('A' for Active; 'I' for Inactive)
REMARK    1  A    between atoms: C_1  and  C_2 
REMARK    2  A    between atoms: C_2  and  O_3 
REMARK    3  A    between atoms: O_3  and  C_4 
REMARK    4  A    between atoms: C_4  and  C_6 
REMARK    5  A    between atoms: C_6  and  C_8 
REMARK    6  A    between atoms: C_6  and  O_9 
REMARK    7  A    between atoms: O_9  and  C_10 
REMARK    8  A    between atoms: C_15  and  C_21 
REMARK    9  A    between atoms: C_24  and  O_27 
REMARK   10  A    between atoms: O_27  and  C_28 
ROOT
ATOM      1  C   LIG d   1       6.681 -10.184  -2.880  0.00  0.00     0.125 A 
ATOM      2  C   LIG d   1       6.570 -11.156  -1.887  0.00  0.00    -0.019 A 
ATOM      3  C   LIG d   1       7.470 -11.204  -0.864  0.00  0.00    -0.048 A 
ATOM      4  C   LIG d   1       8.516 -10.270  -0.808  0.00  0.00     0.018 A 
ATOM      5  C   LIG d   1       9.455 -10.315   0.256  0.00  0.00    -0.036 A 
ATOM      6  C   LIG d   1      10.464  -9.390   0.286  0.00  0.00     0.067 A 
ATOM      7  C   LIG d   1      10.541  -8.387  -0.779  0.00  0.00     0.345 A 
ATOM      8  O   LIG d   1      11.431  -7.557  -0.766  0.00  0.00    -0.244 OA
ATOM      9  O   LIG d   1       9.630  -8.378  -1.767  0.00  0.00    -0.422 OA
ATOM     10  C   LIG d   1       8.631  -9.287  -1.806  0.00  0.00     0.143 A 
ATOM     11  C   LIG d   1       7.709  -9.257  -2.843  0.00  0.00     0.023 A 
ATOM     12  H   LIG d   1       5.766 -11.877  -1.929  0.00  0.00     0.065 H 
ATOM     13  H   LIG d   1       7.379 -11.961  -0.099  0.00  0.00     0.063 H 
ATOM     14  H   LIG d   1       9.374 -11.066   1.028  0.00  0.00     0.063 H 
ATOM     15  H   LIG d   1       7.791  -8.509  -3.618  0.00  0.00     0.069 H 
ENDROOT
BRANCH   1  16
ATOM     16  O   LIG d   1       5.777 -10.149  -3.892  0.00  0.00    -0.478 OA
BRANCH  16  17
ATOM     17  C   LIG d   1       4.738 -11.128  -3.869  0.00  0.00     0.193 C 
ATOM     18  H   LIG d   1       5.002 -11.922  -3.170  0.00  0.00     0.085 H 
BRANCH  17  19
ATOM     19  C   LIG d   1       4.564 -11.711  -5.248  0.00  0.00     0.348 C 
ATOM     20  O   LIG d   1       5.066 -12.776  -5.521  0.00  0.00    -0.247 OA
BRANCH  19  21
ATOM     21  O   LIG d   1       3.853 -11.048  -6.172  0.00  0.00    -0.462 OA
BRANCH  21  22
ATOM     22  C   LIG d   1       4.597 -10.407  -7.242  0.00  0.00     0.090 C 
ATOM     23  H   LIG d   1       5.627 -10.766  -7.234  0.00  0.00     0.069 H 
ATOM     24  H   LIG d   1       4.137 -10.650  -8.200  0.00  0.00     0.069 H 
BRANCH  22  25
ATOM     25  C   LIG d   1       4.582  -8.891  -7.039  0.00  0.00    -0.031 C 
ATOM     26  H   LIG d   1       4.182  -8.661  -6.052  0.00  0.00     0.026 H 
ATOM     27  H   LIG d   1       5.599  -8.505  -7.118  0.00  0.00     0.026 H 
ATOM     28  H   LIG d   1       3.957  -8.428  -7.803  0.00  0.00     0.026 H 
ENDBRANCH  22  25
ENDBRANCH  21  22
ENDBRANCH  19  21
ENDBRANCH  17  19
BRANCH  17  29
ATOM     29  C   LIG d   1       3.428 -10.473  -3.424  0.00  0.00    -0.017 C 
ATOM     30  H   LIG d   1       3.638  -9.719  -2.666  0.00  0.00     0.027 H 
ATOM     31  H   LIG d   1       2.948 -10.001  -4.283  0.00  0.00     0.027 H 
ATOM     32  H   LIG d   1       2.764 -11.231  -3.008  0.00  0.00     0.027 H 
ENDBRANCH  17  29
ENDBRANCH  16  17
ENDBRANCH   1  16
BRANCH   6  33
ATOM     33  C   LIG d   1      11.463  -9.405   1.379  0.00  0.00    -0.011 A 
ATOM     34  C   LIG d   1      12.598 -10.209   1.279  0.00  0.00    -0.050 A 
ATOM     35  C   LIG d   1      13.526 -10.220   2.298  0.00  0.00    -0.019 A 
ATOM     36  H   LIG d   1      12.750 -10.823   0.403  0.00  0.00     0.062 H 
ATOM     37  C   LIG d   1      13.333  -9.431   3.424  0.00  0.00     0.120 A 
ATOM     38  H   LIG d   1      14.406 -10.843   2.221  0.00  0.00     0.065 H 
ATOM     39  C   LIG d   1      12.204  -8.630   3.529  0.00  0.00    -0.019 A 
ATOM     40  C   LIG d   1      11.274  -8.610   2.510  0.00  0.00    -0.050 A 
ATOM     41  H   LIG d   1      12.055  -8.018   4.406  0.00  0.00     0.065 H 
ATOM     42  H   LIG d   1      10.398  -7.983   2.589  0.00  0.00     0.062 H 
BRANCH  37  43
ATOM     43  O   LIG d   1      14.250  -9.445   4.426  0.00  0.00    -0.495 OA
BRANCH  43  44
ATOM     44  C   LIG d   1      14.242 -10.578   5.298  0.00  0.00     0.079 C 
ATOM     45  H   LIG d   1      13.221 -10.939   5.415  0.00  0.00     0.066 H 
ATOM     46  H   LIG d   1      14.859 -11.368   4.871  0.00  0.00     0.066 H 
ATOM     47  H   LIG d   1      14.641 -10.291   6.271  0.00  0.00     0.066 H 
ENDBRANCH  43  44
ENDBRANCH  37  43
ENDBRANCH   6  33
TORSDOF 10
ENDMDL
