MODEL 1
REMARK VINA RESULT:      -7.1      0.000      0.000
REMARK  3 active torsions:
REMARK  status: ('A' for Active; 'I' for Inactive)
REMARK    1  A    between atoms: C_1  and  C_2 
REMARK    2  A    between atoms: C_10  and  O_23 
REMARK    3  A    between atoms: C_11  and  C_13 
ROOT
ATOM      1  C   LIG d   1       4.521  -1.215  -2.568  0.00  0.00    -0.050 A 
ATOM      2  C   LIG d   1       4.183   0.061  -2.139  0.00  0.00    -0.055 A 
ATOM      3  C   LIG d   1       5.004   1.134  -2.408  0.00  0.00    -0.018 A 
ATOM      4  C   LIG d   1       6.185   0.944  -3.116  0.00  0.00     0.140 A 
ATOM      5  C   LIG d   1       6.526  -0.345  -3.551  0.00  0.00     0.068 A 
ATOM      6  C   LIG d   1       5.687  -1.424  -3.272  0.00  0.00    -0.044 A 
ATOM      7  C   LIG d   1       7.783  -0.529  -4.302  0.00  0.00     0.234 A 
ATOM      8  O   LIG d   1       8.127  -1.629  -4.704  0.00  0.00    -0.283 OA
ATOM      9  C   LIG d   1       8.572   0.623  -4.546  0.00  0.00     0.208 A 
ATOM     10  C   LIG d   1       8.148   1.841  -4.071  0.00  0.00     0.181 A 
ATOM     11  O   LIG d   1       7.000   1.985  -3.389  0.00  0.00    -0.451 OA
ATOM     12  H   LIG d   1       3.267   0.214  -1.588  0.00  0.00     0.062 H 
ATOM     13  H   LIG d   1       4.731   2.123  -2.067  0.00  0.00     0.065 H 
ATOM     14  H   LIG d   1       5.949  -2.418  -3.606  0.00  0.00     0.063 H 
ENDROOT
BRANCH  10  15
ATOM     15  C   LIG d   1       8.979   3.032  -4.324  0.00  0.00     0.025 A 
ATOM     16  C   LIG d   1       9.692   3.625  -3.277  0.00  0.00    -0.005 A 
ATOM     17  C   LIG d   1      10.470   4.742  -3.518  0.00  0.00     0.163 A 
ATOM     18  H   LIG d   1       9.634   3.210  -2.281  0.00  0.00     0.066 H 
ATOM     19  C   LIG d   1      10.545   5.273  -4.803  0.00  0.00     0.162 A 
ATOM     20  O   LIG d   1      11.157   5.310  -2.488  0.00  0.00    -0.485 OA
ATOM     21  C   LIG d   1       9.838   4.682  -5.844  0.00  0.00    -0.016 A 
ATOM     22  O   LIG d   1      11.312   6.368  -5.058  0.00  0.00    -0.485 OA
ATOM     23  C   LIG d   1       9.057   3.572  -5.611  0.00  0.00    -0.047 A 
ATOM     24  H   LIG d   1       9.897   5.099  -6.838  0.00  0.00     0.066 H 
ATOM     25  H   LIG d   1       8.508   3.118  -6.421  0.00  0.00     0.063 H 
ATOM     26  C   LIG d   1      11.711   7.152  -3.929  0.00  0.00     0.124 C 
ATOM     27  C   LIG d   1      12.221   6.200  -2.839  0.00  0.00     0.124 C 
ATOM     28  H   LIG d   1      10.856   7.717  -3.554  0.00  0.00     0.073 H 
ATOM     29  H   LIG d   1      12.507   7.838  -4.220  0.00  0.00     0.073 H 
ATOM     30  H   LIG d   1      12.524   6.774  -1.962  0.00  0.00     0.073 H 
ATOM     31  H   LIG d   1      13.069   5.630  -3.215  0.00  0.00     0.073 H 
ENDBRANCH  10  15
BRANCH   9  32
ATOM     32  O   LIG d   1       9.740   0.523  -5.236  0.00  0.00    -0.501 OA
ATOM     33  H   LIG d   1      10.384  -0.075  -4.835  0.00  0.00     0.292 HD
ENDBRANCH   9  32
BRANCH   1  34
ATOM     34  C   LIG d   1       3.610  -2.375  -2.265  0.00  0.00    -0.040 C 
ATOM     35  H   LIG d   1       3.346  -2.883  -3.193  0.00  0.00     0.028 H 
ATOM     36  H   LIG d   1       4.120  -3.074  -1.601  0.00  0.00     0.028 H 
ATOM     37  H   LIG d   1       2.704  -2.009  -1.780  0.00  0.00     0.028 H 
ENDBRANCH   1  34
TORSDOF 3
ENDMDL
MODEL 2
REMARK VINA RESULT:      -6.7      6.490      8.712
REMARK  3 active torsions:
REMARK  status: ('A' for Active; 'I' for Inactive)
REMARK    1  A    between atoms: C_1  and  C_2 
REMARK    2  A    between atoms: C_10  and  O_23 
REMARK    3  A    between atoms: C_11  and  C_13 
ROOT
ATOM      1  C   LIG d   1       1.909  -1.991 -12.650  0.00  0.00    -0.050 A 
ATOM      2  C   LIG d   1       1.373  -2.879 -11.729  0.00  0.00    -0.055 A 
ATOM      3  C   LIG d   1       1.545  -2.679 -10.376  0.00  0.00    -0.018 A 
ATOM      4  C   LIG d   1       2.262  -1.577  -9.923  0.00  0.00     0.140 A 
ATOM      5  C   LIG d   1       2.802  -0.679 -10.855  0.00  0.00     0.068 A 
ATOM      6  C   LIG d   1       2.622  -0.893 -12.221  0.00  0.00    -0.044 A 
ATOM      7  C   LIG d   1       3.560   0.485 -10.357  0.00  0.00     0.234 A 
ATOM      8  O   LIG d   1       4.051   1.298 -11.124  0.00  0.00    -0.283 OA
ATOM      9  C   LIG d   1       3.689   0.628  -8.953  0.00  0.00     0.208 A 
ATOM     10  C   LIG d   1       3.123  -0.314  -8.127  0.00  0.00     0.181 A 
ATOM     11  O   LIG d   1       2.438  -1.367  -8.602  0.00  0.00    -0.451 OA
ATOM     12  H   LIG d   1       0.816  -3.737 -12.075  0.00  0.00     0.062 H 
ATOM     13  H   LIG d   1       1.124  -3.379  -9.668  0.00  0.00     0.065 H 
ATOM     14  H   LIG d   1       3.039  -0.201 -12.940  0.00  0.00     0.063 H 
ENDROOT
BRANCH  10  15
ATOM     15  C   LIG d   1       3.269  -0.160  -6.668  0.00  0.00     0.025 A 
ATOM     16  C   LIG d   1       4.322  -0.792  -5.997  0.00  0.00    -0.005 A 
ATOM     17  C   LIG d   1       4.455  -0.646  -4.629  0.00  0.00     0.163 A 
ATOM     18  H   LIG d   1       5.029  -1.394  -6.549  0.00  0.00     0.066 H 
ATOM     19  C   LIG d   1       3.543   0.133  -3.921  0.00  0.00     0.162 A 
ATOM     20  O   LIG d   1       5.483  -1.269  -3.990  0.00  0.00    -0.485 OA
ATOM     21  C   LIG d   1       2.499   0.763  -4.588  0.00  0.00    -0.016 A 
ATOM     22  O   LIG d   1       3.665   0.293  -2.575  0.00  0.00    -0.485 OA
ATOM     23  C   LIG d   1       2.357   0.618  -5.950  0.00  0.00    -0.047 A 
ATOM     24  H   LIG d   1       1.793   1.364  -4.034  0.00  0.00     0.066 H 
ATOM     25  H   LIG d   1       1.543   1.107  -6.463  0.00  0.00     0.063 H 
ATOM     26  C   LIG d   1       4.498  -0.647  -1.888  0.00  0.00     0.124 C 
ATOM     27  C   LIG d   1       5.805  -0.797  -2.678  0.00  0.00     0.124 C 
ATOM     28  H   LIG d   1       3.992  -1.611  -1.826  0.00  0.00     0.073 H 
ATOM     29  H   LIG d   1       4.715  -0.280  -0.884  0.00  0.00     0.073 H 
ATOM     30  H   LIG d   1       6.456  -1.516  -2.178  0.00  0.00     0.073 H 
ATOM     31  H   LIG d   1       6.307   0.168  -2.747  0.00  0.00     0.073 H 
ENDBRANCH  10  15
BRANCH   9  32
ATOM     32  O   LIG d   1       4.371   1.682  -8.428  0.00  0.00    -0.501 OA
ATOM     33  H   LIG d   1       5.181   1.434  -7.962  0.00  0.00     0.292 HD
ENDBRANCH   9  32
BRANCH   1  34
ATOM     34  C   LIG d   1       1.710  -2.227 -14.124  0.00  0.00    -0.040 C 
ATOM     35  H   LIG d   1       2.240  -3.132 -14.422  0.00  0.00     0.028 H 
ATOM     36  H   LIG d   1       0.646  -2.344 -14.333  0.00  0.00     0.028 H 
ATOM     37  H   LIG d   1       2.098  -1.376 -14.684  0.00  0.00     0.028 H 
ENDBRANCH   1  34
TORSDOF 3
ENDMDL
MODEL 3
REMARK VINA RESULT:      -6.6      6.163      9.818
REMARK  3 active torsions:
REMARK  status: ('A' for Active; 'I' for Inactive)
REMARK    1  A    between atoms: C_1  and  C_2 
REMARK    2  A    between atoms: C_10  and  O_23 
REMARK    3  A    between atoms: C_11  and  C_13 
ROOT
ATOM      1  C   LIG d   1       3.814   0.399  -3.033  0.00  0.00    -0.050 A 
ATOM      2  C   LIG d   1       4.137  -0.502  -2.028  0.00  0.00    -0.055 A 
ATOM      3  C   LIG d   1       4.558  -1.777  -2.336  0.00  0.00    -0.018 A 
ATOM      4  C   LIG d   1       4.664  -2.172  -3.665  0.00  0.00     0.140 A 
ATOM      5  C   LIG d   1       4.338  -1.260  -4.680  0.00  0.00     0.068 A 
ATOM      6  C   LIG d   1       3.912   0.029  -4.356  0.00  0.00    -0.044 A 
ATOM      7  C   LIG d   1       4.456  -1.694  -6.085  0.00  0.00     0.234 A 
ATOM      8  O   LIG d   1       4.186  -0.941  -7.007  0.00  0.00    -0.283 OA
ATOM      9  C   LIG d   1       4.902  -3.018  -6.323  0.00  0.00     0.208 A 
ATOM     10  C   LIG d   1       5.190  -3.833  -5.255  0.00  0.00     0.181 A 
ATOM     11  O   LIG d   1       5.076  -3.416  -3.983  0.00  0.00    -0.451 OA
ATOM     12  H   LIG d   1       4.057  -0.201  -0.994  0.00  0.00     0.062 H 
ATOM     13  H   LIG d   1       4.806  -2.471  -1.545  0.00  0.00     0.065 H 
ATOM     14  H   LIG d   1       3.661   0.731  -5.137  0.00  0.00     0.063 H 
ENDROOT
BRANCH  10  15
ATOM     15  C   LIG d   1       5.647  -5.210  -5.514  0.00  0.00     0.025 A 
ATOM     16  C   LIG d   1       4.720  -6.255  -5.588  0.00  0.00    -0.005 A 
ATOM     17  C   LIG d   1       5.151  -7.545  -5.831  0.00  0.00     0.163 A 
ATOM     18  H   LIG d   1       3.667  -6.052  -5.456  0.00  0.00     0.066 H 
ATOM     19  C   LIG d   1       6.509  -7.804  -6.003  0.00  0.00     0.162 A 
ATOM     20  O   LIG d   1       4.237  -8.552  -5.898  0.00  0.00    -0.485 OA
ATOM     21  C   LIG d   1       7.431  -6.765  -5.930  0.00  0.00    -0.016 A 
ATOM     22  O   LIG d   1       6.950  -9.067  -6.249  0.00  0.00    -0.485 OA
ATOM     23  C   LIG d   1       7.008  -5.478  -5.685  0.00  0.00    -0.047 A 
ATOM     24  H   LIG d   1       8.483  -6.971  -6.062  0.00  0.00     0.066 H 
ATOM     25  H   LIG d   1       7.727  -4.675  -5.627  0.00  0.00     0.063 H 
ATOM     26  C   LIG d   1       6.045 -10.135  -5.947  0.00  0.00     0.124 C 
ATOM     27  C   LIG d   1       4.666  -9.770  -6.514  0.00  0.00     0.124 C 
ATOM     28  H   LIG d   1       5.976 -10.265  -4.867  0.00  0.00     0.073 H 
ATOM     29  H   LIG d   1       6.399 -11.058  -6.407  0.00  0.00     0.073 H 
ATOM     30  H   LIG d   1       3.955 -10.566  -6.290  0.00  0.00     0.073 H 
ATOM     31  H   LIG d   1       4.736  -9.633  -7.593  0.00  0.00     0.073 H 
ENDBRANCH  10  15
BRANCH   9  32
ATOM     32  O   LIG d   1       5.036  -3.480  -7.597  0.00  0.00    -0.501 OA
ATOM     33  H   LIG d   1       5.539  -4.303  -7.666  0.00  0.00     0.292 HD
ENDBRANCH   9  32
BRANCH   1  34
ATOM     34  C   LIG d   1       3.356   1.789  -2.675  0.00  0.00    -0.040 C 
ATOM     35  H   LIG d   1       3.304   2.398  -3.578  0.00  0.00     0.028 H 
ATOM     36  H   LIG d   1       2.370   1.740  -2.213  0.00  0.00     0.028 H 
ATOM     37  H   LIG d   1       4.063   2.236  -1.975  0.00  0.00     0.028 H 
ENDBRANCH   1  34
TORSDOF 3
ENDMDL
MODEL 4
REMARK VINA RESULT:      -6.6      5.257     10.072
REMARK  3 active torsions:
REMARK  status: ('A' for Active; 'I' for Inactive)
REMARK    1  A    between atoms: C_1  and  C_2 
REMARK    2  A    between atoms: C_10  and  O_23 
REMARK    3  A    between atoms: C_11  and  C_13 
ROOT
ATOM      1  C   LIG d   1       4.749  -0.163  -2.354  0.00  0.00    -0.050 A 
ATOM      2  C   LIG d   1       3.515  -0.796  -2.374  0.00  0.00    -0.055 A 
ATOM      3  C   LIG d   1       3.331  -1.957  -3.093  0.00  0.00    -0.018 A 
ATOM      4  C   LIG d   1       4.390  -2.506  -3.808  0.00  0.00     0.140 A 
ATOM      5  C   LIG d   1       5.638  -1.867  -3.785  0.00  0.00     0.068 A 
ATOM      6  C   LIG d   1       5.812  -0.692  -3.054  0.00  0.00    -0.044 A 
ATOM      7  C   LIG d   1       6.751  -2.464  -4.549  0.00  0.00     0.234 A 
ATOM      8  O   LIG d   1       7.858  -1.949  -4.564  0.00  0.00    -0.283 OA
ATOM      9  C   LIG d   1       6.487  -3.662  -5.258  0.00  0.00     0.208 A 
ATOM     10  C   LIG d   1       5.225  -4.204  -5.217  0.00  0.00     0.181 A 
ATOM     11  O   LIG d   1       4.226  -3.643  -4.515  0.00  0.00    -0.451 OA
ATOM     12  H   LIG d   1       2.689  -0.374  -1.821  0.00  0.00     0.062 H 
ATOM     13  H   LIG d   1       2.364  -2.440  -3.103  0.00  0.00     0.065 H 
ATOM     14  H   LIG d   1       6.773  -0.199  -3.038  0.00  0.00     0.063 H 
ENDROOT
BRANCH  10  15
ATOM     15  C   LIG d   1       4.960  -5.447  -5.964  0.00  0.00     0.025 A 
ATOM     16  C   LIG d   1       5.186  -6.689  -5.361  0.00  0.00    -0.005 A 
ATOM     17  C   LIG d   1       4.937  -7.852  -6.064  0.00  0.00     0.163 A 
ATOM     18  H   LIG d   1       5.555  -6.737  -4.347  0.00  0.00     0.066 H 
ATOM     19  C   LIG d   1       4.459  -7.787  -7.371  0.00  0.00     0.162 A 
ATOM     20  O   LIG d   1       5.164  -9.054  -5.465  0.00  0.00    -0.485 OA
ATOM     21  C   LIG d   1       4.233  -6.552  -7.969  0.00  0.00    -0.016 A 
ATOM     22  O   LIG d   1       4.203  -8.923  -8.074  0.00  0.00    -0.485 OA
ATOM     23  C   LIG d   1       4.483  -5.389  -7.276  0.00  0.00    -0.047 A 
ATOM     24  H   LIG d   1       3.865  -6.507  -8.983  0.00  0.00     0.066 H 
ATOM     25  H   LIG d   1       4.308  -4.432  -7.745  0.00  0.00     0.063 H 
ATOM     26  C   LIG d   1       4.788 -10.132  -7.580  0.00  0.00     0.124 C 
ATOM     27  C   LIG d   1       4.549 -10.198  -6.066  0.00  0.00     0.124 C 
ATOM     28  H   LIG d   1       5.860 -10.132  -7.784  0.00  0.00     0.073 H 
ATOM     29  H   LIG d   1       4.322 -10.991  -8.064  0.00  0.00     0.073 H 
ATOM     30  H   LIG d   1       4.994 -11.109  -5.663  0.00  0.00     0.073 H 
ATOM     31  H   LIG d   1       3.478 -10.191  -5.861  0.00  0.00     0.073 H 
ENDBRANCH  10  15
BRANCH   9  32
ATOM     32  O   LIG d   1       7.472  -4.265  -5.978  0.00  0.00    -0.501 OA
ATOM     33  H   LIG d   1       7.606  -5.197  -5.758  0.00  0.00     0.292 HD
ENDBRANCH   9  32
BRANCH   1  34
ATOM     34  C   LIG d   1       4.930   1.105  -1.562  0.00  0.00    -0.040 C 
ATOM     35  H   LIG d   1       4.615   0.938  -0.531  0.00  0.00     0.028 H 
ATOM     36  H   LIG d   1       5.981   1.397  -1.577  0.00  0.00     0.028 H 
ATOM     37  H   LIG d   1       4.326   1.898  -2.003  0.00  0.00     0.028 H 
ENDBRANCH   1  34
TORSDOF 3
ENDMDL
MODEL 5
REMARK VINA RESULT:      -6.4      5.959      8.490
REMARK  3 active torsions:
REMARK  status: ('A' for Active; 'I' for Inactive)
REMARK    1  A    between atoms: C_1  and  C_2 
REMARK    2  A    between atoms: C_10  and  O_23 
REMARK    3  A    between atoms: C_11  and  C_13 
ROOT
ATOM      1  C   LIG d   1       7.865  -8.976  -5.875  0.00  0.00    -0.050 A 
ATOM      2  C   LIG d   1       8.748  -8.046  -5.345  0.00  0.00    -0.055 A 
ATOM      3  C   LIG d   1       8.343  -6.752  -5.099  0.00  0.00    -0.018 A 
ATOM      4  C   LIG d   1       7.037  -6.367  -5.382  0.00  0.00     0.140 A 
ATOM      5  C   LIG d   1       6.145  -7.308  -5.916  0.00  0.00     0.068 A 
ATOM      6  C   LIG d   1       6.566  -8.615  -6.161  0.00  0.00    -0.044 A 
ATOM      7  C   LIG d   1       4.762  -6.884  -6.209  0.00  0.00     0.234 A 
ATOM      8  O   LIG d   1       3.945  -7.662  -6.675  0.00  0.00    -0.283 OA
ATOM      9  C   LIG d   1       4.418  -5.539  -5.924  0.00  0.00     0.208 A 
ATOM     10  C   LIG d   1       5.372  -4.697  -5.405  0.00  0.00     0.181 A 
ATOM     11  O   LIG d   1       6.625  -5.105  -5.145  0.00  0.00    -0.451 OA
ATOM     12  H   LIG d   1       9.763  -8.339  -5.124  0.00  0.00     0.062 H 
ATOM     13  H   LIG d   1       9.040  -6.036  -4.688  0.00  0.00     0.065 H 
ATOM     14  H   LIG d   1       5.879  -9.340  -6.573  0.00  0.00     0.063 H 
ENDROOT
BRANCH  10  15
ATOM     15  C   LIG d   1       5.005  -3.298  -5.117  0.00  0.00     0.025 A 
ATOM     16  C   LIG d   1       4.796  -2.885  -3.797  0.00  0.00    -0.005 A 
ATOM     17  C   LIG d   1       4.452  -1.573  -3.531  0.00  0.00     0.163 A 
ATOM     18  H   LIG d   1       4.904  -3.592  -2.987  0.00  0.00     0.066 H 
ATOM     19  C   LIG d   1       4.316  -0.664  -4.576  0.00  0.00     0.162 A 
ATOM     20  O   LIG d   1       4.249  -1.187  -2.241  0.00  0.00    -0.485 OA
ATOM     21  C   LIG d   1       4.526  -1.074  -5.889  0.00  0.00    -0.016 A 
ATOM     22  O   LIG d   1       3.984   0.633  -4.331  0.00  0.00    -0.485 OA
ATOM     23  C   LIG d   1       4.865  -2.381  -6.162  0.00  0.00    -0.047 A 
ATOM     24  H   LIG d   1       4.417  -0.366  -6.696  0.00  0.00     0.066 H 
ATOM     25  H   LIG d   1       5.025  -2.696  -7.182  0.00  0.00     0.063 H 
ATOM     26  C   LIG d   1       3.421   0.921  -3.047  0.00  0.00     0.124 C 
ATOM     27  C   LIG d   1       4.273   0.221  -1.980  0.00  0.00     0.124 C 
ATOM     28  H   LIG d   1       2.397   0.548  -3.003  0.00  0.00     0.073 H 
ATOM     29  H   LIG d   1       3.429   1.998  -2.875  0.00  0.00     0.073 H 
ATOM     30  H   LIG d   1       3.859   0.418  -0.991  0.00  0.00     0.073 H 
ATOM     31  H   LIG d   1       5.298   0.586  -2.029  0.00  0.00     0.073 H 
ENDBRANCH  10  15
BRANCH   9  32
ATOM     32  O   LIG d   1       3.159  -5.085  -6.167  0.00  0.00    -0.501 OA
ATOM     33  H   LIG d   1       2.845  -4.433  -5.526  0.00  0.00     0.292 HD
ENDBRANCH   9  32
BRANCH   1  34
ATOM     34  C   LIG d   1       8.327 -10.386  -6.136  0.00  0.00    -0.040 C 
ATOM     35  H   LIG d   1       9.410 -10.398  -6.254  0.00  0.00     0.028 H 
ATOM     36  H   LIG d   1       8.046 -11.022  -5.296  0.00  0.00     0.028 H 
ATOM     37  H   LIG d   1       7.858 -10.759  -7.047  0.00  0.00     0.028 H 
ENDBRANCH   1  34
TORSDOF 3
ENDMDL
MODEL 6
REMARK VINA RESULT:      -6.3      1.670      7.452
REMARK  3 active torsions:
REMARK  status: ('A' for Active; 'I' for Inactive)
REMARK    1  A    between atoms: C_1  and  C_2 
REMARK    2  A    between atoms: C_10  and  O_23 
REMARK    3  A    between atoms: C_11  and  C_13 
ROOT
ATOM      1  C   LIG d   1      11.455   5.947  -3.779  0.00  0.00    -0.050 A 
ATOM      2  C   LIG d   1      11.219   5.472  -2.497  0.00  0.00    -0.055 A 
ATOM      3  C   LIG d   1      10.377   4.402  -2.287  0.00  0.00    -0.018 A 
ATOM      4  C   LIG d   1       9.756   3.785  -3.367  0.00  0.00     0.140 A 
ATOM      5  C   LIG d   1       9.996   4.264  -4.663  0.00  0.00     0.068 A 
ATOM      6  C   LIG d   1      10.850   5.349  -4.863  0.00  0.00    -0.044 A 
ATOM      7  C   LIG d   1       9.329   3.597  -5.798  0.00  0.00     0.234 A 
ATOM      8  O   LIG d   1       9.503   3.973  -6.946  0.00  0.00    -0.283 OA
ATOM      9  C   LIG d   1       8.483   2.499  -5.503  0.00  0.00     0.208 A 
ATOM     10  C   LIG d   1       8.312   2.113  -4.195  0.00  0.00     0.181 A 
ATOM     11  O   LIG d   1       8.930   2.735  -3.178  0.00  0.00    -0.451 OA
ATOM     12  H   LIG d   1      11.699   5.948  -1.655  0.00  0.00     0.062 H 
ATOM     13  H   LIG d   1      10.200   4.042  -1.283  0.00  0.00     0.065 H 
ATOM     14  H   LIG d   1      11.035   5.719  -5.861  0.00  0.00     0.063 H 
ENDROOT
BRANCH  10  15
ATOM     15  C   LIG d   1       7.425   0.974  -3.900  0.00  0.00     0.025 A 
ATOM     16  C   LIG d   1       6.128   1.199  -3.426  0.00  0.00    -0.005 A 
ATOM     17  C   LIG d   1       5.299   0.128  -3.150  0.00  0.00     0.163 A 
ATOM     18  H   LIG d   1       5.776   2.209  -3.277  0.00  0.00     0.066 H 
ATOM     19  C   LIG d   1       5.755  -1.174  -3.345  0.00  0.00     0.162 A 
ATOM     20  O   LIG d   1       4.040   0.363  -2.687  0.00  0.00    -0.485 OA
ATOM     21  C   LIG d   1       7.044  -1.397  -3.818  0.00  0.00    -0.016 A 
ATOM     22  O   LIG d   1       4.949  -2.238  -3.084  0.00  0.00    -0.485 OA
ATOM     23  C   LIG d   1       7.877  -0.335  -4.091  0.00  0.00    -0.047 A 
ATOM     24  H   LIG d   1       7.394  -2.408  -3.966  0.00  0.00     0.066 H 
ATOM     25  H   LIG d   1       8.877  -0.513  -4.456  0.00  0.00     0.063 H 
ATOM     26  C   LIG d   1       3.802  -1.992  -2.265  0.00  0.00     0.124 C 
ATOM     27  C   LIG d   1       3.110  -0.722  -2.777  0.00  0.00     0.124 C 
ATOM     28  H   LIG d   1       4.113  -1.850  -1.229  0.00  0.00     0.073 H 
ATOM     29  H   LIG d   1       3.115  -2.837  -2.330  0.00  0.00     0.073 H 
ATOM     30  H   LIG d   1       2.235  -0.507  -2.163  0.00  0.00     0.073 H 
ATOM     31  H   LIG d   1       2.806  -0.860  -3.814  0.00  0.00     0.073 H 
ENDBRANCH  10  15
BRANCH   9  32
ATOM     32  O   LIG d   1       7.841   1.838  -6.505  0.00  0.00    -0.501 OA
ATOM     33  H   LIG d   1       7.282   2.403  -7.055  0.00  0.00     0.292 HD
ENDBRANCH   9  32
BRANCH   1  34
ATOM     34  C   LIG d   1      12.379   7.118  -3.988  0.00  0.00    -0.040 C 
ATOM     35  H   LIG d   1      12.808   7.069  -4.990  0.00  0.00     0.028 H 
ATOM     36  H   LIG d   1      11.819   8.047  -3.878  0.00  0.00     0.028 H 
ATOM     37  H   LIG d   1      13.179   7.087  -3.248  0.00  0.00     0.028 H 
ENDBRANCH   1  34
TORSDOF 3
ENDMDL
MODEL 7
REMARK VINA RESULT:      -5.9      4.135      7.623
REMARK  3 active torsions:
REMARK  status: ('A' for Active; 'I' for Inactive)
REMARK    1  A    between atoms: C_1  and  C_2 
REMARK    2  A    between atoms: C_10  and  O_23 
REMARK    3  A    between atoms: C_11  and  C_13 
ROOT
ATOM      1  C   LIG d   1       4.038   0.589  -2.615  0.00  0.00    -0.050 A 
ATOM      2  C   LIG d   1       3.575  -0.683  -2.312  0.00  0.00    -0.055 A 
ATOM      3  C   LIG d   1       4.358  -1.792  -2.552  0.00  0.00    -0.018 A 
ATOM      4  C   LIG d   1       5.626  -1.642  -3.101  0.00  0.00     0.140 A 
ATOM      5  C   LIG d   1       6.094  -0.355  -3.405  0.00  0.00     0.068 A 
ATOM      6  C   LIG d   1       5.292   0.760  -3.159  0.00  0.00    -0.044 A 
ATOM      7  C   LIG d   1       7.443  -0.212  -3.988  0.00  0.00     0.234 A 
ATOM      8  O   LIG d   1       7.899   0.884  -4.271  0.00  0.00    -0.283 OA
ATOM      9  C   LIG d   1       8.190  -1.398  -4.199  0.00  0.00     0.208 A 
ATOM     10  C   LIG d   1       7.635  -2.611  -3.870  0.00  0.00     0.181 A 
ATOM     11  O   LIG d   1       6.405  -2.716  -3.341  0.00  0.00    -0.451 OA
ATOM     12  H   LIG d   1       2.591  -0.806  -1.886  0.00  0.00     0.062 H 
ATOM     13  H   LIG d   1       3.986  -2.778  -2.314  0.00  0.00     0.065 H 
ATOM     14  H   LIG d   1       5.652   1.752  -3.393  0.00  0.00     0.063 H 
ENDROOT
BRANCH  10  15
ATOM     15  C   LIG d   1       8.419  -3.838  -4.099  0.00  0.00     0.025 A 
ATOM     16  C   LIG d   1       9.241  -4.345  -3.087  0.00  0.00    -0.005 A 
ATOM     17  C   LIG d   1       9.975  -5.495  -3.306  0.00  0.00     0.163 A 
ATOM     18  H   LIG d   1       9.301  -3.837  -2.136  0.00  0.00     0.066 H 
ATOM     19  C   LIG d   1       9.894  -6.149  -4.533  0.00  0.00     0.162 A 
ATOM     20  O   LIG d   1      10.773  -5.975  -2.313  0.00  0.00    -0.485 OA
ATOM     21  C   LIG d   1       9.075  -5.646  -5.538  0.00  0.00    -0.016 A 
ATOM     22  O   LIG d   1      10.605  -7.287  -4.762  0.00  0.00    -0.485 OA
ATOM     23  C   LIG d   1       8.344  -4.498  -5.329  0.00  0.00    -0.047 A 
ATOM     24  H   LIG d   1       9.017  -6.156  -6.488  0.00  0.00     0.066 H 
ATOM     25  H   LIG d   1       7.711  -4.110  -6.112  0.00  0.00     0.063 H 
ATOM     26  C   LIG d   1      11.693  -7.556  -3.872  0.00  0.00     0.124 C 
ATOM     27  C   LIG d   1      11.204  -7.335  -2.435  0.00  0.00     0.124 C 
ATOM     28  H   LIG d   1      12.521  -6.879  -4.088  0.00  0.00     0.073 H 
ATOM     29  H   LIG d   1      12.021  -8.589  -3.994  0.00  0.00     0.073 H 
ATOM     30  H   LIG d   1      12.019  -7.526  -1.736  0.00  0.00     0.073 H 
ATOM     31  H   LIG d   1      10.372  -8.005  -2.221  0.00  0.00     0.073 H 
ENDBRANCH  10  15
BRANCH   9  32
ATOM     32  O   LIG d   1       9.442  -1.335  -4.728  0.00  0.00    -0.501 OA
ATOM     33  H   LIG d   1       9.472  -1.463  -5.686  0.00  0.00     0.292 HD
ENDBRANCH   9  32
BRANCH   1  34
ATOM     34  C   LIG d   1       3.168   1.788  -2.345  0.00  0.00    -0.040 C 
ATOM     35  H   LIG d   1       2.171   1.613  -2.751  0.00  0.00     0.028 H 
ATOM     36  H   LIG d   1       3.098   1.952  -1.269  0.00  0.00     0.028 H 
ATOM     37  H   LIG d   1       3.604   2.668  -2.819  0.00  0.00     0.028 H 
ENDBRANCH   1  34
TORSDOF 3
ENDMDL
MODEL 8
REMARK VINA RESULT:      -5.8      3.118      8.224
REMARK  3 active torsions:
REMARK  status: ('A' for Active; 'I' for Inactive)
REMARK    1  A    between atoms: C_1  and  C_2 
REMARK    2  A    between atoms: C_10  and  O_23 
REMARK    3  A    between atoms: C_11  and  C_13 
ROOT
ATOM      1  C   LIG d   1      10.308  10.574  -0.098  0.00  0.00    -0.050 A 
ATOM      2  C   LIG d   1      10.006  10.624  -1.452  0.00  0.00    -0.055 A 
ATOM      3  C   LIG d   1      10.062   9.486  -2.228  0.00  0.00    -0.018 A 
ATOM      4  C   LIG d   1      10.421   8.272  -1.655  0.00  0.00     0.140 A 
ATOM      5  C   LIG d   1      10.724   8.221  -0.286  0.00  0.00     0.068 A 
ATOM      6  C   LIG d   1      10.665   9.380   0.489  0.00  0.00    -0.044 A 
ATOM      7  C   LIG d   1      11.103   6.924   0.307  0.00  0.00     0.234 A 
ATOM      8  O   LIG d   1      11.377   6.824   1.492  0.00  0.00    -0.283 OA
ATOM      9  C   LIG d   1      11.132   5.798  -0.553  0.00  0.00     0.208 A 
ATOM     10  C   LIG d   1      10.821   5.958  -1.882  0.00  0.00     0.181 A 
ATOM     11  O   LIG d   1      10.479   7.149  -2.400  0.00  0.00    -0.451 OA
ATOM     12  H   LIG d   1       9.727  11.565  -1.902  0.00  0.00     0.062 H 
ATOM     13  H   LIG d   1       9.827   9.538  -3.281  0.00  0.00     0.065 H 
ATOM     14  H   LIG d   1      10.899   9.341   1.543  0.00  0.00     0.063 H 
ENDROOT
BRANCH  10  15
ATOM     15  C   LIG d   1      10.860   4.781  -2.768  0.00  0.00     0.025 A 
ATOM     16  C   LIG d   1       9.740   3.950  -2.880  0.00  0.00    -0.005 A 
ATOM     17  C   LIG d   1       9.779   2.847  -3.712  0.00  0.00     0.163 A 
ATOM     18  H   LIG d   1       8.845   4.172  -2.317  0.00  0.00     0.066 H 
ATOM     19  C   LIG d   1      10.933   2.565  -4.439  0.00  0.00     0.162 A 
ATOM     20  O   LIG d   1       8.682   2.046  -3.808  0.00  0.00    -0.485 OA
ATOM     21  C   LIG d   1      12.045   3.392  -4.329  0.00  0.00    -0.016 A 
ATOM     22  O   LIG d   1      10.986   1.487  -5.267  0.00  0.00    -0.485 OA
ATOM     23  C   LIG d   1      12.015   4.491  -3.499  0.00  0.00    -0.047 A 
ATOM     24  H   LIG d   1      12.939   3.168  -4.893  0.00  0.00     0.066 H 
ATOM     25  H   LIG d   1      12.881   5.129  -3.415  0.00  0.00     0.063 H 
ATOM     26  C   LIG d   1       9.991   0.476  -5.073  0.00  0.00     0.124 C 
ATOM     27  C   LIG d   1       8.627   1.164  -4.935  0.00  0.00     0.124 C 
ATOM     28  H   LIG d   1      10.213  -0.088  -4.165  0.00  0.00     0.073 H 
ATOM     29  H   LIG d   1       9.978  -0.198  -5.930  0.00  0.00     0.073 H 
ATOM     30  H   LIG d   1       7.851   0.414  -4.777  0.00  0.00     0.073 H 
ATOM     31  H   LIG d   1       8.409   1.734  -5.838  0.00  0.00     0.073 H 
ENDBRANCH  10  15
BRANCH   9  32
ATOM     32  O   LIG d   1      11.469   4.571  -0.068  0.00  0.00    -0.501 OA
ATOM     33  H   LIG d   1      12.112   4.097  -0.612  0.00  0.00     0.292 HD
ENDBRANCH   9  32
BRANCH   1  34
ATOM     34  C   LIG d   1      10.241  11.828   0.733  0.00  0.00    -0.040 C 
ATOM     35  H   LIG d   1       9.247  12.267   0.649  0.00  0.00     0.028 H 
ATOM     36  H   LIG d   1      10.444  11.584   1.776  0.00  0.00     0.028 H 
ATOM     37  H   LIG d   1      10.985  12.541   0.375  0.00  0.00     0.028 H 
ENDBRANCH   1  34
TORSDOF 3
ENDMDL
MODEL 9
REMARK VINA RESULT:      -5.7      5.060      7.702
REMARK  3 active torsions:
REMARK  status: ('A' for Active; 'I' for Inactive)
REMARK    1  A    between atoms: C_1  and  C_2 
REMARK    2  A    between atoms: C_10  and  O_23 
REMARK    3  A    between atoms: C_11  and  C_13 
ROOT
ATOM      1  C   LIG d   1       9.831   5.539  -6.534  0.00  0.00    -0.050 A 
ATOM      2  C   LIG d   1      10.161   6.872  -6.730  0.00  0.00    -0.055 A 
ATOM      3  C   LIG d   1      10.417   7.699  -5.657  0.00  0.00    -0.018 A 
ATOM      4  C   LIG d   1      10.346   7.197  -4.363  0.00  0.00     0.140 A 
ATOM      5  C   LIG d   1      10.014   5.849  -4.165  0.00  0.00     0.068 A 
ATOM      6  C   LIG d   1       9.757   5.022  -5.259  0.00  0.00    -0.044 A 
ATOM      7  C   LIG d   1       9.944   5.333  -2.785  0.00  0.00     0.234 A 
ATOM      8  O   LIG d   1       9.660   4.168  -2.556  0.00  0.00    -0.283 OA
ATOM      9  C   LIG d   1      10.226   6.241  -1.734  0.00  0.00     0.208 A 
ATOM     10  C   LIG d   1      10.537   7.545  -2.037  0.00  0.00     0.181 A 
ATOM     11  O   LIG d   1      10.595   7.993  -3.302  0.00  0.00    -0.451 OA
ATOM     12  H   LIG d   1      10.217   7.267  -7.734  0.00  0.00     0.062 H 
ATOM     13  H   LIG d   1      10.671   8.736  -5.822  0.00  0.00     0.065 H 
ATOM     14  H   LIG d   1       9.500   3.984  -5.108  0.00  0.00     0.063 H 
ENDROOT
BRANCH  10  15
ATOM     15  C   LIG d   1      10.823   8.482  -0.936  0.00  0.00     0.025 A 
ATOM     16  C   LIG d   1      12.036   8.402  -0.244  0.00  0.00    -0.005 A 
ATOM     17  C   LIG d   1      12.301   9.282   0.789  0.00  0.00     0.163 A 
ATOM     18  H   LIG d   1      12.764   7.652  -0.516  0.00  0.00     0.066 H 
ATOM     19  C   LIG d   1      11.361  10.249   1.136  0.00  0.00     0.162 A 
ATOM     20  O   LIG d   1      13.484   9.190   1.455  0.00  0.00    -0.485 OA
ATOM     21  C   LIG d   1      10.156  10.331   0.446  0.00  0.00    -0.016 A 
ATOM     22  O   LIG d   1      11.609  11.128   2.145  0.00  0.00    -0.485 OA
ATOM     23  C   LIG d   1       9.884   9.454  -0.580  0.00  0.00    -0.047 A 
ATOM     24  H   LIG d   1       9.430  11.081   0.721  0.00  0.00     0.066 H 
ATOM     25  H   LIG d   1       8.947   9.519  -1.112  0.00  0.00     0.063 H 
ATOM     26  C   LIG d   1      12.660  10.784   3.055  0.00  0.00     0.124 C 
ATOM     27  C   LIG d   1      13.873  10.326   2.235  0.00  0.00     0.124 C 
ATOM     28  H   LIG d   1      12.331   9.976   3.708  0.00  0.00     0.073 H 
ATOM     29  H   LIG d   1      12.928  11.655   3.653  0.00  0.00     0.073 H 
ATOM     30  H   LIG d   1      14.687  10.050   2.906  0.00  0.00     0.073 H 
ATOM     31  H   LIG d   1      14.198  11.131   1.575  0.00  0.00     0.073 H 
ENDBRANCH  10  15
BRANCH   9  32
ATOM     32  O   LIG d   1      10.184   5.827  -0.438  0.00  0.00    -0.501 OA
ATOM     33  H   LIG d   1       9.304   5.870  -0.040  0.00  0.00     0.292 HD
ENDBRANCH   9  32
BRANCH   1  34
ATOM     34  C   LIG d   1       9.555   4.652  -7.720  0.00  0.00    -0.040 C 
ATOM     35  H   LIG d   1       8.955   5.196  -8.450  0.00  0.00     0.028 H 
ATOM     36  H   LIG d   1      10.498   4.352  -8.177  0.00  0.00     0.028 H 
ATOM     37  H   LIG d   1       9.012   3.765  -7.392  0.00  0.00     0.028 H 
ENDBRANCH   1  34
TORSDOF 3
ENDMDL
MODEL 10
REMARK VINA RESULT:      -5.7      2.436      7.603
REMARK  3 active torsions:
REMARK  status: ('A' for Active; 'I' for Inactive)
REMARK    1  A    between atoms: C_1  and  C_2 
REMARK    2  A    between atoms: C_10  and  O_23 
REMARK    3  A    between atoms: C_11  and  C_13 
ROOT
ATOM      1  C   LIG d   1      11.033   8.295   0.322  0.00  0.00    -0.050 A 
ATOM      2  C   LIG d   1      11.185   7.088   0.989  0.00  0.00    -0.055 A 
ATOM      3  C   LIG d   1      10.983   5.892   0.335  0.00  0.00    -0.018 A 
ATOM      4  C   LIG d   1      10.624   5.888  -1.008  0.00  0.00     0.140 A 
ATOM      5  C   LIG d   1      10.472   7.108  -1.682  0.00  0.00     0.068 A 
ATOM      6  C   LIG d   1      10.678   8.312  -1.009  0.00  0.00    -0.044 A 
ATOM      7  C   LIG d   1      10.092   7.086  -3.108  0.00  0.00     0.234 A 
ATOM      8  O   LIG d   1       9.946   8.118  -3.742  0.00  0.00    -0.283 OA
ATOM      9  C   LIG d   1       9.908   5.818  -3.714  0.00  0.00     0.208 A 
ATOM     10  C   LIG d   1      10.078   4.681  -2.960  0.00  0.00     0.181 A 
ATOM     11  O   LIG d   1      10.424   4.726  -1.663  0.00  0.00    -0.451 OA
ATOM     12  H   LIG d   1      11.463   7.086   2.033  0.00  0.00     0.062 H 
ATOM     13  H   LIG d   1      11.103   4.958   0.866  0.00  0.00     0.065 H 
ATOM     14  H   LIG d   1      10.561   9.253  -1.528  0.00  0.00     0.063 H 
ENDROOT
BRANCH  10  15
ATOM     15  C   LIG d   1       9.878   3.368  -3.599  0.00  0.00     0.025 A 
ATOM     16  C   LIG d   1       8.584   2.886  -3.823  0.00  0.00    -0.005 A 
ATOM     17  C   LIG d   1       8.401   1.654  -4.422  0.00  0.00     0.163 A 
ATOM     18  H   LIG d   1       7.730   3.477  -3.528  0.00  0.00     0.066 H 
ATOM     19  C   LIG d   1       9.504   0.894  -4.803  0.00  0.00     0.162 A 
ATOM     20  O   LIG d   1       7.135   1.197  -4.631  0.00  0.00    -0.485 OA
ATOM     21  C   LIG d   1      10.790   1.374  -4.583  0.00  0.00    -0.016 A 
ATOM     22  O   LIG d   1       9.341  -0.317  -5.400  0.00  0.00    -0.485 OA
ATOM     23  C   LIG d   1      10.981   2.599  -3.982  0.00  0.00    -0.047 A 
ATOM     24  H   LIG d   1      11.643   0.781  -4.878  0.00  0.00     0.066 H 
ATOM     25  H   LIG d   1      11.981   2.967  -3.811  0.00  0.00     0.063 H 
ATOM     26  C   LIG d   1       8.053  -0.930  -5.271  0.00  0.00     0.124 C 
ATOM     27  C   LIG d   1       6.985   0.129  -5.572  0.00  0.00     0.124 C 
ATOM     28  H   LIG d   1       7.925  -1.304  -4.254  0.00  0.00     0.073 H 
ATOM     29  H   LIG d   1       7.965  -1.754  -5.980  0.00  0.00     0.073 H 
ATOM     30  H   LIG d   1       5.992  -0.312  -5.472  0.00  0.00     0.073 H 
ATOM     31  H   LIG d   1       7.117   0.509  -6.584  0.00  0.00     0.073 H 
ENDBRANCH  10  15
BRANCH   9  32
ATOM     32  O   LIG d   1       9.561   5.727  -5.027  0.00  0.00    -0.501 OA
ATOM     33  H   LIG d   1       8.971   4.989  -5.228  0.00  0.00     0.292 HD
ENDBRANCH   9  32
BRANCH   1  34
ATOM     34  C   LIG d   1      11.258   9.591   1.055  0.00  0.00    -0.040 C 
ATOM     35  H   LIG d   1      10.733   9.565   2.011  0.00  0.00     0.028 H 
ATOM     36  H   LIG d   1      12.325   9.729   1.231  0.00  0.00     0.028 H 
ATOM     37  H   LIG d   1      10.879  10.419   0.455  0.00  0.00     0.028 H 
ENDBRANCH   1  34
TORSDOF 3
ENDMDL
