MODEL 1
REMARK VINA RESULT:      -5.8      0.000      0.000
REMARK  8 active torsions:
REMARK  status: ('A' for Active; 'I' for Inactive)
REMARK    1  A    between atoms: C_1  and  C_2 
REMARK    2  A    between atoms: C_5  and  C_8 
REMARK    3  A    between atoms: C_8  and  C_18 
REMARK    4  A    between atoms: C_12  and  C_15 
REMARK    5  A    between atoms: C_15  and  C_16 
REMARK    6  A    between atoms: C_15  and  C_17 
REMARK    7  A    between atoms: C_18  and  C_19 
REMARK    8  A    between atoms: C_19  and  N_20 
ROOT
ATOM      1  C   LIG d   1       5.350  -1.659  -6.026  0.00  0.00     0.005 C 
ATOM      2  C   LIG d   1       6.823  -1.410  -5.685  0.00  0.00    -0.019 C 
ATOM      3  C   LIG d   1       6.946  -0.083  -4.931  0.00  0.00     0.049 C 
ATOM      4  O   LIG d   1       6.133  -0.127  -3.756  0.00  0.00    -0.376 OA
ATOM      5  C   LIG d   1       4.740  -0.311  -4.016  0.00  0.00     0.062 C 
ATOM      6  H   LIG d   1       4.378   0.502  -4.647  0.00  0.00     0.060 H 
ATOM      7  C   LIG d   1       4.529  -1.647  -4.733  0.00  0.00    -0.016 C 
ATOM      8  H   LIG d   1       7.194  -2.220  -5.058  0.00  0.00     0.030 H 
ATOM      9  H   LIG d   1       7.407  -1.362  -6.604  0.00  0.00     0.030 H 
ATOM     10  H   LIG d   1       7.985   0.079  -4.648  0.00  0.00     0.056 H 
ATOM     11  H   LIG d   1       6.612   0.731  -5.573  0.00  0.00     0.056 H 
ATOM     12  H   LIG d   1       3.473  -1.769  -4.972  0.00  0.00     0.030 H 
ATOM     13  H   LIG d   1       4.854  -2.462  -4.087  0.00  0.00     0.030 H 
ENDROOT
BRANCH   1  14
ATOM     14  C   LIG d   1       4.856  -0.576  -6.948  0.00  0.00    -0.041 A 
ATOM     15  C   LIG d   1       5.735   0.054  -7.810  0.00  0.00    -0.058 A 
ATOM     16  C   LIG d   1       5.281   1.047  -8.657  0.00  0.00    -0.059 A 
ATOM     17  H   LIG d   1       6.777  -0.232  -7.822  0.00  0.00     0.062 H 
ATOM     18  C   LIG d   1       3.947   1.413  -8.641  0.00  0.00    -0.050 A 
ATOM     19  H   LIG d   1       5.968   1.538  -9.330  0.00  0.00     0.062 H 
ATOM     20  C   LIG d   1       3.069   0.788  -7.776  0.00  0.00    -0.059 A 
ATOM     21  C   LIG d   1       3.522  -0.209  -6.933  0.00  0.00    -0.058 A 
ATOM     22  H   LIG d   1       2.029   1.076  -7.761  0.00  0.00     0.062 H 
ATOM     23  H   LIG d   1       2.836  -0.700  -6.259  0.00  0.00     0.062 H 
BRANCH  18  24
ATOM     24  C   LIG d   1       3.453   2.496  -9.565  0.00  0.00    -0.040 C 
ATOM     25  H   LIG d   1       3.827   2.314 -10.571  0.00  0.00     0.028 H 
ATOM     26  H   LIG d   1       2.364   2.496  -9.575  0.00  0.00     0.028 H 
ATOM     27  H   LIG d   1       3.813   3.464  -9.213  0.00  0.00     0.028 H 
ENDBRANCH  18  24
ENDBRANCH   1  14
BRANCH   1  28
ATOM     28  C   LIG d   1       5.205  -3.020  -6.710  0.00  0.00    -0.003 C 
ATOM     29  H   LIG d   1       4.557  -2.923  -7.580  0.00  0.00     0.033 H 
ATOM     30  H   LIG d   1       6.186  -3.374  -7.025  0.00  0.00     0.033 H 
BRANCH  28  31
ATOM     31  C   LIG d   1       4.593  -4.022  -5.729  0.00  0.00    -0.035 C 
ATOM     32  H   LIG d   1       5.357  -4.732  -5.410  0.00  0.00     0.081 H 
ATOM     33  H   LIG d   1       4.207  -3.490  -4.859  0.00  0.00     0.081 H 
BRANCH  31  34
ATOM     34  N   LIG d   1       3.497  -4.746  -6.387  0.00  0.00     0.218 N 
ATOM     35  H   LIG d   1       2.649  -4.632  -5.851  0.00  0.00     0.199 HD
ATOM     36  H   LIG d   1       3.360  -4.375  -7.316  0.00  0.00     0.199 HD
ATOM     37  H   LIG d   1       3.729  -5.725  -6.447  0.00  0.00     0.199 HD
ENDBRANCH  31  34
ENDBRANCH  28  31
ENDBRANCH   1  28
BRANCH   5  38
ATOM     38  C   LIG d   1       3.970  -0.313  -2.694  0.00  0.00    -0.020 C 
ATOM     39  H   LIG d   1       2.912  -0.141  -2.889  0.00  0.00     0.032 H 
BRANCH  38  40
ATOM     40  C   LIG d   1       4.147  -1.667  -2.003  0.00  0.00    -0.060 C 
ATOM     41  H   LIG d   1       3.496  -2.404  -2.475  0.00  0.00     0.023 H 
ATOM     42  H   LIG d   1       5.185  -1.988  -2.095  0.00  0.00     0.023 H 
ATOM     43  H   LIG d   1       3.886  -1.575  -0.949  0.00  0.00     0.023 H 
ENDBRANCH  38  40
BRANCH  38  44
ATOM     44  C   LIG d   1       4.509   0.796  -1.788  0.00  0.00    -0.060 C 
ATOM     45  H   LIG d   1       5.465   1.147  -2.174  0.00  0.00     0.023 H 
ATOM     46  H   LIG d   1       3.800   1.623  -1.766  0.00  0.00     0.023 H 
ATOM     47  H   LIG d   1       4.645   0.407  -0.779  0.00  0.00     0.023 H 
ENDBRANCH  38  44
ENDBRANCH   5  38
TORSDOF 8
ENDMDL
MODEL 2
REMARK VINA RESULT:      -5.2      0.910      1.293
REMARK  8 active torsions:
REMARK  status: ('A' for Active; 'I' for Inactive)
REMARK    1  A    between atoms: C_1  and  C_2 
REMARK    2  A    between atoms: C_5  and  C_8 
REMARK    3  A    between atoms: C_8  and  C_18 
REMARK    4  A    between atoms: C_12  and  C_15 
REMARK    5  A    between atoms: C_15  and  C_16 
REMARK    6  A    between atoms: C_15  and  C_17 
REMARK    7  A    between atoms: C_18  and  C_19 
REMARK    8  A    between atoms: C_19  and  N_20 
ROOT
ATOM      1  C   LIG d   1       5.960  -2.390  -5.511  0.00  0.00     0.005 C 
ATOM      2  C   LIG d   1       7.413  -2.214  -5.059  0.00  0.00    -0.019 C 
ATOM      3  C   LIG d   1       7.553  -0.875  -4.329  0.00  0.00     0.049 C 
ATOM      4  O   LIG d   1       6.650  -0.842  -3.222  0.00  0.00    -0.376 OA
ATOM      5  C   LIG d   1       5.273  -0.955  -3.588  0.00  0.00     0.062 C 
ATOM      6  H   LIG d   1       5.009  -0.141  -4.264  0.00  0.00     0.060 H 
ATOM      7  C   LIG d   1       5.042  -2.297  -4.289  0.00  0.00    -0.016 C 
ATOM      8  H   LIG d   1       7.687  -3.026  -4.387  0.00  0.00     0.030 H 
ATOM      9  H   LIG d   1       8.069  -2.224  -5.930  0.00  0.00     0.030 H 
ATOM     10  H   LIG d   1       8.575  -0.764  -3.968  0.00  0.00     0.056 H 
ATOM     11  H   LIG d   1       7.318  -0.062  -5.014  0.00  0.00     0.056 H 
ATOM     12  H   LIG d   1       4.002  -2.366  -4.608  0.00  0.00     0.030 H 
ATOM     13  H   LIG d   1       5.268  -3.111  -3.600  0.00  0.00     0.030 H 
ENDROOT
BRANCH   1  14
ATOM     14  C   LIG d   1       5.602  -1.306  -6.494  0.00  0.00    -0.041 A 
ATOM     15  C   LIG d   1       6.589  -0.718  -7.265  0.00  0.00    -0.058 A 
ATOM     16  C   LIG d   1       6.261   0.276  -8.167  0.00  0.00    -0.059 A 
ATOM     17  H   LIG d   1       7.616  -1.037  -7.161  0.00  0.00     0.062 H 
ATOM     18  C   LIG d   1       4.946   0.682  -8.300  0.00  0.00    -0.050 A 
ATOM     19  H   LIG d   1       7.031   0.734  -8.769  0.00  0.00     0.062 H 
ATOM     20  C   LIG d   1       3.960   0.099  -7.526  0.00  0.00    -0.059 A 
ATOM     21  C   LIG d   1       4.288  -0.899  -6.627  0.00  0.00    -0.058 A 
ATOM     22  H   LIG d   1       2.934   0.419  -7.627  0.00  0.00     0.062 H 
ATOM     23  H   LIG d   1       3.517  -1.357  -6.025  0.00  0.00     0.062 H 
BRANCH  18  24
ATOM     24  C   LIG d   1       4.589   1.766  -9.285  0.00  0.00    -0.040 C 
ATOM     25  H   LIG d   1       4.924   2.729  -8.901  0.00  0.00     0.028 H 
ATOM     26  H   LIG d   1       5.075   1.564 -10.239  0.00  0.00     0.028 H 
ATOM     27  H   LIG d   1       3.508   1.786  -9.425  0.00  0.00     0.028 H 
ENDBRANCH  18  24
ENDBRANCH   1  14
BRANCH   1  28
ATOM     28  C   LIG d   1       5.791  -3.759  -6.173  0.00  0.00    -0.003 C 
ATOM     29  H   LIG d   1       5.521  -3.626  -7.221  0.00  0.00     0.033 H 
ATOM     30  H   LIG d   1       6.726  -4.313  -6.106  0.00  0.00     0.033 H 
BRANCH  28  31
ATOM     31  C   LIG d   1       4.684  -4.538  -5.459  0.00  0.00    -0.035 C 
ATOM     32  H   LIG d   1       5.059  -5.523  -5.174  0.00  0.00     0.081 H 
ATOM     33  H   LIG d   1       4.376  -3.996  -4.565  0.00  0.00     0.081 H 
BRANCH  31  34
ATOM     34  N   LIG d   1       3.534  -4.694  -6.359  0.00  0.00     0.218 N 
ATOM     35  H   LIG d   1       2.946  -3.876  -6.297  0.00  0.00     0.199 HD
ATOM     36  H   LIG d   1       3.862  -4.801  -7.307  0.00  0.00     0.199 HD
ATOM     37  H   LIG d   1       3.006  -5.510  -6.091  0.00  0.00     0.199 HD
ENDBRANCH  31  34
ENDBRANCH  28  31
ENDBRANCH   1  28
BRANCH   5  38
ATOM     38  C   LIG d   1       4.403  -0.878  -2.331  0.00  0.00    -0.020 C 
ATOM     39  H   LIG d   1       4.743  -1.620  -1.609  0.00  0.00     0.032 H 
BRANCH  38  40
ATOM     40  C   LIG d   1       4.514   0.520  -1.719  0.00  0.00    -0.060 C 
ATOM     41  H   LIG d   1       3.592   1.072  -1.903  0.00  0.00     0.023 H 
ATOM     42  H   LIG d   1       4.678   0.433  -0.645  0.00  0.00     0.023 H 
ATOM     43  H   LIG d   1       5.351   1.050  -2.174  0.00  0.00     0.023 H 
ENDBRANCH  38  40
BRANCH  38  44
ATOM     44  C   LIG d   1       2.946  -1.158  -2.703  0.00  0.00    -0.060 C 
ATOM     45  H   LIG d   1       2.778  -2.234  -2.731  0.00  0.00     0.023 H 
ATOM     46  H   LIG d   1       2.288  -0.707  -1.960  0.00  0.00     0.023 H 
ATOM     47  H   LIG d   1       2.732  -0.732  -3.684  0.00  0.00     0.023 H 
ENDBRANCH  38  44
ENDBRANCH   5  38
TORSDOF 8
ENDMDL
MODEL 3
REMARK VINA RESULT:      -5.2      2.486      4.588
REMARK  8 active torsions:
REMARK  status: ('A' for Active; 'I' for Inactive)
REMARK    1  A    between atoms: C_1  and  C_2 
REMARK    2  A    between atoms: C_5  and  C_8 
REMARK    3  A    between atoms: C_8  and  C_18 
REMARK    4  A    between atoms: C_12  and  C_15 
REMARK    5  A    between atoms: C_15  and  C_16 
REMARK    6  A    between atoms: C_15  and  C_17 
REMARK    7  A    between atoms: C_18  and  C_19 
REMARK    8  A    between atoms: C_19  and  N_20 
ROOT
ATOM      1  C   LIG d   1       6.563  -0.488  -5.332  0.00  0.00     0.005 C 
ATOM      2  C   LIG d   1       6.944  -1.971  -5.277  0.00  0.00    -0.019 C 
ATOM      3  C   LIG d   1       7.262  -2.355  -3.828  0.00  0.00     0.049 C 
ATOM      4  O   LIG d   1       6.130  -2.071  -3.003  0.00  0.00    -0.376 OA
ATOM      5  C   LIG d   1       5.756  -0.692  -2.979  0.00  0.00     0.062 C 
ATOM      6  H   LIG d   1       6.594  -0.095  -2.619  0.00  0.00     0.060 H 
ATOM      7  C   LIG d   1       5.378  -0.242  -4.393  0.00  0.00    -0.016 C 
ATOM      8  H   LIG d   1       6.113  -2.575  -5.639  0.00  0.00     0.030 H 
ATOM      9  H   LIG d   1       7.821  -2.145  -5.900  0.00  0.00     0.030 H 
ATOM     10  H   LIG d   1       7.492  -3.418  -3.777  0.00  0.00     0.056 H 
ATOM     11  H   LIG d   1       8.118  -1.779  -3.480  0.00  0.00     0.056 H 
ATOM     12  H   LIG d   1       5.135   0.820  -4.384  0.00  0.00     0.030 H 
ATOM     13  H   LIG d   1       4.515  -0.811  -4.737  0.00  0.00     0.030 H 
ENDROOT
BRANCH   1  14
ATOM     14  C   LIG d   1       7.735   0.350  -4.895  0.00  0.00    -0.041 A 
ATOM     15  C   LIG d   1       7.535   1.447  -4.077  0.00  0.00    -0.058 A 
ATOM     16  C   LIG d   1       8.611   2.217  -3.675  0.00  0.00    -0.059 A 
ATOM     17  H   LIG d   1       6.537   1.702  -3.751  0.00  0.00     0.062 H 
ATOM     18  C   LIG d   1       9.888   1.889  -4.093  0.00  0.00    -0.050 A 
ATOM     19  H   LIG d   1       8.454   3.072  -3.037  0.00  0.00     0.062 H 
ATOM     20  C   LIG d   1      10.088   0.796  -4.915  0.00  0.00    -0.059 A 
ATOM     21  C   LIG d   1       9.013   0.024  -5.312  0.00  0.00    -0.058 A 
ATOM     22  H   LIG d   1      11.085   0.543  -5.244  0.00  0.00     0.062 H 
ATOM     23  H   LIG d   1       9.169  -0.831  -5.952  0.00  0.00     0.062 H 
BRANCH  18  24
ATOM     24  C   LIG d   1      11.061   2.728  -3.655  0.00  0.00    -0.040 C 
ATOM     25  H   LIG d   1      11.838   2.692  -4.418  0.00  0.00     0.028 H 
ATOM     26  H   LIG d   1      10.737   3.759  -3.513  0.00  0.00     0.028 H 
ATOM     27  H   LIG d   1      11.455   2.338  -2.716  0.00  0.00     0.028 H 
ENDBRANCH  18  24
ENDBRANCH   1  14
BRANCH   1  28
ATOM     28  C   LIG d   1       6.168  -0.113  -6.762  0.00  0.00    -0.003 C 
ATOM     29  H   LIG d   1       6.400   0.937  -6.940  0.00  0.00     0.033 H 
ATOM     30  H   LIG d   1       6.722  -0.732  -7.466  0.00  0.00     0.033 H 
BRANCH  28  31
ATOM     31  C   LIG d   1       4.667  -0.341  -6.953  0.00  0.00    -0.035 C 
ATOM     32  H   LIG d   1       4.509  -1.247  -7.540  0.00  0.00     0.081 H 
ATOM     33  H   LIG d   1       4.189  -0.452  -5.980  0.00  0.00     0.081 H 
BRANCH  31  34
ATOM     34  N   LIG d   1       4.082   0.807  -7.658  0.00  0.00     0.218 N 
ATOM     35  H   LIG d   1       3.182   0.548  -8.034  0.00  0.00     0.199 HD
ATOM     36  H   LIG d   1       3.968   1.575  -7.013  0.00  0.00     0.199 HD
ATOM     37  H   LIG d   1       4.694   1.087  -8.410  0.00  0.00     0.199 HD
ENDBRANCH  31  34
ENDBRANCH  28  31
ENDBRANCH   1  28
BRANCH   5  38
ATOM     38  C   LIG d   1       4.557  -0.505  -2.046  0.00  0.00    -0.020 C 
ATOM     39  H   LIG d   1       4.759  -0.993  -1.093  0.00  0.00     0.032 H 
BRANCH  38  40
ATOM     40  C   LIG d   1       4.320   0.989  -1.814  0.00  0.00    -0.060 C 
ATOM     41  H   LIG d   1       3.264   1.216  -1.960  0.00  0.00     0.023 H 
ATOM     42  H   LIG d   1       4.611   1.248  -0.796  0.00  0.00     0.023 H 
ATOM     43  H   LIG d   1       4.916   1.565  -2.522  0.00  0.00     0.023 H 
ENDBRANCH  38  40
BRANCH  38  44
ATOM     44  C   LIG d   1       3.313  -1.127  -2.684  0.00  0.00    -0.060 C 
ATOM     45  H   LIG d   1       3.540  -1.427  -3.706  0.00  0.00     0.023 H 
ATOM     46  H   LIG d   1       3.007  -2.000  -2.108  0.00  0.00     0.023 H 
ATOM     47  H   LIG d   1       2.504  -0.395  -2.692  0.00  0.00     0.023 H 
ENDBRANCH  38  44
ENDBRANCH   5  38
TORSDOF 8
ENDMDL
MODEL 4
REMARK VINA RESULT:      -5.1      2.434      5.373
REMARK  8 active torsions:
REMARK  status: ('A' for Active; 'I' for Inactive)
REMARK    1  A    between atoms: C_1  and  C_2 
REMARK    2  A    between atoms: C_5  and  C_8 
REMARK    3  A    between atoms: C_8  and  C_18 
REMARK    4  A    between atoms: C_12  and  C_15 
REMARK    5  A    between atoms: C_15  and  C_16 
REMARK    6  A    between atoms: C_15  and  C_17 
REMARK    7  A    between atoms: C_18  and  C_19 
REMARK    8  A    between atoms: C_19  and  N_20 
ROOT
ATOM      1  C   LIG d   1       3.416  -0.170  -8.455  0.00  0.00     0.005 C 
ATOM      2  C   LIG d   1       2.563   0.991  -8.976  0.00  0.00    -0.019 C 
ATOM      3  C   LIG d   1       3.188   2.315  -8.527  0.00  0.00     0.049 C 
ATOM      4  O   LIG d   1       4.532   2.392  -9.007  0.00  0.00    -0.376 OA
ATOM      5  C   LIG d   1       5.388   1.358  -8.516  0.00  0.00     0.062 C 
ATOM      6  H   LIG d   1       5.416   1.398  -7.427  0.00  0.00     0.060 H 
ATOM      7  C   LIG d   1       4.851  -0.004  -8.965  0.00  0.00    -0.016 C 
ATOM      8  H   LIG d   1       2.526   0.956 -10.064  0.00  0.00     0.030 H 
ATOM      9  H   LIG d   1       1.553   0.910  -8.573  0.00  0.00     0.030 H 
ATOM     10  H   LIG d   1       2.610   3.145  -8.931  0.00  0.00     0.056 H 
ATOM     11  H   LIG d   1       3.188   2.365  -7.439  0.00  0.00     0.056 H 
ATOM     12  H   LIG d   1       5.477  -0.795  -8.554  0.00  0.00     0.030 H 
ATOM     13  H   LIG d   1       4.860  -0.058 -10.053  0.00  0.00     0.030 H 
ENDROOT
BRANCH   1  14
ATOM     14  C   LIG d   1       3.412  -0.163  -6.949  0.00  0.00    -0.041 A 
ATOM     15  C   LIG d   1       2.408   0.495  -6.263  0.00  0.00    -0.058 A 
ATOM     16  C   LIG d   1       2.402   0.501  -4.881  0.00  0.00    -0.059 A 
ATOM     17  H   LIG d   1       1.626   1.005  -6.808  0.00  0.00     0.062 H 
ATOM     18  C   LIG d   1       3.403  -0.152  -4.184  0.00  0.00    -0.050 A 
ATOM     19  H   LIG d   1       1.619   1.015  -4.346  0.00  0.00     0.062 H 
ATOM     20  C   LIG d   1       4.410  -0.806  -4.868  0.00  0.00    -0.059 A 
ATOM     21  C   LIG d   1       4.412  -0.815  -6.251  0.00  0.00    -0.058 A 
ATOM     22  H   LIG d   1       5.192  -1.312  -4.324  0.00  0.00     0.062 H 
ATOM     23  H   LIG d   1       5.196  -1.329  -6.786  0.00  0.00     0.062 H 
BRANCH  18  24
ATOM     24  C   LIG d   1       3.397  -0.145  -2.676  0.00  0.00    -0.040 C 
ATOM     25  H   LIG d   1       3.728   0.828  -2.317  0.00  0.00     0.028 H 
ATOM     26  H   LIG d   1       2.388  -0.343  -2.316  0.00  0.00     0.028 H 
ATOM     27  H   LIG d   1       4.072  -0.918  -2.308  0.00  0.00     0.028 H 
ENDBRANCH  18  24
ENDBRANCH   1  14
BRANCH   1  28
ATOM     28  C   LIG d   1       2.844  -1.496  -8.963  0.00  0.00    -0.003 C 
ATOM     29  H   LIG d   1       3.616  -2.040  -9.507  0.00  0.00     0.033 H 
ATOM     30  H   LIG d   1       2.505  -2.093  -8.118  0.00  0.00     0.033 H 
BRANCH  28  31
ATOM     31  C   LIG d   1       1.664  -1.217  -9.896  0.00  0.00    -0.035 C 
ATOM     32  H   LIG d   1       0.960  -0.547  -9.402  0.00  0.00     0.081 H 
ATOM     33  H   LIG d   1       2.027  -0.750 -10.812  0.00  0.00     0.081 H 
BRANCH  31  34
ATOM     34  N   LIG d   1       0.990  -2.480 -10.224  0.00  0.00     0.218 N 
ATOM     35  H   LIG d   1       0.324  -2.704  -9.498  0.00  0.00     0.199 HD
ATOM     36  H   LIG d   1       0.506  -2.384 -11.105  0.00  0.00     0.199 HD
ATOM     37  H   LIG d   1       1.673  -3.218 -10.293  0.00  0.00     0.199 HD
ENDBRANCH  31  34
ENDBRANCH  28  31
ENDBRANCH   1  28
BRANCH   5  38
ATOM     38  C   LIG d   1       6.800   1.559  -9.071  0.00  0.00    -0.020 C 
ATOM     39  H   LIG d   1       6.826   2.462  -9.679  0.00  0.00     0.032 H 
BRANCH  38  40
ATOM     40  C   LIG d   1       7.789   1.695  -7.911  0.00  0.00    -0.060 C 
ATOM     41  H   LIG d   1       8.068   2.742  -7.793  0.00  0.00     0.023 H 
ATOM     42  H   LIG d   1       7.323   1.337  -6.994  0.00  0.00     0.023 H 
ATOM     43  H   LIG d   1       8.680   1.104  -8.122  0.00  0.00     0.023 H 
ENDBRANCH  38  40
BRANCH  38  44
ATOM     44  C   LIG d   1       7.185   0.353  -9.931  0.00  0.00    -0.060 C 
ATOM     45  H   LIG d   1       6.431   0.202 -10.703  0.00  0.00     0.023 H 
ATOM     46  H   LIG d   1       8.152   0.535 -10.399  0.00  0.00     0.023 H 
ATOM     47  H   LIG d   1       7.246  -0.537  -9.304  0.00  0.00     0.023 H 
ENDBRANCH  38  44
ENDBRANCH   5  38
TORSDOF 8
ENDMDL
MODEL 5
REMARK VINA RESULT:      -5.1      1.722      4.507
REMARK  8 active torsions:
REMARK  status: ('A' for Active; 'I' for Inactive)
REMARK    1  A    between atoms: C_1  and  C_2 
REMARK    2  A    between atoms: C_5  and  C_8 
REMARK    3  A    between atoms: C_8  and  C_18 
REMARK    4  A    between atoms: C_12  and  C_15 
REMARK    5  A    between atoms: C_15  and  C_16 
REMARK    6  A    between atoms: C_15  and  C_17 
REMARK    7  A    between atoms: C_18  and  C_19 
REMARK    8  A    between atoms: C_19  and  N_20 
ROOT
ATOM      1  C   LIG d   1       4.528  -1.462  -4.641  0.00  0.00     0.005 C 
ATOM      2  C   LIG d   1       3.413  -1.153  -3.637  0.00  0.00    -0.019 C 
ATOM      3  C   LIG d   1       2.814   0.220  -3.958  0.00  0.00     0.049 C 
ATOM      4  O   LIG d   1       2.329   0.224  -5.302  0.00  0.00    -0.376 OA
ATOM      5  C   LIG d   1       3.337  -0.012  -6.287  0.00  0.00     0.062 C 
ATOM      6  H   LIG d   1       4.111   0.751  -6.204  0.00  0.00     0.060 H 
ATOM      7  C   LIG d   1       3.956  -1.394  -6.060  0.00  0.00    -0.016 C 
ATOM      8  H   LIG d   1       2.636  -1.915  -3.710  0.00  0.00     0.030 H 
ATOM      9  H   LIG d   1       3.823  -1.145  -2.628  0.00  0.00     0.030 H 
ATOM     10  H   LIG d   1       1.992   0.425  -3.273  0.00  0.00     0.056 H 
ATOM     11  H   LIG d   1       3.582   0.985  -3.845  0.00  0.00     0.056 H 
ATOM     12  H   LIG d   1       4.755  -1.558  -6.783  0.00  0.00     0.030 H 
ATOM     13  H   LIG d   1       3.190  -2.160  -6.182  0.00  0.00     0.030 H 
ENDROOT
BRANCH   1  14
ATOM     14  C   LIG d   1       5.633  -0.449  -4.494  0.00  0.00    -0.041 A 
ATOM     15  C   LIG d   1       5.722   0.315  -3.345  0.00  0.00    -0.058 A 
ATOM     16  C   LIG d   1       6.737   1.245  -3.209  0.00  0.00    -0.059 A 
ATOM     17  H   LIG d   1       4.999   0.186  -2.553  0.00  0.00     0.062 H 
ATOM     18  C   LIG d   1       7.663   1.410  -4.223  0.00  0.00    -0.050 A 
ATOM     19  H   LIG d   1       6.807   1.841  -2.312  0.00  0.00     0.062 H 
ATOM     20  C   LIG d   1       7.571   0.650  -5.374  0.00  0.00    -0.059 A 
ATOM     21  C   LIG d   1       6.559  -0.282  -5.507  0.00  0.00    -0.058 A 
ATOM     22  H   LIG d   1       8.291   0.782  -6.167  0.00  0.00     0.062 H 
ATOM     23  H   LIG d   1       6.489  -0.878  -6.405  0.00  0.00     0.062 H 
BRANCH  18  24
ATOM     24  C   LIG d   1       8.769   2.423  -4.075  0.00  0.00    -0.040 C 
ATOM     25  H   LIG d   1       8.593   3.254  -4.757  0.00  0.00     0.028 H 
ATOM     26  H   LIG d   1       8.789   2.791  -3.049  0.00  0.00     0.028 H 
ATOM     27  H   LIG d   1       9.724   1.954  -4.311  0.00  0.00     0.028 H 
ENDBRANCH  18  24
ENDBRANCH   1  14
BRANCH   1  28
ATOM     28  C   LIG d   1       5.080  -2.865  -4.379  0.00  0.00    -0.003 C 
ATOM     29  H   LIG d   1       6.146  -2.801  -4.163  0.00  0.00     0.033 H 
ATOM     30  H   LIG d   1       4.562  -3.306  -3.529  0.00  0.00     0.033 H 
BRANCH  28  31
ATOM     31  C   LIG d   1       4.864  -3.737  -5.618  0.00  0.00    -0.035 C 
ATOM     32  H   LIG d   1       4.215  -3.215  -6.322  0.00  0.00     0.081 H 
ATOM     33  H   LIG d   1       5.824  -3.940  -6.092  0.00  0.00     0.081 H 
BRANCH  31  34
ATOM     34  N   LIG d   1       4.236  -5.004  -5.221  0.00  0.00     0.218 N 
ATOM     35  H   LIG d   1       4.470  -5.721  -5.892  0.00  0.00     0.199 HD
ATOM     36  H   LIG d   1       4.572  -5.275  -4.309  0.00  0.00     0.199 HD
ATOM     37  H   LIG d   1       3.234  -4.888  -5.189  0.00  0.00     0.199 HD
ENDBRANCH  31  34
ENDBRANCH  28  31
ENDBRANCH   1  28
BRANCH   5  38
ATOM     38  C   LIG d   1       2.710   0.044  -7.682  0.00  0.00    -0.020 C 
ATOM     39  H   LIG d   1       1.634  -0.102  -7.602  0.00  0.00     0.032 H 
BRANCH  38  40
ATOM     40  C   LIG d   1       2.994   1.409  -8.313  0.00  0.00    -0.060 C 
ATOM     41  H   LIG d   1       2.186   2.098  -8.068  0.00  0.00     0.023 H 
ATOM     42  H   LIG d   1       3.935   1.799  -7.926  0.00  0.00     0.023 H 
ATOM     43  H   LIG d   1       3.062   1.301  -9.396  0.00  0.00     0.023 H 
ENDBRANCH  38  40
BRANCH  38  44
ATOM     44  C   LIG d   1       3.312  -1.058  -8.556  0.00  0.00    -0.060 C 
ATOM     45  H   LIG d   1       3.607  -1.898  -7.929  0.00  0.00     0.023 H 
ATOM     46  H   LIG d   1       2.571  -1.390  -9.283  0.00  0.00     0.023 H 
ATOM     47  H   LIG d   1       4.186  -0.671  -9.079  0.00  0.00     0.023 H 
ENDBRANCH  38  44
ENDBRANCH   5  38
TORSDOF 8
ENDMDL
MODEL 6
REMARK VINA RESULT:      -5.0      2.535      5.398
REMARK  8 active torsions:
REMARK  status: ('A' for Active; 'I' for Inactive)
REMARK    1  A    between atoms: C_1  and  C_2 
REMARK    2  A    between atoms: C_5  and  C_8 
REMARK    3  A    between atoms: C_8  and  C_18 
REMARK    4  A    between atoms: C_12  and  C_15 
REMARK    5  A    between atoms: C_15  and  C_16 
REMARK    6  A    between atoms: C_15  and  C_17 
REMARK    7  A    between atoms: C_18  and  C_19 
REMARK    8  A    between atoms: C_19  and  N_20 
ROOT
ATOM      1  C   LIG d   1       5.709  -1.159  -3.869  0.00  0.00     0.005 C 
ATOM      2  C   LIG d   1       6.782  -0.067  -3.918  0.00  0.00    -0.019 C 
ATOM      3  C   LIG d   1       7.266   0.098  -5.362  0.00  0.00     0.049 C 
ATOM      4  O   LIG d   1       6.154   0.413  -6.202  0.00  0.00    -0.376 OA
ATOM      5  C   LIG d   1       5.140  -0.594  -6.232  0.00  0.00     0.062 C 
ATOM      6  H   LIG d   1       5.572  -1.532  -6.581  0.00  0.00     0.060 H 
ATOM      7  C   LIG d   1       4.572  -0.786  -4.823  0.00  0.00    -0.016 C 
ATOM      8  H   LIG d   1       6.361   0.874  -3.566  0.00  0.00     0.030 H 
ATOM      9  H   LIG d   1       7.622  -0.351  -3.283  0.00  0.00     0.030 H 
ATOM     10  H   LIG d   1       7.998   0.903  -5.410  0.00  0.00     0.056 H 
ATOM     11  H   LIG d   1       7.724  -0.832  -5.699  0.00  0.00     0.056 H 
ATOM     12  H   LIG d   1       3.830  -1.584  -4.836  0.00  0.00     0.030 H 
ATOM     13  H   LIG d   1       4.105   0.141  -4.490  0.00  0.00     0.030 H 
ENDROOT
BRANCH   1  14
ATOM     14  C   LIG d   1       6.310  -2.475  -4.290  0.00  0.00    -0.041 A 
ATOM     15  C   LIG d   1       5.562  -3.372  -5.030  0.00  0.00    -0.058 A 
ATOM     16  C   LIG d   1       6.113  -4.579  -5.418  0.00  0.00    -0.059 A 
ATOM     17  H   LIG d   1       4.546  -3.129  -5.306  0.00  0.00     0.062 H 
ATOM     18  C   LIG d   1       7.414  -4.889  -5.065  0.00  0.00    -0.050 A 
ATOM     19  H   LIG d   1       5.529  -5.278  -5.996  0.00  0.00     0.062 H 
ATOM     20  C   LIG d   1       8.160  -3.996  -4.320  0.00  0.00    -0.059 A 
ATOM     21  C   LIG d   1       7.610  -2.787  -3.937  0.00  0.00    -0.058 A 
ATOM     22  H   LIG d   1       9.174  -4.240  -4.041  0.00  0.00     0.062 H 
ATOM     23  H   LIG d   1       8.195  -2.087  -3.358  0.00  0.00     0.062 H 
BRANCH  18  24
ATOM     24  C   LIG d   1       8.014  -6.205  -5.487  0.00  0.00    -0.040 C 
ATOM     25  H   LIG d   1       7.363  -6.683  -6.219  0.00  0.00     0.028 H 
ATOM     26  H   LIG d   1       8.994  -6.032  -5.931  0.00  0.00     0.028 H 
ATOM     27  H   LIG d   1       8.119  -6.852  -4.616  0.00  0.00     0.028 H 
ENDBRANCH  18  24
ENDBRANCH   1  14
BRANCH   1  28
ATOM     28  C   LIG d   1       5.163  -1.278  -2.444  0.00  0.00    -0.003 C 
ATOM     29  H   LIG d   1       4.802  -2.292  -2.276  0.00  0.00     0.033 H 
ATOM     30  H   LIG d   1       5.955  -1.051  -1.732  0.00  0.00     0.033 H 
BRANCH  28  31
ATOM     31  C   LIG d   1       4.010  -0.290  -2.256  0.00  0.00    -0.035 C 
ATOM     32  H   LIG d   1       3.631   0.017  -3.232  0.00  0.00     0.081 H 
ATOM     33  H   LIG d   1       3.210  -0.767  -1.690  0.00  0.00     0.081 H 
BRANCH  31  34
ATOM     34  N   LIG d   1       4.490   0.890  -1.525  0.00  0.00     0.218 N 
ATOM     35  H   LIG d   1       4.894   0.601  -0.646  0.00  0.00     0.199 HD
ATOM     36  H   LIG d   1       5.191   1.364  -2.076  0.00  0.00     0.199 HD
ATOM     37  H   LIG d   1       3.718   1.515  -1.352  0.00  0.00     0.199 HD
ENDBRANCH  31  34
ENDBRANCH  28  31
ENDBRANCH   1  28
BRANCH   5  38
ATOM     38  C   LIG d   1       4.020  -0.162  -7.180  0.00  0.00    -0.020 C 
ATOM     39  H   LIG d   1       4.370   0.658  -7.806  0.00  0.00     0.032 H 
BRANCH  38  40
ATOM     40  C   LIG d   1       3.617  -1.344  -8.065  0.00  0.00    -0.060 C 
ATOM     41  H   LIG d   1       2.568  -1.246  -8.347  0.00  0.00     0.023 H 
ATOM     42  H   LIG d   1       4.235  -1.352  -8.962  0.00  0.00     0.023 H 
ATOM     43  H   LIG d   1       3.760  -2.274  -7.515  0.00  0.00     0.023 H 
ENDBRANCH  38  40
BRANCH  38  44
ATOM     44  C   LIG d   1       2.811   0.300  -6.364  0.00  0.00    -0.060 C 
ATOM     45  H   LIG d   1       3.151   0.881  -5.508  0.00  0.00     0.023 H 
ATOM     46  H   LIG d   1       2.165   0.917  -6.989  0.00  0.00     0.023 H 
ATOM     47  H   LIG d   1       2.254  -0.570  -6.014  0.00  0.00     0.023 H 
ENDBRANCH  38  44
ENDBRANCH   5  38
TORSDOF 8
ENDMDL
MODEL 7
REMARK VINA RESULT:      -4.9      2.462      4.405
REMARK  8 active torsions:
REMARK  status: ('A' for Active; 'I' for Inactive)
REMARK    1  A    between atoms: C_1  and  C_2 
REMARK    2  A    between atoms: C_5  and  C_8 
REMARK    3  A    between atoms: C_8  and  C_18 
REMARK    4  A    between atoms: C_12  and  C_15 
REMARK    5  A    between atoms: C_15  and  C_16 
REMARK    6  A    between atoms: C_15  and  C_17 
REMARK    7  A    between atoms: C_18  and  C_19 
REMARK    8  A    between atoms: C_19  and  N_20 
ROOT
ATOM      1  C   LIG d   1       5.244  -0.633  -6.015  0.00  0.00     0.005 C 
ATOM      2  C   LIG d   1       4.243   0.157  -6.864  0.00  0.00    -0.019 C 
ATOM      3  C   LIG d   1       2.824  -0.124  -6.358  0.00  0.00     0.049 C 
ATOM      4  O   LIG d   1       2.735   0.226  -4.976  0.00  0.00    -0.376 OA
ATOM      5  C   LIG d   1       3.615  -0.514  -4.128  0.00  0.00     0.062 C 
ATOM      6  H   LIG d   1       3.399  -1.579  -4.222  0.00  0.00     0.060 H 
ATOM      7  C   LIG d   1       5.065  -0.248  -4.544  0.00  0.00    -0.016 C 
ATOM      8  H   LIG d   1       4.454   1.223  -6.779  0.00  0.00     0.030 H 
ATOM      9  H   LIG d   1       4.326  -0.151  -7.906  0.00  0.00     0.030 H 
ATOM     10  H   LIG d   1       2.111   0.469  -6.930  0.00  0.00     0.056 H 
ATOM     11  H   LIG d   1       2.600  -1.183  -6.481  0.00  0.00     0.056 H 
ATOM     12  H   LIG d   1       5.736  -0.846  -3.927  0.00  0.00     0.030 H 
ATOM     13  H   LIG d   1       5.293   0.809  -4.412  0.00  0.00     0.030 H 
ENDROOT
BRANCH   1  14
ATOM     14  C   LIG d   1       4.995  -2.109  -6.185  0.00  0.00    -0.041 A 
ATOM     15  C   LIG d   1       4.532  -2.598  -7.393  0.00  0.00    -0.058 A 
ATOM     16  C   LIG d   1       4.304  -3.952  -7.550  0.00  0.00    -0.059 A 
ATOM     17  H   LIG d   1       4.349  -1.921  -8.215  0.00  0.00     0.062 H 
ATOM     18  C   LIG d   1       4.539  -4.818  -6.497  0.00  0.00    -0.050 A 
ATOM     19  H   LIG d   1       3.943  -4.333  -8.492  0.00  0.00     0.062 H 
ATOM     20  C   LIG d   1       4.997  -4.330  -5.288  0.00  0.00    -0.059 A 
ATOM     21  C   LIG d   1       5.229  -2.976  -5.133  0.00  0.00    -0.058 A 
ATOM     22  H   LIG d   1       5.177  -5.005  -4.466  0.00  0.00     0.062 H 
ATOM     23  H   LIG d   1       5.590  -2.594  -4.190  0.00  0.00     0.062 H 
BRANCH  18  24
ATOM     24  C   LIG d   1       4.291  -6.295  -6.668  0.00  0.00    -0.040 C 
ATOM     25  H   LIG d   1       3.218  -6.479  -6.716  0.00  0.00     0.028 H 
ATOM     26  H   LIG d   1       4.760  -6.638  -7.590  0.00  0.00     0.028 H 
ATOM     27  H   LIG d   1       4.715  -6.834  -5.822  0.00  0.00     0.028 H 
ENDBRANCH  18  24
ENDBRANCH   1  14
BRANCH   1  28
ATOM     28  C   LIG d   1       6.670  -0.299  -6.460  0.00  0.00    -0.003 C 
ATOM     29  H   LIG d   1       7.224  -1.222  -6.627  0.00  0.00     0.033 H 
ATOM     30  H   LIG d   1       6.636   0.277  -7.384  0.00  0.00     0.033 H 
BRANCH  28  31
ATOM     31  C   LIG d   1       7.364   0.523  -5.373  0.00  0.00    -0.035 C 
ATOM     32  H   LIG d   1       6.661   0.723  -4.563  0.00  0.00     0.081 H 
ATOM     33  H   LIG d   1       8.216  -0.034  -4.983  0.00  0.00     0.081 H 
BRANCH  31  34
ATOM     34  N   LIG d   1       7.829   1.795  -5.941  0.00  0.00     0.218 N 
ATOM     35  H   LIG d   1       8.232   2.363  -5.211  0.00  0.00     0.199 HD
ATOM     36  H   LIG d   1       8.527   1.612  -6.647  0.00  0.00     0.199 HD
ATOM     37  H   LIG d   1       7.050   2.283  -6.357  0.00  0.00     0.199 HD
ENDBRANCH  31  34
ENDBRANCH  28  31
ENDBRANCH   1  28
BRANCH   5  38
ATOM     38  C   LIG d   1       3.412  -0.077  -2.675  0.00  0.00    -0.020 C 
ATOM     39  H   LIG d   1       2.383  -0.275  -2.378  0.00  0.00     0.032 H 
BRANCH  38  40
ATOM     40  C   LIG d   1       4.365  -0.860  -1.770  0.00  0.00    -0.060 C 
ATOM     41  H   LIG d   1       4.354  -0.426  -0.769  0.00  0.00     0.023 H 
ATOM     42  H   LIG d   1       4.045  -1.900  -1.719  0.00  0.00     0.023 H 
ATOM     43  H   LIG d   1       5.376  -0.809  -2.175  0.00  0.00     0.023 H 
ENDBRANCH  38  40
BRANCH  38  44
ATOM     44  C   LIG d   1       3.701   1.420  -2.549  0.00  0.00    -0.060 C 
ATOM     45  H   LIG d   1       2.994   1.979  -3.159  0.00  0.00     0.023 H 
ATOM     46  H   LIG d   1       3.600   1.722  -1.507  0.00  0.00     0.023 H 
ATOM     47  H   LIG d   1       4.716   1.624  -2.889  0.00  0.00     0.023 H 
ENDBRANCH  38  44
ENDBRANCH   5  38
TORSDOF 8
ENDMDL
MODEL 8
REMARK VINA RESULT:      -4.9      2.969      5.340
REMARK  8 active torsions:
REMARK  status: ('A' for Active; 'I' for Inactive)
REMARK    1  A    between atoms: C_1  and  C_2 
REMARK    2  A    between atoms: C_5  and  C_8 
REMARK    3  A    between atoms: C_8  and  C_18 
REMARK    4  A    between atoms: C_12  and  C_15 
REMARK    5  A    between atoms: C_15  and  C_16 
REMARK    6  A    between atoms: C_15  and  C_17 
REMARK    7  A    between atoms: C_18  and  C_19 
REMARK    8  A    between atoms: C_19  and  N_20 
ROOT
ATOM      1  C   LIG d   1       6.764  -0.312  -5.091  0.00  0.00     0.005 C 
ATOM      2  C   LIG d   1       5.807  -0.348  -6.288  0.00  0.00    -0.019 C 
ATOM      3  C   LIG d   1       4.724  -1.400  -6.032  0.00  0.00     0.049 C 
ATOM      4  O   LIG d   1       4.037  -1.089  -4.819  0.00  0.00    -0.376 OA
ATOM      5  C   LIG d   1       4.872  -1.086  -3.659  0.00  0.00     0.062 C 
ATOM      6  H   LIG d   1       5.335  -2.066  -3.543  0.00  0.00     0.060 H 
ATOM      7  C   LIG d   1       5.961  -0.022  -3.819  0.00  0.00    -0.016 C 
ATOM      8  H   LIG d   1       5.343   0.629  -6.414  0.00  0.00     0.030 H 
ATOM      9  H   LIG d   1       6.362  -0.609  -7.189  0.00  0.00     0.030 H 
ATOM     10  H   LIG d   1       4.016  -1.400  -6.861  0.00  0.00     0.056 H 
ATOM     11  H   LIG d   1       5.186  -2.383  -5.947  0.00  0.00     0.056 H 
ATOM     12  H   LIG d   1       6.625  -0.048  -2.956  0.00  0.00     0.030 H 
ATOM     13  H   LIG d   1       5.500   0.962  -3.895  0.00  0.00     0.030 H 
ENDROOT
BRANCH   1  14
ATOM     14  C   LIG d   1       7.456  -1.642  -4.959  0.00  0.00    -0.041 A 
ATOM     15  C   LIG d   1       7.881  -2.317  -6.088  0.00  0.00    -0.058 A 
ATOM     16  C   LIG d   1       8.517  -3.538  -5.967  0.00  0.00    -0.059 A 
ATOM     17  H   LIG d   1       7.715  -1.890  -7.067  0.00  0.00     0.062 H 
ATOM     18  C   LIG d   1       8.730  -4.085  -4.714  0.00  0.00    -0.050 A 
ATOM     19  H   LIG d   1       8.849  -4.065  -6.849  0.00  0.00     0.062 H 
ATOM     20  C   LIG d   1       8.301  -3.414  -3.585  0.00  0.00    -0.059 A 
ATOM     21  C   LIG d   1       7.669  -2.190  -3.707  0.00  0.00    -0.058 A 
ATOM     22  H   LIG d   1       8.463  -3.842  -2.608  0.00  0.00     0.062 H 
ATOM     23  H   LIG d   1       7.337  -1.664  -2.824  0.00  0.00     0.062 H 
BRANCH  18  24
ATOM     24  C   LIG d   1       9.424  -5.416  -4.582  0.00  0.00    -0.040 C 
ATOM     25  H   LIG d   1      10.414  -5.355  -5.032  0.00  0.00     0.028 H 
ATOM     26  H   LIG d   1       9.518  -5.674  -3.528  0.00  0.00     0.028 H 
ATOM     27  H   LIG d   1       8.839  -6.182  -5.093  0.00  0.00     0.028 H 
ENDBRANCH  18  24
ENDBRANCH   1  14
BRANCH   1  28
ATOM     28  C   LIG d   1       7.805   0.790  -5.300  0.00  0.00    -0.003 C 
ATOM     29  H   LIG d   1       8.772   0.339  -5.522  0.00  0.00     0.033 H 
ATOM     30  H   LIG d   1       7.500   1.424  -6.132  0.00  0.00     0.033 H 
BRANCH  28  31
ATOM     31  C   LIG d   1       7.916   1.635  -4.029  0.00  0.00    -0.035 C 
ATOM     32  H   LIG d   1       7.555   2.644  -4.231  0.00  0.00     0.081 H 
ATOM     33  H   LIG d   1       7.314   1.185  -3.240  0.00  0.00     0.081 H 
BRANCH  31  34
ATOM     34  N   LIG d   1       9.320   1.693  -3.601  0.00  0.00     0.218 N 
ATOM     35  H   LIG d   1       9.623   2.656  -3.572  0.00  0.00     0.199 HD
ATOM     36  H   LIG d   1       9.408   1.286  -2.682  0.00  0.00     0.199 HD
ATOM     37  H   LIG d   1       9.892   1.180  -4.254  0.00  0.00     0.199 HD
ENDBRANCH  31  34
ENDBRANCH  28  31
ENDBRANCH   1  28
BRANCH   5  38
ATOM     38  C   LIG d   1       4.027  -0.770  -2.423  0.00  0.00    -0.020 C 
ATOM     39  H   LIG d   1       4.122  -1.581  -1.702  0.00  0.00     0.032 H 
BRANCH  38  40
ATOM     40  C   LIG d   1       4.517   0.535  -1.791  0.00  0.00    -0.060 C 
ATOM     41  H   LIG d   1       4.224   1.375  -2.421  0.00  0.00     0.023 H 
ATOM     42  H   LIG d   1       4.071   0.649  -0.803  0.00  0.00     0.023 H 
ATOM     43  H   LIG d   1       5.603   0.510  -1.700  0.00  0.00     0.023 H 
ENDBRANCH  38  40
BRANCH  38  44
ATOM     44  C   LIG d   1       2.561  -0.621  -2.832  0.00  0.00    -0.060 C 
ATOM     45  H   LIG d   1       2.214   0.381  -2.585  0.00  0.00     0.023 H 
ATOM     46  H   LIG d   1       2.465  -0.785  -3.905  0.00  0.00     0.023 H 
ATOM     47  H   LIG d   1       1.958  -1.356  -2.298  0.00  0.00     0.023 H 
ENDBRANCH  38  44
ENDBRANCH   5  38
TORSDOF 8
ENDMDL
MODEL 9
REMARK VINA RESULT:      -4.6      2.578      4.262
REMARK  8 active torsions:
REMARK  status: ('A' for Active; 'I' for Inactive)
REMARK    1  A    between atoms: C_1  and  C_2 
REMARK    2  A    between atoms: C_5  and  C_8 
REMARK    3  A    between atoms: C_8  and  C_18 
REMARK    4  A    between atoms: C_12  and  C_15 
REMARK    5  A    between atoms: C_15  and  C_16 
REMARK    6  A    between atoms: C_15  and  C_17 
REMARK    7  A    between atoms: C_18  and  C_19 
REMARK    8  A    between atoms: C_19  and  N_20 
ROOT
ATOM      1  C   LIG d   1       5.573  -0.587  -3.940  0.00  0.00     0.005 C 
ATOM      2  C   LIG d   1       4.689  -1.362  -2.958  0.00  0.00    -0.019 C 
ATOM      3  C   LIG d   1       4.299  -2.704  -3.584  0.00  0.00     0.049 C 
ATOM      4  O   LIG d   1       5.482  -3.434  -3.917  0.00  0.00    -0.376 OA
ATOM      5  C   LIG d   1       6.324  -2.779  -4.867  0.00  0.00     0.062 C 
ATOM      6  H   LIG d   1       5.766  -2.603  -5.787  0.00  0.00     0.060 H 
ATOM      7  C   LIG d   1       6.795  -1.440  -4.291  0.00  0.00    -0.016 C 
ATOM      8  H   LIG d   1       5.238  -1.538  -2.033  0.00  0.00     0.030 H 
ATOM      9  H   LIG d   1       3.789  -0.785  -2.744  0.00  0.00     0.030 H 
ATOM     10  H   LIG d   1       3.705  -3.278  -2.873  0.00  0.00     0.056 H 
ATOM     11  H   LIG d   1       3.716  -2.526  -4.487  0.00  0.00     0.056 H 
ATOM     12  H   LIG d   1       7.402  -0.919  -5.032  0.00  0.00     0.030 H 
ATOM     13  H   LIG d   1       7.387  -1.618  -3.394  0.00  0.00     0.030 H 
ENDROOT
BRANCH   1  14
ATOM     14  C   LIG d   1       4.792  -0.284  -5.191  0.00  0.00    -0.041 A 
ATOM     15  C   LIG d   1       3.450   0.039  -5.108  0.00  0.00    -0.058 A 
ATOM     16  C   LIG d   1       2.733   0.318  -6.256  0.00  0.00    -0.059 A 
ATOM     17  H   LIG d   1       2.962   0.074  -4.145  0.00  0.00     0.062 H 
ATOM     18  C   LIG d   1       3.358   0.274  -7.489  0.00  0.00    -0.050 A 
ATOM     19  H   LIG d   1       1.685   0.570  -6.191  0.00  0.00     0.062 H 
ATOM     20  C   LIG d   1       4.698  -0.054  -7.573  0.00  0.00    -0.059 A 
ATOM     21  C   LIG d   1       5.416  -0.328  -6.424  0.00  0.00    -0.058 A 
ATOM     22  H   LIG d   1       5.185  -0.093  -8.536  0.00  0.00     0.062 H 
ATOM     23  H   LIG d   1       6.464  -0.581  -6.490  0.00  0.00     0.062 H 
BRANCH  18  24
ATOM     24  C   LIG d   1       2.576   0.578  -8.741  0.00  0.00    -0.040 C 
ATOM     25  H   LIG d   1       3.179   1.195  -9.405  0.00  0.00     0.028 H 
ATOM     26  H   LIG d   1       2.318  -0.354  -9.243  0.00  0.00     0.028 H 
ATOM     27  H   LIG d   1       1.663   1.112  -8.477  0.00  0.00     0.028 H 
ENDBRANCH  18  24
ENDBRANCH   1  14
BRANCH   1  28
ATOM     28  C   LIG d   1       6.033   0.722  -3.293  0.00  0.00    -0.003 C 
ATOM     29  H   LIG d   1       5.403   1.540  -3.640  0.00  0.00     0.033 H 
ATOM     30  H   LIG d   1       5.956   0.638  -2.210  0.00  0.00     0.033 H 
BRANCH  28  31
ATOM     31  C   LIG d   1       7.487   0.999  -3.681  0.00  0.00    -0.035 C 
ATOM     32  H   LIG d   1       8.061   1.246  -2.787  0.00  0.00     0.081 H 
ATOM     33  H   LIG d   1       7.913   0.113  -4.152  0.00  0.00     0.081 H 
BRANCH  31  34
ATOM     34  N   LIG d   1       7.537   2.126  -4.621  0.00  0.00     0.218 N 
ATOM     35  H   LIG d   1       7.737   1.781  -5.549  0.00  0.00     0.199 HD
ATOM     36  H   LIG d   1       6.647   2.601  -4.624  0.00  0.00     0.199 HD
ATOM     37  H   LIG d   1       8.261   2.768  -4.338  0.00  0.00     0.199 HD
ENDBRANCH  31  34
ENDBRANCH  28  31
ENDBRANCH   1  28
BRANCH   5  38
ATOM     38  C   LIG d   1       7.538  -3.661  -5.166  0.00  0.00    -0.020 C 
ATOM     39  H   LIG d   1       8.061  -3.275  -6.041  0.00  0.00     0.032 H 
BRANCH  38  40
ATOM     40  C   LIG d   1       8.483  -3.654  -3.963  0.00  0.00    -0.060 C 
ATOM     41  H   LIG d   1       9.006  -2.698  -3.917  0.00  0.00     0.023 H 
ATOM     42  H   LIG d   1       7.907  -3.797  -3.049  0.00  0.00     0.023 H 
ATOM     43  H   LIG d   1       9.209  -4.460  -4.066  0.00  0.00     0.023 H 
ENDBRANCH  38  40
BRANCH  38  44
ATOM     44  C   LIG d   1       7.072  -5.092  -5.441  0.00  0.00    -0.060 C 
ATOM     45  H   LIG d   1       6.426  -5.102  -6.318  0.00  0.00     0.023 H 
ATOM     46  H   LIG d   1       7.939  -5.728  -5.621  0.00  0.00     0.023 H 
ATOM     47  H   LIG d   1       6.520  -5.467  -4.579  0.00  0.00     0.023 H 
ENDBRANCH  38  44
ENDBRANCH   5  38
TORSDOF 8
ENDMDL
MODEL 10
REMARK VINA RESULT:      -4.6      3.981      6.569
REMARK  8 active torsions:
REMARK  status: ('A' for Active; 'I' for Inactive)
REMARK    1  A    between atoms: C_1  and  C_2 
REMARK    2  A    between atoms: C_5  and  C_8 
REMARK    3  A    between atoms: C_8  and  C_18 
REMARK    4  A    between atoms: C_12  and  C_15 
REMARK    5  A    between atoms: C_15  and  C_16 
REMARK    6  A    between atoms: C_15  and  C_17 
REMARK    7  A    between atoms: C_18  and  C_19 
REMARK    8  A    between atoms: C_19  and  N_20 
ROOT
ATOM      1  C   LIG d   1       7.820  -2.656  -4.969  0.00  0.00     0.005 C 
ATOM      2  C   LIG d   1       6.828  -3.299  -5.944  0.00  0.00    -0.019 C 
ATOM      3  C   LIG d   1       5.711  -3.979  -5.147  0.00  0.00     0.049 C 
ATOM      4  O   LIG d   1       5.074  -3.016  -4.305  0.00  0.00    -0.376 OA
ATOM      5  C   LIG d   1       5.943  -2.416  -3.343  0.00  0.00     0.062 C 
ATOM      6  H   LIG d   1       6.370  -3.192  -2.706  0.00  0.00     0.060 H 
ATOM      7  C   LIG d   1       7.069  -1.673  -4.067  0.00  0.00    -0.016 C 
ATOM      8  H   LIG d   1       6.400  -2.531  -6.587  0.00  0.00     0.030 H 
ATOM      9  H   LIG d   1       7.344  -4.041  -6.553  0.00  0.00     0.030 H 
ATOM     10  H   LIG d   1       4.979  -4.401  -5.835  0.00  0.00     0.056 H 
ATOM     11  H   LIG d   1       6.135  -4.774  -4.534  0.00  0.00     0.056 H 
ATOM     12  H   LIG d   1       7.758  -1.252  -3.335  0.00  0.00     0.030 H 
ATOM     13  H   LIG d   1       6.646  -0.872  -4.673  0.00  0.00     0.030 H 
ENDROOT
BRANCH   1  14
ATOM     14  C   LIG d   1       8.463  -3.726  -4.126  0.00  0.00    -0.041 A 
ATOM     15  C   LIG d   1       8.534  -5.026  -4.592  0.00  0.00    -0.058 A 
ATOM     16  C   LIG d   1       9.124  -6.007  -3.819  0.00  0.00    -0.059 A 
ATOM     17  H   LIG d   1       8.129  -5.274  -5.563  0.00  0.00     0.062 H 
ATOM     18  C   LIG d   1       9.644  -5.689  -2.577  0.00  0.00    -0.050 A 
ATOM     19  H   LIG d   1       9.180  -7.022  -4.183  0.00  0.00     0.062 H 
ATOM     20  C   LIG d   1       9.568  -4.391  -2.107  0.00  0.00    -0.059 A 
ATOM     21  C   LIG d   1       8.982  -3.409  -2.884  0.00  0.00    -0.058 A 
ATOM     22  H   LIG d   1       9.969  -4.144  -1.137  0.00  0.00     0.062 H 
ATOM     23  H   LIG d   1       8.925  -2.394  -2.518  0.00  0.00     0.062 H 
BRANCH  18  24
ATOM     24  C   LIG d   1      10.287  -6.760  -1.733  0.00  0.00    -0.040 C 
ATOM     25  H   LIG d   1      11.191  -6.364  -1.271  0.00  0.00     0.028 H 
ATOM     26  H   LIG d   1       9.591  -7.079  -0.958  0.00  0.00     0.028 H 
ATOM     27  H   LIG d   1      10.544  -7.611  -2.364  0.00  0.00     0.028 H 
ENDBRANCH  18  24
ENDBRANCH   1  14
BRANCH   1  28
ATOM     28  C   LIG d   1       8.899  -1.907  -5.755  0.00  0.00    -0.003 C 
ATOM     29  H   LIG d   1       9.856  -2.412  -5.632  0.00  0.00     0.033 H 
ATOM     30  H   LIG d   1       8.631  -1.888  -6.811  0.00  0.00     0.033 H 
BRANCH  28  31
ATOM     31  C   LIG d   1       9.008  -0.473  -5.231  0.00  0.00    -0.035 C 
ATOM     32  H   LIG d   1       8.756   0.226  -6.030  0.00  0.00     0.081 H 
ATOM     33  H   LIG d   1       8.318  -0.337  -4.399  0.00  0.00     0.081 H 
BRANCH  31  34
ATOM     34  N   LIG d   1      10.382  -0.221  -4.776  0.00  0.00     0.218 N 
ATOM     35  H   LIG d   1      10.576   0.768  -4.826  0.00  0.00     0.199 HD
ATOM     36  H   LIG d   1      10.482  -0.536  -3.822  0.00  0.00     0.199 HD
ATOM     37  H   LIG d   1      11.028  -0.722  -5.365  0.00  0.00     0.199 HD
ENDBRANCH  31  34
ENDBRANCH  28  31
ENDBRANCH   1  28
BRANCH   5  38
ATOM     38  C   LIG d   1       5.150  -1.429  -2.484  0.00  0.00    -0.020 C 
ATOM     39  H   LIG d   1       5.498  -1.483  -1.453  0.00  0.00     0.032 H 
BRANCH  38  40
ATOM     40  C   LIG d   1       5.355  -0.009  -3.018  0.00  0.00    -0.060 C 
ATOM     41  H   LIG d   1       6.354   0.338  -2.753  0.00  0.00     0.023 H 
ATOM     42  H   LIG d   1       5.246  -0.011  -4.102  0.00  0.00     0.023 H 
ATOM     43  H   LIG d   1       4.612   0.655  -2.578  0.00  0.00     0.023 H 
ENDBRANCH  38  40
BRANCH  38  44
ATOM     44  C   LIG d   1       3.663  -1.786  -2.539  0.00  0.00    -0.060 C 
ATOM     45  H   LIG d   1       3.513  -2.783  -2.129  0.00  0.00     0.023 H 
ATOM     46  H   LIG d   1       3.094  -1.062  -1.955  0.00  0.00     0.023 H 
ATOM     47  H   LIG d   1       3.323  -1.764  -3.575  0.00  0.00     0.023 H 
ENDBRANCH  38  44
ENDBRANCH   5  38
TORSDOF 8
ENDMDL
