MODEL 1
REMARK VINA RESULT:      -7.9      0.000      0.000
REMARK  2 active torsions:
REMARK  status: ('A' for Active; 'I' for Inactive)
REMARK    1  A    between atoms: C_1  and  N_2 
REMARK    2  A    between atoms: N_25  and  C_28 
ROOT
ATOM      1  N   LIG d   1       2.703  -2.104 -10.871  0.00  0.00    -0.228 N 
ATOM      2  C   LIG d   1       3.193  -1.526  -9.765  0.00  0.00     0.240 A 
ATOM      3  O   LIG d   1       2.445  -1.302  -8.838  0.00  0.00    -0.274 OA
ATOM      4  C   LIG d   1       4.642  -1.149  -9.640  0.00  0.00     0.146 A 
ATOM      5  C   LIG d   1       5.261  -1.887  -8.451  0.00  0.00    -0.000 C 
ATOM      6  C   LIG d   1       4.732  -1.385  -7.136  0.00  0.00    -0.005 A 
ATOM      7  C   LIG d   1       4.847  -2.180  -6.032  0.00  0.00    -0.046 A 
ATOM      8  C   LIG d   1       4.365  -1.697  -4.799  0.00  0.00     0.001 A 
ATOM      9  C   LIG d   1       4.449  -2.469  -3.630  0.00  0.00    -0.053 A 
ATOM     10  C   LIG d   1       3.983  -1.965  -2.453  0.00  0.00    -0.061 A 
ATOM     11  C   LIG d   1       3.425  -0.691  -2.394  0.00  0.00    -0.060 A 
ATOM     12  C   LIG d   1       3.324   0.084  -3.509  0.00  0.00    -0.036 A 
ATOM     13  C   LIG d   1       3.788  -0.405  -4.742  0.00  0.00     0.073 A 
ATOM     14  N   LIG d   1       3.690   0.328  -5.857  0.00  0.00    -0.232 NA
ATOM     15  C   LIG d   1       4.125  -0.124  -7.013  0.00  0.00     0.126 A 
ATOM     16  N   LIG d   1       3.980   0.637  -8.164  0.00  0.00    -0.310 N 
ATOM     17  C   LIG d   1       4.755   0.360  -9.390  0.00  0.00     0.048 C 
ATOM     18  H   LIG d   1       5.797   0.654  -9.265  0.00  0.00     0.051 H 
ATOM     19  C   LIG d   1       4.083   1.160 -10.519  0.00  0.00    -0.032 C 
ATOM     20  C   LIG d   1       3.507   2.382  -9.749  0.00  0.00    -0.035 C 
ATOM     21  C   LIG d   1       3.044   1.735  -8.421  0.00  0.00     0.014 C 
ATOM     22  C   LIG d   1       5.391  -1.504 -10.894  0.00  0.00     0.240 A 
ATOM     23  O   LIG d   1       6.577  -1.259 -10.961  0.00  0.00    -0.274 OA
ATOM     24  N   LIG d   1       4.787  -2.083 -11.941  0.00  0.00    -0.228 N 
ATOM     25  C   LIG d   1       3.479  -2.382 -11.929  0.00  0.00     0.317 A 
ATOM     26  O   LIG d   1       2.984  -2.913 -12.904  0.00  0.00    -0.252 OA
ATOM     27  H   LIG d   1       5.038  -2.950  -8.540  0.00  0.00     0.033 H 
ATOM     28  H   LIG d   1       6.342  -1.751  -8.473  0.00  0.00     0.033 H 
ATOM     29  H   LIG d   1       5.298  -3.159  -6.101  0.00  0.00     0.063 H 
ATOM     30  H   LIG d   1       4.878  -3.459  -3.664  0.00  0.00     0.062 H 
ATOM     31  H   LIG d   1       4.048  -2.561  -1.556  0.00  0.00     0.062 H 
ATOM     32  H   LIG d   1       3.065  -0.311  -1.450  0.00  0.00     0.062 H 
ATOM     33  H   LIG d   1       2.888   1.071  -3.446  0.00  0.00     0.064 H 
ATOM     34  H   LIG d   1       4.814   1.477 -11.261  0.00  0.00     0.028 H 
ATOM     35  H   LIG d   1       3.284   0.582 -10.984  0.00  0.00     0.028 H 
ATOM     36  H   LIG d   1       4.280   3.130  -9.570  0.00  0.00     0.028 H 
ATOM     37  H   LIG d   1       2.664   2.818 -10.284  0.00  0.00     0.028 H 
ATOM     38  H   LIG d   1       2.031   1.348  -8.523  0.00  0.00     0.046 H 
ATOM     39  H   LIG d   1       3.090   2.463  -7.611  0.00  0.00     0.046 H 
ENDROOT
BRANCH   1  40
ATOM     40  C   LIG d   1       1.280  -2.447 -10.922  0.00  0.00     0.012 C 
ATOM     41  H   LIG d   1       0.992  -2.646 -11.955  0.00  0.00     0.043 H 
ATOM     42  H   LIG d   1       1.098  -3.335 -10.317  0.00  0.00     0.043 H 
ATOM     43  H   LIG d   1       0.692  -1.615 -10.534  0.00  0.00     0.043 H 
ENDBRANCH   1  40
BRANCH  24  44
ATOM     44  C   LIG d   1       5.579  -2.404 -13.130  0.00  0.00     0.012 C 
ATOM     45  H   LIG d   1       5.324  -1.713 -13.934  0.00  0.00     0.043 H 
ATOM     46  H   LIG d   1       6.640  -2.310 -12.896  0.00  0.00     0.043 H 
ATOM     47  H   LIG d   1       5.366  -3.425 -13.446  0.00  0.00     0.043 H 
ENDBRANCH  24  44
TORSDOF 2
ENDMDL
MODEL 2
REMARK VINA RESULT:      -7.2      3.751      5.018
REMARK  2 active torsions:
REMARK  status: ('A' for Active; 'I' for Inactive)
REMARK    1  A    between atoms: C_1  and  N_2 
REMARK    2  A    between atoms: N_25  and  C_28 
ROOT
ATOM      1  N   LIG d   1       3.797  -4.868  -8.183  0.00  0.00    -0.228 N 
ATOM      2  C   LIG d   1       4.504  -4.229  -7.241  0.00  0.00     0.240 A 
ATOM      3  O   LIG d   1       4.501  -3.017  -7.223  0.00  0.00    -0.274 OA
ATOM      4  C   LIG d   1       5.302  -4.971  -6.206  0.00  0.00     0.146 A 
ATOM      5  C   LIG d   1       4.794  -4.602  -4.811  0.00  0.00    -0.000 C 
ATOM      6  C   LIG d   1       5.125  -3.181  -4.445  0.00  0.00    -0.005 A 
ATOM      7  C   LIG d   1       4.411  -2.571  -3.454  0.00  0.00    -0.046 A 
ATOM      8  C   LIG d   1       4.737  -1.246  -3.105  0.00  0.00     0.001 A 
ATOM      9  C   LIG d   1       4.036  -0.564  -2.099  0.00  0.00    -0.053 A 
ATOM     10  C   LIG d   1       4.386   0.714  -1.780  0.00  0.00    -0.061 A 
ATOM     11  C   LIG d   1       5.434   1.352  -2.439  0.00  0.00    -0.060 A 
ATOM     12  C   LIG d   1       6.132   0.722  -3.423  0.00  0.00    -0.036 A 
ATOM     13  C   LIG d   1       5.796  -0.594  -3.783  0.00  0.00     0.073 A 
ATOM     14  N   LIG d   1       6.456  -1.235  -4.755  0.00  0.00    -0.232 NA
ATOM     15  C   LIG d   1       6.146  -2.467  -5.094  0.00  0.00     0.126 A 
ATOM     16  N   LIG d   1       6.818  -3.099  -6.130  0.00  0.00    -0.310 N 
ATOM     17  C   LIG d   1       6.776  -4.565  -6.312  0.00  0.00     0.048 C 
ATOM     18  H   LIG d   1       7.372  -5.067  -5.550  0.00  0.00     0.051 H 
ATOM     19  C   LIG d   1       7.327  -4.842  -7.721  0.00  0.00    -0.032 C 
ATOM     20  C   LIG d   1       8.326  -3.666  -7.916  0.00  0.00    -0.035 C 
ATOM     21  C   LIG d   1       7.580  -2.497  -7.226  0.00  0.00     0.014 C 
ATOM     22  C   LIG d   1       5.179  -6.456  -6.407  0.00  0.00     0.240 A 
ATOM     23  O   LIG d   1       5.768  -7.202  -5.656  0.00  0.00    -0.274 OA
ATOM     24  N   LIG d   1       4.435  -6.979  -7.392  0.00  0.00    -0.228 N 
ATOM     25  C   LIG d   1       3.756  -6.207  -8.255  0.00  0.00     0.317 A 
ATOM     26  O   LIG d   1       3.093  -6.734  -9.126  0.00  0.00    -0.252 OA
ATOM     27  H   LIG d   1       3.713  -4.733  -4.781  0.00  0.00     0.033 H 
ATOM     28  H   LIG d   1       5.250  -5.271  -4.080  0.00  0.00     0.033 H 
ATOM     29  H   LIG d   1       3.613  -3.094  -2.947  0.00  0.00     0.063 H 
ATOM     30  H   LIG d   1       3.221  -1.048  -1.582  0.00  0.00     0.062 H 
ATOM     31  H   LIG d   1       3.845   1.237  -1.006  0.00  0.00     0.062 H 
ATOM     32  H   LIG d   1       5.695   2.364  -2.167  0.00  0.00     0.062 H 
ATOM     33  H   LIG d   1       6.942   1.231  -3.924  0.00  0.00     0.064 H 
ATOM     34  H   LIG d   1       7.844  -5.801  -7.757  0.00  0.00     0.028 H 
ATOM     35  H   LIG d   1       6.531  -4.804  -8.465  0.00  0.00     0.028 H 
ATOM     36  H   LIG d   1       9.273  -3.873  -7.417  0.00  0.00     0.028 H 
ATOM     37  H   LIG d   1       8.482  -3.459  -8.974  0.00  0.00     0.028 H 
ATOM     38  H   LIG d   1       6.905  -2.013  -7.932  0.00  0.00     0.046 H 
ATOM     39  H   LIG d   1       8.296  -1.774  -6.833  0.00  0.00     0.046 H 
ENDROOT
BRANCH   1  40
ATOM     40  C   LIG d   1       3.040  -4.081  -9.160  0.00  0.00     0.012 C 
ATOM     41  H   LIG d   1       2.974  -3.047  -8.820  0.00  0.00     0.043 H 
ATOM     42  H   LIG d   1       3.547  -4.114 -10.124  0.00  0.00     0.043 H 
ATOM     43  H   LIG d   1       2.037  -4.495  -9.261  0.00  0.00     0.043 H 
ENDBRANCH   1  40
BRANCH  24  44
ATOM     44  C   LIG d   1       4.358  -8.435  -7.528  0.00  0.00     0.012 C 
ATOM     45  H   LIG d   1       3.387  -8.711  -7.937  0.00  0.00     0.043 H 
ATOM     46  H   LIG d   1       5.146  -8.779  -8.200  0.00  0.00     0.043 H 
ATOM     47  H   LIG d   1       4.486  -8.898  -6.550  0.00  0.00     0.043 H 
ENDBRANCH  24  44
TORSDOF 2
ENDMDL
MODEL 3
REMARK VINA RESULT:      -7.1      1.848      3.544
REMARK  2 active torsions:
REMARK  status: ('A' for Active; 'I' for Inactive)
REMARK    1  A    between atoms: C_1  and  N_2 
REMARK    2  A    between atoms: N_25  and  C_28 
ROOT
ATOM      1  N   LIG d   1       5.402  -0.497 -10.292  0.00  0.00    -0.228 N 
ATOM      2  C   LIG d   1       4.988  -0.871  -9.073  0.00  0.00     0.240 A 
ATOM      3  O   LIG d   1       5.728  -0.709  -8.126  0.00  0.00    -0.274 OA
ATOM      4  C   LIG d   1       3.635  -1.484  -8.846  0.00  0.00     0.146 A 
ATOM      5  C   LIG d   1       2.839  -0.612  -7.872  0.00  0.00    -0.000 C 
ATOM      6  C   LIG d   1       3.401  -0.662  -6.478  0.00  0.00    -0.005 A 
ATOM      7  C   LIG d   1       3.091   0.340  -5.604  0.00  0.00    -0.046 A 
ATOM      8  C   LIG d   1       3.606   0.278  -4.295  0.00  0.00     0.001 A 
ATOM      9  C   LIG d   1       3.329   1.282  -3.354  0.00  0.00    -0.053 A 
ATOM     10  C   LIG d   1       3.835   1.183  -2.093  0.00  0.00    -0.061 A 
ATOM     11  C   LIG d   1       4.626   0.097  -1.724  0.00  0.00    -0.060 A 
ATOM     12  C   LIG d   1       4.919  -0.891  -2.613  0.00  0.00    -0.036 A 
ATOM     13  C   LIG d   1       4.419  -0.821  -3.924  0.00  0.00     0.073 A 
ATOM     14  N   LIG d   1       4.701  -1.771  -4.823  0.00  0.00    -0.232 NA
ATOM     15  C   LIG d   1       4.234  -1.710  -6.051  0.00  0.00     0.126 A 
ATOM     16  N   LIG d   1       4.569  -2.687  -6.978  0.00  0.00    -0.310 N 
ATOM     17  C   LIG d   1       3.805  -2.876  -8.228  0.00  0.00     0.048 C 
ATOM     18  H   LIG d   1       2.835  -3.330  -8.025  0.00  0.00     0.051 H 
ATOM     19  C   LIG d   1       4.664  -3.780  -9.129  0.00  0.00    -0.032 C 
ATOM     20  C   LIG d   1       5.433  -4.639  -8.085  0.00  0.00    -0.035 C 
ATOM     21  C   LIG d   1       5.708  -3.607  -6.963  0.00  0.00     0.014 C 
ATOM     22  C   LIG d   1       2.883  -1.601 -10.141  0.00  0.00     0.240 A 
ATOM     23  O   LIG d   1       1.770  -2.083 -10.135  0.00  0.00    -0.274 OA
ATOM     24  N   LIG d   1       3.406  -1.189 -11.305  0.00  0.00    -0.228 N 
ATOM     25  C   LIG d   1       4.630  -0.645 -11.380  0.00  0.00     0.317 A 
ATOM     26  O   LIG d   1       5.052  -0.283 -12.460  0.00  0.00    -0.252 OA
ATOM     27  H   LIG d   1       2.856   0.419  -8.224  0.00  0.00     0.033 H 
ATOM     28  H   LIG d   1       1.806  -0.960  -7.849  0.00  0.00     0.033 H 
ATOM     29  H   LIG d   1       2.462   1.164  -5.910  0.00  0.00     0.063 H 
ATOM     30  H   LIG d   1       2.718   2.129  -3.628  0.00  0.00     0.062 H 
ATOM     31  H   LIG d   1       3.620   1.956  -1.371  0.00  0.00     0.062 H 
ATOM     32  H   LIG d   1       5.013   0.039  -0.718  0.00  0.00     0.062 H 
ATOM     33  H   LIG d   1       5.534  -1.727  -2.311  0.00  0.00     0.064 H 
ATOM     34  H   LIG d   1       4.038  -4.408  -9.763  0.00  0.00     0.028 H 
ATOM     35  H   LIG d   1       5.354  -3.189  -9.730  0.00  0.00     0.028 H 
ATOM     36  H   LIG d   1       4.812  -5.457  -7.719  0.00  0.00     0.028 H 
ATOM     37  H   LIG d   1       6.365  -5.018  -8.503  0.00  0.00     0.028 H 
ATOM     38  H   LIG d   1       6.632  -3.066  -7.167  0.00  0.00     0.046 H 
ATOM     39  H   LIG d   1       5.772  -4.110  -5.997  0.00  0.00     0.046 H 
ENDROOT
BRANCH   1  40
ATOM     40  C   LIG d   1       6.733   0.096 -10.440  0.00  0.00     0.012 C 
ATOM     41  H   LIG d   1       6.869   0.874  -9.689  0.00  0.00     0.043 H 
ATOM     42  H   LIG d   1       7.491  -0.675 -10.306  0.00  0.00     0.043 H 
ATOM     43  H   LIG d   1       6.828   0.530 -11.436  0.00  0.00     0.043 H 
ENDBRANCH   1  40
BRANCH  24  44
ATOM     44  C   LIG d   1       2.615  -1.332 -12.530  0.00  0.00     0.012 C 
ATOM     45  H   LIG d   1       1.887  -0.524 -12.589  0.00  0.00     0.043 H 
ATOM     46  H   LIG d   1       3.276  -1.288 -13.396  0.00  0.00     0.043 H 
ATOM     47  H   LIG d   1       2.095  -2.290 -12.517  0.00  0.00     0.043 H 
ENDBRANCH  24  44
TORSDOF 2
ENDMDL
MODEL 4
REMARK VINA RESULT:      -6.8      1.808      2.001
REMARK  2 active torsions:
REMARK  status: ('A' for Active; 'I' for Inactive)
REMARK    1  A    between atoms: C_1  and  N_2 
REMARK    2  A    between atoms: N_25  and  C_28 
ROOT
ATOM      1  N   LIG d   1       2.526  -1.793  -9.835  0.00  0.00    -0.228 N 
ATOM      2  C   LIG d   1       3.396  -1.535  -8.848  0.00  0.00     0.240 A 
ATOM      3  O   LIG d   1       3.161  -0.628  -8.079  0.00  0.00    -0.274 OA
ATOM      4  C   LIG d   1       4.654  -2.338  -8.667  0.00  0.00     0.146 A 
ATOM      5  C   LIG d   1       4.647  -2.991  -7.283  0.00  0.00    -0.000 C 
ATOM      6  C   LIG d   1       4.804  -1.981  -6.180  0.00  0.00    -0.005 A 
ATOM      7  C   LIG d   1       4.411  -2.316  -4.916  0.00  0.00    -0.046 A 
ATOM      8  C   LIG d   1       4.578  -1.372  -3.885  0.00  0.00     0.001 A 
ATOM      9  C   LIG d   1       4.187  -1.656  -2.567  0.00  0.00    -0.053 A 
ATOM     10  C   LIG d   1       4.373  -0.722  -1.592  0.00  0.00    -0.061 A 
ATOM     11  C   LIG d   1       4.948   0.512  -1.886  0.00  0.00    -0.060 A 
ATOM     12  C   LIG d   1       5.334   0.822  -3.154  0.00  0.00    -0.036 A 
ATOM     13  C   LIG d   1       5.153  -0.113  -4.186  0.00  0.00     0.073 A 
ATOM     14  N   LIG d   1       5.510   0.169  -5.444  0.00  0.00    -0.232 NA
ATOM     15  C   LIG d   1       5.344  -0.704  -6.414  0.00  0.00     0.126 A 
ATOM     16  N   LIG d   1       5.687  -0.378  -7.718  0.00  0.00    -0.310 N 
ATOM     17  C   LIG d   1       5.869  -1.408  -8.762  0.00  0.00     0.048 C 
ATOM     18  H   LIG d   1       6.793  -1.962  -8.603  0.00  0.00     0.051 H 
ATOM     19  C   LIG d   1       5.891  -0.662 -10.107  0.00  0.00    -0.032 C 
ATOM     20  C   LIG d   1       6.491   0.715  -9.704  0.00  0.00    -0.035 C 
ATOM     21  C   LIG d   1       5.846   0.950  -8.316  0.00  0.00     0.014 C 
ATOM     22  C   LIG d   1       4.758  -3.403  -9.722  0.00  0.00     0.240 A 
ATOM     23  O   LIG d   1       5.721  -4.139  -9.722  0.00  0.00    -0.274 OA
ATOM     24  N   LIG d   1       3.817  -3.564 -10.663  0.00  0.00    -0.228 N 
ATOM     25  C   LIG d   1       2.726  -2.785 -10.716  0.00  0.00     0.317 A 
ATOM     26  O   LIG d   1       1.901  -2.979 -11.587  0.00  0.00    -0.252 OA
ATOM     27  H   LIG d   1       3.705  -3.521  -7.146  0.00  0.00     0.033 H 
ATOM     28  H   LIG d   1       5.466  -3.708  -7.226  0.00  0.00     0.033 H 
ATOM     29  H   LIG d   1       3.982  -3.286  -4.711  0.00  0.00     0.063 H 
ATOM     30  H   LIG d   1       3.739  -2.608  -2.326  0.00  0.00     0.062 H 
ATOM     31  H   LIG d   1       4.073  -0.943  -0.579  0.00  0.00     0.062 H 
ATOM     32  H   LIG d   1       5.089   1.234  -1.096  0.00  0.00     0.062 H 
ATOM     33  H   LIG d   1       5.779   1.784  -3.365  0.00  0.00     0.064 H 
ATOM     34  H   LIG d   1       6.534  -1.171 -10.825  0.00  0.00     0.028 H 
ATOM     35  H   LIG d   1       4.883  -0.545 -10.505  0.00  0.00     0.028 H 
ATOM     36  H   LIG d   1       7.577   0.658  -9.624  0.00  0.00     0.028 H 
ATOM     37  H   LIG d   1       6.194   1.491 -10.408  0.00  0.00     0.028 H 
ATOM     38  H   LIG d   1       4.874   1.430  -8.429  0.00  0.00     0.046 H 
ATOM     39  H   LIG d   1       6.500   1.564  -7.696  0.00  0.00     0.046 H 
ENDROOT
BRANCH   1  40
ATOM     40  C   LIG d   1       1.319  -0.972  -9.950  0.00  0.00     0.012 C 
ATOM     41  H   LIG d   1       1.598   0.082  -9.983  0.00  0.00     0.043 H 
ATOM     42  H   LIG d   1       0.787  -1.234 -10.864  0.00  0.00     0.043 H 
ATOM     43  H   LIG d   1       0.674  -1.151  -9.090  0.00  0.00     0.043 H 
ENDBRANCH   1  40
BRANCH  24  44
ATOM     44  C   LIG d   1       3.982  -4.625 -11.659  0.00  0.00     0.012 C 
ATOM     45  H   LIG d   1       4.363  -5.523 -11.173  0.00  0.00     0.043 H 
ATOM     46  H   LIG d   1       3.019  -4.844 -12.120  0.00  0.00     0.043 H 
ATOM     47  H   LIG d   1       4.686  -4.299 -12.424  0.00  0.00     0.043 H 
ENDBRANCH  24  44
TORSDOF 2
ENDMDL
MODEL 5
REMARK VINA RESULT:      -6.7      2.190      2.742
REMARK  2 active torsions:
REMARK  status: ('A' for Active; 'I' for Inactive)
REMARK    1  A    between atoms: C_1  and  N_2 
REMARK    2  A    between atoms: N_25  and  C_28 
ROOT
ATOM      1  N   LIG d   1       4.654   0.531 -10.405  0.00  0.00    -0.228 N 
ATOM      2  C   LIG d   1       5.175   0.282  -9.196  0.00  0.00     0.240 A 
ATOM      3  O   LIG d   1       4.909   1.024  -8.276  0.00  0.00    -0.274 OA
ATOM      4  C   LIG d   1       6.079  -0.893  -8.947  0.00  0.00     0.146 A 
ATOM      5  C   LIG d   1       5.457  -1.797  -7.881  0.00  0.00    -0.000 C 
ATOM      6  C   LIG d   1       5.460  -1.155  -6.521  0.00  0.00    -0.005 A 
ATOM      7  C   LIG d   1       4.599  -1.620  -5.569  0.00  0.00    -0.046 A 
ATOM      8  C   LIG d   1       4.619  -1.025  -4.293  0.00  0.00     0.001 A 
ATOM      9  C   LIG d   1       3.753  -1.454  -3.274  0.00  0.00    -0.053 A 
ATOM     10  C   LIG d   1       3.808  -0.864  -2.048  0.00  0.00    -0.061 A 
ATOM     11  C   LIG d   1       4.714   0.162  -1.790  0.00  0.00    -0.060 A 
ATOM     12  C   LIG d   1       5.565   0.606  -2.755  0.00  0.00    -0.036 A 
ATOM     13  C   LIG d   1       5.533   0.025  -4.034  0.00  0.00     0.073 A 
ATOM     14  N   LIG d   1       6.348   0.449  -5.006  0.00  0.00    -0.232 NA
ATOM     15  C   LIG d   1       6.324  -0.093  -6.204  0.00  0.00     0.126 A 
ATOM     16  N   LIG d   1       7.151   0.388  -7.209  0.00  0.00    -0.310 N 
ATOM     17  C   LIG d   1       7.433  -0.392  -8.432  0.00  0.00     0.048 C 
ATOM     18  H   LIG d   1       8.098  -1.228  -8.214  0.00  0.00     0.051 H 
ATOM     19  C   LIG d   1       8.078   0.585  -9.429  0.00  0.00    -0.032 C 
ATOM     20  C   LIG d   1       8.805   1.582  -8.482  0.00  0.00    -0.035 C 
ATOM     21  C   LIG d   1       7.801   1.697  -7.308  0.00  0.00     0.014 C 
ATOM     22  C   LIG d   1       6.286  -1.679 -10.211  0.00  0.00     0.240 A 
ATOM     23  O   LIG d   1       6.998  -2.660 -10.184  0.00  0.00    -0.274 OA
ATOM     24  N   LIG d   1       5.707  -1.327 -11.367  0.00  0.00    -0.228 N 
ATOM     25  C   LIG d   1       4.907  -0.255 -11.463  0.00  0.00     0.317 A 
ATOM     26  O   LIG d   1       4.402   0.015 -12.535  0.00  0.00    -0.252 OA
ATOM     27  H   LIG d   1       4.429  -2.023  -8.164  0.00  0.00     0.033 H 
ATOM     28  H   LIG d   1       6.022  -2.729  -7.833  0.00  0.00     0.033 H 
ATOM     29  H   LIG d   1       3.916  -2.427  -5.790  0.00  0.00     0.063 H 
ATOM     30  H   LIG d   1       3.045  -2.248  -3.463  0.00  0.00     0.062 H 
ATOM     31  H   LIG d   1       3.141  -1.196  -1.267  0.00  0.00     0.062 H 
ATOM     32  H   LIG d   1       4.742   0.612  -0.809  0.00  0.00     0.062 H 
ATOM     33  H   LIG d   1       6.262   1.402  -2.538  0.00  0.00     0.064 H 
ATOM     34  H   LIG d   1       8.791   0.071 -10.074  0.00  0.00     0.028 H 
ATOM     35  H   LIG d   1       7.318   1.096 -10.021  0.00  0.00     0.028 H 
ATOM     36  H   LIG d   1       9.757   1.173  -8.143  0.00  0.00     0.028 H 
ATOM     37  H   LIG d   1       8.948   2.547  -8.968  0.00  0.00     0.028 H 
ATOM     38  H   LIG d   1       7.062   2.469  -7.519  0.00  0.00     0.046 H 
ATOM     39  H   LIG d   1       8.330   1.924  -6.382  0.00  0.00     0.046 H 
ENDROOT
BRANCH   1  40
ATOM     40  C   LIG d   1       3.778   1.693 -10.576  0.00  0.00     0.012 C 
ATOM     41  H   LIG d   1       3.031   1.704  -9.782  0.00  0.00     0.043 H 
ATOM     42  H   LIG d   1       4.372   2.606 -10.528  0.00  0.00     0.043 H 
ATOM     43  H   LIG d   1       3.280   1.633 -11.543  0.00  0.00     0.043 H 
ENDBRANCH   1  40
BRANCH  24  44
ATOM     44  C   LIG d   1       5.951  -2.141 -12.560  0.00  0.00     0.012 C 
ATOM     45  H   LIG d   1       5.319  -3.027 -12.531  0.00  0.00     0.043 H 
ATOM     46  H   LIG d   1       5.717  -1.558 -13.452  0.00  0.00     0.043 H 
ATOM     47  H   LIG d   1       6.999  -2.442 -12.587  0.00  0.00     0.043 H 
ENDBRANCH  24  44
TORSDOF 2
ENDMDL
MODEL 6
REMARK VINA RESULT:      -6.7      2.849      6.806
REMARK  2 active torsions:
REMARK  status: ('A' for Active; 'I' for Inactive)
REMARK    1  A    between atoms: C_1  and  N_2 
REMARK    2  A    between atoms: N_25  and  C_28 
ROOT
ATOM      1  N   LIG d   1       4.732   0.177  -3.868  0.00  0.00    -0.228 N 
ATOM      2  C   LIG d   1       4.686  -0.479  -5.036  0.00  0.00     0.240 A 
ATOM      3  O   LIG d   1       3.662  -1.043  -5.355  0.00  0.00    -0.274 OA
ATOM      4  C   LIG d   1       5.869  -0.536  -5.962  0.00  0.00     0.146 A 
ATOM      5  C   LIG d   1       5.489   0.077  -7.311  0.00  0.00    -0.000 C 
ATOM      6  C   LIG d   1       4.508  -0.778  -8.065  0.00  0.00    -0.005 A 
ATOM      7  C   LIG d   1       3.762  -0.208  -9.057  0.00  0.00    -0.046 A 
ATOM      8  C   LIG d   1       2.858  -1.019  -9.771  0.00  0.00     0.001 A 
ATOM      9  C   LIG d   1       2.059  -0.490 -10.797  0.00  0.00    -0.053 A 
ATOM     10  C   LIG d   1       1.203  -1.306 -11.474  0.00  0.00    -0.061 A 
ATOM     11  C   LIG d   1       1.111  -2.660 -11.162  0.00  0.00    -0.060 A 
ATOM     12  C   LIG d   1       1.867  -3.205 -10.170  0.00  0.00    -0.036 A 
ATOM     13  C   LIG d   1       2.757  -2.393  -9.446  0.00  0.00     0.073 A 
ATOM     14  N   LIG d   1       3.504  -2.898  -8.457  0.00  0.00    -0.232 NA
ATOM     15  C   LIG d   1       4.339  -2.143  -7.778  0.00  0.00     0.126 A 
ATOM     16  N   LIG d   1       5.076  -2.678  -6.731  0.00  0.00    -0.310 N 
ATOM     17  C   LIG d   1       6.269  -1.999  -6.185  0.00  0.00     0.048 C 
ATOM     18  H   LIG d   1       7.107  -2.069  -6.879  0.00  0.00     0.051 H 
ATOM     19  C   LIG d   1       6.592  -2.695  -4.852  0.00  0.00    -0.032 C 
ATOM     20  C   LIG d   1       6.084  -4.142  -5.111  0.00  0.00    -0.035 C 
ATOM     21  C   LIG d   1       4.807  -3.887  -5.949  0.00  0.00     0.014 C 
ATOM     22  C   LIG d   1       7.033   0.216  -5.380  0.00  0.00     0.240 A 
ATOM     23  O   LIG d   1       8.073   0.264  -6.002  0.00  0.00    -0.274 OA
ATOM     24  N   LIG d   1       6.955   0.837  -4.194  0.00  0.00    -0.228 N 
ATOM     25  C   LIG d   1       5.834   0.824  -3.459  0.00  0.00     0.317 A 
ATOM     26  O   LIG d   1       5.817   1.409  -2.394  0.00  0.00    -0.252 OA
ATOM     27  H   LIG d   1       5.047   1.058  -7.142  0.00  0.00     0.033 H 
ATOM     28  H   LIG d   1       6.391   0.195  -7.912  0.00  0.00     0.033 H 
ATOM     29  H   LIG d   1       3.864   0.842  -9.291  0.00  0.00     0.063 H 
ATOM     30  H   LIG d   1       2.121   0.559 -11.048  0.00  0.00     0.062 H 
ATOM     31  H   LIG d   1       0.590  -0.897 -12.263  0.00  0.00     0.062 H 
ATOM     32  H   LIG d   1       0.428  -3.288 -11.715  0.00  0.00     0.062 H 
ATOM     33  H   LIG d   1       1.784  -4.257  -9.941  0.00  0.00     0.064 H 
ATOM     34  H   LIG d   1       7.664  -2.688  -4.657  0.00  0.00     0.028 H 
ATOM     35  H   LIG d   1       6.046  -2.233  -4.029  0.00  0.00     0.028 H 
ATOM     36  H   LIG d   1       6.816  -4.715  -5.681  0.00  0.00     0.028 H 
ATOM     37  H   LIG d   1       5.842  -4.643  -4.175  0.00  0.00     0.028 H 
ATOM     38  H   LIG d   1       3.952  -3.727  -5.293  0.00  0.00     0.046 H 
ATOM     39  H   LIG d   1       4.619  -4.730  -6.614  0.00  0.00     0.046 H 
ENDROOT
BRANCH   1  40
ATOM     40  C   LIG d   1       3.540   0.193  -3.015  0.00  0.00     0.012 C 
ATOM     41  H   LIG d   1       3.487   1.144  -2.484  0.00  0.00     0.043 H 
ATOM     42  H   LIG d   1       2.650   0.072  -3.633  0.00  0.00     0.043 H 
ATOM     43  H   LIG d   1       3.598  -0.623  -2.296  0.00  0.00     0.043 H 
ENDBRANCH   1  40
BRANCH  24  44
ATOM     44  C   LIG d   1       8.129   1.553  -3.690  0.00  0.00     0.012 C 
ATOM     45  H   LIG d   1       8.608   0.962  -2.909  0.00  0.00     0.043 H 
ATOM     46  H   LIG d   1       8.834   1.714  -4.506  0.00  0.00     0.043 H 
ATOM     47  H   LIG d   1       7.820   2.515  -3.281  0.00  0.00     0.043 H 
ENDBRANCH  24  44
TORSDOF 2
ENDMDL
MODEL 7
REMARK VINA RESULT:      -6.6      5.912      7.825
REMARK  2 active torsions:
REMARK  status: ('A' for Active; 'I' for Inactive)
REMARK    1  A    between atoms: C_1  and  N_2 
REMARK    2  A    between atoms: N_25  and  C_28 
ROOT
ATOM      1  N   LIG d   1      11.560   1.589  -4.426  0.00  0.00    -0.228 N 
ATOM      2  C   LIG d   1      10.277   1.303  -4.685  0.00  0.00     0.240 A 
ATOM      3  O   LIG d   1       9.908   0.150  -4.628  0.00  0.00    -0.274 OA
ATOM      4  C   LIG d   1       9.281   2.371  -5.043  0.00  0.00     0.146 A 
ATOM      5  C   LIG d   1       8.146   2.373  -4.017  0.00  0.00    -0.000 C 
ATOM      6  C   LIG d   1       7.283   1.146  -4.124  0.00  0.00    -0.005 A 
ATOM      7  C   LIG d   1       6.510   0.787  -3.058  0.00  0.00    -0.046 A 
ATOM      8  C   LIG d   1       5.692  -0.354  -3.171  0.00  0.00     0.001 A 
ATOM      9  C   LIG d   1       4.880  -0.777  -2.107  0.00  0.00    -0.053 A 
ATOM     10  C   LIG d   1       4.092  -1.879  -2.256  0.00  0.00    -0.061 A 
ATOM     11  C   LIG d   1       4.081  -2.592  -3.452  0.00  0.00    -0.060 A 
ATOM     12  C   LIG d   1       4.859  -2.212  -4.503  0.00  0.00    -0.036 A 
ATOM     13  C   LIG d   1       5.689  -1.084  -4.384  0.00  0.00     0.073 A 
ATOM     14  N   LIG d   1       6.474  -0.695  -5.395  0.00  0.00    -0.232 NA
ATOM     15  C   LIG d   1       7.251   0.361  -5.289  0.00  0.00     0.126 A 
ATOM     16  N   LIG d   1       8.085   0.725  -6.336  0.00  0.00    -0.310 N 
ATOM     17  C   LIG d   1       8.690   2.071  -6.425  0.00  0.00     0.048 C 
ATOM     18  H   LIG d   1       7.941   2.815  -6.695  0.00  0.00     0.051 H 
ATOM     19  C   LIG d   1       9.794   1.980  -7.492  0.00  0.00    -0.032 C 
ATOM     20  C   LIG d   1       9.237   0.882  -8.442  0.00  0.00    -0.035 C 
ATOM     21  C   LIG d   1       8.577  -0.100  -7.442  0.00  0.00     0.014 C 
ATOM     22  C   LIG d   1       9.939   3.722  -5.065  0.00  0.00     0.240 A 
ATOM     23  O   LIG d   1       9.273   4.696  -5.343  0.00  0.00    -0.274 OA
ATOM     24  N   LIG d   1      11.240   3.882  -4.785  0.00  0.00    -0.228 N 
ATOM     25  C   LIG d   1      12.030   2.845  -4.467  0.00  0.00     0.317 A 
ATOM     26  O   LIG d   1      13.202   3.048  -4.217  0.00  0.00    -0.252 OA
ATOM     27  H   LIG d   1       8.573   2.420  -3.016  0.00  0.00     0.033 H 
ATOM     28  H   LIG d   1       7.526   3.256  -4.178  0.00  0.00     0.033 H 
ATOM     29  H   LIG d   1       6.525   1.366  -2.146  0.00  0.00     0.063 H 
ATOM     30  H   LIG d   1       4.881  -0.233  -1.174  0.00  0.00     0.062 H 
ATOM     31  H   LIG d   1       3.469  -2.202  -1.437  0.00  0.00     0.062 H 
ATOM     32  H   LIG d   1       3.446  -3.460  -3.548  0.00  0.00     0.062 H 
ATOM     33  H   LIG d   1       4.838  -2.776  -5.424  0.00  0.00     0.064 H 
ATOM     34  H   LIG d   1       9.907   2.928  -8.018  0.00  0.00     0.028 H 
ATOM     35  H   LIG d   1      10.739   1.668  -7.049  0.00  0.00     0.028 H 
ATOM     36  H   LIG d   1       8.497   1.297  -9.127  0.00  0.00     0.028 H 
ATOM     37  H   LIG d   1      10.043   0.396  -8.990  0.00  0.00     0.028 H 
ATOM     38  H   LIG d   1       9.312  -0.817  -7.078  0.00  0.00     0.046 H 
ATOM     39  H   LIG d   1       7.746  -0.621  -7.919  0.00  0.00     0.046 H 
ENDROOT
BRANCH   1  40
ATOM     40  C   LIG d   1      12.476   0.499  -4.080  0.00  0.00     0.012 C 
ATOM     41  H   LIG d   1      11.916  -0.434  -4.003  0.00  0.00     0.043 H 
ATOM     42  H   LIG d   1      13.236   0.403  -4.856  0.00  0.00     0.043 H 
ATOM     43  H   LIG d   1      12.955   0.716  -3.126  0.00  0.00     0.043 H 
ENDBRANCH   1  40
BRANCH  24  44
ATOM     44  C   LIG d   1      11.814   5.229  -4.823  0.00  0.00     0.012 C 
ATOM     45  H   LIG d   1      11.886   5.564  -5.858  0.00  0.00     0.043 H 
ATOM     46  H   LIG d   1      11.174   5.912  -4.265  0.00  0.00     0.043 H 
ATOM     47  H   LIG d   1      12.808   5.214  -4.375  0.00  0.00     0.043 H 
ENDBRANCH  24  44
TORSDOF 2
ENDMDL
MODEL 8
REMARK VINA RESULT:      -6.6      3.973      5.573
REMARK  2 active torsions:
REMARK  status: ('A' for Active; 'I' for Inactive)
REMARK    1  A    between atoms: C_1  and  N_2 
REMARK    2  A    between atoms: N_25  and  C_28 
ROOT
ATOM      1  N   LIG d   1       6.119  -4.565  -8.317  0.00  0.00    -0.228 N 
ATOM      2  C   LIG d   1       6.218  -4.024  -7.095  0.00  0.00     0.240 A 
ATOM      3  O   LIG d   1       6.292  -2.819  -6.989  0.00  0.00    -0.274 OA
ATOM      4  C   LIG d   1       6.239  -4.868  -5.851  0.00  0.00     0.146 A 
ATOM      5  C   LIG d   1       5.062  -4.481  -4.953  0.00  0.00    -0.000 C 
ATOM      6  C   LIG d   1       5.230  -3.110  -4.358  0.00  0.00    -0.005 A 
ATOM      7  C   LIG d   1       4.128  -2.454  -3.890  0.00  0.00    -0.046 A 
ATOM      8  C   LIG d   1       4.296  -1.177  -3.319  0.00  0.00     0.001 A 
ATOM      9  C   LIG d   1       3.201  -0.450  -2.826  0.00  0.00    -0.053 A 
ATOM     10  C   LIG d   1       3.401   0.777  -2.269  0.00  0.00    -0.061 A 
ATOM     11  C   LIG d   1       4.681   1.320  -2.181  0.00  0.00    -0.060 A 
ATOM     12  C   LIG d   1       5.764   0.644  -2.652  0.00  0.00    -0.036 A 
ATOM     13  C   LIG d   1       5.596  -0.621  -3.238  0.00  0.00     0.073 A 
ATOM     14  N   LIG d   1       6.640  -1.303  -3.722  0.00  0.00    -0.232 NA
ATOM     15  C   LIG d   1       6.488  -2.489  -4.270  0.00  0.00     0.126 A 
ATOM     16  N   LIG d   1       7.579  -3.163  -4.799  0.00  0.00    -0.310 N 
ATOM     17  C   LIG d   1       7.542  -4.612  -5.085  0.00  0.00     0.048 C 
ATOM     18  H   LIG d   1       7.568  -5.190  -4.162  0.00  0.00     0.051 H 
ATOM     19  C   LIG d   1       8.769  -4.912  -5.964  0.00  0.00    -0.032 C 
ATOM     20  C   LIG d   1       9.785  -3.840  -5.477  0.00  0.00    -0.035 C 
ATOM     21  C   LIG d   1       8.867  -2.616  -5.234  0.00  0.00     0.014 C 
ATOM     22  C   LIG d   1       6.144  -6.327  -6.200  0.00  0.00     0.240 A 
ATOM     23  O   LIG d   1       6.153  -7.147  -5.307  0.00  0.00    -0.274 OA
ATOM     24  N   LIG d   1       6.049  -6.748  -7.469  0.00  0.00    -0.228 N 
ATOM     25  C   LIG d   1       6.030  -5.892  -8.501  0.00  0.00     0.317 A 
ATOM     26  O   LIG d   1       5.936  -6.328  -9.631  0.00  0.00    -0.252 OA
ATOM     27  H   LIG d   1       4.146  -4.502  -5.542  0.00  0.00     0.033 H 
ATOM     28  H   LIG d   1       4.978  -5.209  -4.146  0.00  0.00     0.033 H 
ATOM     29  H   LIG d   1       3.148  -2.903  -3.957  0.00  0.00     0.063 H 
ATOM     30  H   LIG d   1       2.204  -0.860  -2.890  0.00  0.00     0.062 H 
ATOM     31  H   LIG d   1       2.558   1.335  -1.892  0.00  0.00     0.062 H 
ATOM     32  H   LIG d   1       4.815   2.293  -1.732  0.00  0.00     0.062 H 
ATOM     33  H   LIG d   1       6.750   1.080  -2.575  0.00  0.00     0.064 H 
ATOM     34  H   LIG d   1       9.145  -5.917  -5.778  0.00  0.00     0.028 H 
ATOM     35  H   LIG d   1       8.535  -4.774  -7.019  0.00  0.00     0.028 H 
ATOM     36  H   LIG d   1      10.269  -4.154  -4.552  0.00  0.00     0.028 H 
ATOM     37  H   LIG d   1      10.524  -3.625  -6.248  0.00  0.00     0.028 H 
ATOM     38  H   LIG d   1       8.742  -2.050  -6.156  0.00  0.00     0.046 H 
ATOM     39  H   LIG d   1       9.286  -1.980  -4.454  0.00  0.00     0.046 H 
ENDROOT
BRANCH   1  40
ATOM     40  C   LIG d   1       6.102  -3.682  -9.486  0.00  0.00     0.012 C 
ATOM     41  H   LIG d   1       5.071  -3.506  -9.793  0.00  0.00     0.043 H 
ATOM     42  H   LIG d   1       6.572  -2.733  -9.231  0.00  0.00     0.043 H 
ATOM     43  H   LIG d   1       6.650  -4.152 -10.303  0.00  0.00     0.043 H 
ENDBRANCH   1  40
BRANCH  24  44
ATOM     44  C   LIG d   1       5.957  -8.185  -7.735  0.00  0.00     0.012 C 
ATOM     45  H   LIG d   1       5.983  -8.358  -8.811  0.00  0.00     0.043 H 
ATOM     46  H   LIG d   1       6.800  -8.695  -7.266  0.00  0.00     0.043 H 
ATOM     47  H   LIG d   1       5.024  -8.572  -7.326  0.00  0.00     0.043 H 
ENDBRANCH  24  44
TORSDOF 2
ENDMDL
MODEL 9
REMARK VINA RESULT:      -6.5      5.292      6.345
REMARK  2 active torsions:
REMARK  status: ('A' for Active; 'I' for Inactive)
REMARK    1  A    between atoms: C_1  and  N_2 
REMARK    2  A    between atoms: N_25  and  C_28 
ROOT
ATOM      1  N   LIG d   1       9.487   1.004  -8.522  0.00  0.00    -0.228 N 
ATOM      2  C   LIG d   1       9.122   1.030  -7.233  0.00  0.00     0.240 A 
ATOM      3  O   LIG d   1       8.009   1.416  -6.944  0.00  0.00    -0.274 OA
ATOM      4  C   LIG d   1      10.050   0.595  -6.134  0.00  0.00     0.146 A 
ATOM      5  C   LIG d   1       9.420  -0.568  -5.365  0.00  0.00    -0.000 C 
ATOM      6  C   LIG d   1       8.227  -0.135  -4.560  0.00  0.00    -0.005 A 
ATOM      7  C   LIG d   1       7.321  -1.076  -4.163  0.00  0.00    -0.046 A 
ATOM      8  C   LIG d   1       6.214  -0.665  -3.394  0.00  0.00     0.001 A 
ATOM      9  C   LIG d   1       5.245  -1.584  -2.962  0.00  0.00    -0.053 A 
ATOM     10  C   LIG d   1       4.194  -1.153  -2.210  0.00  0.00    -0.061 A 
ATOM     11  C   LIG d   1       4.067   0.190  -1.864  0.00  0.00    -0.060 A 
ATOM     12  C   LIG d   1       4.986   1.109  -2.270  0.00  0.00    -0.036 A 
ATOM     13  C   LIG d   1       6.080   0.702  -3.051  0.00  0.00     0.073 A 
ATOM     14  N   LIG d   1       6.992   1.585  -3.476  0.00  0.00    -0.232 NA
ATOM     15  C   LIG d   1       8.019   1.209  -4.206  0.00  0.00     0.126 A 
ATOM     16  N   LIG d   1       8.932   2.147  -4.667  0.00  0.00    -0.310 N 
ATOM     17  C   LIG d   1      10.270   1.760  -5.162  0.00  0.00     0.048 C 
ATOM     18  H   LIG d   1      10.917   1.460  -4.338  0.00  0.00     0.051 H 
ATOM     19  C   LIG d   1      10.834   2.991  -5.892  0.00  0.00    -0.032 C 
ATOM     20  C   LIG d   1      10.166   4.162  -5.117  0.00  0.00    -0.035 C 
ATOM     21  C   LIG d   1       8.754   3.591  -4.831  0.00  0.00     0.014 C 
ATOM     22  C   LIG d   1      11.374   0.162  -6.700  0.00  0.00     0.240 A 
ATOM     23  O   LIG d   1      12.242  -0.215  -5.944  0.00  0.00    -0.274 OA
ATOM     24  N   LIG d   1      11.621   0.181  -8.018  0.00  0.00    -0.228 N 
ATOM     25  C   LIG d   1      10.702   0.584  -8.907  0.00  0.00     0.317 A 
ATOM     26  O   LIG d   1      10.978   0.575 -10.090  0.00  0.00    -0.252 OA
ATOM     27  H   LIG d   1       9.110  -1.335  -6.075  0.00  0.00     0.033 H 
ATOM     28  H   LIG d   1      10.166  -0.993  -4.692  0.00  0.00     0.033 H 
ATOM     29  H   LIG d   1       7.450  -2.114  -4.432  0.00  0.00     0.063 H 
ATOM     30  H   LIG d   1       5.332  -2.628  -3.225  0.00  0.00     0.062 H 
ATOM     31  H   LIG d   1       3.450  -1.862  -1.879  0.00  0.00     0.062 H 
ATOM     32  H   LIG d   1       3.227   0.507  -1.264  0.00  0.00     0.062 H 
ATOM     33  H   LIG d   1       4.873   2.147  -1.992  0.00  0.00     0.064 H 
ATOM     34  H   LIG d   1      11.919   3.035  -5.803  0.00  0.00     0.028 H 
ATOM     35  H   LIG d   1      10.531   2.996  -6.939  0.00  0.00     0.028 H 
ATOM     36  H   LIG d   1      10.698   4.368  -4.187  0.00  0.00     0.028 H 
ATOM     37  H   LIG d   1      10.106   5.056  -5.736  0.00  0.00     0.028 H 
ATOM     38  H   LIG d   1       8.089   3.795  -5.670  0.00  0.00     0.046 H 
ATOM     39  H   LIG d   1       8.351   4.025  -3.916  0.00  0.00     0.046 H 
ENDROOT
BRANCH   1  40
ATOM     40  C   LIG d   1       8.529   1.440  -9.541  0.00  0.00     0.012 C 
ATOM     41  H   LIG d   1       8.133   0.569 -10.064  0.00  0.00     0.043 H 
ATOM     42  H   LIG d   1       7.712   1.980  -9.064  0.00  0.00     0.043 H 
ATOM     43  H   LIG d   1       9.031   2.095 -10.253  0.00  0.00     0.043 H 
ENDBRANCH   1  40
BRANCH  24  44
ATOM     44  C   LIG d   1      12.934  -0.257  -8.499  0.00  0.00     0.012 C 
ATOM     45  H   LIG d   1      13.113  -1.284  -8.182  0.00  0.00     0.043 H 
ATOM     46  H   LIG d   1      12.956  -0.205  -9.588  0.00  0.00     0.043 H 
ATOM     47  H   LIG d   1      13.707   0.391  -8.088  0.00  0.00     0.043 H 
ENDBRANCH  24  44
TORSDOF 2
ENDMDL
MODEL 10
REMARK VINA RESULT:      -6.4      2.093      6.679
REMARK  2 active torsions:
REMARK  status: ('A' for Active; 'I' for Inactive)
REMARK    1  A    between atoms: C_1  and  N_2 
REMARK    2  A    between atoms: N_25  and  C_28 
ROOT
ATOM      1  N   LIG d   1       4.584  -2.165  -6.500  0.00  0.00    -0.228 N 
ATOM      2  C   LIG d   1       4.279  -1.619  -7.685  0.00  0.00     0.240 A 
ATOM      3  O   LIG d   1       4.563  -2.218  -8.699  0.00  0.00    -0.274 OA
ATOM      4  C   LIG d   1       3.594  -0.285  -7.793  0.00  0.00     0.146 A 
ATOM      5  C   LIG d   1       2.265  -0.454  -8.533  0.00  0.00    -0.000 C 
ATOM      6  C   LIG d   1       2.464  -0.779  -9.988  0.00  0.00    -0.005 A 
ATOM      7  C   LIG d   1       1.441  -1.358 -10.681  0.00  0.00    -0.046 A 
ATOM      8  C   LIG d   1       1.628  -1.644 -12.047  0.00  0.00     0.001 A 
ATOM      9  C   LIG d   1       0.616  -2.245 -12.812  0.00  0.00    -0.053 A 
ATOM     10  C   LIG d   1       0.828  -2.497 -14.134  0.00  0.00    -0.061 A 
ATOM     11  C   LIG d   1       2.038  -2.165 -14.738  0.00  0.00    -0.060 A 
ATOM     12  C   LIG d   1       3.043  -1.585 -14.026  0.00  0.00    -0.036 A 
ATOM     13  C   LIG d   1       2.863  -1.316 -12.659  0.00  0.00     0.073 A 
ATOM     14  N   LIG d   1       3.837  -0.759 -11.930  0.00  0.00    -0.232 NA
ATOM     15  C   LIG d   1       3.672  -0.503 -10.651  0.00  0.00     0.126 A 
ATOM     16  N   LIG d   1       4.709   0.040  -9.905  0.00  0.00    -0.310 N 
ATOM     17  C   LIG d   1       4.479   0.678  -8.592  0.00  0.00     0.048 C 
ATOM     18  H   LIG d   1       3.989   1.645  -8.711  0.00  0.00     0.051 H 
ATOM     19  C   LIG d   1       5.862   0.832  -7.937  0.00  0.00    -0.032 C 
ATOM     20  C   LIG d   1       6.789   1.000  -9.174  0.00  0.00    -0.035 C 
ATOM     21  C   LIG d   1       6.145   0.024 -10.191  0.00  0.00     0.014 C 
ATOM     22  C   LIG d   1       3.337   0.290  -6.428  0.00  0.00     0.240 A 
ATOM     23  O   LIG d   1       2.793   1.369  -6.337  0.00  0.00    -0.274 OA
ATOM     24  N   LIG d   1       3.691  -0.356  -5.308  0.00  0.00    -0.228 N 
ATOM     25  C   LIG d   1       4.293  -1.555  -5.340  0.00  0.00     0.317 A 
ATOM     26  O   LIG d   1       4.587  -2.098  -4.294  0.00  0.00    -0.252 OA
ATOM     27  H   LIG d   1       1.698  -1.258  -8.064  0.00  0.00     0.033 H 
ATOM     28  H   LIG d   1       1.695   0.472  -8.452  0.00  0.00     0.033 H 
ATOM     29  H   LIG d   1       0.506  -1.592 -10.193  0.00  0.00     0.063 H 
ATOM     30  H   LIG d   1      -0.326  -2.508 -12.354  0.00  0.00     0.062 H 
ATOM     31  H   LIG d   1       0.049  -2.959 -14.720  0.00  0.00     0.062 H 
ATOM     32  H   LIG d   1       2.182  -2.371 -15.789  0.00  0.00     0.062 H 
ATOM     33  H   LIG d   1       3.976  -1.333 -14.510  0.00  0.00     0.064 H 
ATOM     34  H   LIG d   1       5.897   1.717  -7.302  0.00  0.00     0.028 H 
ATOM     35  H   LIG d   1       6.127  -0.062  -7.371  0.00  0.00     0.028 H 
ATOM     36  H   LIG d   1       6.761   2.025  -9.546  0.00  0.00     0.028 H 
ATOM     37  H   LIG d   1       7.810   0.700  -8.940  0.00  0.00     0.028 H 
ATOM     38  H   LIG d   1       6.544  -0.980 -10.054  0.00  0.00     0.046 H 
ATOM     39  H   LIG d   1       6.328   0.367 -11.209  0.00  0.00     0.046 H 
ENDROOT
BRANCH   1  40
ATOM     40  C   LIG d   1       5.251  -3.469  -6.469  0.00  0.00     0.012 C 
ATOM     41  H   LIG d   1       5.668  -3.687  -7.452  0.00  0.00     0.043 H 
ATOM     42  H   LIG d   1       6.052  -3.450  -5.730  0.00  0.00     0.043 H 
ATOM     43  H   LIG d   1       4.527  -4.240  -6.201  0.00  0.00     0.043 H 
ENDBRANCH   1  40
BRANCH  24  44
ATOM     44  C   LIG d   1       3.408   0.263  -4.011  0.00  0.00     0.012 C 
ATOM     45  H   LIG d   1       4.313   0.268  -3.405  0.00  0.00     0.043 H 
ATOM     46  H   LIG d   1       3.070   1.288  -4.165  0.00  0.00     0.043 H 
ATOM     47  H   LIG d   1       2.630  -0.304  -3.500  0.00  0.00     0.043 H 
ENDBRANCH  24  44
TORSDOF 2
ENDMDL
