MODEL 1
REMARK VINA RESULT:      -5.3      0.000      0.000
REMARK  11 active torsions:
REMARK  status: ('A' for Active; 'I' for Inactive)
REMARK    1  A    between atoms: C_1  and  C_2 
REMARK    2  A    between atoms: C_5  and  C_8 
REMARK    3  A    between atoms: C_8  and  C_16 
REMARK    4  A    between atoms: C_12  and  C_14 
REMARK    5  A    between atoms: C_12  and  C_15 
REMARK    6  A    between atoms: C_16  and  C_17 
REMARK    7  A    between atoms: C_17  and  N_59 
REMARK    8  A    between atoms: C_18  and  C_19 
REMARK    9  A    between atoms: C_18  and  N_59 
REMARK   10  A    between atoms: C_22  and  O_25 
REMARK   11  A    between atoms: O_25  and  C_26 
ROOT
ATOM      1  C   LIG d   1       4.914  -0.805  -5.230  0.00  0.00     0.005 C 
ATOM      2  C   LIG d   1       6.426  -1.019  -5.126  0.00  0.00    -0.019 C 
ATOM      3  C   LIG d   1       6.765  -1.550  -3.731  0.00  0.00     0.049 C 
ATOM      4  O   LIG d   1       6.294  -0.629  -2.744  0.00  0.00    -0.374 OA
ATOM      5  C   LIG d   1       4.879  -0.427  -2.764  0.00  0.00     0.065 C 
ATOM      6  C   LIG d   1       4.466   0.150  -4.120  0.00  0.00    -0.014 C 
ATOM      7  H   LIG d   1       6.746  -1.740  -5.878  0.00  0.00     0.030 H 
ATOM      8  H   LIG d   1       6.940  -0.071  -5.289  0.00  0.00     0.030 H 
ATOM      9  H   LIG d   1       7.845  -1.663  -3.637  0.00  0.00     0.056 H 
ATOM     10  H   LIG d   1       6.284  -2.517  -3.583  0.00  0.00     0.056 H 
ATOM     11  H   LIG d   1       4.939   1.121  -4.262  0.00  0.00     0.030 H 
ATOM     12  H   LIG d   1       3.383   0.264  -4.152  0.00  0.00     0.030 H 
ENDROOT
BRANCH   1  13
ATOM     13  C   LIG d   1       4.578  -0.211  -6.573  0.00  0.00    -0.041 A 
ATOM     14  C   LIG d   1       3.267   0.095  -6.887  0.00  0.00    -0.058 A 
ATOM     15  C   LIG d   1       2.960   0.639  -8.119  0.00  0.00    -0.059 A 
ATOM     16  H   LIG d   1       2.482  -0.095  -6.169  0.00  0.00     0.062 H 
ATOM     17  C   LIG d   1       3.964   0.881  -9.038  0.00  0.00    -0.050 A 
ATOM     18  H   LIG d   1       1.935   0.876  -8.364  0.00  0.00     0.062 H 
ATOM     19  C   LIG d   1       5.276   0.577  -8.724  0.00  0.00    -0.059 A 
ATOM     20  C   LIG d   1       5.584   0.035  -7.490  0.00  0.00    -0.058 A 
ATOM     21  H   LIG d   1       6.060   0.765  -9.442  0.00  0.00     0.062 H 
ATOM     22  H   LIG d   1       6.608  -0.198  -7.244  0.00  0.00     0.062 H 
BRANCH  17  23
ATOM     23  C   LIG d   1       3.629   1.475 -10.382  0.00  0.00    -0.040 C 
ATOM     24  H   LIG d   1       4.261   2.344 -10.562  0.00  0.00     0.028 H 
ATOM     25  H   LIG d   1       3.801   0.732 -11.161  0.00  0.00     0.028 H 
ATOM     26  H   LIG d   1       2.582   1.778 -10.394  0.00  0.00     0.028 H 
ENDBRANCH  17  23
ENDBRANCH   1  13
BRANCH   1  27
ATOM     27  C   LIG d   1       4.195  -2.147  -5.070  0.00  0.00    -0.003 C 
ATOM     28  H   LIG d   1       3.177  -2.061  -5.447  0.00  0.00     0.033 H 
ATOM     29  H   LIG d   1       4.171  -2.422  -4.016  0.00  0.00     0.033 H 
BRANCH  27  30
ATOM     30  C   LIG d   1       4.942  -3.222  -5.860  0.00  0.00    -0.033 C 
ATOM     31  H   LIG d   1       5.900  -2.826  -6.200  0.00  0.00     0.081 H 
ATOM     32  H   LIG d   1       5.115  -4.090  -5.222  0.00  0.00     0.081 H 
BRANCH  30  33
ATOM     33  N   LIG d   1       4.129  -3.618  -7.026  0.00  0.00     0.230 N 
ATOM     34  H   LIG d   1       3.332  -2.978  -7.116  0.00  0.00     0.202 HD
ATOM     35  H   LIG d   1       3.785  -4.576  -6.890  0.00  0.00     0.202 HD
BRANCH  33  36
ATOM     36  C   LIG d   1       4.940  -3.563  -8.258  0.00  0.00    -0.008 C 
ATOM     37  H   LIG d   1       5.819  -2.942  -8.090  0.00  0.00     0.087 H 
ATOM     38  H   LIG d   1       5.252  -4.569  -8.536  0.00  0.00     0.087 H 
BRANCH  36  39
ATOM     39  C   LIG d   1       4.110  -2.969  -9.368  0.00  0.00    -0.003 A 
ATOM     40  C   LIG d   1       4.716  -2.575 -10.547  0.00  0.00    -0.050 A 
ATOM     41  C   LIG d   1       3.957  -2.031 -11.565  0.00  0.00    -0.019 A 
ATOM     42  H   LIG d   1       5.781  -2.693 -10.672  0.00  0.00     0.062 H 
ATOM     43  C   LIG d   1       2.587  -1.880 -11.405  0.00  0.00     0.120 A 
ATOM     44  H   LIG d   1       4.429  -1.723 -12.486  0.00  0.00     0.065 H 
ATOM     45  C   LIG d   1       1.982  -2.276 -10.220  0.00  0.00    -0.019 A 
ATOM     46  C   LIG d   1       2.745  -2.825  -9.207  0.00  0.00    -0.050 A 
ATOM     47  H   LIG d   1       0.917  -2.160 -10.092  0.00  0.00     0.065 H 
ATOM     48  H   LIG d   1       2.273  -3.138  -8.287  0.00  0.00     0.062 H 
BRANCH  43  49
ATOM     49  O   LIG d   1       1.839  -1.345 -12.404  0.00  0.00    -0.495 OA
BRANCH  49  50
ATOM     50  C   LIG d   1       0.491  -1.803 -12.523  0.00  0.00     0.079 C 
ATOM     51  H   LIG d   1      -0.073  -1.113 -13.151  0.00  0.00     0.066 H 
ATOM     52  H   LIG d   1       0.483  -2.795 -12.975  0.00  0.00     0.066 H 
ATOM     53  H   LIG d   1       0.035  -1.851 -11.535  0.00  0.00     0.066 H 
ENDBRANCH  49  50
ENDBRANCH  43  49
ENDBRANCH  36  39
ENDBRANCH  33  36
ENDBRANCH  30  33
ENDBRANCH  27  30
ENDBRANCH   1  27
BRANCH   5  54
ATOM     54  C   LIG d   1       4.489   0.551  -1.653  0.00  0.00    -0.036 C 
ATOM     55  H   LIG d   1       5.390   0.978  -1.213  0.00  0.00     0.026 H 
ATOM     56  H   LIG d   1       3.874   1.348  -2.070  0.00  0.00     0.026 H 
ATOM     57  H   LIG d   1       3.924   0.021  -0.885  0.00  0.00     0.026 H 
ENDBRANCH   5  54
BRANCH   5  58
ATOM     58  C   LIG d   1       4.169  -1.763  -2.539  0.00  0.00    -0.036 C 
ATOM     59  H   LIG d   1       4.731  -2.356  -1.817  0.00  0.00     0.026 H 
ATOM     60  H   LIG d   1       3.165  -1.582  -2.156  0.00  0.00     0.026 H 
ATOM     61  H   LIG d   1       4.106  -2.305  -3.482  0.00  0.00     0.026 H 
ENDBRANCH   5  58
TORSDOF 11
ENDMDL
MODEL 2
REMARK VINA RESULT:      -5.0      2.548      4.901
REMARK  11 active torsions:
REMARK  status: ('A' for Active; 'I' for Inactive)
REMARK    1  A    between atoms: C_1  and  C_2 
REMARK    2  A    between atoms: C_5  and  C_8 
REMARK    3  A    between atoms: C_8  and  C_16 
REMARK    4  A    between atoms: C_12  and  C_14 
REMARK    5  A    between atoms: C_12  and  C_15 
REMARK    6  A    between atoms: C_16  and  C_17 
REMARK    7  A    between atoms: C_17  and  N_59 
REMARK    8  A    between atoms: C_18  and  C_19 
REMARK    9  A    between atoms: C_18  and  N_59 
REMARK   10  A    between atoms: C_22  and  O_25 
REMARK   11  A    between atoms: O_25  and  C_26 
ROOT
ATOM      1  C   LIG d   1       7.788  -2.519  -4.148  0.00  0.00     0.005 C 
ATOM      2  C   LIG d   1       8.914  -1.759  -4.855  0.00  0.00    -0.019 C 
ATOM      3  C   LIG d   1       9.988  -2.753  -5.303  0.00  0.00     0.049 C 
ATOM      4  O   LIG d   1      10.471  -3.476  -4.169  0.00  0.00    -0.374 OA
ATOM      5  C   LIG d   1       9.470  -4.243  -3.497  0.00  0.00     0.065 C 
ATOM      6  C   LIG d   1       8.376  -3.308  -2.975  0.00  0.00    -0.014 C 
ATOM      7  H   LIG d   1       8.514  -1.238  -5.724  0.00  0.00     0.030 H 
ATOM      8  H   LIG d   1       9.353  -1.036  -4.167  0.00  0.00     0.030 H 
ATOM      9  H   LIG d   1      10.812  -2.213  -5.769  0.00  0.00     0.056 H 
ATOM     10  H   LIG d   1       9.559  -3.451  -6.023  0.00  0.00     0.056 H 
ATOM     11  H   LIG d   1       8.804  -2.617  -2.249  0.00  0.00     0.030 H 
ATOM     12  H   LIG d   1       7.590  -3.895  -2.501  0.00  0.00     0.030 H 
ENDROOT
BRANCH   1  13
ATOM     13  C   LIG d   1       6.763  -1.541  -3.635  0.00  0.00    -0.041 A 
ATOM     14  C   LIG d   1       6.992  -0.181  -3.734  0.00  0.00    -0.058 A 
ATOM     15  C   LIG d   1       6.051   0.715  -3.262  0.00  0.00    -0.059 A 
ATOM     16  H   LIG d   1       7.909   0.180  -4.176  0.00  0.00     0.062 H 
ATOM     17  C   LIG d   1       4.879   0.252  -2.695  0.00  0.00    -0.050 A 
ATOM     18  H   LIG d   1       6.232   1.777  -3.338  0.00  0.00     0.062 H 
ATOM     19  C   LIG d   1       4.648  -1.108  -2.598  0.00  0.00    -0.059 A 
ATOM     20  C   LIG d   1       5.588  -2.004  -3.072  0.00  0.00    -0.058 A 
ATOM     21  H   LIG d   1       3.733  -1.469  -2.154  0.00  0.00     0.062 H 
ATOM     22  H   LIG d   1       5.405  -3.066  -3.000  0.00  0.00     0.062 H 
BRANCH  17  23
ATOM     23  C   LIG d   1       3.853   1.229  -2.181  0.00  0.00    -0.040 C 
ATOM     24  H   LIG d   1       3.799   1.160  -1.095  0.00  0.00     0.028 H 
ATOM     25  H   LIG d   1       4.139   2.241  -2.468  0.00  0.00     0.028 H 
ATOM     26  H   LIG d   1       2.879   0.991  -2.609  0.00  0.00     0.028 H 
ENDBRANCH  17  23
ENDBRANCH   1  13
BRANCH   1  27
ATOM     27  C   LIG d   1       7.126  -3.484  -5.134  0.00  0.00    -0.003 C 
ATOM     28  H   LIG d   1       6.149  -3.779  -4.753  0.00  0.00     0.033 H 
ATOM     29  H   LIG d   1       7.752  -4.369  -5.251  0.00  0.00     0.033 H 
BRANCH  27  30
ATOM     30  C   LIG d   1       6.959  -2.795  -6.489  0.00  0.00    -0.033 C 
ATOM     31  H   LIG d   1       6.730  -1.741  -6.335  0.00  0.00     0.081 H 
ATOM     32  H   LIG d   1       7.884  -2.886  -7.060  0.00  0.00     0.081 H 
BRANCH  30  33
ATOM     33  N   LIG d   1       5.856  -3.440  -7.226  0.00  0.00     0.230 N 
ATOM     34  H   LIG d   1       5.993  -4.457  -7.221  0.00  0.00     0.202 HD
ATOM     35  H   LIG d   1       5.851  -3.100  -8.195  0.00  0.00     0.202 HD
BRANCH  33  36
ATOM     36  C   LIG d   1       4.561  -3.120  -6.593  0.00  0.00    -0.008 C 
ATOM     37  H   LIG d   1       3.828  -3.883  -6.854  0.00  0.00     0.087 H 
ATOM     38  H   LIG d   1       4.682  -3.087  -5.510  0.00  0.00     0.087 H 
BRANCH  36  39
ATOM     39  C   LIG d   1       4.088  -1.778  -7.087  0.00  0.00    -0.003 A 
ATOM     40  C   LIG d   1       3.841  -0.759  -6.186  0.00  0.00    -0.050 A 
ATOM     41  C   LIG d   1       3.406   0.473  -6.638  0.00  0.00    -0.019 A 
ATOM     42  H   LIG d   1       3.986  -0.925  -5.130  0.00  0.00     0.062 H 
ATOM     43  C   LIG d   1       3.219   0.687  -7.996  0.00  0.00     0.120 A 
ATOM     44  H   LIG d   1       3.213   1.270  -5.935  0.00  0.00     0.065 H 
ATOM     45  C   LIG d   1       3.468  -0.339  -8.898  0.00  0.00    -0.019 A 
ATOM     46  C   LIG d   1       3.907  -1.566  -8.442  0.00  0.00    -0.050 A 
ATOM     47  H   LIG d   1       3.323  -0.175  -9.955  0.00  0.00     0.065 H 
ATOM     48  H   LIG d   1       4.105  -2.363  -9.144  0.00  0.00     0.062 H 
BRANCH  43  49
ATOM     49  O   LIG d   1       2.792   1.897  -8.442  0.00  0.00    -0.495 OA
BRANCH  49  50
ATOM     50  C   LIG d   1       3.590   2.539  -9.439  0.00  0.00     0.079 C 
ATOM     51  H   LIG d   1       4.518   1.985  -9.575  0.00  0.00     0.066 H 
ATOM     52  H   LIG d   1       3.041   2.566 -10.381  0.00  0.00     0.066 H 
ATOM     53  H   LIG d   1       3.817   3.557  -9.123  0.00  0.00     0.066 H 
ENDBRANCH  49  50
ENDBRANCH  43  49
ENDBRANCH  36  39
ENDBRANCH  33  36
ENDBRANCH  30  33
ENDBRANCH  27  30
ENDBRANCH   1  27
BRANCH   5  54
ATOM     54  C   LIG d   1      10.104  -4.991  -2.322  0.00  0.00    -0.036 C 
ATOM     55  H   LIG d   1      11.124  -4.636  -2.174  0.00  0.00     0.026 H 
ATOM     56  H   LIG d   1       9.521  -4.811  -1.419  0.00  0.00     0.026 H 
ATOM     57  H   LIG d   1      10.118  -6.060  -2.538  0.00  0.00     0.026 H 
ENDBRANCH   5  54
BRANCH   5  58
ATOM     58  C   LIG d   1       8.858  -5.250  -4.472  0.00  0.00    -0.036 C 
ATOM     59  H   LIG d   1       9.426  -5.246  -5.403  0.00  0.00     0.026 H 
ATOM     60  H   LIG d   1       8.889  -6.248  -4.033  0.00  0.00     0.026 H 
ATOM     61  H   LIG d   1       7.824  -4.976  -4.677  0.00  0.00     0.026 H 
ENDBRANCH   5  58
TORSDOF 11
ENDMDL
MODEL 3
REMARK VINA RESULT:      -4.8      3.394      4.721
REMARK  11 active torsions:
REMARK  status: ('A' for Active; 'I' for Inactive)
REMARK    1  A    between atoms: C_1  and  C_2 
REMARK    2  A    between atoms: C_5  and  C_8 
REMARK    3  A    between atoms: C_8  and  C_16 
REMARK    4  A    between atoms: C_12  and  C_14 
REMARK    5  A    between atoms: C_12  and  C_15 
REMARK    6  A    between atoms: C_16  and  C_17 
REMARK    7  A    between atoms: C_17  and  N_59 
REMARK    8  A    between atoms: C_18  and  C_19 
REMARK    9  A    between atoms: C_18  and  N_59 
REMARK   10  A    between atoms: C_22  and  O_25 
REMARK   11  A    between atoms: O_25  and  C_26 
ROOT
ATOM      1  C   LIG d   1       4.943  -0.819  -5.118  0.00  0.00     0.005 C 
ATOM      2  C   LIG d   1       6.472  -0.893  -5.060  0.00  0.00    -0.019 C 
ATOM      3  C   LIG d   1       6.904  -1.256  -3.637  0.00  0.00     0.049 C 
ATOM      4  O   LIG d   1       6.388  -0.287  -2.722  0.00  0.00    -0.374 OA
ATOM      5  C   LIG d   1       4.961  -0.208  -2.699  0.00  0.00     0.065 C 
ATOM      6  C   LIG d   1       4.451   0.198  -4.085  0.00  0.00    -0.014 C 
ATOM      7  H   LIG d   1       6.827  -1.654  -5.754  0.00  0.00     0.030 H 
ATOM      8  H   LIG d   1       6.894   0.074  -5.333  0.00  0.00     0.030 H 
ATOM      9  H   LIG d   1       7.992  -1.268  -3.580  0.00  0.00     0.056 H 
ATOM     10  H   LIG d   1       6.516  -2.242  -3.379  0.00  0.00     0.056 H 
ATOM     11  H   LIG d   1       4.832   1.188  -4.337  0.00  0.00     0.030 H 
ATOM     12  H   LIG d   1       3.362   0.216  -4.081  0.00  0.00     0.030 H 
ENDROOT
BRANCH   1  13
ATOM     13  C   LIG d   1       4.510  -0.388  -6.495  0.00  0.00    -0.041 A 
ATOM     14  C   LIG d   1       3.168  -0.208  -6.775  0.00  0.00    -0.058 A 
ATOM     15  C   LIG d   1       2.772   0.186  -8.038  0.00  0.00    -0.059 A 
ATOM     16  H   LIG d   1       2.429  -0.379  -6.005  0.00  0.00     0.062 H 
ATOM     17  C   LIG d   1       3.717   0.404  -9.023  0.00  0.00    -0.050 A 
ATOM     18  H   LIG d   1       1.723   0.325  -8.256  0.00  0.00     0.062 H 
ATOM     19  C   LIG d   1       5.059   0.225  -8.744  0.00  0.00    -0.059 A 
ATOM     20  C   LIG d   1       5.456  -0.166  -7.479  0.00  0.00    -0.058 A 
ATOM     21  H   LIG d   1       5.797   0.395  -9.514  0.00  0.00     0.062 H 
ATOM     22  H   LIG d   1       6.504  -0.301  -7.261  0.00  0.00     0.062 H 
BRANCH  17  23
ATOM     23  C   LIG d   1       3.284   0.834 -10.401  0.00  0.00    -0.040 C 
ATOM     24  H   LIG d   1       3.388   1.915 -10.493  0.00  0.00     0.028 H 
ATOM     25  H   LIG d   1       3.909   0.345 -11.148  0.00  0.00     0.028 H 
ATOM     26  H   LIG d   1       2.242   0.554 -10.559  0.00  0.00     0.028 H 
ENDBRANCH  17  23
ENDBRANCH   1  13
BRANCH   1  27
ATOM     27  C   LIG d   1       4.352  -2.195  -4.803  0.00  0.00    -0.003 C 
ATOM     28  H   LIG d   1       3.266  -2.148  -4.870  0.00  0.00     0.033 H 
ATOM     29  H   LIG d   1       4.641  -2.492  -3.795  0.00  0.00     0.033 H 
BRANCH  27  30
ATOM     30  C   LIG d   1       4.881  -3.219  -5.808  0.00  0.00    -0.033 C 
ATOM     31  H   LIG d   1       5.032  -2.737  -6.774  0.00  0.00     0.081 H 
ATOM     32  H   LIG d   1       5.829  -3.623  -5.452  0.00  0.00     0.081 H 
BRANCH  30  33
ATOM     33  N   LIG d   1       3.898  -4.311  -5.948  0.00  0.00     0.230 N 
ATOM     34  H   LIG d   1       2.953  -3.913  -5.991  0.00  0.00     0.202 HD
ATOM     35  H   LIG d   1       3.969  -4.937  -5.137  0.00  0.00     0.202 HD
BRANCH  33  36
ATOM     36  C   LIG d   1       4.159  -5.080  -7.181  0.00  0.00    -0.008 C 
ATOM     37  H   LIG d   1       3.291  -5.026  -7.836  0.00  0.00     0.087 H 
ATOM     38  H   LIG d   1       5.028  -4.668  -7.692  0.00  0.00     0.087 H 
BRANCH  36  39
ATOM     39  C   LIG d   1       4.425  -6.518  -6.818  0.00  0.00    -0.003 A 
ATOM     40  C   LIG d   1       4.834  -6.842  -5.537  0.00  0.00    -0.050 A 
ATOM     41  C   LIG d   1       5.078  -8.160  -5.202  0.00  0.00    -0.019 A 
ATOM     42  H   LIG d   1       4.964  -6.065  -4.799  0.00  0.00     0.062 H 
ATOM     43  C   LIG d   1       4.911  -9.159  -6.150  0.00  0.00     0.120 A 
ATOM     44  H   LIG d   1       5.398  -8.414  -4.202  0.00  0.00     0.065 H 
ATOM     45  C   LIG d   1       4.500  -8.830  -7.435  0.00  0.00    -0.019 A 
ATOM     46  C   LIG d   1       4.253  -7.512  -7.763  0.00  0.00    -0.050 A 
ATOM     47  H   LIG d   1       4.370  -9.606  -8.175  0.00  0.00     0.065 H 
ATOM     48  H   LIG d   1       3.928  -7.257  -8.761  0.00  0.00     0.062 H 
BRANCH  43  49
ATOM     49  O   LIG d   1       5.151 -10.455  -5.823  0.00  0.00    -0.495 OA
BRANCH  49  50
ATOM     50  C   LIG d   1       4.189 -11.422  -6.252  0.00  0.00     0.079 C 
ATOM     51  H   LIG d   1       3.188 -11.080  -5.988  0.00  0.00     0.066 H 
ATOM     52  H   LIG d   1       4.257 -11.547  -7.333  0.00  0.00     0.066 H 
ATOM     53  H   LIG d   1       4.388 -12.374  -5.762  0.00  0.00     0.066 H 
ENDBRANCH  49  50
ENDBRANCH  43  49
ENDBRANCH  36  39
ENDBRANCH  33  36
ENDBRANCH  30  33
ENDBRANCH  27  30
ENDBRANCH   1  27
BRANCH   5  54
ATOM     54  C   LIG d   1       4.525   0.837  -1.669  0.00  0.00    -0.036 C 
ATOM     55  H   LIG d   1       4.910   0.561  -0.687  0.00  0.00     0.026 H 
ATOM     56  H   LIG d   1       4.918   1.813  -1.952  0.00  0.00     0.026 H 
ATOM     57  H   LIG d   1       3.436   0.880  -1.635  0.00  0.00     0.026 H 
ENDBRANCH   5  54
BRANCH   5  58
ATOM     58  C   LIG d   1       4.380  -1.571  -2.320  0.00  0.00    -0.036 C 
ATOM     59  H   LIG d   1       3.291  -1.522  -2.351  0.00  0.00     0.026 H 
ATOM     60  H   LIG d   1       4.729  -2.325  -3.027  0.00  0.00     0.026 H 
ATOM     61  H   LIG d   1       4.703  -1.837  -1.315  0.00  0.00     0.026 H 
ENDBRANCH   5  58
TORSDOF 11
ENDMDL
MODEL 4
REMARK VINA RESULT:      -4.8      2.252      4.377
REMARK  11 active torsions:
REMARK  status: ('A' for Active; 'I' for Inactive)
REMARK    1  A    between atoms: C_1  and  C_2 
REMARK    2  A    between atoms: C_5  and  C_8 
REMARK    3  A    between atoms: C_8  and  C_16 
REMARK    4  A    between atoms: C_12  and  C_14 
REMARK    5  A    between atoms: C_12  and  C_15 
REMARK    6  A    between atoms: C_16  and  C_17 
REMARK    7  A    between atoms: C_17  and  N_59 
REMARK    8  A    between atoms: C_18  and  C_19 
REMARK    9  A    between atoms: C_18  and  N_59 
REMARK   10  A    between atoms: C_22  and  O_25 
REMARK   11  A    between atoms: O_25  and  C_26 
ROOT
ATOM      1  C   LIG d   1       7.604  -2.427  -4.179  0.00  0.00     0.005 C 
ATOM      2  C   LIG d   1       8.707  -1.693  -4.947  0.00  0.00    -0.019 C 
ATOM      3  C   LIG d   1       9.720  -2.713  -5.471  0.00  0.00     0.049 C 
ATOM      4  O   LIG d   1      10.251  -3.462  -4.375  0.00  0.00    -0.374 OA
ATOM      5  C   LIG d   1       9.270  -4.207  -3.649  0.00  0.00     0.065 C 
ATOM      6  C   LIG d   1       8.239  -3.246  -3.052  0.00  0.00    -0.014 C 
ATOM      7  H   LIG d   1       8.269  -1.151  -5.785  0.00  0.00     0.030 H 
ATOM      8  H   LIG d   1       9.208  -0.990  -4.281  0.00  0.00     0.030 H 
ATOM      9  H   LIG d   1      10.530  -2.192  -5.981  0.00  0.00     0.056 H 
ATOM     10  H   LIG d   1       9.228  -3.391  -6.169  0.00  0.00     0.056 H 
ATOM     11  H   LIG d   1       8.732  -2.576  -2.348  0.00  0.00     0.030 H 
ATOM     12  H   LIG d   1       7.467  -3.815  -2.536  0.00  0.00     0.030 H 
ENDROOT
BRANCH   1  13
ATOM     13  C   LIG d   1       6.642  -1.426  -3.595  0.00  0.00    -0.041 A 
ATOM     14  C   LIG d   1       5.504  -1.859  -2.940  0.00  0.00    -0.058 A 
ATOM     15  C   LIG d   1       4.622  -0.940  -2.405  0.00  0.00    -0.059 A 
ATOM     16  H   LIG d   1       5.304  -2.917  -2.849  0.00  0.00     0.062 H 
ATOM     17  C   LIG d   1       4.878   0.413  -2.522  0.00  0.00    -0.050 A 
ATOM     18  H   LIG d   1       3.733  -1.279  -1.895  0.00  0.00     0.062 H 
ATOM     19  C   LIG d   1       6.016   0.848  -3.176  0.00  0.00    -0.059 A 
ATOM     20  C   LIG d   1       6.901  -0.072  -3.708  0.00  0.00    -0.058 A 
ATOM     21  H   LIG d   1       6.216   1.905  -3.268  0.00  0.00     0.062 H 
ATOM     22  H   LIG d   1       7.791   0.267  -4.215  0.00  0.00     0.062 H 
BRANCH  17  23
ATOM     23  C   LIG d   1       3.915   1.416  -1.939  0.00  0.00    -0.040 C 
ATOM     24  H   LIG d   1       3.796   1.225  -0.872  0.00  0.00     0.028 H 
ATOM     25  H   LIG d   1       4.305   2.423  -2.087  0.00  0.00     0.028 H 
ATOM     26  H   LIG d   1       2.949   1.323  -2.435  0.00  0.00     0.028 H 
ENDBRANCH  17  23
ENDBRANCH   1  13
BRANCH   1  27
ATOM     27  C   LIG d   1       6.854  -3.362  -5.131  0.00  0.00    -0.003 C 
ATOM     28  H   LIG d   1       5.985  -3.778  -4.621  0.00  0.00     0.033 H 
ATOM     29  H   LIG d   1       7.515  -4.172  -5.440  0.00  0.00     0.033 H 
BRANCH  27  30
ATOM     30  C   LIG d   1       6.397  -2.578  -6.362  0.00  0.00    -0.033 C 
ATOM     31  H   LIG d   1       6.717  -1.540  -6.271  0.00  0.00     0.081 H 
ATOM     32  H   LIG d   1       6.839  -3.017  -7.257  0.00  0.00     0.081 H 
BRANCH  30  33
ATOM     33  N   LIG d   1       4.926  -2.637  -6.454  0.00  0.00     0.230 N 
ATOM     34  H   LIG d   1       4.552  -3.102  -5.619  0.00  0.00     0.202 HD
ATOM     35  H   LIG d   1       4.660  -3.170  -7.291  0.00  0.00     0.202 HD
BRANCH  33  36
ATOM     36  C   LIG d   1       4.364  -1.275  -6.545  0.00  0.00    -0.008 C 
ATOM     37  H   LIG d   1       3.716  -1.089  -5.689  0.00  0.00     0.087 H 
ATOM     38  H   LIG d   1       5.173  -0.546  -6.555  0.00  0.00     0.087 H 
BRANCH  36  39
ATOM     39  C   LIG d   1       3.563  -1.157  -7.816  0.00  0.00    -0.003 A 
ATOM     40  C   LIG d   1       2.880   0.013  -8.095  0.00  0.00    -0.050 A 
ATOM     41  C   LIG d   1       2.146   0.124  -9.260  0.00  0.00    -0.019 A 
ATOM     42  H   LIG d   1       2.920   0.840  -7.402  0.00  0.00     0.062 H 
ATOM     43  C   LIG d   1       2.094  -0.938 -10.150  0.00  0.00     0.120 A 
ATOM     44  H   LIG d   1       1.612   1.038  -9.477  0.00  0.00     0.065 H 
ATOM     45  C   LIG d   1       2.780  -2.111  -9.868  0.00  0.00    -0.019 A 
ATOM     46  C   LIG d   1       3.517  -2.215  -8.705  0.00  0.00    -0.050 A 
ATOM     47  H   LIG d   1       2.741  -2.939 -10.560  0.00  0.00     0.065 H 
ATOM     48  H   LIG d   1       4.056  -3.126  -8.487  0.00  0.00     0.062 H 
BRANCH  43  49
ATOM     49  O   LIG d   1       1.372  -0.831 -11.296  0.00  0.00    -0.495 OA
BRANCH  49  50
ATOM     50  C   LIG d   1       0.926  -2.048 -11.899  0.00  0.00     0.079 C 
ATOM     51  H   LIG d   1       0.824  -1.905 -12.974  0.00  0.00     0.066 H 
ATOM     52  H   LIG d   1       1.654  -2.837 -11.704  0.00  0.00     0.066 H 
ATOM     53  H   LIG d   1      -0.038  -2.331 -11.477  0.00  0.00     0.066 H 
ENDBRANCH  49  50
ENDBRANCH  43  49
ENDBRANCH  36  39
ENDBRANCH  33  36
ENDBRANCH  30  33
ENDBRANCH  27  30
ENDBRANCH   1  27
BRANCH   5  54
ATOM     54  C   LIG d   1       9.953  -4.986  -2.523  0.00  0.00    -0.036 C 
ATOM     55  H   LIG d   1       9.966  -6.047  -2.772  0.00  0.00     0.026 H 
ATOM     56  H   LIG d   1      10.976  -4.629  -2.402  0.00  0.00     0.026 H 
ATOM     57  H   LIG d   1       9.404  -4.838  -1.593  0.00  0.00     0.026 H 
ENDBRANCH   5  54
BRANCH   5  58
ATOM     58  C   LIG d   1       8.569  -5.185  -4.594  0.00  0.00    -0.036 C 
ATOM     59  H   LIG d   1       9.185  -6.077  -4.714  0.00  0.00     0.026 H 
ATOM     60  H   LIG d   1       7.602  -5.465  -4.176  0.00  0.00     0.026 H 
ATOM     61  H   LIG d   1       8.423  -4.712  -5.564  0.00  0.00     0.026 H 
ENDBRANCH   5  58
TORSDOF 11
ENDMDL
MODEL 5
REMARK VINA RESULT:      -4.6      3.186      7.703
REMARK  11 active torsions:
REMARK  status: ('A' for Active; 'I' for Inactive)
REMARK    1  A    between atoms: C_1  and  C_2 
REMARK    2  A    between atoms: C_5  and  C_8 
REMARK    3  A    between atoms: C_8  and  C_16 
REMARK    4  A    between atoms: C_12  and  C_14 
REMARK    5  A    between atoms: C_12  and  C_15 
REMARK    6  A    between atoms: C_16  and  C_17 
REMARK    7  A    between atoms: C_17  and  N_59 
REMARK    8  A    between atoms: C_18  and  C_19 
REMARK    9  A    between atoms: C_18  and  N_59 
REMARK   10  A    between atoms: C_22  and  O_25 
REMARK   11  A    between atoms: O_25  and  C_26 
ROOT
ATOM      1  C   LIG d   1       3.808  -0.612  -8.249  0.00  0.00     0.005 C 
ATOM      2  C   LIG d   1       4.524  -1.938  -8.520  0.00  0.00    -0.019 C 
ATOM      3  C   LIG d   1       4.601  -2.169 -10.031  0.00  0.00     0.049 C 
ATOM      4  O   LIG d   1       3.282  -2.160 -10.581  0.00  0.00    -0.374 OA
ATOM      5  C   LIG d   1       2.582  -0.927 -10.399  0.00  0.00     0.065 C 
ATOM      6  C   LIG d   1       2.424  -0.648  -8.902  0.00  0.00    -0.014 C 
ATOM      7  H   LIG d   1       5.531  -1.901  -8.105  0.00  0.00     0.030 H 
ATOM      8  H   LIG d   1       3.969  -2.753  -8.056  0.00  0.00     0.030 H 
ATOM      9  H   LIG d   1       5.071  -3.132 -10.229  0.00  0.00     0.056 H 
ATOM     10  H   LIG d   1       5.191  -1.375 -10.491  0.00  0.00     0.056 H 
ATOM     11  H   LIG d   1       1.826  -1.436  -8.446  0.00  0.00     0.030 H 
ATOM     12  H   LIG d   1       1.929   0.313  -8.762  0.00  0.00     0.030 H 
ENDROOT
BRANCH   1  13
ATOM     13  C   LIG d   1       3.660  -0.412  -6.763  0.00  0.00    -0.041 A 
ATOM     14  C   LIG d   1       4.495  -1.081  -5.887  0.00  0.00    -0.058 A 
ATOM     15  C   LIG d   1       4.357  -0.897  -4.525  0.00  0.00    -0.059 A 
ATOM     16  H   LIG d   1       5.253  -1.749  -6.269  0.00  0.00     0.062 H 
ATOM     17  C   LIG d   1       3.387  -0.043  -4.036  0.00  0.00    -0.050 A 
ATOM     18  H   LIG d   1       5.009  -1.421  -3.841  0.00  0.00     0.062 H 
ATOM     19  C   LIG d   1       2.552   0.627  -4.911  0.00  0.00    -0.059 A 
ATOM     20  C   LIG d   1       2.691   0.446  -6.275  0.00  0.00    -0.058 A 
ATOM     21  H   LIG d   1       1.793   1.294  -4.530  0.00  0.00     0.062 H 
ATOM     22  H   LIG d   1       2.042   0.973  -6.958  0.00  0.00     0.062 H 
BRANCH  17  23
ATOM     23  C   LIG d   1       3.237   0.157  -2.550  0.00  0.00    -0.040 C 
ATOM     24  H   LIG d   1       3.438   1.199  -2.302  0.00  0.00     0.028 H 
ATOM     25  H   LIG d   1       2.221  -0.098  -2.249  0.00  0.00     0.028 H 
ATOM     26  H   LIG d   1       3.944  -0.485  -2.024  0.00  0.00     0.028 H 
ENDBRANCH  17  23
ENDBRANCH   1  13
BRANCH   1  27
ATOM     27  C   LIG d   1       4.624   0.540  -8.841  0.00  0.00    -0.003 C 
ATOM     28  H   LIG d   1       4.299   1.480  -8.397  0.00  0.00     0.033 H 
ATOM     29  H   LIG d   1       4.471   0.575  -9.920  0.00  0.00     0.033 H 
BRANCH  27  30
ATOM     30  C   LIG d   1       6.107   0.320  -8.543  0.00  0.00    -0.033 C 
ATOM     31  H   LIG d   1       6.239  -0.634  -8.031  0.00  0.00     0.081 H 
ATOM     32  H   LIG d   1       6.669   0.310  -9.478  0.00  0.00     0.081 H 
BRANCH  30  33
ATOM     33  N   LIG d   1       6.595   1.415  -7.683  0.00  0.00     0.230 N 
ATOM     34  H   LIG d   1       6.180   1.323  -6.749  0.00  0.00     0.202 HD
ATOM     35  H   LIG d   1       6.320   2.316  -8.092  0.00  0.00     0.202 HD
BRANCH  33  36
ATOM     36  C   LIG d   1       8.066   1.361  -7.569  0.00  0.00    -0.008 C 
ATOM     37  H   LIG d   1       8.397   0.324  -7.604  0.00  0.00     0.087 H 
ATOM     38  H   LIG d   1       8.516   1.915  -8.392  0.00  0.00     0.087 H 
BRANCH  36  39
ATOM     39  C   LIG d   1       8.482   1.978  -6.259  0.00  0.00    -0.003 A 
ATOM     40  C   LIG d   1       9.371   3.038  -6.247  0.00  0.00    -0.050 A 
ATOM     41  C   LIG d   1       9.754   3.605  -5.047  0.00  0.00    -0.019 A 
ATOM     42  H   LIG d   1       9.766   3.422  -7.176  0.00  0.00     0.062 H 
ATOM     43  C   LIG d   1       9.246   3.112  -3.854  0.00  0.00     0.120 A 
ATOM     44  H   LIG d   1      10.448   4.433  -5.037  0.00  0.00     0.065 H 
ATOM     45  C   LIG d   1       8.354   2.049  -3.869  0.00  0.00    -0.019 A 
ATOM     46  C   LIG d   1       7.970   1.489  -5.072  0.00  0.00    -0.050 A 
ATOM     47  H   LIG d   1       7.958   1.663  -2.942  0.00  0.00     0.065 H 
ATOM     48  H   LIG d   1       7.273   0.664  -5.084  0.00  0.00     0.062 H 
BRANCH  43  49
ATOM     49  O   LIG d   1       9.621   3.668  -2.673  0.00  0.00    -0.495 OA
BRANCH  49  50
ATOM     50  C   LIG d   1       9.959   5.057  -2.687  0.00  0.00     0.079 C 
ATOM     51  H   LIG d   1      10.880   5.212  -2.125  0.00  0.00     0.066 H 
ATOM     52  H   LIG d   1      10.102   5.385  -3.716  0.00  0.00     0.066 H 
ATOM     53  H   LIG d   1       9.154   5.631  -2.230  0.00  0.00     0.066 H 
ENDBRANCH  49  50
ENDBRANCH  43  49
ENDBRANCH  36  39
ENDBRANCH  33  36
ENDBRANCH  30  33
ENDBRANCH  27  30
ENDBRANCH   1  27
BRANCH   5  54
ATOM     54  C   LIG d   1       1.200  -1.025 -11.049  0.00  0.00    -0.036 C 
ATOM     55  H   LIG d   1       0.516  -0.339 -10.551  0.00  0.00     0.026 H 
ATOM     56  H   LIG d   1       1.275  -0.761 -12.104  0.00  0.00     0.026 H 
ATOM     57  H   LIG d   1       0.826  -2.045 -10.955  0.00  0.00     0.026 H 
ENDBRANCH   5  54
BRANCH   5  58
ATOM     58  C   LIG d   1       3.372   0.210 -11.050  0.00  0.00    -0.036 C 
ATOM     59  H   LIG d   1       3.543  -0.023 -12.102  0.00  0.00     0.026 H 
ATOM     60  H   LIG d   1       2.806   1.138 -10.971  0.00  0.00     0.026 H 
ATOM     61  H   LIG d   1       4.330   0.323 -10.544  0.00  0.00     0.026 H 
ENDBRANCH   5  58
TORSDOF 11
ENDMDL
MODEL 6
REMARK VINA RESULT:      -4.5      2.568      4.404
REMARK  11 active torsions:
REMARK  status: ('A' for Active; 'I' for Inactive)
REMARK    1  A    between atoms: C_1  and  C_2 
REMARK    2  A    between atoms: C_5  and  C_8 
REMARK    3  A    between atoms: C_8  and  C_16 
REMARK    4  A    between atoms: C_12  and  C_14 
REMARK    5  A    between atoms: C_12  and  C_15 
REMARK    6  A    between atoms: C_16  and  C_17 
REMARK    7  A    between atoms: C_17  and  N_59 
REMARK    8  A    between atoms: C_18  and  C_19 
REMARK    9  A    between atoms: C_18  and  N_59 
REMARK   10  A    between atoms: C_22  and  O_25 
REMARK   11  A    between atoms: O_25  and  C_26 
ROOT
ATOM      1  C   LIG d   1       5.718  -0.957  -4.577  0.00  0.00     0.005 C 
ATOM      2  C   LIG d   1       5.568  -2.338  -3.932  0.00  0.00    -0.019 C 
ATOM      3  C   LIG d   1       4.304  -2.356  -3.071  0.00  0.00     0.049 C 
ATOM      4  O   LIG d   1       4.382  -1.321  -2.088  0.00  0.00    -0.374 OA
ATOM      5  C   LIG d   1       4.477  -0.004  -2.635  0.00  0.00     0.065 C 
ATOM      6  C   LIG d   1       5.749   0.108  -3.478  0.00  0.00    -0.014 C 
ATOM      7  H   LIG d   1       5.490  -3.098  -4.710  0.00  0.00     0.030 H 
ATOM      8  H   LIG d   1       6.437  -2.544  -3.307  0.00  0.00     0.030 H 
ATOM      9  H   LIG d   1       4.215  -3.322  -2.575  0.00  0.00     0.056 H 
ATOM     10  H   LIG d   1       3.430  -2.190  -3.703  0.00  0.00     0.056 H 
ATOM     11  H   LIG d   1       6.621  -0.048  -2.843  0.00  0.00     0.030 H 
ATOM     12  H   LIG d   1       5.800   1.098  -3.931  0.00  0.00     0.030 H 
ENDROOT
BRANCH   1  13
ATOM     13  C   LIG d   1       7.001  -0.905  -5.367  0.00  0.00    -0.041 A 
ATOM     14  C   LIG d   1       7.600  -2.076  -5.793  0.00  0.00    -0.058 A 
ATOM     15  C   LIG d   1       8.776  -2.026  -6.517  0.00  0.00    -0.059 A 
ATOM     16  H   LIG d   1       7.149  -3.029  -5.558  0.00  0.00     0.062 H 
ATOM     17  C   LIG d   1       9.353  -0.807  -6.817  0.00  0.00    -0.050 A 
ATOM     18  H   LIG d   1       9.244  -2.941  -6.848  0.00  0.00     0.062 H 
ATOM     19  C   LIG d   1       8.754   0.365  -6.392  0.00  0.00    -0.059 A 
ATOM     20  C   LIG d   1       7.575   0.316  -5.671  0.00  0.00    -0.058 A 
ATOM     21  H   LIG d   1       9.205   1.317  -6.625  0.00  0.00     0.062 H 
ATOM     22  H   LIG d   1       7.105   1.230  -5.342  0.00  0.00     0.062 H 
BRANCH  17  23
ATOM     23  C   LIG d   1      10.636  -0.753  -7.606  0.00  0.00    -0.040 C 
ATOM     24  H   LIG d   1      10.418  -0.902  -8.663  0.00  0.00     0.028 H 
ATOM     25  H   LIG d   1      11.109   0.218  -7.465  0.00  0.00     0.028 H 
ATOM     26  H   LIG d   1      11.308  -1.539  -7.260  0.00  0.00     0.028 H 
ENDBRANCH  17  23
ENDBRANCH   1  13
BRANCH   1  27
ATOM     27  C   LIG d   1       4.533  -0.697  -5.510  0.00  0.00    -0.003 C 
ATOM     28  H   LIG d   1       4.677   0.253  -6.024  0.00  0.00     0.033 H 
ATOM     29  H   LIG d   1       3.614  -0.657  -4.925  0.00  0.00     0.033 H 
BRANCH  27  30
ATOM     30  C   LIG d   1       4.435  -1.824  -6.538  0.00  0.00    -0.033 C 
ATOM     31  H   LIG d   1       5.419  -2.012  -6.967  0.00  0.00     0.081 H 
ATOM     32  H   LIG d   1       4.073  -2.731  -6.051  0.00  0.00     0.081 H 
BRANCH  30  33
ATOM     33  N   LIG d   1       3.497  -1.426  -7.604  0.00  0.00     0.230 N 
ATOM     34  H   LIG d   1       3.219  -0.448  -7.464  0.00  0.00     0.202 HD
ATOM     35  H   LIG d   1       2.664  -2.027  -7.565  0.00  0.00     0.202 HD
BRANCH  33  36
ATOM     36  C   LIG d   1       4.136  -1.566  -8.927  0.00  0.00    -0.008 C 
ATOM     37  H   LIG d   1       4.615  -2.542  -9.001  0.00  0.00     0.087 H 
ATOM     38  H   LIG d   1       3.383  -1.469  -9.709  0.00  0.00     0.087 H 
BRANCH  36  39
ATOM     39  C   LIG d   1       5.172  -0.484  -9.091  0.00  0.00    -0.003 A 
ATOM     40  C   LIG d   1       6.448  -0.809  -9.516  0.00  0.00    -0.050 A 
ATOM     41  C   LIG d   1       7.399   0.182  -9.666  0.00  0.00    -0.019 A 
ATOM     42  H   LIG d   1       6.700  -1.836  -9.729  0.00  0.00     0.062 H 
ATOM     43  C   LIG d   1       7.075   1.502  -9.392  0.00  0.00     0.120 A 
ATOM     44  H   LIG d   1       8.396  -0.072  -9.998  0.00  0.00     0.065 H 
ATOM     45  C   LIG d   1       5.794   1.825  -8.965  0.00  0.00    -0.019 A 
ATOM     46  C   LIG d   1       4.845   0.832  -8.822  0.00  0.00    -0.050 A 
ATOM     47  H   LIG d   1       5.540   2.852  -8.751  0.00  0.00     0.065 H 
ATOM     48  H   LIG d   1       3.847   1.084  -8.494  0.00  0.00     0.062 H 
BRANCH  43  49
ATOM     49  O   LIG d   1       8.009   2.477  -9.539  0.00  0.00    -0.495 OA
BRANCH  49  50
ATOM     50  C   LIG d   1       9.351   2.058  -9.794  0.00  0.00     0.079 C 
ATOM     51  H   LIG d   1       9.509   1.066  -9.370  0.00  0.00     0.066 H 
ATOM     52  H   LIG d   1       9.523   2.024 -10.870  0.00  0.00     0.066 H 
ATOM     53  H   LIG d   1      10.045   2.763  -9.337  0.00  0.00     0.066 H 
ENDBRANCH  49  50
ENDBRANCH  43  49
ENDBRANCH  36  39
ENDBRANCH  33  36
ENDBRANCH  30  33
ENDBRANCH  27  30
ENDBRANCH   1  27
BRANCH   5  54
ATOM     54  C   LIG d   1       4.527   1.018  -1.496  0.00  0.00    -0.036 C 
ATOM     55  H   LIG d   1       3.585   1.563  -1.456  0.00  0.00     0.026 H 
ATOM     56  H   LIG d   1       4.689   0.501  -0.551  0.00  0.00     0.026 H 
ATOM     57  H   LIG d   1       5.345   1.717  -1.672  0.00  0.00     0.026 H 
ENDBRANCH   5  54
BRANCH   5  58
ATOM     58  C   LIG d   1       3.256   0.273  -3.514  0.00  0.00    -0.036 C 
ATOM     59  H   LIG d   1       2.721   1.142  -3.129  0.00  0.00     0.026 H 
ATOM     60  H   LIG d   1       3.580   0.470  -4.536  0.00  0.00     0.026 H 
ATOM     61  H   LIG d   1       2.596  -0.594  -3.503  0.00  0.00     0.026 H 
ENDBRANCH   5  58
TORSDOF 11
ENDMDL
MODEL 7
REMARK VINA RESULT:      -4.5      1.839      6.241
REMARK  11 active torsions:
REMARK  status: ('A' for Active; 'I' for Inactive)
REMARK    1  A    between atoms: C_1  and  C_2 
REMARK    2  A    between atoms: C_5  and  C_8 
REMARK    3  A    between atoms: C_8  and  C_16 
REMARK    4  A    between atoms: C_12  and  C_14 
REMARK    5  A    between atoms: C_12  and  C_15 
REMARK    6  A    between atoms: C_16  and  C_17 
REMARK    7  A    between atoms: C_17  and  N_59 
REMARK    8  A    between atoms: C_18  and  C_19 
REMARK    9  A    between atoms: C_18  and  N_59 
REMARK   10  A    between atoms: C_22  and  O_25 
REMARK   11  A    between atoms: O_25  and  C_26 
ROOT
ATOM      1  C   LIG d   1       4.113  -1.495  -8.919  0.00  0.00     0.005 C 
ATOM      2  C   LIG d   1       5.593  -1.102  -8.890  0.00  0.00    -0.019 C 
ATOM      3  C   LIG d   1       5.810  -0.038  -7.812  0.00  0.00     0.049 C 
ATOM      4  O   LIG d   1       4.970   1.088  -8.079  0.00  0.00    -0.374 OA
ATOM      5  C   LIG d   1       3.573   0.789  -8.071  0.00  0.00     0.065 C 
ATOM      6  C   LIG d   1       3.267  -0.242  -9.161  0.00  0.00    -0.014 C 
ATOM      7  H   LIG d   1       6.199  -1.979  -8.664  0.00  0.00     0.030 H 
ATOM      8  H   LIG d   1       5.881  -0.700  -9.861  0.00  0.00     0.030 H 
ATOM      9  H   LIG d   1       6.853   0.277  -7.816  0.00  0.00     0.056 H 
ATOM     10  H   LIG d   1       5.560  -0.453  -6.835  0.00  0.00     0.056 H 
ATOM     11  H   LIG d   1       3.508   0.178 -10.137  0.00  0.00     0.030 H 
ATOM     12  H   LIG d   1       2.210  -0.504  -9.127  0.00  0.00     0.030 H 
ENDROOT
BRANCH   1  13
ATOM     13  C   LIG d   1       3.875  -2.487 -10.028  0.00  0.00    -0.041 A 
ATOM     14  C   LIG d   1       4.912  -2.853 -10.865  0.00  0.00    -0.058 A 
ATOM     15  C   LIG d   1       4.693  -3.762 -11.882  0.00  0.00    -0.059 A 
ATOM     16  H   LIG d   1       5.895  -2.425 -10.724  0.00  0.00     0.062 H 
ATOM     17  C   LIG d   1       3.436  -4.308 -12.062  0.00  0.00    -0.050 A 
ATOM     18  H   LIG d   1       5.503  -4.046 -12.536  0.00  0.00     0.062 H 
ATOM     19  C   LIG d   1       2.397  -3.943 -11.225  0.00  0.00    -0.059 A 
ATOM     20  C   LIG d   1       2.618  -3.036 -10.205  0.00  0.00    -0.058 A 
ATOM     21  H   LIG d   1       1.416  -4.369 -11.366  0.00  0.00     0.062 H 
ATOM     22  H   LIG d   1       1.808  -2.755  -9.549  0.00  0.00     0.062 H 
BRANCH  17  23
ATOM     23  C   LIG d   1       3.196  -5.299 -13.172  0.00  0.00    -0.040 C 
ATOM     24  H   LIG d   1       3.865  -6.150 -13.048  0.00  0.00     0.028 H 
ATOM     25  H   LIG d   1       2.162  -5.641 -13.137  0.00  0.00     0.028 H 
ATOM     26  H   LIG d   1       3.389  -4.822 -14.133  0.00  0.00     0.028 H 
ENDBRANCH  17  23
ENDBRANCH   1  13
BRANCH   1  27
ATOM     27  C   LIG d   1       3.725  -2.124  -7.578  0.00  0.00    -0.003 C 
ATOM     28  H   LIG d   1       2.676  -2.418  -7.606  0.00  0.00     0.033 H 
ATOM     29  H   LIG d   1       3.878  -1.398  -6.780  0.00  0.00     0.033 H 
BRANCH  27  30
ATOM     30  C   LIG d   1       4.594  -3.355  -7.322  0.00  0.00    -0.033 C 
ATOM     31  H   LIG d   1       4.506  -4.045  -8.162  0.00  0.00     0.081 H 
ATOM     32  H   LIG d   1       5.635  -3.050  -7.212  0.00  0.00     0.081 H 
BRANCH  30  33
ATOM     33  N   LIG d   1       4.138  -4.020  -6.086  0.00  0.00     0.230 N 
ATOM     34  H   LIG d   1       3.849  -4.981  -6.305  0.00  0.00     0.202 HD
ATOM     35  H   LIG d   1       3.341  -3.503  -5.697  0.00  0.00     0.202 HD
BRANCH  33  36
ATOM     36  C   LIG d   1       5.228  -4.054  -5.092  0.00  0.00    -0.008 C 
ATOM     37  H   LIG d   1       5.158  -4.969  -4.504  0.00  0.00     0.087 H 
ATOM     38  H   LIG d   1       6.190  -4.021  -5.602  0.00  0.00     0.087 H 
BRANCH  36  39
ATOM     39  C   LIG d   1       5.101  -2.861  -4.180  0.00  0.00    -0.003 A 
ATOM     40  C   LIG d   1       6.020  -1.831  -4.260  0.00  0.00    -0.050 A 
ATOM     41  C   LIG d   1       5.905  -0.736  -3.425  0.00  0.00    -0.019 A 
ATOM     42  H   LIG d   1       6.827  -1.881  -4.976  0.00  0.00     0.062 H 
ATOM     43  C   LIG d   1       4.868  -0.670  -2.506  0.00  0.00     0.120 A 
ATOM     44  H   LIG d   1       6.622   0.070  -3.488  0.00  0.00     0.065 H 
ATOM     45  C   LIG d   1       3.948  -1.707  -2.428  0.00  0.00    -0.019 A 
ATOM     46  C   LIG d   1       4.064  -2.796  -3.269  0.00  0.00    -0.050 A 
ATOM     47  H   LIG d   1       3.140  -1.658  -1.713  0.00  0.00     0.065 H 
ATOM     48  H   LIG d   1       3.345  -3.601  -3.211  0.00  0.00     0.062 H 
BRANCH  43  49
ATOM     49  O   LIG d   1       4.753   0.405  -1.684  0.00  0.00    -0.495 OA
BRANCH  49  50
ATOM     50  C   LIG d   1       3.878   1.454  -2.105  0.00  0.00     0.079 C 
ATOM     51  H   LIG d   1       4.392   2.089  -2.826  0.00  0.00     0.066 H 
ATOM     52  H   LIG d   1       2.991   1.022  -2.569  0.00  0.00     0.066 H 
ATOM     53  H   LIG d   1       3.583   2.049  -1.241  0.00  0.00     0.066 H 
ENDBRANCH  49  50
ENDBRANCH  43  49
ENDBRANCH  36  39
ENDBRANCH  33  36
ENDBRANCH  30  33
ENDBRANCH  27  30
ENDBRANCH   1  27
BRANCH   5  54
ATOM     54  C   LIG d   1       2.776   2.067  -8.340  0.00  0.00    -0.036 C 
ATOM     55  H   LIG d   1       3.459   2.914  -8.400  0.00  0.00     0.026 H 
ATOM     56  H   LIG d   1       2.236   1.968  -9.281  0.00  0.00     0.026 H 
ATOM     57  H   LIG d   1       2.066   2.230  -7.529  0.00  0.00     0.026 H 
ENDBRANCH   5  54
BRANCH   5  58
ATOM     58  C   LIG d   1       3.180   0.221  -6.706  0.00  0.00    -0.036 C 
ATOM     59  H   LIG d   1       3.066   1.037  -5.993  0.00  0.00     0.026 H 
ATOM     60  H   LIG d   1       2.237  -0.319  -6.794  0.00  0.00     0.026 H 
ATOM     61  H   LIG d   1       3.957  -0.459  -6.358  0.00  0.00     0.026 H 
ENDBRANCH   5  58
TORSDOF 11
ENDMDL
MODEL 8
REMARK VINA RESULT:      -4.5      2.264      7.449
REMARK  11 active torsions:
REMARK  status: ('A' for Active; 'I' for Inactive)
REMARK    1  A    between atoms: C_1  and  C_2 
REMARK    2  A    between atoms: C_5  and  C_8 
REMARK    3  A    between atoms: C_8  and  C_16 
REMARK    4  A    between atoms: C_12  and  C_14 
REMARK    5  A    between atoms: C_12  and  C_15 
REMARK    6  A    between atoms: C_16  and  C_17 
REMARK    7  A    between atoms: C_17  and  N_59 
REMARK    8  A    between atoms: C_18  and  C_19 
REMARK    9  A    between atoms: C_18  and  N_59 
REMARK   10  A    between atoms: C_22  and  O_25 
REMARK   11  A    between atoms: O_25  and  C_26 
ROOT
ATOM      1  C   LIG d   1       3.478  -1.373 -12.808  0.00  0.00     0.005 C 
ATOM      2  C   LIG d   1       2.124  -1.985 -13.177  0.00  0.00    -0.019 C 
ATOM      3  C   LIG d   1       2.291  -2.863 -14.419  0.00  0.00     0.049 C 
ATOM      4  O   LIG d   1       2.825  -2.079 -15.488  0.00  0.00    -0.374 OA
ATOM      5  C   LIG d   1       4.111  -1.520 -15.216  0.00  0.00     0.065 C 
ATOM      6  C   LIG d   1       4.016  -0.587 -14.006  0.00  0.00    -0.014 C 
ATOM      7  H   LIG d   1       1.758  -2.591 -12.349  0.00  0.00     0.030 H 
ATOM      8  H   LIG d   1       1.410  -1.189 -13.389  0.00  0.00     0.030 H 
ATOM      9  H   LIG d   1       1.322  -3.267 -14.712  0.00  0.00     0.056 H 
ATOM     10  H   LIG d   1       2.974  -3.684 -14.195  0.00  0.00     0.056 H 
ATOM     11  H   LIG d   1       3.341   0.237 -14.235  0.00  0.00     0.030 H 
ATOM     12  H   LIG d   1       5.005  -0.195 -13.771  0.00  0.00     0.030 H 
ENDROOT
BRANCH   1  13
ATOM     13  C   LIG d   1       3.309  -0.446 -11.632  0.00  0.00    -0.041 A 
ATOM     14  C   LIG d   1       4.171   0.622 -11.463  0.00  0.00    -0.058 A 
ATOM     15  C   LIG d   1       4.016   1.471 -10.383  0.00  0.00    -0.059 A 
ATOM     16  H   LIG d   1       4.967   0.790 -12.173  0.00  0.00     0.062 H 
ATOM     17  C   LIG d   1       2.998   1.255  -9.474  0.00  0.00    -0.050 A 
ATOM     18  H   LIG d   1       4.691   2.304 -10.251  0.00  0.00     0.062 H 
ATOM     19  C   LIG d   1       2.135   0.189  -9.643  0.00  0.00    -0.059 A 
ATOM     20  C   LIG d   1       2.287  -0.659 -10.724  0.00  0.00    -0.058 A 
ATOM     21  H   LIG d   1       1.340   0.020  -8.933  0.00  0.00     0.062 H 
ATOM     22  H   LIG d   1       1.611  -1.489 -10.858  0.00  0.00     0.062 H 
BRANCH  17  23
ATOM     23  C   LIG d   1       2.830   2.182  -8.297  0.00  0.00    -0.040 C 
ATOM     24  H   LIG d   1       2.491   1.611  -7.432  0.00  0.00     0.028 H 
ATOM     25  H   LIG d   1       3.783   2.657  -8.069  0.00  0.00     0.028 H 
ATOM     26  H   LIG d   1       2.091   2.946  -8.540  0.00  0.00     0.028 H 
ENDBRANCH  17  23
ENDBRANCH   1  13
BRANCH   1  27
ATOM     27  C   LIG d   1       4.461  -2.488 -12.443  0.00  0.00    -0.003 C 
ATOM     28  H   LIG d   1       5.340  -2.055 -11.967  0.00  0.00     0.033 H 
ATOM     29  H   LIG d   1       4.760  -3.017 -13.348  0.00  0.00     0.033 H 
BRANCH  27  30
ATOM     30  C   LIG d   1       3.788  -3.465 -11.479  0.00  0.00    -0.033 C 
ATOM     31  H   LIG d   1       2.901  -3.000 -11.048  0.00  0.00     0.081 H 
ATOM     32  H   LIG d   1       3.498  -4.368 -12.019  0.00  0.00     0.081 H 
BRANCH  30  33
ATOM     33  N   LIG d   1       4.736  -3.813 -10.404  0.00  0.00     0.230 N 
ATOM     34  H   LIG d   1       5.198  -4.701 -10.633  0.00  0.00     0.202 HD
ATOM     35  H   LIG d   1       4.224  -3.913  -9.519  0.00  0.00     0.202 HD
BRANCH  33  36
ATOM     36  C   LIG d   1       5.757  -2.757 -10.259  0.00  0.00    -0.008 C 
ATOM     37  H   LIG d   1       6.744  -3.211 -10.177  0.00  0.00     0.087 H 
ATOM     38  H   LIG d   1       5.728  -2.099 -11.127  0.00  0.00     0.087 H 
BRANCH  36  39
ATOM     39  C   LIG d   1       5.467  -1.959  -9.014  0.00  0.00    -0.003 A 
ATOM     40  C   LIG d   1       6.228  -0.843  -8.717  0.00  0.00    -0.050 A 
ATOM     41  C   LIG d   1       5.963  -0.110  -7.576  0.00  0.00    -0.019 A 
ATOM     42  H   LIG d   1       7.028  -0.544  -9.376  0.00  0.00     0.062 H 
ATOM     43  C   LIG d   1       4.934  -0.493  -6.728  0.00  0.00     0.120 A 
ATOM     44  H   LIG d   1       6.558   0.762  -7.344  0.00  0.00     0.065 H 
ATOM     45  C   LIG d   1       4.173  -1.614  -7.029  0.00  0.00    -0.019 A 
ATOM     46  C   LIG d   1       4.437  -2.340  -8.173  0.00  0.00    -0.050 A 
ATOM     47  H   LIG d   1       3.371  -1.914  -6.371  0.00  0.00     0.065 H 
ATOM     48  H   LIG d   1       3.842  -3.210  -8.410  0.00  0.00     0.062 H 
BRANCH  43  49
ATOM     49  O   LIG d   1       4.673   0.226  -5.606  0.00  0.00    -0.495 OA
BRANCH  49  50
ATOM     50  C   LIG d   1       3.472  -0.088  -4.898  0.00  0.00     0.079 C 
ATOM     51  H   LIG d   1       2.616   0.316  -5.438  0.00  0.00     0.066 H 
ATOM     52  H   LIG d   1       3.372  -1.171  -4.816  0.00  0.00     0.066 H 
ATOM     53  H   LIG d   1       3.512   0.349  -3.901  0.00  0.00     0.066 H 
ENDBRANCH  49  50
ENDBRANCH  43  49
ENDBRANCH  36  39
ENDBRANCH  33  36
ENDBRANCH  30  33
ENDBRANCH  27  30
ENDBRANCH   1  27
BRANCH   5  54
ATOM     54  C   LIG d   1       4.592  -0.729 -16.435  0.00  0.00    -0.036 C 
ATOM     55  H   LIG d   1       4.106   0.246 -16.449  0.00  0.00     0.026 H 
ATOM     56  H   LIG d   1       5.672  -0.596 -16.379  0.00  0.00     0.026 H 
ATOM     57  H   LIG d   1       4.339  -1.274 -17.345  0.00  0.00     0.026 H 
ENDBRANCH   5  54
BRANCH   5  58
ATOM     58  C   LIG d   1       5.104  -2.645 -14.916  0.00  0.00    -0.036 C 
ATOM     59  H   LIG d   1       5.115  -2.843 -13.844  0.00  0.00     0.026 H 
ATOM     60  H   LIG d   1       4.802  -3.548 -15.448  0.00  0.00     0.026 H 
ATOM     61  H   LIG d   1       6.100  -2.348 -15.240  0.00  0.00     0.026 H 
ENDBRANCH   5  58
TORSDOF 11
ENDMDL
MODEL 9
REMARK VINA RESULT:      -4.4     10.367     14.059
REMARK  11 active torsions:
REMARK  status: ('A' for Active; 'I' for Inactive)
REMARK    1  A    between atoms: C_1  and  C_2 
REMARK    2  A    between atoms: C_5  and  C_8 
REMARK    3  A    between atoms: C_8  and  C_16 
REMARK    4  A    between atoms: C_12  and  C_14 
REMARK    5  A    between atoms: C_12  and  C_15 
REMARK    6  A    between atoms: C_16  and  C_17 
REMARK    7  A    between atoms: C_17  and  N_59 
REMARK    8  A    between atoms: C_18  and  C_19 
REMARK    9  A    between atoms: C_18  and  N_59 
REMARK   10  A    between atoms: C_22  and  O_25 
REMARK   11  A    between atoms: O_25  and  C_26 
ROOT
ATOM      1  C   LIG d   1      10.361   7.769  -5.839  0.00  0.00     0.005 C 
ATOM      2  C   LIG d   1      11.715   8.291  -6.328  0.00  0.00    -0.019 C 
ATOM      3  C   LIG d   1      11.598   8.696  -7.799  0.00  0.00     0.049 C 
ATOM      4  O   LIG d   1      11.157   7.575  -8.567  0.00  0.00    -0.374 OA
ATOM      5  C   LIG d   1       9.874   7.073  -8.185  0.00  0.00     0.065 C 
ATOM      6  C   LIG d   1       9.924   6.603  -6.729  0.00  0.00    -0.014 C 
ATOM      7  H   LIG d   1      12.009   9.157  -5.734  0.00  0.00     0.030 H 
ATOM      8  H   LIG d   1      12.466   7.508  -6.225  0.00  0.00     0.030 H 
ATOM      9  H   LIG d   1      12.569   9.029  -8.164  0.00  0.00     0.056 H 
ATOM     10  H   LIG d   1      10.876   9.508  -7.896  0.00  0.00     0.056 H 
ATOM     11  H   LIG d   1      10.638   5.785  -6.636  0.00  0.00     0.030 H 
ATOM     12  H   LIG d   1       8.936   6.261  -6.424  0.00  0.00     0.030 H 
ENDROOT
BRANCH   1  13
ATOM     13  C   LIG d   1      10.486   7.297  -4.414  0.00  0.00    -0.041 A 
ATOM     14  C   LIG d   1       9.407   6.704  -3.784  0.00  0.00    -0.058 A 
ATOM     15  C   LIG d   1       9.522   6.272  -2.476  0.00  0.00    -0.059 A 
ATOM     16  H   LIG d   1       8.474   6.583  -4.314  0.00  0.00     0.062 H 
ATOM     17  C   LIG d   1      10.716   6.429  -1.799  0.00  0.00    -0.050 A 
ATOM     18  H   LIG d   1       8.679   5.811  -1.984  0.00  0.00     0.062 H 
ATOM     19  C   LIG d   1      11.796   7.020  -2.429  0.00  0.00    -0.059 A 
ATOM     20  C   LIG d   1      11.683   7.450  -3.738  0.00  0.00    -0.058 A 
ATOM     21  H   LIG d   1      12.729   7.143  -1.899  0.00  0.00     0.062 H 
ATOM     22  H   LIG d   1      12.527   7.907  -4.230  0.00  0.00     0.062 H 
BRANCH  17  23
ATOM     23  C   LIG d   1      10.842   5.958  -0.373  0.00  0.00    -0.040 C 
ATOM     24  H   LIG d   1       9.855   5.698   0.011  0.00  0.00     0.028 H 
ATOM     25  H   LIG d   1      11.489   5.082  -0.335  0.00  0.00     0.028 H 
ATOM     26  H   LIG d   1      11.270   6.753   0.237  0.00  0.00     0.028 H 
ENDBRANCH  17  23
ENDBRANCH   1  13
BRANCH   1  27
ATOM     27  C   LIG d   1       9.322   8.890  -5.918  0.00  0.00    -0.003 C 
ATOM     28  H   LIG d   1       8.398   8.563  -5.442  0.00  0.00     0.033 H 
ATOM     29  H   LIG d   1       9.127   9.131  -6.963  0.00  0.00     0.033 H 
BRANCH  27  30
ATOM     30  C   LIG d   1       9.855  10.130  -5.199  0.00  0.00    -0.033 C 
ATOM     31  H   LIG d   1      10.781   9.882  -4.681  0.00  0.00     0.081 H 
ATOM     32  H   LIG d   1      10.047  10.919  -5.927  0.00  0.00     0.081 H 
BRANCH  30  33
ATOM     33  N   LIG d   1       8.850  10.592  -4.222  0.00  0.00     0.230 N 
ATOM     34  H   LIG d   1       8.515   9.790  -3.676  0.00  0.00     0.202 HD
ATOM     35  H   LIG d   1       8.061  11.018  -4.723  0.00  0.00     0.202 HD
BRANCH  33  36
ATOM     36  C   LIG d   1       9.443  11.589  -3.310  0.00  0.00    -0.008 C 
ATOM     37  H   LIG d   1      10.261  12.104  -3.813  0.00  0.00     0.087 H 
ATOM     38  H   LIG d   1       8.683  12.312  -3.015  0.00  0.00     0.087 H 
BRANCH  36  39
ATOM     39  C   LIG d   1       9.970  10.885  -2.086  0.00  0.00    -0.003 A 
ATOM     40  C   LIG d   1       9.114  10.137  -1.299  0.00  0.00    -0.050 A 
ATOM     41  C   LIG d   1       9.595   9.491  -0.176  0.00  0.00    -0.019 A 
ATOM     42  H   LIG d   1       8.070  10.057  -1.561  0.00  0.00     0.062 H 
ATOM     43  C   LIG d   1      10.936   9.593   0.162  0.00  0.00     0.120 A 
ATOM     44  H   LIG d   1       8.926   8.906   0.439  0.00  0.00     0.065 H 
ATOM     45  C   LIG d   1      11.793  10.345  -0.630  0.00  0.00    -0.019 A 
ATOM     46  C   LIG d   1      11.308  10.984  -1.754  0.00  0.00    -0.050 A 
ATOM     47  H   LIG d   1      12.837  10.426  -0.370  0.00  0.00     0.065 H 
ATOM     48  H   LIG d   1      11.975  11.566  -2.374  0.00  0.00     0.062 H 
BRANCH  43  49
ATOM     49  O   LIG d   1      11.411   8.959   1.265  0.00  0.00    -0.495 OA
BRANCH  49  50
ATOM     50  C   LIG d   1      12.185   9.738   2.179  0.00  0.00     0.079 C 
ATOM     51  H   LIG d   1      13.228   9.424   2.132  0.00  0.00     0.066 H 
ATOM     52  H   LIG d   1      12.111  10.792   1.911  0.00  0.00     0.066 H 
ATOM     53  H   LIG d   1      11.807   9.593   3.191  0.00  0.00     0.066 H 
ENDBRANCH  49  50
ENDBRANCH  43  49
ENDBRANCH  36  39
ENDBRANCH  33  36
ENDBRANCH  30  33
ENDBRANCH  27  30
ENDBRANCH   1  27
BRANCH   5  54
ATOM     54  C   LIG d   1       9.497   5.898  -9.089  0.00  0.00    -0.036 C 
ATOM     55  H   LIG d   1       9.923   4.979  -8.687  0.00  0.00     0.026 H 
ATOM     56  H   LIG d   1       8.412   5.807  -9.133  0.00  0.00     0.026 H 
ATOM     57  H   LIG d   1       9.887   6.071 -10.093  0.00  0.00     0.026 H 
ENDBRANCH   5  54
BRANCH   5  58
ATOM     58  C   LIG d   1       8.830   8.182  -8.328  0.00  0.00    -0.036 C 
ATOM     59  H   LIG d   1       8.221   7.995  -9.214  0.00  0.00     0.026 H 
ATOM     60  H   LIG d   1       8.190   8.196  -7.445  0.00  0.00     0.026 H 
ATOM     61  H   LIG d   1       9.331   9.144  -8.429  0.00  0.00     0.026 H 
ENDBRANCH   5  58
TORSDOF 11
ENDMDL
