MODEL 1
REMARK VINA RESULT:      -7.1      0.000      0.000
REMARK  4 active torsions:
REMARK  status: ('A' for Active; 'I' for Inactive)
REMARK    1  A    between atoms: C_1  and  C_2 
REMARK    2  A    between atoms: C_4  and  O_19 
REMARK    3  A    between atoms: C_11  and  C_12 
REMARK    4  A    between atoms: O_19  and  C_20 
REMARK       I    between atoms: C_20  and  N_22 
ROOT
ATOM      1  C   LIG d   1       5.204  -1.603  -3.145  0.00  0.00    -0.033 A 
ATOM      2  C   LIG d   1       6.459  -2.140  -3.071  0.00  0.00    -0.015 A 
ATOM      3  C   LIG d   1       7.290  -2.132  -4.188  0.00  0.00     0.137 A 
ATOM      4  C   LIG d   1       6.857  -1.584  -5.384  0.00  0.00     0.024 A 
ATOM      5  C   LIG d   1       5.584  -1.035  -5.476  0.00  0.00     0.143 A 
ATOM      6  C   LIG d   1       4.756  -1.047  -4.343  0.00  0.00     0.071 A 
ATOM      7  C   LIG d   1       3.493  -0.399  -4.744  0.00  0.00     0.232 A 
ATOM      8  O   LIG d   1       2.506  -0.201  -4.057  0.00  0.00    -0.283 OA
ATOM      9  C   LIG d   1       3.691  -0.049  -6.159  0.00  0.00     0.176 A 
ATOM     10  C   LIG d   1       2.794   0.569  -6.965  0.00  0.00    -0.007 C 
ATOM     11  O   LIG d   1       4.936  -0.449  -6.508  0.00  0.00    -0.451 OA
ATOM     12  H   LIG d   1       6.808  -2.570  -2.144  0.00  0.00     0.066 H 
ATOM     13  H   LIG d   1       7.509  -1.584  -6.246  0.00  0.00     0.069 H 
ATOM     14  H   LIG d   1       1.857   0.922  -6.559  0.00  0.00     0.066 H 
ENDROOT
BRANCH   3  15
ATOM     15  O   LIG d   1       8.534  -2.667  -4.104  0.00  0.00    -0.411 OA
BRANCH  15  16
ATOM     16  C   LIG d   1       8.678  -3.947  -4.498  0.00  0.00     0.408 C 
ATOM     17  O   LIG d   1       8.168  -4.325  -5.534  0.00  0.00    -0.226 OA
ATOM     18  N   LIG d   1       9.388  -4.809  -3.744  0.00  0.00    -0.263 N 
ATOM     19  C   LIG d   1       9.558  -6.212  -4.153  0.00  0.00     0.041 C 
ATOM     20  C   LIG d   1      10.019  -4.374  -2.488  0.00  0.00     0.041 C 
ATOM     21  C   LIG d   1       9.185  -7.111  -2.969  0.00  0.00     0.064 C 
ATOM     22  H   LIG d   1       8.905  -6.429  -4.999  0.00  0.00     0.049 H 
ATOM     23  H   LIG d   1      10.596  -6.389  -4.435  0.00  0.00     0.049 H 
ATOM     24  O   LIG d   1       9.916  -6.694  -1.813  0.00  0.00    -0.377 OA
ATOM     25  H   LIG d   1       8.116  -7.029  -2.773  0.00  0.00     0.058 H 
ATOM     26  H   LIG d   1       9.435  -8.146  -3.204  0.00  0.00     0.058 H 
ATOM     27  C   LIG d   1       9.620  -5.363  -1.382  0.00  0.00     0.064 C 
ATOM     28  H   LIG d   1       8.552  -5.277  -1.180  0.00  0.00     0.058 H 
ATOM     29  H   LIG d   1      10.182  -5.142  -0.475  0.00  0.00     0.058 H 
ATOM     30  H   LIG d   1      11.104  -4.369  -2.605  0.00  0.00     0.049 H 
ATOM     31  H   LIG d   1       9.673  -3.373  -2.230  0.00  0.00     0.049 H 
ENDBRANCH  15  16
ENDBRANCH   3  15
BRANCH   1  32
ATOM     32  C   LIG d   1       4.306  -1.614  -1.934  0.00  0.00    -0.039 C 
ATOM     33  H   LIG d   1       4.882  -1.914  -1.058  0.00  0.00     0.028 H 
ATOM     34  H   LIG d   1       3.898  -0.615  -1.776  0.00  0.00     0.028 H 
ATOM     35  H   LIG d   1       3.491  -2.319  -2.093  0.00  0.00     0.028 H 
ENDBRANCH   1  32
BRANCH  10  36
ATOM     36  C   LIG d   1       3.093   0.757  -8.392  0.00  0.00    -0.003 A 
ATOM     37  C   LIG d   1       2.902  -0.287  -9.304  0.00  0.00     0.035 A 
ATOM     38  N   LIG d   1       3.171  -0.115 -10.581  0.00  0.00    -0.263 NA
ATOM     39  H   LIG d   1       2.531  -1.240  -8.957  0.00  0.00     0.084 H 
ATOM     40  C   LIG d   1       3.627   1.031 -11.051  0.00  0.00     0.028 A 
ATOM     41  C   LIG d   1       3.843   2.113 -10.215  0.00  0.00    -0.043 A 
ATOM     42  H   LIG d   1       3.834   1.126 -12.107  0.00  0.00     0.083 H 
ATOM     43  C   LIG d   1       3.577   1.988  -8.864  0.00  0.00    -0.052 A 
ATOM     44  H   LIG d   1       4.215   3.044 -10.613  0.00  0.00     0.063 H 
ATOM     45  H   LIG d   1       3.737   2.816  -8.188  0.00  0.00     0.062 H 
ENDBRANCH  10  36
TORSDOF 4
ENDMDL
MODEL 2
REMARK VINA RESULT:      -6.8      6.336      8.787
REMARK  4 active torsions:
REMARK  status: ('A' for Active; 'I' for Inactive)
REMARK    1  A    between atoms: C_1  and  C_2 
REMARK    2  A    between atoms: C_4  and  O_19 
REMARK    3  A    between atoms: C_11  and  C_12 
REMARK    4  A    between atoms: O_19  and  C_20 
REMARK       I    between atoms: C_20  and  N_22 
ROOT
ATOM      1  C   LIG d   1       8.743   2.278  -6.484  0.00  0.00    -0.033 A 
ATOM      2  C   LIG d   1       8.132   1.095  -6.177  0.00  0.00    -0.015 A 
ATOM      3  C   LIG d   1       7.928   0.737  -4.847  0.00  0.00     0.137 A 
ATOM      4  C   LIG d   1       8.343   1.571  -3.822  0.00  0.00     0.024 A 
ATOM      5  C   LIG d   1       8.966   2.777  -4.116  0.00  0.00     0.143 A 
ATOM      6  C   LIG d   1       9.165   3.128  -5.461  0.00  0.00     0.071 A 
ATOM      7  C   LIG d   1       9.832   4.443  -5.453  0.00  0.00     0.232 A 
ATOM      8  O   LIG d   1      10.180   5.109  -6.413  0.00  0.00    -0.283 OA
ATOM      9  C   LIG d   1       9.988   4.769  -4.027  0.00  0.00     0.176 A 
ATOM     10  C   LIG d   1      10.556   5.890  -3.518  0.00  0.00    -0.007 C 
ATOM     11  O   LIG d   1       9.454   3.750  -3.314  0.00  0.00    -0.451 OA
ATOM     12  H   LIG d   1       7.805   0.436  -6.968  0.00  0.00     0.066 H 
ATOM     13  H   LIG d   1       8.181   1.284  -2.793  0.00  0.00     0.069 H 
ATOM     14  H   LIG d   1      10.876   6.682  -4.180  0.00  0.00     0.066 H 
ENDROOT
BRANCH   3  15
ATOM     15  O   LIG d   1       7.320  -0.440  -4.553  0.00  0.00    -0.411 OA
BRANCH  15  16
ATOM     16  C   LIG d   1       6.022  -0.560  -4.890  0.00  0.00     0.408 C 
ATOM     17  O   LIG d   1       5.711  -0.759  -6.048  0.00  0.00    -0.226 OA
ATOM     18  N   LIG d   1       5.067  -0.460  -3.945  0.00  0.00    -0.263 N 
ATOM     19  C   LIG d   1       3.642  -0.587  -4.290  0.00  0.00     0.041 C 
ATOM     20  C   LIG d   1       5.418  -0.225  -2.536  0.00  0.00     0.041 C 
ATOM     21  C   LIG d   1       2.890   0.607  -3.692  0.00  0.00     0.064 C 
ATOM     22  H   LIG d   1       3.526  -0.588  -5.374  0.00  0.00     0.049 H 
ATOM     23  H   LIG d   1       3.245  -1.514  -3.878  0.00  0.00     0.049 H 
ATOM     24  O   LIG d   1       3.200   0.707  -2.299  0.00  0.00    -0.377 OA
ATOM     25  H   LIG d   1       3.197   1.522  -4.199  0.00  0.00     0.058 H 
ATOM     26  H   LIG d   1       1.817   0.462  -3.816  0.00  0.00     0.058 H 
ATOM     27  C   LIG d   1       4.580   0.957  -2.023  0.00  0.00     0.064 C 
ATOM     28  H   LIG d   1       4.892   1.873  -2.525  0.00  0.00     0.058 H 
ATOM     29  H   LIG d   1       4.722   1.064  -0.947  0.00  0.00     0.058 H 
ATOM     30  H   LIG d   1       5.198  -1.117  -1.949  0.00  0.00     0.049 H 
ATOM     31  H   LIG d   1       6.479   0.014  -2.457  0.00  0.00     0.049 H 
ENDBRANCH  15  16
ENDBRANCH   3  15
BRANCH   1  32
ATOM     32  C   LIG d   1       8.963   2.663  -7.924  0.00  0.00    -0.039 C 
ATOM     33  H   LIG d   1       8.041   2.509  -8.486  0.00  0.00     0.028 H 
ATOM     34  H   LIG d   1       9.251   3.713  -7.980  0.00  0.00     0.028 H 
ATOM     35  H   LIG d   1       9.755   2.046  -8.348  0.00  0.00     0.028 H 
ENDBRANCH   1  32
BRANCH  10  36
ATOM     36  C   LIG d   1      10.738   6.028  -2.067  0.00  0.00    -0.003 A 
ATOM     37  C   LIG d   1       9.896   6.859  -1.318  0.00  0.00     0.035 A 
ATOM     38  N   LIG d   1      10.062   6.980  -0.017  0.00  0.00    -0.263 NA
ATOM     39  H   LIG d   1       9.105   7.403  -1.811  0.00  0.00     0.084 H 
ATOM     40  C   LIG d   1      11.015   6.336   0.628  0.00  0.00     0.028 A 
ATOM     41  C   LIG d   1      11.890   5.495  -0.039  0.00  0.00    -0.043 A 
ATOM     42  H   LIG d   1      11.115   6.466   1.696  0.00  0.00     0.083 H 
ATOM     43  C   LIG d   1      11.761   5.330  -1.406  0.00  0.00    -0.052 A 
ATOM     44  H   LIG d   1      12.665   4.974   0.503  0.00  0.00     0.063 H 
ATOM     45  H   LIG d   1      12.431   4.681  -1.951  0.00  0.00     0.062 H 
ENDBRANCH  10  36
TORSDOF 4
ENDMDL
MODEL 3
REMARK VINA RESULT:      -6.6      1.552      2.034
REMARK  4 active torsions:
REMARK  status: ('A' for Active; 'I' for Inactive)
REMARK    1  A    between atoms: C_1  and  C_2 
REMARK    2  A    between atoms: C_4  and  O_19 
REMARK    3  A    between atoms: C_11  and  C_12 
REMARK    4  A    between atoms: O_19  and  C_20 
REMARK       I    between atoms: C_20  and  N_22 
ROOT
ATOM      1  C   LIG d   1       5.186  -1.436  -3.149  0.00  0.00    -0.033 A 
ATOM      2  C   LIG d   1       6.438  -1.974  -3.043  0.00  0.00    -0.015 A 
ATOM      3  C   LIG d   1       7.265  -2.047  -4.161  0.00  0.00     0.137 A 
ATOM      4  C   LIG d   1       6.830  -1.579  -5.390  0.00  0.00     0.024 A 
ATOM      5  C   LIG d   1       5.559  -1.030  -5.515  0.00  0.00     0.143 A 
ATOM      6  C   LIG d   1       4.736  -0.960  -4.380  0.00  0.00     0.071 A 
ATOM      7  C   LIG d   1       3.475  -0.334  -4.820  0.00  0.00     0.232 A 
ATOM      8  O   LIG d   1       2.491  -0.084  -4.145  0.00  0.00    -0.283 OA
ATOM      9  C   LIG d   1       3.670  -0.082  -6.257  0.00  0.00     0.176 A 
ATOM     10  C   LIG d   1       2.772   0.485  -7.100  0.00  0.00    -0.007 C 
ATOM     11  O   LIG d   1       4.911  -0.512  -6.582  0.00  0.00    -0.451 OA
ATOM     12  H   LIG d   1       6.788  -2.342  -2.090  0.00  0.00     0.066 H 
ATOM     13  H   LIG d   1       7.478  -1.641  -6.252  0.00  0.00     0.069 H 
ATOM     14  H   LIG d   1       1.839   0.870  -6.715  0.00  0.00     0.066 H 
ENDROOT
BRANCH   3  15
ATOM     15  O   LIG d   1       8.506  -2.582  -4.046  0.00  0.00    -0.411 OA
BRANCH  15  16
ATOM     16  C   LIG d   1       8.750  -3.716  -4.730  0.00  0.00     0.408 C 
ATOM     17  O   LIG d   1       8.043  -4.690  -4.562  0.00  0.00    -0.226 OA
ATOM     18  N   LIG d   1       9.776  -3.771  -5.601  0.00  0.00    -0.263 N 
ATOM     19  C   LIG d   1      10.062  -5.000  -6.359  0.00  0.00     0.041 C 
ATOM     20  C   LIG d   1      10.642  -2.603  -5.826  0.00  0.00     0.041 C 
ATOM     21  C   LIG d   1      11.549  -5.335  -6.197  0.00  0.00     0.064 C 
ATOM     22  H   LIG d   1       9.456  -5.819  -5.972  0.00  0.00     0.049 H 
ATOM     23  H   LIG d   1       9.834  -4.842  -7.414  0.00  0.00     0.049 H 
ATOM     24  O   LIG d   1      12.329  -4.184  -6.534  0.00  0.00    -0.377 OA
ATOM     25  H   LIG d   1      11.747  -5.619  -5.164  0.00  0.00     0.058 H 
ATOM     26  H   LIG d   1      11.811  -6.159  -6.860  0.00  0.00     0.058 H 
ATOM     27  C   LIG d   1      12.104  -3.055  -5.686  0.00  0.00     0.064 C 
ATOM     28  H   LIG d   1      12.305  -3.333  -4.652  0.00  0.00     0.058 H 
ATOM     29  H   LIG d   1      12.767  -2.242  -5.981  0.00  0.00     0.058 H 
ATOM     30  H   LIG d   1      10.472  -2.207  -6.828  0.00  0.00     0.049 H 
ATOM     31  H   LIG d   1      10.422  -1.834  -5.085  0.00  0.00     0.049 H 
ENDBRANCH  15  16
ENDBRANCH   3  15
BRANCH   1  32
ATOM     32  C   LIG d   1       4.293  -1.359  -1.937  0.00  0.00    -0.039 C 
ATOM     33  H   LIG d   1       3.250  -1.358  -2.255  0.00  0.00     0.028 H 
ATOM     34  H   LIG d   1       4.477  -2.220  -1.295  0.00  0.00     0.028 H 
ATOM     35  H   LIG d   1       4.507  -0.443  -1.387  0.00  0.00     0.028 H 
ENDBRANCH   1  32
BRANCH  10  36
ATOM     36  C   LIG d   1       3.067   0.574  -8.537  0.00  0.00    -0.003 A 
ATOM     37  C   LIG d   1       2.760  -0.489  -9.395  0.00  0.00     0.035 A 
ATOM     38  N   LIG d   1       3.026  -0.406 -10.681  0.00  0.00    -0.263 NA
ATOM     39  H   LIG d   1       2.303  -1.383  -8.997  0.00  0.00     0.084 H 
ATOM     40  C   LIG d   1       3.584   0.665 -11.211  0.00  0.00     0.028 A 
ATOM     41  C   LIG d   1       3.918   1.759 -10.432  0.00  0.00    -0.043 A 
ATOM     42  H   LIG d   1       3.784   0.688 -12.273  0.00  0.00     0.083 H 
ATOM     43  C   LIG d   1       3.661   1.727  -9.074  0.00  0.00    -0.052 A 
ATOM     44  H   LIG d   1       4.374   2.629 -10.880  0.00  0.00     0.063 H 
ATOM     45  H   LIG d   1       3.913   2.566  -8.442  0.00  0.00     0.062 H 
ENDBRANCH  10  36
TORSDOF 4
ENDMDL
MODEL 4
REMARK VINA RESULT:      -6.6      6.198      8.203
REMARK  4 active torsions:
REMARK  status: ('A' for Active; 'I' for Inactive)
REMARK    1  A    between atoms: C_1  and  C_2 
REMARK    2  A    between atoms: C_4  and  O_19 
REMARK    3  A    between atoms: C_11  and  C_12 
REMARK    4  A    between atoms: O_19  and  C_20 
REMARK       I    between atoms: C_20  and  N_22 
ROOT
ATOM      1  C   LIG d   1       9.697   2.184  -6.286  0.00  0.00    -0.033 A 
ATOM      2  C   LIG d   1      10.118   3.268  -5.569  0.00  0.00    -0.015 A 
ATOM      3  C   LIG d   1       9.465   3.625  -4.393  0.00  0.00     0.137 A 
ATOM      4  C   LIG d   1       8.383   2.891  -3.936  0.00  0.00     0.024 A 
ATOM      5  C   LIG d   1       7.941   1.786  -4.654  0.00  0.00     0.143 A 
ATOM      6  C   LIG d   1       8.608   1.434  -5.838  0.00  0.00     0.071 A 
ATOM      7  C   LIG d   1       7.925   0.237  -6.360  0.00  0.00     0.232 A 
ATOM      8  O   LIG d   1       8.190  -0.393  -7.370  0.00  0.00    -0.283 OA
ATOM      9  C   LIG d   1       6.848  -0.025  -5.392  0.00  0.00     0.176 A 
ATOM     10  C   LIG d   1       5.943  -1.033  -5.453  0.00  0.00    -0.007 C 
ATOM     11  O   LIG d   1       6.928   0.920  -4.427  0.00  0.00    -0.451 OA
ATOM     12  H   LIG d   1      10.960   3.849  -5.915  0.00  0.00     0.066 H 
ATOM     13  H   LIG d   1       7.881   3.177  -3.023  0.00  0.00     0.069 H 
ATOM     14  H   LIG d   1       6.022  -1.784  -6.226  0.00  0.00     0.066 H 
ENDROOT
BRANCH   3  15
ATOM     15  O   LIG d   1       9.891   4.704  -3.687  0.00  0.00    -0.411 OA
BRANCH  15  16
ATOM     16  C   LIG d   1      10.615   4.462  -2.578  0.00  0.00     0.408 C 
ATOM     17  O   LIG d   1      10.959   3.327  -2.312  0.00  0.00    -0.226 OA
ATOM     18  N   LIG d   1      10.961   5.478  -1.763  0.00  0.00    -0.263 N 
ATOM     19  C   LIG d   1      11.752   5.238  -0.546  0.00  0.00     0.041 C 
ATOM     20  C   LIG d   1      10.562   6.861  -2.067  0.00  0.00     0.041 C 
ATOM     21  C   LIG d   1      11.043   5.915   0.633  0.00  0.00     0.064 C 
ATOM     22  H   LIG d   1      11.827   4.167  -0.363  0.00  0.00     0.049 H 
ATOM     23  H   LIG d   1      12.749   5.662  -0.666  0.00  0.00     0.049 H 
ATOM     24  O   LIG d   1      10.783   7.282   0.304  0.00  0.00    -0.377 OA
ATOM     25  H   LIG d   1      10.101   5.404   0.834  0.00  0.00     0.058 H 
ATOM     26  H   LIG d   1      11.680   5.868   1.517  0.00  0.00     0.058 H 
ATOM     27  C   LIG d   1       9.907   7.459  -0.812  0.00  0.00     0.064 C 
ATOM     28  H   LIG d   1       8.961   6.953  -0.615  0.00  0.00     0.058 H 
ATOM     29  H   LIG d   1       9.725   8.522  -0.966  0.00  0.00     0.058 H 
ATOM     30  H   LIG d   1      11.441   7.446  -2.339  0.00  0.00     0.049 H 
ATOM     31  H   LIG d   1       9.849   6.866  -2.892  0.00  0.00     0.049 H 
ENDBRANCH  15  16
ENDBRANCH   3  15
BRANCH   1  32
ATOM     32  C   LIG d   1      10.405   1.799  -7.560  0.00  0.00    -0.039 C 
ATOM     33  H   LIG d   1      11.474   1.703  -7.366  0.00  0.00     0.028 H 
ATOM     34  H   LIG d   1      10.014   0.847  -7.920  0.00  0.00     0.028 H 
ATOM     35  H   LIG d   1      10.239   2.569  -8.313  0.00  0.00     0.028 H 
ENDBRANCH   1  32
BRANCH  10  36
ATOM     36  C   LIG d   1       4.855  -1.105  -4.468  0.00  0.00    -0.003 A 
ATOM     37  C   LIG d   1       3.678  -0.369  -4.652  0.00  0.00     0.035 A 
ATOM     38  N   LIG d   1       2.704  -0.435  -3.768  0.00  0.00    -0.263 NA
ATOM     39  H   LIG d   1       3.569   0.258  -5.525  0.00  0.00     0.084 H 
ATOM     40  C   LIG d   1       2.793  -1.185  -2.687  0.00  0.00     0.028 A 
ATOM     41  C   LIG d   1       3.922  -1.944  -2.431  0.00  0.00    -0.043 A 
ATOM     42  H   LIG d   1       1.969  -1.208  -1.989  0.00  0.00     0.083 H 
ATOM     43  C   LIG d   1       4.976  -1.913  -3.326  0.00  0.00    -0.052 A 
ATOM     44  H   LIG d   1       3.980  -2.553  -1.543  0.00  0.00     0.063 H 
ATOM     45  H   LIG d   1       5.869  -2.494  -3.151  0.00  0.00     0.062 H 
ENDBRANCH  10  36
TORSDOF 4
ENDMDL
MODEL 5
REMARK VINA RESULT:      -6.5      7.533      9.567
REMARK  4 active torsions:
REMARK  status: ('A' for Active; 'I' for Inactive)
REMARK    1  A    between atoms: C_1  and  C_2 
REMARK    2  A    between atoms: C_4  and  O_19 
REMARK    3  A    between atoms: C_11  and  C_12 
REMARK    4  A    between atoms: O_19  and  C_20 
REMARK       I    between atoms: C_20  and  N_22 
ROOT
ATOM      1  C   LIG d   1      10.476   3.730  -5.730  0.00  0.00    -0.033 A 
ATOM      2  C   LIG d   1      11.045   4.667  -4.912  0.00  0.00    -0.015 A 
ATOM      3  C   LIG d   1      10.635   4.778  -3.586  0.00  0.00     0.137 A 
ATOM      4  C   LIG d   1       9.650   3.947  -3.081  0.00  0.00     0.024 A 
ATOM      5  C   LIG d   1       9.061   2.989  -3.899  0.00  0.00     0.143 A 
ATOM      6  C   LIG d   1       9.483   2.885  -5.233  0.00  0.00     0.071 A 
ATOM      7  C   LIG d   1       8.694   1.795  -5.835  0.00  0.00     0.232 A 
ATOM      8  O   LIG d   1       8.751   1.375  -6.978  0.00  0.00    -0.283 OA
ATOM      9  C   LIG d   1       7.819   1.329  -4.747  0.00  0.00     0.176 A 
ATOM     10  C   LIG d   1       6.904   0.332  -4.825  0.00  0.00    -0.007 C 
ATOM     11  O   LIG d   1       8.098   2.074  -3.652  0.00  0.00    -0.451 OA
ATOM     12  H   LIG d   1      11.814   5.321  -5.295  0.00  0.00     0.066 H 
ATOM     13  H   LIG d   1       9.338   4.042  -2.051  0.00  0.00     0.069 H 
ATOM     14  H   LIG d   1       6.822  -0.256  -5.728  0.00  0.00     0.066 H 
ENDROOT
BRANCH   3  15
ATOM     15  O   LIG d   1      11.206   5.711  -2.782  0.00  0.00    -0.411 OA
BRANCH  15  16
ATOM     16  C   LIG d   1      10.497   6.831  -2.545  0.00  0.00     0.408 C 
ATOM     17  O   LIG d   1       9.971   7.424  -3.467  0.00  0.00    -0.226 OA
ATOM     18  N   LIG d   1      10.369   7.295  -1.287  0.00  0.00    -0.263 N 
ATOM     19  C   LIG d   1       9.599   8.517  -1.004  0.00  0.00     0.041 C 
ATOM     20  C   LIG d   1      10.990   6.592  -0.154  0.00  0.00     0.041 C 
ATOM     21  C   LIG d   1      10.463   9.445  -0.143  0.00  0.00     0.064 C 
ATOM     22  H   LIG d   1       9.345   9.015  -1.940  0.00  0.00     0.049 H 
ATOM     23  H   LIG d   1       8.687   8.260  -0.465  0.00  0.00     0.049 H 
ATOM     24  O   LIG d   1      10.944   8.720   0.992  0.00  0.00    -0.377 OA
ATOM     25  H   LIG d   1      11.308   9.804  -0.730  0.00  0.00     0.058 H 
ATOM     26  H   LIG d   1       9.865  10.292   0.193  0.00  0.00     0.058 H 
ATOM     27  C   LIG d   1      11.791   7.616   0.666  0.00  0.00     0.064 C 
ATOM     28  H   LIG d   1      12.640   7.970   0.082  0.00  0.00     0.058 H 
ATOM     29  H   LIG d   1      12.149   7.149   1.583  0.00  0.00     0.058 H 
ATOM     30  H   LIG d   1      10.216   6.143   0.470  0.00  0.00     0.049 H 
ATOM     31  H   LIG d   1      11.658   5.814  -0.526  0.00  0.00     0.049 H 
ENDBRANCH  15  16
ENDBRANCH   3  15
BRANCH   1  32
ATOM     32  C   LIG d   1      10.921   3.612  -7.165  0.00  0.00    -0.039 C 
ATOM     33  H   LIG d   1      11.327   4.567  -7.499  0.00  0.00     0.028 H 
ATOM     34  H   LIG d   1      11.688   2.842  -7.245  0.00  0.00     0.028 H 
ATOM     35  H   LIG d   1      10.068   3.342  -7.787  0.00  0.00     0.028 H 
ENDBRANCH   1  32
BRANCH  10  36
ATOM     36  C   LIG d   1       6.024   0.050  -3.682  0.00  0.00    -0.003 A 
ATOM     37  C   LIG d   1       5.737  -1.269  -3.312  0.00  0.00     0.035 A 
ATOM     38  N   LIG d   1       4.948  -1.518  -2.288  0.00  0.00    -0.263 NA
ATOM     39  H   LIG d   1       6.165  -2.088  -3.871  0.00  0.00     0.084 H 
ATOM     40  C   LIG d   1       4.401  -0.551  -1.576  0.00  0.00     0.028 A 
ATOM     41  C   LIG d   1       4.635   0.780  -1.877  0.00  0.00    -0.043 A 
ATOM     42  H   LIG d   1       3.760  -0.803  -0.744  0.00  0.00     0.083 H 
ATOM     43  C   LIG d   1       5.456   1.099  -2.942  0.00  0.00    -0.052 A 
ATOM     44  H   LIG d   1       4.181   1.560  -1.285  0.00  0.00     0.063 H 
ATOM     45  H   LIG d   1       5.655   2.129  -3.199  0.00  0.00     0.062 H 
ENDBRANCH  10  36
TORSDOF 4
ENDMDL
MODEL 6
REMARK VINA RESULT:      -6.4      4.483      8.635
REMARK  4 active torsions:
REMARK  status: ('A' for Active; 'I' for Inactive)
REMARK    1  A    between atoms: C_1  and  C_2 
REMARK    2  A    between atoms: C_4  and  O_19 
REMARK    3  A    between atoms: C_11  and  C_12 
REMARK    4  A    between atoms: O_19  and  C_20 
REMARK       I    between atoms: C_20  and  N_22 
ROOT
ATOM      1  C   LIG d   1       4.084  -4.614  -7.669  0.00  0.00    -0.033 A 
ATOM      2  C   LIG d   1       4.390  -3.426  -7.069  0.00  0.00    -0.015 A 
ATOM      3  C   LIG d   1       4.975  -3.411  -5.805  0.00  0.00     0.137 A 
ATOM      4  C   LIG d   1       5.251  -4.596  -5.143  0.00  0.00     0.024 A 
ATOM      5  C   LIG d   1       4.945  -5.813  -5.740  0.00  0.00     0.143 A 
ATOM      6  C   LIG d   1       4.357  -5.816  -7.014  0.00  0.00     0.071 A 
ATOM      7  C   LIG d   1       4.160  -7.231  -7.379  0.00  0.00     0.232 A 
ATOM      8  O   LIG d   1       3.681  -7.677  -8.407  0.00  0.00    -0.283 OA
ATOM      9  C   LIG d   1       4.668  -7.984  -6.221  0.00  0.00     0.176 A 
ATOM     10  C   LIG d   1       4.695  -9.333  -6.091  0.00  0.00    -0.007 C 
ATOM     11  O   LIG d   1       5.111  -7.085  -5.312  0.00  0.00    -0.451 OA
ATOM     12  H   LIG d   1       4.180  -2.496  -7.575  0.00  0.00     0.066 H 
ATOM     13  H   LIG d   1       5.704  -4.575  -4.162  0.00  0.00     0.069 H 
ATOM     14  H   LIG d   1       4.392  -9.961  -6.917  0.00  0.00     0.066 H 
ENDROOT
BRANCH   3  15
ATOM     15  O   LIG d   1       5.276  -2.226  -5.217  0.00  0.00    -0.411 OA
BRANCH  15  16
ATOM     16  C   LIG d   1       4.603  -1.911  -4.094  0.00  0.00     0.408 C 
ATOM     17  O   LIG d   1       3.543  -2.453  -3.850  0.00  0.00    -0.226 OA
ATOM     18  N   LIG d   1       5.105  -0.998  -3.240  0.00  0.00    -0.263 N 
ATOM     19  C   LIG d   1       4.387  -0.638  -2.007  0.00  0.00     0.041 C 
ATOM     20  C   LIG d   1       6.389  -0.334  -3.511  0.00  0.00     0.041 C 
ATOM     21  C   LIG d   1       4.281   0.890  -1.936  0.00  0.00     0.064 C 
ATOM     22  H   LIG d   1       3.388  -1.074  -2.024  0.00  0.00     0.049 H 
ATOM     23  H   LIG d   1       4.936  -1.008  -1.141  0.00  0.00     0.049 H 
ATOM     24  O   LIG d   1       5.583   1.459  -2.103  0.00  0.00    -0.377 OA
ATOM     25  H   LIG d   1       3.624   1.246  -2.730  0.00  0.00     0.058 H 
ATOM     26  H   LIG d   1       3.877   1.183  -0.968  0.00  0.00     0.058 H 
ATOM     27  C   LIG d   1       6.185   1.183  -3.370  0.00  0.00     0.064 C 
ATOM     28  H   LIG d   1       5.534   1.541  -4.167  0.00  0.00     0.058 H 
ATOM     29  H   LIG d   1       7.149   1.688  -3.432  0.00  0.00     0.058 H 
ATOM     30  H   LIG d   1       7.138  -0.674  -2.794  0.00  0.00     0.049 H 
ATOM     31  H   LIG d   1       6.718  -0.568  -4.524  0.00  0.00     0.049 H 
ENDBRANCH  15  16
ENDBRANCH   3  15
BRANCH   1  32
ATOM     32  C   LIG d   1       3.450  -4.628  -9.037  0.00  0.00    -0.039 C 
ATOM     33  H   LIG d   1       3.738  -5.539  -9.561  0.00  0.00     0.028 H 
ATOM     34  H   LIG d   1       2.365  -4.594  -8.935  0.00  0.00     0.028 H 
ATOM     35  H   LIG d   1       3.789  -3.760  -9.602  0.00  0.00     0.028 H 
ENDBRANCH   1  32
BRANCH  10  36
ATOM     36  C   LIG d   1       5.134  -9.942  -4.828  0.00  0.00    -0.003 A 
ATOM     37  C   LIG d   1       4.201 -10.308  -3.851  0.00  0.00     0.035 A 
ATOM     38  N   LIG d   1       4.597 -10.854  -2.720  0.00  0.00    -0.263 NA
ATOM     39  H   LIG d   1       3.148 -10.141  -4.026  0.00  0.00     0.084 H 
ATOM     40  C   LIG d   1       5.871 -11.076  -2.462  0.00  0.00     0.028 A 
ATOM     41  C   LIG d   1       6.857 -10.744  -3.375  0.00  0.00    -0.043 A 
ATOM     42  H   LIG d   1       6.151 -11.526  -1.520  0.00  0.00     0.083 H 
ATOM     43  C   LIG d   1       6.497 -10.168  -4.580  0.00  0.00    -0.052 A 
ATOM     44  H   LIG d   1       7.895 -10.933  -3.150  0.00  0.00     0.063 H 
ATOM     45  H   LIG d   1       7.245  -9.898  -5.311  0.00  0.00     0.062 H 
ENDBRANCH  10  36
TORSDOF 4
ENDMDL
MODEL 7
REMARK VINA RESULT:      -6.4      5.283      9.662
REMARK  4 active torsions:
REMARK  status: ('A' for Active; 'I' for Inactive)
REMARK    1  A    between atoms: C_1  and  C_2 
REMARK    2  A    between atoms: C_4  and  O_19 
REMARK    3  A    between atoms: C_11  and  C_12 
REMARK    4  A    between atoms: O_19  and  C_20 
REMARK       I    between atoms: C_20  and  N_22 
ROOT
ATOM      1  C   LIG d   1       2.549  -1.933 -12.518  0.00  0.00    -0.033 A 
ATOM      2  C   LIG d   1       1.698  -2.974 -12.766  0.00  0.00    -0.015 A 
ATOM      3  C   LIG d   1       1.037  -3.603 -11.715  0.00  0.00     0.137 A 
ATOM      4  C   LIG d   1       1.234  -3.186 -10.408  0.00  0.00     0.024 A 
ATOM      5  C   LIG d   1       2.096  -2.130 -10.138  0.00  0.00     0.143 A 
ATOM      6  C   LIG d   1       2.755  -1.502 -11.207  0.00  0.00     0.071 A 
ATOM      7  C   LIG d   1       3.581  -0.434 -10.615  0.00  0.00     0.232 A 
ATOM      8  O   LIG d   1       4.309   0.354 -11.194  0.00  0.00    -0.283 OA
ATOM      9  C   LIG d   1       3.332  -0.534  -9.168  0.00  0.00     0.176 A 
ATOM     10  C   LIG d   1       3.878   0.248  -8.204  0.00  0.00    -0.007 C 
ATOM     11  O   LIG d   1       2.452  -1.544  -8.974  0.00  0.00    -0.451 OA
ATOM     12  H   LIG d   1       1.537  -3.308 -13.780  0.00  0.00     0.066 H 
ATOM     13  H   LIG d   1       0.717  -3.682  -9.599  0.00  0.00     0.069 H 
ATOM     14  H   LIG d   1       4.506   1.083  -8.479  0.00  0.00     0.066 H 
ENDROOT
BRANCH   3  15
ATOM     15  O   LIG d   1       0.194  -4.635 -11.972  0.00  0.00    -0.411 OA
BRANCH  15  16
ATOM     16  C   LIG d   1      -1.126  -4.378 -11.906  0.00  0.00     0.408 C 
ATOM     17  O   LIG d   1      -1.593  -3.434 -12.513  0.00  0.00    -0.226 OA
ATOM     18  N   LIG d   1      -1.931  -5.167 -11.168  0.00  0.00    -0.263 N 
ATOM     19  C   LIG d   1      -3.377  -4.906 -11.081  0.00  0.00     0.041 C 
ATOM     20  C   LIG d   1      -1.392  -6.319 -10.429  0.00  0.00     0.041 C 
ATOM     21  C   LIG d   1      -3.778  -4.891  -9.602  0.00  0.00     0.064 C 
ATOM     22  H   LIG d   1      -3.603  -3.939 -11.532  0.00  0.00     0.049 H 
ATOM     23  H   LIG d   1      -3.925  -5.691 -11.602  0.00  0.00     0.049 H 
ATOM     24  O   LIG d   1      -3.311  -6.089  -8.976  0.00  0.00    -0.377 OA
ATOM     25  H   LIG d   1      -3.331  -4.027  -9.112  0.00  0.00     0.058 H 
ATOM     26  H   LIG d   1      -4.864  -4.837  -9.519  0.00  0.00     0.058 H 
ATOM     27  C   LIG d   1      -1.888  -6.234  -8.977  0.00  0.00     0.064 C 
ATOM     28  H   LIG d   1      -1.436  -5.374  -8.484  0.00  0.00     0.058 H 
ATOM     29  H   LIG d   1      -1.615  -7.145  -8.444  0.00  0.00     0.058 H 
ATOM     30  H   LIG d   1      -1.742  -7.246 -10.885  0.00  0.00     0.049 H 
ATOM     31  H   LIG d   1      -0.302  -6.290 -10.448  0.00  0.00     0.049 H 
ENDBRANCH  15  16
ENDBRANCH   3  15
BRANCH   1  32
ATOM     32  C   LIG d   1       3.264  -1.254 -13.657  0.00  0.00    -0.039 C 
ATOM     33  H   LIG d   1       3.417  -1.968 -14.467  0.00  0.00     0.028 H 
ATOM     34  H   LIG d   1       2.662  -0.419 -14.017  0.00  0.00     0.028 H 
ATOM     35  H   LIG d   1       4.229  -0.884 -13.311  0.00  0.00     0.028 H 
ENDBRANCH   1  32
BRANCH  10  36
ATOM     36  C   LIG d   1       3.618  -0.041  -6.787  0.00  0.00    -0.003 A 
ATOM     37  C   LIG d   1       4.419  -0.948  -6.085  0.00  0.00     0.035 A 
ATOM     38  N   LIG d   1       4.184  -1.205  -4.816  0.00  0.00    -0.263 NA
ATOM     39  H   LIG d   1       5.237  -1.441  -6.590  0.00  0.00     0.084 H 
ATOM     40  C   LIG d   1       3.196  -0.627  -4.159  0.00  0.00     0.028 A 
ATOM     41  C   LIG d   1       2.358   0.282  -4.780  0.00  0.00    -0.043 A 
ATOM     42  H   LIG d   1       3.040  -0.868  -3.117  0.00  0.00     0.083 H 
ATOM     43  C   LIG d   1       2.560   0.589  -6.113  0.00  0.00    -0.052 A 
ATOM     44  H   LIG d   1       1.554   0.747  -4.229  0.00  0.00     0.063 H 
ATOM     45  H   LIG d   1       1.920   1.295  -6.622  0.00  0.00     0.062 H 
ENDBRANCH  10  36
TORSDOF 4
ENDMDL
MODEL 8
REMARK VINA RESULT:      -6.3      4.184      7.109
REMARK  4 active torsions:
REMARK  status: ('A' for Active; 'I' for Inactive)
REMARK    1  A    between atoms: C_1  and  C_2 
REMARK    2  A    between atoms: C_4  and  O_19 
REMARK    3  A    between atoms: C_11  and  C_12 
REMARK    4  A    between atoms: O_19  and  C_20 
REMARK       I    between atoms: C_20  and  N_22 
ROOT
ATOM      1  C   LIG d   1       3.762  -0.032 -10.194  0.00  0.00    -0.033 A 
ATOM      2  C   LIG d   1       4.332   0.221  -8.977  0.00  0.00    -0.015 A 
ATOM      3  C   LIG d   1       4.146  -0.665  -7.920  0.00  0.00     0.137 A 
ATOM      4  C   LIG d   1       3.383  -1.810  -8.085  0.00  0.00     0.024 A 
ATOM      5  C   LIG d   1       2.797  -2.082  -9.316  0.00  0.00     0.143 A 
ATOM      6  C   LIG d   1       2.992  -1.182 -10.375  0.00  0.00     0.071 A 
ATOM      7  C   LIG d   1       2.265  -1.736 -11.531  0.00  0.00     0.232 A 
ATOM      8  O   LIG d   1       2.180  -1.268 -12.654  0.00  0.00    -0.283 OA
ATOM      9  C   LIG d   1       1.662  -2.980 -11.026  0.00  0.00     0.176 A 
ATOM     10  C   LIG d   1       0.890  -3.842 -11.733  0.00  0.00    -0.007 C 
ATOM     11  O   LIG d   1       2.023  -3.110  -9.728  0.00  0.00    -0.451 OA
ATOM     12  H   LIG d   1       4.928   1.110  -8.836  0.00  0.00     0.066 H 
ATOM     13  H   LIG d   1       3.244  -2.491  -7.259  0.00  0.00     0.069 H 
ATOM     14  H   LIG d   1       0.733  -3.683 -12.790  0.00  0.00     0.066 H 
ENDROOT
BRANCH   3  15
ATOM     15  O   LIG d   1       4.716  -0.405  -6.716  0.00  0.00    -0.411 OA
BRANCH  15  16
ATOM     16  C   LIG d   1       3.884  -0.154  -5.687  0.00  0.00     0.408 C 
ATOM     17  O   LIG d   1       3.069   0.744  -5.769  0.00  0.00    -0.226 OA
ATOM     18  N   LIG d   1       3.955  -0.898  -4.566  0.00  0.00    -0.263 N 
ATOM     19  C   LIG d   1       3.057  -0.642  -3.428  0.00  0.00     0.041 C 
ATOM     20  C   LIG d   1       4.929  -1.994  -4.444  0.00  0.00     0.041 C 
ATOM     21  C   LIG d   1       3.906  -0.532  -2.156  0.00  0.00     0.064 C 
ATOM     22  H   LIG d   1       2.516   0.290  -3.591  0.00  0.00     0.049 H 
ATOM     23  H   LIG d   1       2.349  -1.465  -3.326  0.00  0.00     0.049 H 
ATOM     24  O   LIG d   1       4.750  -1.682  -2.053  0.00  0.00    -0.377 OA
ATOM     25  H   LIG d   1       4.520   0.367  -2.206  0.00  0.00     0.058 H 
ATOM     26  H   LIG d   1       3.252  -0.480  -1.286  0.00  0.00     0.058 H 
ATOM     27  C   LIG d   1       5.690  -1.815  -3.121  0.00  0.00     0.064 C 
ATOM     28  H   LIG d   1       6.311  -0.920  -3.173  0.00  0.00     0.058 H 
ATOM     29  H   LIG d   1       6.321  -2.686  -2.943  0.00  0.00     0.058 H 
ATOM     30  H   LIG d   1       4.407  -2.952  -4.443  0.00  0.00     0.049 H 
ATOM     31  H   LIG d   1       5.629  -1.958  -5.279  0.00  0.00     0.049 H 
ENDBRANCH  15  16
ENDBRANCH   3  15
BRANCH   1  32
ATOM     32  C   LIG d   1       3.964   0.929 -11.337  0.00  0.00    -0.039 C 
ATOM     33  H   LIG d   1       3.804   1.949 -10.985  0.00  0.00     0.028 H 
ATOM     34  H   LIG d   1       4.980   0.832 -11.719  0.00  0.00     0.028 H 
ATOM     35  H   LIG d   1       3.253   0.702 -12.131  0.00  0.00     0.028 H 
ENDBRANCH   1  32
BRANCH  10  36
ATOM     36  C   LIG d   1       0.266  -4.990 -11.062  0.00  0.00    -0.003 A 
ATOM     37  C   LIG d   1       0.891  -6.243 -11.064  0.00  0.00     0.035 A 
ATOM     38  N   LIG d   1       0.330  -7.270 -10.462  0.00  0.00    -0.263 NA
ATOM     39  H   LIG d   1       1.840  -6.367 -11.564  0.00  0.00     0.084 H 
ATOM     40  C   LIG d   1      -0.829  -7.167  -9.840  0.00  0.00     0.028 A 
ATOM     41  C   LIG d   1      -1.511  -5.964  -9.791  0.00  0.00    -0.043 A 
ATOM     42  H   LIG d   1      -1.252  -8.037  -9.360  0.00  0.00     0.083 H 
ATOM     43  C   LIG d   1      -0.968  -4.851 -10.407  0.00  0.00    -0.052 A 
ATOM     44  H   LIG d   1      -2.458  -5.894  -9.278  0.00  0.00     0.063 H 
ATOM     45  H   LIG d   1      -1.479  -3.900 -10.385  0.00  0.00     0.062 H 
ENDBRANCH  10  36
TORSDOF 4
ENDMDL
MODEL 9
REMARK VINA RESULT:      -6.3      3.955      5.777
REMARK  4 active torsions:
REMARK  status: ('A' for Active; 'I' for Inactive)
REMARK    1  A    between atoms: C_1  and  C_2 
REMARK    2  A    between atoms: C_4  and  O_19 
REMARK    3  A    between atoms: C_11  and  C_12 
REMARK    4  A    between atoms: O_19  and  C_20 
REMARK       I    between atoms: C_20  and  N_22 
ROOT
ATOM      1  C   LIG d   1       4.800  -5.895  -6.114  0.00  0.00    -0.033 A 
ATOM      2  C   LIG d   1       5.339  -5.025  -5.209  0.00  0.00    -0.015 A 
ATOM      3  C   LIG d   1       5.283  -3.653  -5.439  0.00  0.00     0.137 A 
ATOM      4  C   LIG d   1       4.684  -3.154  -6.584  0.00  0.00     0.024 A 
ATOM      5  C   LIG d   1       4.132  -4.026  -7.515  0.00  0.00     0.143 A 
ATOM      6  C   LIG d   1       4.194  -5.407  -7.272  0.00  0.00     0.071 A 
ATOM      7  C   LIG d   1       3.530  -6.061  -8.415  0.00  0.00     0.232 A 
ATOM      8  O   LIG d   1       3.362  -7.254  -8.597  0.00  0.00    -0.283 OA
ATOM      9  C   LIG d   1       3.119  -4.949  -9.288  0.00  0.00     0.176 A 
ATOM     10  C   LIG d   1       2.468  -5.058 -10.472  0.00  0.00    -0.007 C 
ATOM     11  O   LIG d   1       3.503  -3.797  -8.690  0.00  0.00    -0.451 OA
ATOM     12  H   LIG d   1       5.809  -5.402  -4.312  0.00  0.00     0.066 H 
ATOM     13  H   LIG d   1       4.647  -2.088  -6.754  0.00  0.00     0.069 H 
ATOM     14  H   LIG d   1       2.133  -6.026 -10.817  0.00  0.00     0.066 H 
ENDROOT
BRANCH   3  15
ATOM     15  O   LIG d   1       5.820  -2.796  -4.533  0.00  0.00    -0.411 OA
BRANCH  15  16
ATOM     16  C   LIG d   1       5.001  -2.328  -3.573  0.00  0.00     0.408 C 
ATOM     17  O   LIG d   1       3.962  -2.907  -3.324  0.00  0.00    -0.226 OA
ATOM     18  N   LIG d   1       5.333  -1.217  -2.886  0.00  0.00    -0.263 N 
ATOM     19  C   LIG d   1       4.453  -0.686  -1.832  0.00  0.00     0.041 C 
ATOM     20  C   LIG d   1       6.588  -0.501  -3.164  0.00  0.00     0.041 C 
ATOM     21  C   LIG d   1       4.229   0.807  -2.095  0.00  0.00     0.064 C 
ATOM     22  H   LIG d   1       3.498  -1.211  -1.853  0.00  0.00     0.049 H 
ATOM     23  H   LIG d   1       4.925  -0.820  -0.858  0.00  0.00     0.049 H 
ATOM     24  O   LIG d   1       5.495   1.453  -2.251  0.00  0.00    -0.377 OA
ATOM     25  H   LIG d   1       3.643   0.932  -3.006  0.00  0.00     0.058 H 
ATOM     26  H   LIG d   1       3.696   1.249  -1.254  0.00  0.00     0.058 H 
ATOM     27  C   LIG d   1       6.258   0.986  -3.367  0.00  0.00     0.064 C 
ATOM     28  H   LIG d   1       5.678   1.112  -4.281  0.00  0.00     0.058 H 
ATOM     29  H   LIG d   1       7.182   1.558  -3.440  0.00  0.00     0.058 H 
ATOM     30  H   LIG d   1       7.271  -0.617  -2.323  0.00  0.00     0.049 H 
ATOM     31  H   LIG d   1       7.047  -0.902  -4.068  0.00  0.00     0.049 H 
ENDBRANCH  15  16
ENDBRANCH   3  15
BRANCH   1  32
ATOM     32  C   LIG d   1       4.863  -7.380  -5.863  0.00  0.00    -0.039 C 
ATOM     33  H   LIG d   1       4.866  -7.567  -4.789  0.00  0.00     0.028 H 
ATOM     34  H   LIG d   1       3.995  -7.862  -6.314  0.00  0.00     0.028 H 
ATOM     35  H   LIG d   1       5.774  -7.784  -6.305  0.00  0.00     0.028 H 
ENDBRANCH   1  32
BRANCH  10  36
ATOM     36  C   LIG d   1       2.218  -3.861 -11.287  0.00  0.00    -0.003 A 
ATOM     37  C   LIG d   1       3.144  -3.451 -12.253  0.00  0.00     0.035 A 
ATOM     38  N   LIG d   1       2.918  -2.378 -12.982  0.00  0.00    -0.263 NA
ATOM     39  H   LIG d   1       4.051  -4.019 -12.401  0.00  0.00     0.084 H 
ATOM     40  C   LIG d   1       1.826  -1.653 -12.836  0.00  0.00     0.028 A 
ATOM     41  C   LIG d   1       0.860  -1.991 -11.903  0.00  0.00    -0.043 A 
ATOM     42  H   LIG d   1       1.682  -0.780 -13.456  0.00  0.00     0.083 H 
ATOM     43  C   LIG d   1       1.046  -3.108 -11.110  0.00  0.00    -0.052 A 
ATOM     44  H   LIG d   1      -0.028  -1.388 -11.796  0.00  0.00     0.063 H 
ATOM     45  H   LIG d   1       0.310  -3.395 -10.374  0.00  0.00     0.062 H 
ENDBRANCH  10  36
TORSDOF 4
ENDMDL
MODEL 10
REMARK VINA RESULT:      -6.3      3.514      7.927
REMARK  4 active torsions:
REMARK  status: ('A' for Active; 'I' for Inactive)
REMARK    1  A    between atoms: C_1  and  C_2 
REMARK    2  A    between atoms: C_4  and  O_19 
REMARK    3  A    between atoms: C_11  and  C_12 
REMARK    4  A    between atoms: O_19  and  C_20 
REMARK       I    between atoms: C_20  and  N_22 
ROOT
ATOM      1  C   LIG d   1       6.221  -5.497  -7.115  0.00  0.00    -0.033 A 
ATOM      2  C   LIG d   1       5.316  -5.577  -8.136  0.00  0.00    -0.015 A 
ATOM      3  C   LIG d   1       4.342  -4.593  -8.285  0.00  0.00     0.137 A 
ATOM      4  C   LIG d   1       4.277  -3.527  -7.403  0.00  0.00     0.024 A 
ATOM      5  C   LIG d   1       5.190  -3.431  -6.360  0.00  0.00     0.143 A 
ATOM      6  C   LIG d   1       6.168  -4.428  -6.220  0.00  0.00     0.071 A 
ATOM      7  C   LIG d   1       6.978  -4.053  -5.047  0.00  0.00     0.232 A 
ATOM      8  O   LIG d   1       7.936  -4.647  -4.581  0.00  0.00    -0.283 OA
ATOM      9  C   LIG d   1       6.370  -2.804  -4.562  0.00  0.00     0.176 A 
ATOM     10  C   LIG d   1       6.776  -2.078  -3.491  0.00  0.00    -0.007 C 
ATOM     11  O   LIG d   1       5.337  -2.508  -5.384  0.00  0.00    -0.451 OA
ATOM     12  H   LIG d   1       5.356  -6.404  -8.829  0.00  0.00     0.066 H 
ATOM     13  H   LIG d   1       3.516  -2.769  -7.526  0.00  0.00     0.069 H 
ATOM     14  H   LIG d   1       7.668  -2.363  -2.952  0.00  0.00     0.066 H 
ENDROOT
BRANCH   3  15
ATOM     15  O   LIG d   1       3.447  -4.681  -9.302  0.00  0.00    -0.411 OA
BRANCH  15  16
ATOM     16  C   LIG d   1       3.728  -3.995 -10.425  0.00  0.00     0.408 C 
ATOM     17  O   LIG d   1       4.745  -4.236 -11.046  0.00  0.00    -0.226 OA
ATOM     18  N   LIG d   1       2.883  -3.041 -10.863  0.00  0.00    -0.263 N 
ATOM     19  C   LIG d   1       3.170  -2.278 -12.088  0.00  0.00     0.041 C 
ATOM     20  C   LIG d   1       1.644  -2.735 -10.132  0.00  0.00     0.041 C 
ATOM     21  C   LIG d   1       3.031  -0.784 -11.772  0.00  0.00     0.064 C 
ATOM     22  H   LIG d   1       4.185  -2.490 -12.423  0.00  0.00     0.049 H 
ATOM     23  H   LIG d   1       2.461  -2.555 -12.868  0.00  0.00     0.049 H 
ATOM     24  O   LIG d   1       1.760  -0.549 -11.160  0.00  0.00    -0.377 OA
ATOM     25  H   LIG d   1       3.825  -0.482 -11.089  0.00  0.00     0.058 H 
ATOM     26  H   LIG d   1       3.103  -0.208 -12.694  0.00  0.00     0.058 H 
ATOM     27  C   LIG d   1       1.581  -1.216  -9.908  0.00  0.00     0.064 C 
ATOM     28  H   LIG d   1       2.370  -0.913  -9.220  0.00  0.00     0.058 H 
ATOM     29  H   LIG d   1       0.611  -0.948  -9.490  0.00  0.00     0.058 H 
ATOM     30  H   LIG d   1       0.782  -3.057 -10.718  0.00  0.00     0.049 H 
ATOM     31  H   LIG d   1       1.647  -3.249  -9.171  0.00  0.00     0.049 H 
ENDBRANCH  15  16
ENDBRANCH   3  15
BRANCH   1  32
ATOM     32  C   LIG d   1       7.274  -6.564  -6.955  0.00  0.00    -0.039 C 
ATOM     33  H   LIG d   1       8.262  -6.103  -6.971  0.00  0.00     0.028 H 
ATOM     34  H   LIG d   1       7.128  -7.079  -6.005  0.00  0.00     0.028 H 
ATOM     35  H   LIG d   1       7.193  -7.279  -7.773  0.00  0.00     0.028 H 
ENDBRANCH   1  32
BRANCH  10  36
ATOM     36  C   LIG d   1       6.001  -0.906  -3.062  0.00  0.00    -0.003 A 
ATOM     37  C   LIG d   1       6.415   0.387  -3.404  0.00  0.00     0.035 A 
ATOM     38  N   LIG d   1       5.718   1.435  -3.018  0.00  0.00    -0.263 NA
ATOM     39  H   LIG d   1       7.312   0.524  -3.990  0.00  0.00     0.084 H 
ATOM     40  C   LIG d   1       4.617   1.316  -2.302  0.00  0.00     0.028 A 
ATOM     41  C   LIG d   1       4.140   0.074  -1.922  0.00  0.00    -0.043 A 
ATOM     42  H   LIG d   1       4.078   2.205  -2.007  0.00  0.00     0.083 H 
ATOM     43  C   LIG d   1       4.832  -1.062  -2.300  0.00  0.00    -0.052 A 
ATOM     44  H   LIG d   1       3.237  -0.008  -1.336  0.00  0.00     0.063 H 
ATOM     45  H   LIG d   1       4.483  -2.044  -2.016  0.00  0.00     0.062 H 
ENDBRANCH  10  36
TORSDOF 4
ENDMDL
