MODEL 1
REMARK VINA RESULT:      -9.2      0.000      0.000
REMARK  2 active torsions:
REMARK  status: ('A' for Active; 'I' for Inactive)
REMARK    1  A    between atoms: C_9  and  C_12 
REMARK    2  A    between atoms: C_20  and  C_26 
ROOT
ATOM      1  C   LIG d   1      10.586   5.692  -2.341  0.00  0.00     0.075 A 
ATOM      2  C   LIG d   1      11.184   6.239  -3.475  0.00  0.00    -0.035 A 
ATOM      3  C   LIG d   1      10.982   5.683  -4.702  0.00  0.00    -0.051 A 
ATOM      4  C   LIG d   1      10.147   4.546  -4.788  0.00  0.00     0.001 A 
ATOM      5  C   LIG d   1       9.892   3.928  -6.010  0.00  0.00    -0.043 A 
ATOM      6  C   LIG d   1       9.061   2.811  -6.053  0.00  0.00     0.001 A 
ATOM      7  C   LIG d   1       8.777   2.156  -7.274  0.00  0.00    -0.051 A 
ATOM      8  C   LIG d   1       7.956   1.069  -7.242  0.00  0.00    -0.035 A 
ATOM      9  C   LIG d   1       7.416   0.621  -6.038  0.00  0.00     0.075 A 
ATOM     10  N   LIG d   1       7.662   1.209  -4.895  0.00  0.00    -0.246 NA
ATOM     11  C   LIG d   1       8.458   2.286  -4.824  0.00  0.00     0.074 A 
ATOM     12  C   LIG d   1       8.716   2.907  -3.602  0.00  0.00    -0.010 A 
ATOM     13  C   LIG d   1       9.546   4.026  -3.555  0.00  0.00     0.074 A 
ATOM     14  N   LIG d   1       9.808   4.641  -2.392  0.00  0.00    -0.246 NA
ATOM     15  H   LIG d   1      11.814   7.110  -3.381  0.00  0.00     0.064 H 
ATOM     16  H   LIG d   1      11.445   6.099  -5.585  0.00  0.00     0.062 H 
ATOM     17  H   LIG d   1      10.336   4.312  -6.918  0.00  0.00     0.063 H 
ATOM     18  H   LIG d   1       9.199   2.507  -8.204  0.00  0.00     0.062 H 
ATOM     19  H   LIG d   1       7.722   0.549  -8.159  0.00  0.00     0.064 H 
ATOM     20  H   LIG d   1       8.273   2.523  -2.696  0.00  0.00     0.066 H 
ENDROOT
BRANCH   1  21
ATOM     21  C   LIG d   1      10.842   6.338  -1.004  0.00  0.00     0.041 A 
ATOM     22  C   LIG d   1      10.072   7.633  -0.895  0.00  0.00    -0.087 A 
ATOM     23  C   LIG d   1      11.056   8.715  -0.713  0.00  0.00    -0.021 A 
ATOM     24  O   LIG d   1       8.867   7.759  -0.948  0.00  0.00    -0.873 OA
ATOM     25  C   LIG d   1      12.358   8.180  -0.702  0.00  0.00     0.029 A 
ATOM     26  C   LIG d   1      10.878  10.092  -0.562  0.00  0.00    -0.054 A 
ATOM     27  C   LIG d   1      13.451   9.034  -0.540  0.00  0.00    -0.050 A 
ATOM     28  C   LIG d   1      12.299   6.717  -0.877  0.00  0.00     0.195 A 
ATOM     29  C   LIG d   1      13.253  10.392  -0.386  0.00  0.00    -0.061 A 
ATOM     30  H   LIG d   1      14.453   8.631  -0.531  0.00  0.00     0.062 H 
ATOM     31  C   LIG d   1      11.973  10.920  -0.404  0.00  0.00    -0.061 A 
ATOM     32  H   LIG d   1      14.102  11.047  -0.257  0.00  0.00     0.062 H 
ATOM     33  H   LIG d   1      11.830  11.984  -0.287  0.00  0.00     0.062 H 
ATOM     34  O   LIG d   1      13.243   5.959  -0.913  0.00  0.00    -0.287 OA
ATOM     35  H   LIG d   1       9.883  10.511  -0.569  0.00  0.00     0.062 H 
ENDBRANCH   1  21
BRANCH   9  36
ATOM     36  C   LIG d   1       6.513  -0.586  -6.051  0.00  0.00     0.041 A 
ATOM     37  C   LIG d   1       6.754  -1.430  -4.823  0.00  0.00     0.195 A 
ATOM     38  C   LIG d   1       5.488  -1.482  -4.070  0.00  0.00     0.029 A 
ATOM     39  O   LIG d   1       7.796  -1.969  -4.514  0.00  0.00    -0.287 OA
ATOM     40  C   LIG d   1       4.502  -0.736  -4.743  0.00  0.00    -0.021 A 
ATOM     41  C   LIG d   1       5.166  -2.122  -2.872  0.00  0.00    -0.050 A 
ATOM     42  C   LIG d   1       5.067  -0.155  -5.975  0.00  0.00    -0.087 A 
ATOM     43  C   LIG d   1       3.216  -0.649  -4.203  0.00  0.00    -0.054 A 
ATOM     44  O   LIG d   1       4.481   0.539  -6.777  0.00  0.00    -0.873 OA
ATOM     45  C   LIG d   1       2.920  -1.291  -3.016  0.00  0.00    -0.061 A 
ATOM     46  H   LIG d   1       2.455  -0.079  -4.713  0.00  0.00     0.062 H 
ATOM     47  C   LIG d   1       3.889  -2.024  -2.354  0.00  0.00    -0.061 A 
ATOM     48  H   LIG d   1       1.924  -1.220  -2.602  0.00  0.00     0.062 H 
ATOM     49  H   LIG d   1       3.645  -2.521  -1.427  0.00  0.00     0.062 H 
ATOM     50  H   LIG d   1       5.916  -2.696  -2.348  0.00  0.00     0.062 H 
ENDBRANCH   9  36
TORSDOF 2
ENDMDL
MODEL 2
REMARK VINA RESULT:      -9.2      0.129     10.157
REMARK  2 active torsions:
REMARK  status: ('A' for Active; 'I' for Inactive)
REMARK    1  A    between atoms: C_9  and  C_12 
REMARK    2  A    between atoms: C_20  and  C_26 
ROOT
ATOM      1  C   LIG d   1       7.459   0.601  -5.944  0.00  0.00     0.075 A 
ATOM      2  C   LIG d   1       7.985   1.055  -7.152  0.00  0.00    -0.035 A 
ATOM      3  C   LIG d   1       8.780   2.160  -7.193  0.00  0.00    -0.051 A 
ATOM      4  C   LIG d   1       9.060   2.822  -5.975  0.00  0.00     0.001 A 
ATOM      5  C   LIG d   1       9.869   3.956  -5.940  0.00  0.00    -0.043 A 
ATOM      6  C   LIG d   1      10.124   4.578  -4.720  0.00  0.00     0.001 A 
ATOM      7  C   LIG d   1      10.940   5.730  -4.642  0.00  0.00    -0.051 A 
ATOM      8  C   LIG d   1      11.146   6.287  -3.416  0.00  0.00    -0.035 A 
ATOM      9  C   LIG d   1      10.565   5.733  -2.277  0.00  0.00     0.075 A 
ATOM     10  N   LIG d   1       9.806   4.669  -2.320  0.00  0.00    -0.246 NA
ATOM     11  C   LIG d   1       9.544   4.049  -3.482  0.00  0.00     0.074 A 
ATOM     12  C   LIG d   1       8.734   2.915  -3.521  0.00  0.00    -0.010 A 
ATOM     13  C   LIG d   1       8.478   2.288  -4.740  0.00  0.00     0.074 A 
ATOM     14  N   LIG d   1       7.703   1.195  -4.803  0.00  0.00    -0.246 NA
ATOM     15  H   LIG d   1       7.757   0.527  -8.066  0.00  0.00     0.064 H 
ATOM     16  H   LIG d   1       9.187   2.519  -8.126  0.00  0.00     0.062 H 
ATOM     17  H   LIG d   1      10.297   4.348  -6.851  0.00  0.00     0.063 H 
ATOM     18  H   LIG d   1      11.388   6.155  -5.528  0.00  0.00     0.062 H 
ATOM     19  H   LIG d   1      11.766   7.167  -3.326  0.00  0.00     0.064 H 
ATOM     20  H   LIG d   1       8.307   2.523  -2.610  0.00  0.00     0.066 H 
ENDROOT
BRANCH   1  21
ATOM     21  C   LIG d   1       6.580  -0.622  -5.949  0.00  0.00     0.041 A 
ATOM     22  C   LIG d   1       5.125  -0.218  -5.952  0.00  0.00    -0.087 A 
ATOM     23  C   LIG d   1       4.516  -0.763  -4.725  0.00  0.00    -0.021 A 
ATOM     24  O   LIG d   1       4.561   0.433  -6.805  0.00  0.00    -0.873 OA
ATOM     25  C   LIG d   1       5.484  -1.464  -3.982  0.00  0.00     0.029 A 
ATOM     26  C   LIG d   1       3.207  -0.680  -4.243  0.00  0.00    -0.054 A 
ATOM     27  C   LIG d   1       5.122  -2.065  -2.774  0.00  0.00    -0.050 A 
ATOM     28  C   LIG d   1       6.782  -1.416  -4.680  0.00  0.00     0.195 A 
ATOM     29  C   LIG d   1       3.821  -1.977  -2.318  0.00  0.00    -0.061 A 
ATOM     30  H   LIG d   1       5.860  -2.604  -2.197  0.00  0.00     0.062 H 
ATOM     31  C   LIG d   1       2.870  -1.282  -3.046  0.00  0.00    -0.061 A 
ATOM     32  H   LIG d   1       3.546  -2.447  -1.386  0.00  0.00     0.062 H 
ATOM     33  H   LIG d   1       1.857  -1.215  -2.678  0.00  0.00     0.062 H 
ATOM     34  O   LIG d   1       7.818  -1.920  -4.306  0.00  0.00    -0.287 OA
ATOM     35  H   LIG d   1       2.458  -0.145  -4.807  0.00  0.00     0.062 H 
ENDBRANCH   1  21
BRANCH   9  36
ATOM     36  C   LIG d   1      10.821   6.385  -0.942  0.00  0.00     0.041 A 
ATOM     37  C   LIG d   1      12.261   6.832  -0.847  0.00  0.00     0.195 A 
ATOM     38  C   LIG d   1      12.255   8.294  -0.665  0.00  0.00     0.029 A 
ATOM     39  O   LIG d   1      13.239   6.119  -0.908  0.00  0.00    -0.287 OA
ATOM     40  C   LIG d   1      10.930   8.768  -0.643  0.00  0.00    -0.021 A 
ATOM     41  C   LIG d   1      13.310   9.199  -0.524  0.00  0.00    -0.050 A 
ATOM     42  C   LIG d   1       9.993   7.641  -0.808  0.00  0.00    -0.087 A 
ATOM     43  C   LIG d   1      10.690  10.135  -0.479  0.00  0.00    -0.054 A 
ATOM     44  O   LIG d   1       8.783   7.710  -0.834  0.00  0.00    -0.873 OA
ATOM     45  C   LIG d   1      11.749  11.012  -0.342  0.00  0.00    -0.061 A 
ATOM     46  H   LIG d   1       9.676  10.506  -0.462  0.00  0.00     0.062 H 
ATOM     47  C   LIG d   1      13.052  10.547  -0.364  0.00  0.00    -0.061 A 
ATOM     48  H   LIG d   1      11.558  12.068  -0.215  0.00  0.00     0.062 H 
ATOM     49  H   LIG d   1      13.871  11.241  -0.254  0.00  0.00     0.062 H 
ATOM     50  H   LIG d   1      14.330   8.844  -0.541  0.00  0.00     0.062 H 
ENDBRANCH   9  36
TORSDOF 2
ENDMDL
MODEL 3
REMARK VINA RESULT:      -9.0      7.246     10.876
REMARK  2 active torsions:
REMARK  status: ('A' for Active; 'I' for Inactive)
REMARK    1  A    between atoms: C_9  and  C_12 
REMARK    2  A    between atoms: C_20  and  C_26 
ROOT
ATOM      1  C   LIG d   1       4.516  -1.981  -7.190  0.00  0.00     0.075 A 
ATOM      2  C   LIG d   1       3.966  -2.054  -8.469  0.00  0.00    -0.035 A 
ATOM      3  C   LIG d   1       3.714  -3.260  -9.050  0.00  0.00    -0.051 A 
ATOM      4  C   LIG d   1       4.019  -4.428  -8.314  0.00  0.00     0.001 A 
ATOM      5  C   LIG d   1       3.783  -5.696  -8.842  0.00  0.00    -0.043 A 
ATOM      6  C   LIG d   1       4.094  -6.822  -8.085  0.00  0.00     0.001 A 
ATOM      7  C   LIG d   1       3.870  -8.125  -8.585  0.00  0.00    -0.051 A 
ATOM      8  C   LIG d   1       4.198  -9.182  -7.790  0.00  0.00    -0.035 A 
ATOM      9  C   LIG d   1       4.739  -8.977  -6.522  0.00  0.00     0.075 A 
ATOM     10  N   LIG d   1       4.957  -7.782  -6.035  0.00  0.00    -0.246 NA
ATOM     11  C   LIG d   1       4.666  -6.679  -6.743  0.00  0.00     0.074 A 
ATOM     12  C   LIG d   1       4.901  -5.410  -6.217  0.00  0.00    -0.010 A 
ATOM     13  C   LIG d   1       4.590  -4.279  -6.972  0.00  0.00     0.074 A 
ATOM     14  N   LIG d   1       4.806  -3.047  -6.487  0.00  0.00    -0.246 NA
ATOM     15  H   LIG d   1       3.740  -1.144  -9.006  0.00  0.00     0.064 H 
ATOM     16  H   LIG d   1       3.292  -3.322 -10.042  0.00  0.00     0.062 H 
ATOM     17  H   LIG d   1       3.362  -5.803  -9.832  0.00  0.00     0.063 H 
ATOM     18  H   LIG d   1       3.450  -8.279  -9.568  0.00  0.00     0.062 H 
ATOM     19  H   LIG d   1       4.037 -10.189  -8.146  0.00  0.00     0.064 H 
ATOM     20  H   LIG d   1       5.322  -5.302  -5.229  0.00  0.00     0.066 H 
ENDROOT
BRANCH   1  21
ATOM     21  C   LIG d   1       4.782  -0.625  -6.591  0.00  0.00     0.041 A 
ATOM     22  C   LIG d   1       5.811  -0.734  -5.491  0.00  0.00    -0.087 A 
ATOM     23  C   LIG d   1       5.171  -0.278  -4.244  0.00  0.00    -0.021 A 
ATOM     24  O   LIG d   1       6.953  -1.124  -5.612  0.00  0.00    -0.873 OA
ATOM     25  C   LIG d   1       3.839   0.097  -4.500  0.00  0.00     0.029 A 
ATOM     26  C   LIG d   1       5.675  -0.180  -2.945  0.00  0.00    -0.054 A 
ATOM     27  C   LIG d   1       3.042   0.563  -3.452  0.00  0.00    -0.050 A 
ATOM     28  C   LIG d   1       3.533  -0.092  -5.930  0.00  0.00     0.195 A 
ATOM     29  C   LIG d   1       3.562   0.659  -2.176  0.00  0.00    -0.061 A 
ATOM     30  H   LIG d   1       2.019   0.853  -3.641  0.00  0.00     0.062 H 
ATOM     31  C   LIG d   1       4.870   0.283  -1.922  0.00  0.00    -0.061 A 
ATOM     32  H   LIG d   1       2.942   1.023  -1.370  0.00  0.00     0.062 H 
ATOM     33  H   LIG d   1       5.265   0.358  -0.919  0.00  0.00     0.062 H 
ATOM     34  O   LIG d   1       2.475   0.138  -6.474  0.00  0.00    -0.287 OA
ATOM     35  H   LIG d   1       6.696  -0.465  -2.740  0.00  0.00     0.062 H 
ENDBRANCH   1  21
BRANCH   9  36
ATOM     36  C   LIG d   1       5.087 -10.176  -5.678  0.00  0.00     0.041 A 
ATOM     37  C   LIG d   1       6.586 -10.346  -5.607  0.00  0.00     0.195 A 
ATOM     38  C   LIG d   1       6.974 -10.232  -4.190  0.00  0.00     0.029 A 
ATOM     39  O   LIG d   1       7.332 -10.541  -6.543  0.00  0.00    -0.287 OA
ATOM     40  C   LIG d   1       5.831 -10.007  -3.399  0.00  0.00    -0.021 A 
ATOM     41  C   LIG d   1       8.227 -10.313  -3.579  0.00  0.00    -0.050 A 
ATOM     42  C   LIG d   1       4.631  -9.961  -4.255  0.00  0.00    -0.087 A 
ATOM     43  C   LIG d   1       5.969  -9.868  -2.015  0.00  0.00    -0.054 A 
ATOM     44  O   LIG d   1       3.491  -9.783  -3.884  0.00  0.00    -0.873 OA
ATOM     45  C   LIG d   1       7.218  -9.950  -1.432  0.00  0.00    -0.061 A 
ATOM     46  H   LIG d   1       5.097  -9.694  -1.402  0.00  0.00     0.062 H 
ATOM     47  C   LIG d   1       8.342 -10.172  -2.209  0.00  0.00    -0.061 A 
ATOM     48  H   LIG d   1       7.319  -9.842  -0.361  0.00  0.00     0.062 H 
ATOM     49  H   LIG d   1       9.313 -10.235  -1.742  0.00  0.00     0.062 H 
ATOM     50  H   LIG d   1       9.109 -10.484  -4.178  0.00  0.00     0.062 H 
ENDBRANCH   9  36
TORSDOF 2
ENDMDL
MODEL 4
REMARK VINA RESULT:      -8.9      1.988      2.990
REMARK  2 active torsions:
REMARK  status: ('A' for Active; 'I' for Inactive)
REMARK    1  A    between atoms: C_9  and  C_12 
REMARK    2  A    between atoms: C_20  and  C_26 
ROOT
ATOM      1  C   LIG d   1      11.045   5.368  -5.631  0.00  0.00     0.075 A 
ATOM      2  C   LIG d   1      11.289   5.622  -6.979  0.00  0.00    -0.035 A 
ATOM      3  C   LIG d   1      10.683   4.880  -7.947  0.00  0.00    -0.051 A 
ATOM      4  C   LIG d   1       9.797   3.856  -7.542  0.00  0.00     0.001 A 
ATOM      5  C   LIG d   1       9.137   3.061  -8.476  0.00  0.00    -0.043 A 
ATOM      6  C   LIG d   1       8.270   2.063  -8.037  0.00  0.00     0.001 A 
ATOM      7  C   LIG d   1       7.581   1.235  -8.953  0.00  0.00    -0.051 A 
ATOM      8  C   LIG d   1       6.749   0.280  -8.454  0.00  0.00    -0.035 A 
ATOM      9  C   LIG d   1       6.587   0.128  -7.078  0.00  0.00     0.075 A 
ATOM     10  N   LIG d   1       7.211   0.880  -6.208  0.00  0.00    -0.246 NA
ATOM     11  C   LIG d   1       8.052   1.848  -6.603  0.00  0.00     0.074 A 
ATOM     12  C   LIG d   1       8.714   2.646  -5.671  0.00  0.00    -0.010 A 
ATOM     13  C   LIG d   1       9.582   3.646  -6.106  0.00  0.00     0.074 A 
ATOM     14  N   LIG d   1      10.229   4.427  -5.228  0.00  0.00    -0.246 NA
ATOM     15  H   LIG d   1      11.968   6.414  -7.260  0.00  0.00     0.064 H 
ATOM     16  H   LIG d   1      10.871   5.070  -8.993  0.00  0.00     0.062 H 
ATOM     17  H   LIG d   1       9.297   3.217  -9.533  0.00  0.00     0.063 H 
ATOM     18  H   LIG d   1       7.712   1.358 -10.019  0.00  0.00     0.062 H 
ATOM     19  H   LIG d   1       6.210  -0.367  -9.131  0.00  0.00     0.064 H 
ATOM     20  H   LIG d   1       8.555   2.490  -4.614  0.00  0.00     0.066 H 
ENDROOT
BRANCH   1  21
ATOM     21  C   LIG d   1      11.743   6.212  -4.596  0.00  0.00     0.041 A 
ATOM     22  C   LIG d   1      12.469   5.329  -3.607  0.00  0.00    -0.087 A 
ATOM     23  C   LIG d   1      11.891   5.593  -2.278  0.00  0.00    -0.021 A 
ATOM     24  O   LIG d   1      13.362   4.549  -3.861  0.00  0.00    -0.873 OA
ATOM     25  C   LIG d   1      10.875   6.562  -2.381  0.00  0.00     0.029 A 
ATOM     26  C   LIG d   1      12.195   5.047  -1.028  0.00  0.00    -0.054 A 
ATOM     27  C   LIG d   1      10.188   6.964  -1.233  0.00  0.00    -0.050 A 
ATOM     28  C   LIG d   1      10.731   6.987  -3.785  0.00  0.00     0.195 A 
ATOM     29  C   LIG d   1      10.510   6.417  -0.006  0.00  0.00    -0.061 A 
ATOM     30  H   LIG d   1       9.408   7.707  -1.305  0.00  0.00     0.062 H 
ATOM     31  C   LIG d   1      11.503   5.458   0.095  0.00  0.00    -0.061 A 
ATOM     32  H   LIG d   1       9.978   6.734   0.878  0.00  0.00     0.062 H 
ATOM     33  H   LIG d   1      11.743   5.034   1.059  0.00  0.00     0.062 H 
ATOM     34  O   LIG d   1       9.948   7.807  -4.211  0.00  0.00    -0.287 OA
ATOM     35  H   LIG d   1      12.973   4.304  -0.940  0.00  0.00     0.062 H 
ENDBRANCH   1  21
BRANCH   9  36
ATOM     36  C   LIG d   1       5.656  -0.944  -6.571  0.00  0.00     0.041 A 
ATOM     37  C   LIG d   1       6.243  -1.609  -5.349  0.00  0.00     0.195 A 
ATOM     38  C   LIG d   1       5.307  -1.383  -4.233  0.00  0.00     0.029 A 
ATOM     39  O   LIG d   1       7.290  -2.219  -5.297  0.00  0.00    -0.287 OA
ATOM     40  C   LIG d   1       4.203  -0.634  -4.681  0.00  0.00    -0.021 A 
ATOM     41  C   LIG d   1       5.370  -1.783  -2.897  0.00  0.00    -0.050 A 
ATOM     42  C   LIG d   1       4.353  -0.329  -6.116  0.00  0.00    -0.087 A 
ATOM     43  C   LIG d   1       3.186  -0.304  -3.781  0.00  0.00    -0.054 A 
ATOM     44  O   LIG d   1       3.577   0.300  -6.802  0.00  0.00    -0.873 OA
ATOM     45  C   LIG d   1       3.268  -0.709  -2.463  0.00  0.00    -0.061 A 
ATOM     46  H   LIG d   1       2.335   0.271  -4.117  0.00  0.00     0.062 H 
ATOM     47  C   LIG d   1       4.354  -1.445  -2.023  0.00  0.00    -0.061 A 
ATOM     48  H   LIG d   1       2.479  -0.451  -1.772  0.00  0.00     0.062 H 
ATOM     49  H   LIG d   1       4.407  -1.758  -0.991  0.00  0.00     0.062 H 
ATOM     50  H   LIG d   1       6.214  -2.357  -2.544  0.00  0.00     0.062 H 
ENDBRANCH   9  36
TORSDOF 2
ENDMDL
MODEL 5
REMARK VINA RESULT:      -8.9      7.441     13.312
REMARK  2 active torsions:
REMARK  status: ('A' for Active; 'I' for Inactive)
REMARK    1  A    between atoms: C_9  and  C_12 
REMARK    2  A    between atoms: C_20  and  C_26 
ROOT
ATOM      1  C   LIG d   1       4.678  -9.255  -6.516  0.00  0.00     0.075 A 
ATOM      2  C   LIG d   1       4.181  -9.447  -7.804  0.00  0.00    -0.035 A 
ATOM      3  C   LIG d   1       3.904  -8.383  -8.607  0.00  0.00    -0.051 A 
ATOM      4  C   LIG d   1       4.144  -7.086  -8.099  0.00  0.00     0.001 A 
ATOM      5  C   LIG d   1       3.889  -5.951  -8.865  0.00  0.00    -0.043 A 
ATOM      6  C   LIG d   1       4.141  -4.691  -8.330  0.00  0.00     0.001 A 
ATOM      7  C   LIG d   1       3.896  -3.515  -9.075  0.00  0.00    -0.051 A 
ATOM      8  C   LIG d   1       4.164  -2.315  -8.489  0.00  0.00    -0.035 A 
ATOM      9  C   LIG d   1       4.666  -2.257  -7.189  0.00  0.00     0.075 A 
ATOM     10  N   LIG d   1       4.902  -3.328  -6.477  0.00  0.00    -0.246 NA
ATOM     11  C   LIG d   1       4.669  -4.555  -6.969  0.00  0.00     0.074 A 
ATOM     12  C   LIG d   1       4.923  -5.692  -6.203  0.00  0.00    -0.010 A 
ATOM     13  C   LIG d   1       4.673  -6.956  -6.737  0.00  0.00     0.074 A 
ATOM     14  N   LIG d   1       4.910  -8.066  -6.021  0.00  0.00    -0.246 NA
ATOM     15  H   LIG d   1       4.011 -10.450  -8.167  0.00  0.00     0.064 H 
ATOM     16  H   LIG d   1       3.515  -8.525  -9.604  0.00  0.00     0.062 H 
ATOM     17  H   LIG d   1       3.498  -6.048  -9.868  0.00  0.00     0.063 H 
ATOM     18  H   LIG d   1       3.506  -3.567 -10.082  0.00  0.00     0.062 H 
ATOM     19  H   LIG d   1       3.987  -1.401  -9.035  0.00  0.00     0.064 H 
ATOM     20  H   LIG d   1       5.312  -5.595  -5.201  0.00  0.00     0.066 H 
ENDROOT
BRANCH   1  21
ATOM     21  C   LIG d   1       4.965 -10.462  -5.662  0.00  0.00     0.041 A 
ATOM     22  C   LIG d   1       4.453 -10.241  -4.258  0.00  0.00    -0.087 A 
ATOM     23  C   LIG d   1       5.612 -10.314  -3.351  0.00  0.00    -0.021 A 
ATOM     24  O   LIG d   1       3.300 -10.041  -3.937  0.00  0.00    -0.873 OA
ATOM     25  C   LIG d   1       6.783 -10.561  -4.091  0.00  0.00     0.029 A 
ATOM     26  C   LIG d   1       5.692 -10.179  -1.963  0.00  0.00    -0.054 A 
ATOM     27  C   LIG d   1       8.007 -10.668  -3.427  0.00  0.00    -0.050 A 
ATOM     28  C   LIG d   1       6.456 -10.663  -5.525  0.00  0.00     0.195 A 
ATOM     29  C   LIG d   1       8.064 -10.538  -2.053  0.00  0.00    -0.061 A 
ATOM     30  H   LIG d   1       8.911 -10.858  -3.988  0.00  0.00     0.062 H 
ATOM     31  C   LIG d   1       6.913 -10.288  -1.325  0.00  0.00    -0.061 A 
ATOM     32  H   LIG d   1       9.012 -10.626  -1.544  0.00  0.00     0.062 H 
ATOM     33  H   LIG d   1       6.969 -10.184  -0.251  0.00  0.00     0.062 H 
ATOM     34  O   LIG d   1       7.237 -10.871  -6.428  0.00  0.00    -0.287 OA
ATOM     35  H   LIG d   1       4.799  -9.990  -1.387  0.00  0.00     0.062 H 
ENDBRANCH   1  21
BRANCH   9  36
ATOM     36  C   LIG d   1       4.948  -0.907  -6.581  0.00  0.00     0.041 A 
ATOM     37  C   LIG d   1       3.674  -0.302  -6.042  0.00  0.00     0.195 A 
ATOM     38  C   LIG d   1       3.859  -0.109  -4.592  0.00  0.00     0.029 A 
ATOM     39  O   LIG d   1       2.683  -0.024  -6.683  0.00  0.00    -0.287 OA
ATOM     40  C   LIG d   1       5.141  -0.549  -4.212  0.00  0.00    -0.021 A 
ATOM     41  C   LIG d   1       2.996   0.412  -3.625  0.00  0.00    -0.050 A 
ATOM     42  C   LIG d   1       5.867  -1.054  -5.391  0.00  0.00    -0.087 A 
ATOM     43  C   LIG d   1       5.530  -0.457  -2.873  0.00  0.00    -0.054 A 
ATOM     44  O   LIG d   1       6.992  -1.504  -5.404  0.00  0.00    -0.873 OA
ATOM     45  C   LIG d   1       4.660   0.061  -1.933  0.00  0.00    -0.061 A 
ATOM     46  H   LIG d   1       6.511  -0.793  -2.573  0.00  0.00     0.062 H 
ATOM     47  C   LIG d   1       3.400   0.493  -2.306  0.00  0.00    -0.061 A 
ATOM     48  H   LIG d   1       4.967   0.130  -0.899  0.00  0.00     0.062 H 
ATOM     49  H   LIG d   1       2.730   0.897  -1.563  0.00  0.00     0.062 H 
ATOM     50  H   LIG d   1       2.010   0.751  -3.908  0.00  0.00     0.062 H 
ENDBRANCH   9  36
TORSDOF 2
ENDMDL
MODEL 6
REMARK VINA RESULT:      -8.8      4.485      6.177
REMARK  2 active torsions:
REMARK  status: ('A' for Active; 'I' for Inactive)
REMARK    1  A    between atoms: C_9  and  C_12 
REMARK    2  A    between atoms: C_20  and  C_26 
ROOT
ATOM      1  C   LIG d   1       9.849   3.453 -10.054  0.00  0.00     0.075 A 
ATOM      2  C   LIG d   1      10.227   2.537 -11.035  0.00  0.00    -0.035 A 
ATOM      3  C   LIG d   1       9.676   1.292 -11.071  0.00  0.00    -0.051 A 
ATOM      4  C   LIG d   1       8.708   0.965 -10.094  0.00  0.00     0.001 A 
ATOM      5  C   LIG d   1       8.099  -0.288 -10.072  0.00  0.00    -0.043 A 
ATOM      6  C   LIG d   1       7.149  -0.571  -9.095  0.00  0.00     0.001 A 
ATOM      7  C   LIG d   1       6.508  -1.830  -9.039  0.00  0.00    -0.051 A 
ATOM      8  C   LIG d   1       5.588  -2.039  -8.056  0.00  0.00    -0.035 A 
ATOM      9  C   LIG d   1       5.294  -1.036  -7.134  0.00  0.00     0.075 A 
ATOM     10  N   LIG d   1       5.872   0.137  -7.162  0.00  0.00    -0.246 NA
ATOM     11  C   LIG d   1       6.791   0.438  -8.093  0.00  0.00     0.074 A 
ATOM     12  C   LIG d   1       7.403   1.690  -8.116  0.00  0.00    -0.010 A 
ATOM     13  C   LIG d   1       8.354   1.978  -9.094  0.00  0.00     0.074 A 
ATOM     14  N   LIG d   1       8.956   3.176  -9.139  0.00  0.00    -0.246 NA
ATOM     15  H   LIG d   1      10.965   2.817 -11.772  0.00  0.00     0.064 H 
ATOM     16  H   LIG d   1       9.967   0.577 -11.826  0.00  0.00     0.062 H 
ATOM     17  H   LIG d   1       8.362  -1.034 -10.809  0.00  0.00     0.063 H 
ATOM     18  H   LIG d   1       6.740  -2.604  -9.756  0.00  0.00     0.062 H 
ATOM     19  H   LIG d   1       5.083  -2.991  -7.990  0.00  0.00     0.064 H 
ATOM     20  H   LIG d   1       7.141   2.435  -7.380  0.00  0.00     0.066 H 
ENDROOT
BRANCH   1  21
ATOM     21  C   LIG d   1      10.489   4.817 -10.051  0.00  0.00     0.041 A 
ATOM     22  C   LIG d   1      11.192   5.059  -8.736  0.00  0.00    -0.087 A 
ATOM     23  C   LIG d   1      10.558   6.232  -8.109  0.00  0.00    -0.021 A 
ATOM     24  O   LIG d   1      12.109   4.410  -8.281  0.00  0.00    -0.873 OA
ATOM     25  C   LIG d   1       9.529   6.719  -8.937  0.00  0.00     0.029 A 
ATOM     26  C   LIG d   1      10.823   6.872  -6.895  0.00  0.00    -0.054 A 
ATOM     27  C   LIG d   1       8.790   7.834  -8.533  0.00  0.00    -0.050 A 
ATOM     28  C   LIG d   1       9.432   5.891 -10.153  0.00  0.00     0.195 A 
ATOM     29  C   LIG d   1       9.073   8.455  -7.333  0.00  0.00    -0.061 A 
ATOM     30  H   LIG d   1       7.999   8.213  -9.163  0.00  0.00     0.062 H 
ATOM     31  C   LIG d   1      10.080   7.972  -6.515  0.00  0.00    -0.061 A 
ATOM     32  H   LIG d   1       8.501   9.318  -7.028  0.00  0.00     0.062 H 
ATOM     33  H   LIG d   1      10.290   8.463  -5.576  0.00  0.00     0.062 H 
ATOM     34  O   LIG d   1       8.650   6.044 -11.066  0.00  0.00    -0.287 OA
ATOM     35  H   LIG d   1      11.611   6.505  -6.254  0.00  0.00     0.062 H 
ENDBRANCH   1  21
BRANCH   9  36
ATOM     36  C   LIG d   1       4.271  -1.312  -6.063  0.00  0.00     0.041 A 
ATOM     37  C   LIG d   1       4.954  -1.763  -4.793  0.00  0.00     0.195 A 
ATOM     38  C   LIG d   1       4.620  -0.783  -3.744  0.00  0.00     0.029 A 
ATOM     39  O   LIG d   1       5.646  -2.749  -4.661  0.00  0.00    -0.287 OA
ATOM     40  C   LIG d   1       3.792   0.223  -4.276  0.00  0.00    -0.021 A 
ATOM     41  C   LIG d   1       4.989  -0.728  -2.398  0.00  0.00    -0.050 A 
ATOM     42  C   LIG d   1       3.536  -0.042  -5.704  0.00  0.00    -0.087 A 
ATOM     43  C   LIG d   1       3.352   1.261  -3.450  0.00  0.00    -0.054 A 
ATOM     44  O   LIG d   1       2.863   0.634  -6.451  0.00  0.00    -0.873 OA
ATOM     45  C   LIG d   1       3.730   1.296  -2.122  0.00  0.00    -0.061 A 
ATOM     46  H   LIG d   1       2.717   2.036  -3.851  0.00  0.00     0.062 H 
ATOM     47  C   LIG d   1       4.544   0.307  -1.598  0.00  0.00    -0.061 A 
ATOM     48  H   LIG d   1       3.387   2.101  -1.487  0.00  0.00     0.062 H 
ATOM     49  H   LIG d   1       4.832   0.345  -0.558  0.00  0.00     0.062 H 
ATOM     50  H   LIG d   1       5.625  -1.495  -1.982  0.00  0.00     0.062 H 
ENDBRANCH   9  36
TORSDOF 2
ENDMDL
MODEL 7
REMARK VINA RESULT:      -8.7      1.627      9.732
REMARK  2 active torsions:
REMARK  status: ('A' for Active; 'I' for Inactive)
REMARK    1  A    between atoms: C_9  and  C_12 
REMARK    2  A    between atoms: C_20  and  C_26 
ROOT
ATOM      1  C   LIG d   1       6.984   0.272  -6.700  0.00  0.00     0.075 A 
ATOM      2  C   LIG d   1       7.324   0.485  -8.035  0.00  0.00    -0.035 A 
ATOM      3  C   LIG d   1       8.156   1.505  -8.386  0.00  0.00    -0.051 A 
ATOM      4  C   LIG d   1       8.666   2.330  -7.358  0.00  0.00     0.001 A 
ATOM      5  C   LIG d   1       9.526   3.389  -7.641  0.00  0.00    -0.043 A 
ATOM      6  C   LIG d   1      10.010   4.177  -6.600  0.00  0.00     0.001 A 
ATOM      7  C   LIG d   1      10.884   5.260  -6.846  0.00  0.00    -0.051 A 
ATOM      8  C   LIG d   1      11.318   5.989  -5.781  0.00  0.00    -0.035 A 
ATOM      9  C   LIG d   1      10.907   5.671  -4.487  0.00  0.00     0.075 A 
ATOM     10  N   LIG d   1      10.099   4.674  -4.231  0.00  0.00    -0.246 NA
ATOM     11  C   LIG d   1       9.618   3.899  -5.215  0.00  0.00     0.074 A 
ATOM     12  C   LIG d   1       8.757   2.838  -4.934  0.00  0.00    -0.010 A 
ATOM     13  C   LIG d   1       8.272   2.046  -5.974  0.00  0.00     0.074 A 
ATOM     14  N   LIG d   1       7.443   1.020  -5.729  0.00  0.00    -0.246 NA
ATOM     15  H   LIG d   1       6.922  -0.164  -8.800  0.00  0.00     0.064 H 
ATOM     16  H   LIG d   1       8.420   1.677  -9.419  0.00  0.00     0.062 H 
ATOM     17  H   LIG d   1       9.815   3.597  -8.662  0.00  0.00     0.063 H 
ATOM     18  H   LIG d   1      11.199   5.502  -7.851  0.00  0.00     0.062 H 
ATOM     19  H   LIG d   1      11.988   6.822  -5.939  0.00  0.00     0.064 H 
ATOM     20  H   LIG d   1       8.467   2.631  -3.915  0.00  0.00     0.066 H 
ENDROOT
BRANCH   1  21
ATOM     21  C   LIG d   1       6.056  -0.866  -6.361  0.00  0.00     0.041 A 
ATOM     22  C   LIG d   1       4.667  -0.341  -6.087  0.00  0.00    -0.087 A 
ATOM     23  C   LIG d   1       4.328  -0.701  -4.699  0.00  0.00    -0.021 A 
ATOM     24  O   LIG d   1       3.960   0.264  -6.865  0.00  0.00    -0.873 OA
ATOM     25  C   LIG d   1       5.399  -1.400  -4.111  0.00  0.00     0.029 A 
ATOM     26  C   LIG d   1       3.174  -0.456  -3.950  0.00  0.00    -0.054 A 
ATOM     27  C   LIG d   1       5.291  -1.839  -2.789  0.00  0.00    -0.050 A 
ATOM     28  C   LIG d   1       6.499  -1.537  -5.082  0.00  0.00     0.195 A 
ATOM     29  C   LIG d   1       4.139  -1.593  -2.069  0.00  0.00    -0.061 A 
ATOM     30  H   LIG d   1       6.109  -2.376  -2.331  0.00  0.00     0.062 H 
ATOM     31  C   LIG d   1       3.088  -0.898  -2.644  0.00  0.00    -0.061 A 
ATOM     32  H   LIG d   1       4.060  -1.938  -1.049  0.00  0.00     0.062 H 
ATOM     33  H   LIG d   1       2.193  -0.707  -2.070  0.00  0.00     0.062 H 
ATOM     34  O   LIG d   1       7.562  -2.086  -4.891  0.00  0.00    -0.287 OA
ATOM     35  H   LIG d   1       2.348   0.080  -4.393  0.00  0.00     0.062 H 
ENDBRANCH   1  21
BRANCH   9  36
ATOM     36  C   LIG d   1      11.413   6.506  -3.339  0.00  0.00     0.041 A 
ATOM     37  C   LIG d   1      11.416   7.967  -3.720  0.00  0.00     0.195 A 
ATOM     38  C   LIG d   1      10.512   8.666  -2.789  0.00  0.00     0.029 A 
ATOM     39  O   LIG d   1      12.048   8.473  -4.623  0.00  0.00    -0.287 OA
ATOM     40  C   LIG d   1       9.961   7.745  -1.878  0.00  0.00    -0.021 A 
ATOM     41  C   LIG d   1      10.158  10.014  -2.702  0.00  0.00    -0.050 A 
ATOM     42  C   LIG d   1      10.475   6.392  -2.160  0.00  0.00    -0.087 A 
ATOM     43  C   LIG d   1       9.070   8.195  -0.900  0.00  0.00    -0.054 A 
ATOM     44  O   LIG d   1      10.196   5.378  -1.559  0.00  0.00    -0.873 OA
ATOM     45  C   LIG d   1       8.734   9.533  -0.832  0.00  0.00    -0.061 A 
ATOM     46  H   LIG d   1       8.643   7.495  -0.197  0.00  0.00     0.062 H 
ATOM     47  C   LIG d   1       9.275  10.438  -1.727  0.00  0.00    -0.061 A 
ATOM     48  H   LIG d   1       8.044   9.875  -0.073  0.00  0.00     0.062 H 
ATOM     49  H   LIG d   1       9.006  11.482  -1.664  0.00  0.00     0.062 H 
ATOM     50  H   LIG d   1      10.575  10.727  -3.398  0.00  0.00     0.062 H 
ENDBRANCH   9  36
TORSDOF 2
ENDMDL
MODEL 8
REMARK VINA RESULT:      -8.3      7.172     14.499
REMARK  2 active torsions:
REMARK  status: ('A' for Active; 'I' for Inactive)
REMARK    1  A    between atoms: C_9  and  C_12 
REMARK    2  A    between atoms: C_20  and  C_26 
ROOT
ATOM      1  C   LIG d   1       0.063  -3.640 -12.237  0.00  0.00     0.075 A 
ATOM      2  C   LIG d   1      -0.088  -2.379 -12.812  0.00  0.00    -0.035 A 
ATOM      3  C   LIG d   1       0.584  -1.303 -12.314  0.00  0.00    -0.051 A 
ATOM      4  C   LIG d   1       1.440  -1.509 -11.208  0.00  0.00     0.001 A 
ATOM      5  C   LIG d   1       2.162  -0.456 -10.649  0.00  0.00    -0.043 A 
ATOM      6  C   LIG d   1       2.997  -0.700  -9.561  0.00  0.00     0.001 A 
ATOM      7  C   LIG d   1       3.747   0.341  -8.966  0.00  0.00    -0.051 A 
ATOM      8  C   LIG d   1       4.543   0.032  -7.905  0.00  0.00    -0.035 A 
ATOM      9  C   LIG d   1       4.611  -1.275  -7.424  0.00  0.00     0.075 A 
ATOM     10  N   LIG d   1       3.928  -2.257  -7.956  0.00  0.00    -0.246 NA
ATOM     11  C   LIG d   1       3.116  -2.051  -9.005  0.00  0.00     0.074 A 
ATOM     12  C   LIG d   1       2.392  -3.102  -9.566  0.00  0.00    -0.010 A 
ATOM     13  C   LIG d   1       1.556  -2.862 -10.656  0.00  0.00     0.074 A 
ATOM     14  N   LIG d   1       0.850  -3.857 -11.214  0.00  0.00    -0.246 NA
ATOM     15  H   LIG d   1      -0.745  -2.252 -13.659  0.00  0.00     0.064 H 
ATOM     16  H   LIG d   1       0.468  -0.323 -12.752  0.00  0.00     0.062 H 
ATOM     17  H   LIG d   1       2.075   0.541 -11.056  0.00  0.00     0.063 H 
ATOM     18  H   LIG d   1       3.690   1.352  -9.342  0.00  0.00     0.062 H 
ATOM     19  H   LIG d   1       5.127   0.806  -7.431  0.00  0.00     0.064 H 
ATOM     20  H   LIG d   1       2.478  -4.098  -9.158  0.00  0.00     0.066 H 
ENDROOT
BRANCH   1  21
ATOM     21  C   LIG d   1      -0.704  -4.798 -12.819  0.00  0.00     0.041 A 
ATOM     22  C   LIG d   1      -1.863  -5.160 -11.921  0.00  0.00    -0.087 A 
ATOM     23  C   LIG d   1      -1.658  -6.550 -11.477  0.00  0.00    -0.021 A 
ATOM     24  O   LIG d   1      -2.791  -4.439 -11.620  0.00  0.00    -0.873 OA
ATOM     25  C   LIG d   1      -0.469  -7.058 -12.034  0.00  0.00     0.029 A 
ATOM     26  C   LIG d   1      -2.428  -7.363 -10.642  0.00  0.00    -0.054 A 
ATOM     27  C   LIG d   1      -0.078  -8.368 -11.743  0.00  0.00    -0.050 A 
ATOM     28  C   LIG d   1       0.170  -6.029 -12.873  0.00  0.00     0.195 A 
ATOM     29  C   LIG d   1      -0.858  -9.157 -10.920  0.00  0.00    -0.061 A 
ATOM     30  H   LIG d   1       0.832  -8.765 -12.167  0.00  0.00     0.062 H 
ATOM     31  C   LIG d   1      -2.023  -8.655 -10.366  0.00  0.00    -0.061 A 
ATOM     32  H   LIG d   1      -0.553 -10.169 -10.702  0.00  0.00     0.062 H 
ATOM     33  H   LIG d   1      -2.622  -9.279  -9.720  0.00  0.00     0.062 H 
ATOM     34  O   LIG d   1       1.205  -6.147 -13.493  0.00  0.00    -0.287 OA
ATOM     35  H   LIG d   1      -3.340  -6.981 -10.210  0.00  0.00     0.062 H 
ENDBRANCH   1  21
BRANCH   9  36
ATOM     36  C   LIG d   1       5.505  -1.570  -6.247  0.00  0.00     0.041 A 
ATOM     37  C   LIG d   1       5.918  -0.284  -5.572  0.00  0.00     0.195 A 
ATOM     38  C   LIG d   1       5.415  -0.335  -4.187  0.00  0.00     0.029 A 
ATOM     39  O   LIG d   1       6.548   0.621  -6.074  0.00  0.00    -0.287 OA
ATOM     40  C   LIG d   1       4.731  -1.546  -3.972  0.00  0.00    -0.021 A 
ATOM     41  C   LIG d   1       5.520   0.589  -3.145  0.00  0.00    -0.050 A 
ATOM     42  C   LIG d   1       4.748  -2.357  -5.203  0.00  0.00    -0.087 A 
ATOM     43  C   LIG d   1       4.168  -1.805  -2.719  0.00  0.00    -0.054 A 
ATOM     44  O   LIG d   1       4.248  -3.451  -5.350  0.00  0.00    -0.873 OA
ATOM     45  C   LIG d   1       4.284  -0.876  -1.703  0.00  0.00    -0.061 A 
ATOM     46  H   LIG d   1       3.642  -2.732  -2.546  0.00  0.00     0.062 H 
ATOM     47  C   LIG d   1       4.956   0.314  -1.914  0.00  0.00    -0.061 A 
ATOM     48  H   LIG d   1       3.848  -1.082  -0.736  0.00  0.00     0.062 H 
ATOM     49  H   LIG d   1       5.041   1.032  -1.112  0.00  0.00     0.062 H 
ATOM     50  H   LIG d   1       6.042   1.522  -3.302  0.00  0.00     0.062 H 
ENDBRANCH   9  36
TORSDOF 2
ENDMDL
MODEL 9
REMARK VINA RESULT:      -8.0      8.327     14.530
REMARK  2 active torsions:
REMARK  status: ('A' for Active; 'I' for Inactive)
REMARK    1  A    between atoms: C_9  and  C_12 
REMARK    2  A    between atoms: C_20  and  C_26 
ROOT
ATOM      1  C   LIG d   1       0.120  -4.741 -12.247  0.00  0.00     0.075 A 
ATOM      2  C   LIG d   1       1.028  -4.926 -13.289  0.00  0.00    -0.035 A 
ATOM      3  C   LIG d   1       2.292  -4.425 -13.206  0.00  0.00    -0.051 A 
ATOM      4  C   LIG d   1       2.653  -3.723 -12.033  0.00  0.00     0.001 A 
ATOM      5  C   LIG d   1       3.929  -3.188 -11.876  0.00  0.00    -0.043 A 
ATOM      6  C   LIG d   1       4.247  -2.505 -10.705  0.00  0.00     0.001 A 
ATOM      7  C   LIG d   1       5.531  -1.948 -10.507  0.00  0.00    -0.051 A 
ATOM      8  C   LIG d   1       5.773  -1.293  -9.337  0.00  0.00    -0.035 A 
ATOM      9  C   LIG d   1       4.778  -1.180  -8.367  0.00  0.00     0.075 A 
ATOM     10  N   LIG d   1       3.582  -1.686  -8.524  0.00  0.00    -0.246 NA
ATOM     11  C   LIG d   1       3.248  -2.348  -9.643  0.00  0.00     0.074 A 
ATOM     12  C   LIG d   1       1.972  -2.885  -9.803  0.00  0.00    -0.010 A 
ATOM     13  C   LIG d   1       1.650  -3.570 -10.974  0.00  0.00     0.074 A 
ATOM     14  N   LIG d   1       0.428  -4.096 -11.150  0.00  0.00    -0.246 NA
ATOM     15  H   LIG d   1       0.725  -5.470 -14.171  0.00  0.00     0.064 H 
ATOM     16  H   LIG d   1       2.998  -4.562 -14.011  0.00  0.00     0.062 H 
ATOM     17  H   LIG d   1       4.667  -3.301 -12.658  0.00  0.00     0.063 H 
ATOM     18  H   LIG d   1       6.298  -2.038 -11.262  0.00  0.00     0.062 H 
ATOM     19  H   LIG d   1       6.745  -0.858  -9.159  0.00  0.00     0.064 H 
ATOM     20  H   LIG d   1       1.235  -2.771  -9.022  0.00  0.00     0.066 H 
ENDROOT
BRANCH   1  21
ATOM     21  C   LIG d   1      -1.269  -5.309 -12.386  0.00  0.00     0.041 A 
ATOM     22  C   LIG d   1      -2.208  -4.259 -12.932  0.00  0.00    -0.087 A 
ATOM     23  C   LIG d   1      -3.259  -4.043 -11.921  0.00  0.00    -0.021 A 
ATOM     24  O   LIG d   1      -2.116  -3.699 -14.003  0.00  0.00    -0.873 OA
ATOM     25  C   LIG d   1      -3.031  -4.875 -10.809  0.00  0.00     0.029 A 
ATOM     26  C   LIG d   1      -4.362  -3.186 -11.923  0.00  0.00    -0.054 A 
ATOM     27  C   LIG d   1      -3.912  -4.832  -9.725  0.00  0.00    -0.050 A 
ATOM     28  C   LIG d   1      -1.818  -5.683 -11.030  0.00  0.00     0.195 A 
ATOM     29  C   LIG d   1      -5.000  -3.983  -9.751  0.00  0.00    -0.061 A 
ATOM     30  H   LIG d   1      -3.743  -5.468  -8.869  0.00  0.00     0.062 H 
ATOM     31  C   LIG d   1      -5.221  -3.159 -10.841  0.00  0.00    -0.061 A 
ATOM     32  H   LIG d   1      -5.680  -3.957  -8.912  0.00  0.00     0.062 H 
ATOM     33  H   LIG d   1      -6.073  -2.495 -10.848  0.00  0.00     0.062 H 
ATOM     34  O   LIG d   1      -1.348  -6.498 -10.266  0.00  0.00    -0.287 OA
ATOM     35  H   LIG d   1      -4.544  -2.544 -12.772  0.00  0.00     0.062 H 
ENDBRANCH   1  21
BRANCH   9  36
ATOM     36  C   LIG d   1       5.091  -0.446  -7.089  0.00  0.00     0.041 A 
ATOM     37  C   LIG d   1       3.845   0.215  -6.549  0.00  0.00     0.195 A 
ATOM     38  C   LIG d   1       3.583  -0.363  -5.219  0.00  0.00     0.029 A 
ATOM     39  O   LIG d   1       3.184   1.066  -7.106  0.00  0.00    -0.287 OA
ATOM     40  C   LIG d   1       4.568  -1.320  -4.911  0.00  0.00    -0.021 A 
ATOM     41  C   LIG d   1       2.565  -0.105  -4.298  0.00  0.00    -0.050 A 
ATOM     42  C   LIG d   1       5.532  -1.421  -6.023  0.00  0.00    -0.087 A 
ATOM     43  C   LIG d   1       4.513  -1.997  -3.690  0.00  0.00    -0.054 A 
ATOM     44  O   LIG d   1       6.497  -2.153  -6.073  0.00  0.00    -0.873 OA
ATOM     45  C   LIG d   1       3.497  -1.726  -2.794  0.00  0.00    -0.061 A 
ATOM     46  H   LIG d   1       5.265  -2.732  -3.447  0.00  0.00     0.062 H 
ATOM     47  C   LIG d   1       2.528  -0.786  -3.096  0.00  0.00    -0.061 A 
ATOM     48  H   LIG d   1       3.459  -2.252  -1.851  0.00  0.00     0.062 H 
ATOM     49  H   LIG d   1       1.739  -0.582  -2.387  0.00  0.00     0.062 H 
ATOM     50  H   LIG d   1       1.804   0.627  -4.526  0.00  0.00     0.062 H 
ENDBRANCH   9  36
TORSDOF 2
ENDMDL
MODEL 10
REMARK VINA RESULT:      -7.9      7.319     14.473
REMARK  2 active torsions:
REMARK  status: ('A' for Active; 'I' for Inactive)
REMARK    1  A    between atoms: C_9  and  C_12 
REMARK    2  A    between atoms: C_20  and  C_26 
ROOT
ATOM      1  C   LIG d   1       1.150  -4.217 -12.773  0.00  0.00     0.075 A 
ATOM      2  C   LIG d   1       0.369  -3.082 -12.984  0.00  0.00    -0.035 A 
ATOM      3  C   LIG d   1       0.460  -2.010 -12.148  0.00  0.00    -0.051 A 
ATOM      4  C   LIG d   1       1.374  -2.084 -11.072  0.00  0.00     0.001 A 
ATOM      5  C   LIG d   1       1.525  -1.024 -10.180  0.00  0.00    -0.043 A 
ATOM      6  C   LIG d   1       2.437  -1.134  -9.134  0.00  0.00     0.001 A 
ATOM      7  C   LIG d   1       2.620  -0.081  -8.208  0.00  0.00    -0.051 A 
ATOM      8  C   LIG d   1       3.529  -0.256  -7.208  0.00  0.00    -0.035 A 
ATOM      9  C   LIG d   1       4.254  -1.443  -7.108  0.00  0.00     0.075 A 
ATOM     10  N   LIG d   1       4.105  -2.432  -7.950  0.00  0.00    -0.246 NA
ATOM     11  C   LIG d   1       3.233  -2.354  -8.968  0.00  0.00     0.074 A 
ATOM     12  C   LIG d   1       3.080  -3.412  -9.862  0.00  0.00    -0.010 A 
ATOM     13  C   LIG d   1       2.168  -3.306 -10.912  0.00  0.00     0.074 A 
ATOM     14  N   LIG d   1       2.003  -4.310 -11.786  0.00  0.00    -0.246 NA
ATOM     15  H   LIG d   1      -0.318  -3.052 -13.818  0.00  0.00     0.064 H 
ATOM     16  H   LIG d   1      -0.145  -1.130 -12.304  0.00  0.00     0.062 H 
ATOM     17  H   LIG d   1       0.938  -0.124 -10.299  0.00  0.00     0.063 H 
ATOM     18  H   LIG d   1       2.054   0.836  -8.290  0.00  0.00     0.062 H 
ATOM     19  H   LIG d   1       3.689   0.531  -6.487  0.00  0.00     0.064 H 
ATOM     20  H   LIG d   1       3.665  -4.311  -9.743  0.00  0.00     0.066 H 
ENDROOT
BRANCH   1  21
ATOM     21  C   LIG d   1       1.010  -5.379 -13.721  0.00  0.00     0.041 A 
ATOM     22  C   LIG d   1       0.487  -6.591 -12.987  0.00  0.00    -0.087 A 
ATOM     23  C   LIG d   1       1.507  -7.648 -13.101  0.00  0.00    -0.021 A 
ATOM     24  O   LIG d   1      -0.576  -6.678 -12.409  0.00  0.00    -0.873 OA
ATOM     25  C   LIG d   1       2.604  -7.175 -13.845  0.00  0.00     0.029 A 
ATOM     26  C   LIG d   1       1.526  -8.954 -12.606  0.00  0.00    -0.054 A 
ATOM     27  C   LIG d   1       3.694  -8.018 -14.077  0.00  0.00    -0.050 A 
ATOM     28  C   LIG d   1       2.363  -5.781 -14.259  0.00  0.00     0.195 A 
ATOM     29  C   LIG d   1       3.689  -9.308 -13.584  0.00  0.00    -0.061 A 
ATOM     30  H   LIG d   1       4.539  -7.662 -14.647  0.00  0.00     0.062 H 
ATOM     31  C   LIG d   1       2.613  -9.772 -12.846  0.00  0.00    -0.061 A 
ATOM     32  H   LIG d   1       4.532  -9.956 -13.769  0.00  0.00     0.062 H 
ATOM     33  H   LIG d   1       2.622 -10.781 -12.460  0.00  0.00     0.062 H 
ATOM     34  O   LIG d   1       3.111  -5.085 -14.910  0.00  0.00    -0.287 OA
ATOM     35  H   LIG d   1       0.688  -9.325 -12.034  0.00  0.00     0.062 H 
ENDBRANCH   1  21
BRANCH   9  36
ATOM     36  C   LIG d   1       5.249  -1.592  -5.985  0.00  0.00     0.041 A 
ATOM     37  C   LIG d   1       5.689  -0.233  -5.495  0.00  0.00     0.195 A 
ATOM     38  C   LIG d   1       5.303  -0.133  -4.076  0.00  0.00     0.029 A 
ATOM     39  O   LIG d   1       6.256   0.617  -6.148  0.00  0.00    -0.287 OA
ATOM     40  C   LIG d   1       4.666  -1.320  -3.669  0.00  0.00    -0.021 A 
ATOM     41  C   LIG d   1       5.475   0.905  -3.157  0.00  0.00    -0.050 A 
ATOM     42  C   LIG d   1       4.599  -2.264  -4.799  0.00  0.00    -0.087 A 
ATOM     43  C   LIG d   1       4.215  -1.442  -2.352  0.00  0.00    -0.054 A 
ATOM     44  O   LIG d   1       4.111  -3.373  -4.781  0.00  0.00    -0.873 OA
ATOM     45  C   LIG d   1       4.395  -0.403  -1.460  0.00  0.00    -0.061 A 
ATOM     46  H   LIG d   1       3.724  -2.349  -2.033  0.00  0.00     0.062 H 
ATOM     47  C   LIG d   1       5.022   0.764  -1.859  0.00  0.00    -0.061 A 
ATOM     48  H   LIG d   1       4.044  -0.503  -0.442  0.00  0.00     0.062 H 
ATOM     49  H   LIG d   1       5.157   1.569  -1.152  0.00  0.00     0.062 H 
ATOM     50  H   LIG d   1       5.963   1.819  -3.461  0.00  0.00     0.062 H 
ENDBRANCH   9  36
TORSDOF 2
ENDMDL
