MODEL 1
REMARK VINA RESULT:      -5.2      0.000      0.000
REMARK  4 active torsions:
REMARK  status: ('A' for Active; 'I' for Inactive)
REMARK    1  A    between atoms: C_1  and  C_2 
REMARK    2  A    between atoms: C_2  and  C_3 
REMARK    3  A    between atoms: C_3  and  C_12 
REMARK    4  A    between atoms: C_12  and  C_13 
ROOT
ATOM      1  C   LIG d   1       5.196  -0.688  -3.139  0.00  0.00     0.123 A 
ATOM      2  C   LIG d   1       5.666   0.280  -4.208  0.00  0.00     0.235 A 
ATOM      3  O   LIG d   1       6.563   1.068  -3.991  0.00  0.00    -0.274 OA
ATOM      4  N   LIG d   1       5.051   0.233  -5.409  0.00  0.00    -0.239 N 
ATOM      5  C   LIG d   1       4.061  -0.629  -5.663  0.00  0.00     0.312 A 
ATOM      6  O   LIG d   1       3.563  -0.603  -6.771  0.00  0.00    -0.252 OA
ATOM      7  N   LIG d   1       3.578  -1.517  -4.788  0.00  0.00    -0.239 N 
ATOM      8  C   LIG d   1       4.067  -1.622  -3.534  0.00  0.00     0.235 A 
ATOM      9  O   LIG d   1       3.619  -2.433  -2.750  0.00  0.00    -0.274 OA
ATOM     10  H   LIG d   1       5.335   0.844  -6.106  0.00  0.00     0.159 HD
ATOM     11  H   LIG d   1       2.857  -2.105  -5.062  0.00  0.00     0.159 HD
ENDROOT
BRANCH   1  12
ATOM     12  C   LIG d   1       6.391  -1.541  -2.709  0.00  0.00    -0.033 C 
ATOM     13  H   LIG d   1       6.084  -2.220  -1.913  0.00  0.00     0.028 H 
ATOM     14  H   LIG d   1       7.188  -0.892  -2.347  0.00  0.00     0.028 H 
BRANCH  12  15
ATOM     15  C   LIG d   1       6.896  -2.351  -3.905  0.00  0.00    -0.064 C 
ATOM     16  H   LIG d   1       7.920  -2.675  -3.717  0.00  0.00     0.023 H 
ATOM     17  H   LIG d   1       6.259  -3.224  -4.048  0.00  0.00     0.023 H 
ATOM     18  H   LIG d   1       6.870  -1.731  -4.800  0.00  0.00     0.023 H 
ENDBRANCH  12  15
ENDBRANCH   1  12
BRANCH   1  19
ATOM     19  C   LIG d   1       4.737   0.129  -1.930  0.00  0.00    -0.033 C 
ATOM     20  H   LIG d   1       4.364  -0.544  -1.158  0.00  0.00     0.028 H 
ATOM     21  H   LIG d   1       5.578   0.701  -1.539  0.00  0.00     0.028 H 
BRANCH  19  22
ATOM     22  C   LIG d   1       3.621   1.086  -2.354  0.00  0.00    -0.064 C 
ATOM     23  H   LIG d   1       4.055   1.953  -2.853  0.00  0.00     0.023 H 
ATOM     24  H   LIG d   1       2.945   0.574  -3.039  0.00  0.00     0.023 H 
ATOM     25  H   LIG d   1       3.068   1.412  -1.474  0.00  0.00     0.023 H 
ENDBRANCH  19  22
ENDBRANCH   1  19
TORSDOF 4
ENDMDL
MODEL 2
REMARK VINA RESULT:      -5.2      0.060      3.181
REMARK  4 active torsions:
REMARK  status: ('A' for Active; 'I' for Inactive)
REMARK    1  A    between atoms: C_1  and  C_2 
REMARK    2  A    between atoms: C_2  and  C_3 
REMARK    3  A    between atoms: C_3  and  C_12 
REMARK    4  A    between atoms: C_12  and  C_13 
ROOT
ATOM      1  C   LIG d   1       5.210  -0.715  -3.167  0.00  0.00     0.123 A 
ATOM      2  C   LIG d   1       4.104  -1.667  -3.583  0.00  0.00     0.235 A 
ATOM      3  O   LIG d   1       3.668  -2.497  -2.813  0.00  0.00    -0.274 OA
ATOM      4  N   LIG d   1       3.625  -1.557  -4.840  0.00  0.00    -0.239 N 
ATOM      5  C   LIG d   1       4.095  -0.648  -5.700  0.00  0.00     0.312 A 
ATOM      6  O   LIG d   1       3.605  -0.618  -6.812  0.00  0.00    -0.252 OA
ATOM      7  N   LIG d   1       5.065   0.231  -5.427  0.00  0.00    -0.239 N 
ATOM      8  C   LIG d   1       5.669   0.276  -4.220  0.00  0.00     0.235 A 
ATOM      9  O   LIG d   1       6.548   1.080  -3.986  0.00  0.00    -0.274 OA
ATOM     10  H   LIG d   1       2.918  -2.156  -5.126  0.00  0.00     0.159 HD
ATOM     11  H   LIG d   1       5.342   0.856  -6.115  0.00  0.00     0.159 HD
ENDROOT
BRANCH   1  12
ATOM     12  C   LIG d   1       4.726   0.074  -1.949  0.00  0.00    -0.033 C 
ATOM     13  H   LIG d   1       5.554   0.655  -1.541  0.00  0.00     0.028 H 
ATOM     14  H   LIG d   1       4.359  -0.617  -1.191  0.00  0.00     0.028 H 
BRANCH  12  15
ATOM     15  C   LIG d   1       3.598   1.019  -2.368  0.00  0.00    -0.064 C 
ATOM     16  H   LIG d   1       2.791   0.967  -1.637  0.00  0.00     0.023 H 
ATOM     17  H   LIG d   1       3.977   2.039  -2.419  0.00  0.00     0.023 H 
ATOM     18  H   LIG d   1       3.221   0.721  -3.347  0.00  0.00     0.023 H 
ENDBRANCH  12  15
ENDBRANCH   1  12
BRANCH   1  19
ATOM     19  C   LIG d   1       6.418  -1.551  -2.741  0.00  0.00    -0.033 C 
ATOM     20  H   LIG d   1       7.203  -0.891  -2.370  0.00  0.00     0.028 H 
ATOM     21  H   LIG d   1       6.121  -2.242  -1.953  0.00  0.00     0.028 H 
BRANCH  19  22
ATOM     22  C   LIG d   1       6.942  -2.340  -3.942  0.00  0.00    -0.064 C 
ATOM     23  H   LIG d   1       8.023  -2.456  -3.858  0.00  0.00     0.023 H 
ATOM     24  H   LIG d   1       6.472  -3.323  -3.964  0.00  0.00     0.023 H 
ATOM     25  H   LIG d   1       6.705  -1.804  -4.861  0.00  0.00     0.023 H 
ENDBRANCH  19  22
ENDBRANCH   1  19
TORSDOF 4
ENDMDL
MODEL 3
REMARK VINA RESULT:      -5.1      2.006      2.546
REMARK  4 active torsions:
REMARK  status: ('A' for Active; 'I' for Inactive)
REMARK    1  A    between atoms: C_1  and  C_2 
REMARK    2  A    between atoms: C_2  and  C_3 
REMARK    3  A    between atoms: C_3  and  C_12 
REMARK    4  A    between atoms: C_12  and  C_13 
ROOT
ATOM      1  C   LIG d   1       5.279  -0.342  -3.175  0.00  0.00     0.123 A 
ATOM      2  C   LIG d   1       4.561   0.792  -2.467  0.00  0.00     0.235 A 
ATOM      3  O   LIG d   1       4.828   1.086  -1.321  0.00  0.00    -0.274 OA
ATOM      4  N   LIG d   1       3.613   1.460  -3.158  0.00  0.00    -0.239 N 
ATOM      5  C   LIG d   1       3.307   1.148  -4.422  0.00  0.00     0.312 A 
ATOM      6  O   LIG d   1       2.441   1.802  -4.969  0.00  0.00    -0.252 OA
ATOM      7  N   LIG d   1       3.883   0.169  -5.128  0.00  0.00    -0.239 N 
ATOM      8  C   LIG d   1       4.853  -0.611  -4.607  0.00  0.00     0.235 A 
ATOM      9  O   LIG d   1       5.367  -1.496  -5.259  0.00  0.00    -0.274 OA
ATOM     10  H   LIG d   1       3.141   2.188  -2.725  0.00  0.00     0.159 HD
ATOM     11  H   LIG d   1       3.595   0.014  -6.041  0.00  0.00     0.159 HD
ENDROOT
BRANCH   1  12
ATOM     12  C   LIG d   1       6.776  -0.031  -3.174  0.00  0.00    -0.033 C 
ATOM     13  H   LIG d   1       7.307  -0.801  -3.735  0.00  0.00     0.028 H 
ATOM     14  H   LIG d   1       7.142  -0.012  -2.148  0.00  0.00     0.028 H 
BRANCH  12  15
ATOM     15  C   LIG d   1       7.015   1.332  -3.827  0.00  0.00    -0.064 C 
ATOM     16  H   LIG d   1       8.086   1.485  -3.967  0.00  0.00     0.023 H 
ATOM     17  H   LIG d   1       6.513   1.366  -4.793  0.00  0.00     0.023 H 
ATOM     18  H   LIG d   1       6.619   2.117  -3.182  0.00  0.00     0.023 H 
ENDBRANCH  12  15
ENDBRANCH   1  12
BRANCH   1  19
ATOM     19  C   LIG d   1       5.059  -1.620  -2.364  0.00  0.00    -0.033 C 
ATOM     20  H   LIG d   1       5.666  -2.423  -2.783  0.00  0.00     0.028 H 
ATOM     21  H   LIG d   1       5.350  -1.447  -1.329  0.00  0.00     0.028 H 
BRANCH  19  22
ATOM     22  C   LIG d   1       3.582  -2.014  -2.422  0.00  0.00    -0.064 C 
ATOM     23  H   LIG d   1       3.013  -1.395  -1.728  0.00  0.00     0.023 H 
ATOM     24  H   LIG d   1       3.205  -1.864  -3.434  0.00  0.00     0.023 H 
ATOM     25  H   LIG d   1       3.474  -3.062  -2.146  0.00  0.00     0.023 H 
ENDBRANCH  19  22
ENDBRANCH   1  19
TORSDOF 4
ENDMDL
MODEL 4
REMARK VINA RESULT:      -5.1      2.005      2.738
REMARK  4 active torsions:
REMARK  status: ('A' for Active; 'I' for Inactive)
REMARK    1  A    between atoms: C_1  and  C_2 
REMARK    2  A    between atoms: C_2  and  C_3 
REMARK    3  A    between atoms: C_3  and  C_12 
REMARK    4  A    between atoms: C_12  and  C_13 
ROOT
ATOM      1  C   LIG d   1       5.280  -0.341  -3.181  0.00  0.00     0.123 A 
ATOM      2  C   LIG d   1       4.856  -0.606  -4.614  0.00  0.00     0.235 A 
ATOM      3  O   LIG d   1       5.372  -1.488  -5.268  0.00  0.00    -0.274 OA
ATOM      4  N   LIG d   1       3.885   0.174  -5.133  0.00  0.00    -0.239 N 
ATOM      5  C   LIG d   1       3.307   1.150  -4.424  0.00  0.00     0.312 A 
ATOM      6  O   LIG d   1       2.441   1.805  -4.970  0.00  0.00    -0.252 OA
ATOM      7  N   LIG d   1       3.612   1.458  -3.159  0.00  0.00    -0.239 N 
ATOM      8  C   LIG d   1       4.560   0.789  -2.469  0.00  0.00     0.235 A 
ATOM      9  O   LIG d   1       4.826   1.080  -1.322  0.00  0.00    -0.274 OA
ATOM     10  H   LIG d   1       3.599   0.023  -6.047  0.00  0.00     0.159 HD
ATOM     11  H   LIG d   1       3.139   2.185  -2.724  0.00  0.00     0.159 HD
ENDROOT
BRANCH   1  12
ATOM     12  C   LIG d   1       5.066  -1.624  -2.376  0.00  0.00    -0.033 C 
ATOM     13  H   LIG d   1       5.368  -1.458  -1.342  0.00  0.00     0.028 H 
ATOM     14  H   LIG d   1       5.666  -2.426  -2.805  0.00  0.00     0.028 H 
BRANCH  12  15
ATOM     15  C   LIG d   1       3.587  -2.014  -2.420  0.00  0.00    -0.064 C 
ATOM     16  H   LIG d   1       3.208  -1.887  -3.434  0.00  0.00     0.023 H 
ATOM     17  H   LIG d   1       3.476  -3.055  -2.117  0.00  0.00     0.023 H 
ATOM     18  H   LIG d   1       3.024  -1.375  -1.740  0.00  0.00     0.023 H 
ENDBRANCH  12  15
ENDBRANCH   1  12
BRANCH   1  19
ATOM     19  C   LIG d   1       6.777  -0.026  -3.182  0.00  0.00    -0.033 C 
ATOM     20  H   LIG d   1       7.146  -0.015  -2.156  0.00  0.00     0.028 H 
ATOM     21  H   LIG d   1       7.308  -0.788  -3.751  0.00  0.00     0.028 H 
BRANCH  19  22
ATOM     22  C   LIG d   1       7.010   1.344  -3.821  0.00  0.00    -0.064 C 
ATOM     23  H   LIG d   1       6.301   1.490  -4.636  0.00  0.00     0.023 H 
ATOM     24  H   LIG d   1       6.868   2.123  -3.073  0.00  0.00     0.023 H 
ATOM     25  H   LIG d   1       8.026   1.395  -4.211  0.00  0.00     0.023 H 
ENDBRANCH  19  22
ENDBRANCH   1  19
TORSDOF 4
ENDMDL
MODEL 5
REMARK VINA RESULT:      -5.1      1.926      3.124
REMARK  4 active torsions:
REMARK  status: ('A' for Active; 'I' for Inactive)
REMARK    1  A    between atoms: C_1  and  C_2 
REMARK    2  A    between atoms: C_2  and  C_3 
REMARK    3  A    between atoms: C_3  and  C_12 
REMARK    4  A    between atoms: C_12  and  C_13 
ROOT
ATOM      1  C   LIG d   1       3.566  -0.216  -3.677  0.00  0.00     0.123 A 
ATOM      2  C   LIG d   1       3.944   0.983  -2.828  0.00  0.00     0.235 A 
ATOM      3  O   LIG d   1       3.177   1.438  -2.005  0.00  0.00    -0.274 OA
ATOM      4  N   LIG d   1       5.165   1.526  -3.021  0.00  0.00    -0.239 N 
ATOM      5  C   LIG d   1       6.022   1.036  -3.924  0.00  0.00     0.312 A 
ATOM      6  O   LIG d   1       7.100   1.586  -4.032  0.00  0.00    -0.252 OA
ATOM      7  N   LIG d   1       5.780  -0.013  -4.716  0.00  0.00    -0.239 N 
ATOM      8  C   LIG d   1       4.612  -0.689  -4.669  0.00  0.00     0.235 A 
ATOM      9  O   LIG d   1       4.405  -1.640  -5.394  0.00  0.00    -0.274 OA
ATOM     10  H   LIG d   1       5.427   2.293  -2.490  0.00  0.00     0.159 HD
ATOM     11  H   LIG d   1       6.463  -0.299  -5.343  0.00  0.00     0.159 HD
ENDROOT
BRANCH   1  12
ATOM     12  C   LIG d   1       3.239  -1.379  -2.739  0.00  0.00    -0.033 C 
ATOM     13  H   LIG d   1       2.961  -2.253  -3.328  0.00  0.00     0.028 H 
ATOM     14  H   LIG d   1       2.409  -1.100  -2.090  0.00  0.00     0.028 H 
BRANCH  12  15
ATOM     15  C   LIG d   1       4.465  -1.708  -1.886  0.00  0.00    -0.064 C 
ATOM     16  H   LIG d   1       5.273  -2.057  -2.530  0.00  0.00     0.023 H 
ATOM     17  H   LIG d   1       4.787  -0.814  -1.352  0.00  0.00     0.023 H 
ATOM     18  H   LIG d   1       4.210  -2.488  -1.169  0.00  0.00     0.023 H 
ENDBRANCH  12  15
ENDBRANCH   1  12
BRANCH   1  19
ATOM     19  C   LIG d   1       2.297   0.138  -4.454  0.00  0.00    -0.033 C 
ATOM     20  H   LIG d   1       1.964  -0.733  -5.020  0.00  0.00     0.028 H 
ATOM     21  H   LIG d   1       1.516   0.438  -3.757  0.00  0.00     0.028 H 
BRANCH  19  22
ATOM     22  C   LIG d   1       2.592   1.289  -5.417  0.00  0.00    -0.064 C 
ATOM     23  H   LIG d   1       3.190   0.921  -6.251  0.00  0.00     0.023 H 
ATOM     24  H   LIG d   1       1.654   1.696  -5.795  0.00  0.00     0.023 H 
ATOM     25  H   LIG d   1       3.142   2.070  -4.893  0.00  0.00     0.023 H 
ENDBRANCH  19  22
ENDBRANCH   1  19
TORSDOF 4
ENDMDL
MODEL 6
REMARK VINA RESULT:      -5.1      1.680      2.813
REMARK  4 active torsions:
REMARK  status: ('A' for Active; 'I' for Inactive)
REMARK    1  A    between atoms: C_1  and  C_2 
REMARK    2  A    between atoms: C_2  and  C_3 
REMARK    3  A    between atoms: C_3  and  C_12 
REMARK    4  A    between atoms: C_12  and  C_13 
ROOT
ATOM      1  C   LIG d   1       4.664  -0.410  -3.397  0.00  0.00     0.123 A 
ATOM      2  C   LIG d   1       3.513  -0.387  -4.385  0.00  0.00     0.235 A 
ATOM      3  O   LIG d   1       2.446   0.112  -4.095  0.00  0.00    -0.274 OA
ATOM      4  N   LIG d   1       3.720  -0.943  -5.598  0.00  0.00    -0.239 N 
ATOM      5  C   LIG d   1       4.891  -1.497  -5.932  0.00  0.00     0.312 A 
ATOM      6  O   LIG d   1       4.990  -1.973  -7.046  0.00  0.00    -0.252 OA
ATOM      7  N   LIG d   1       5.959  -1.564  -5.132  0.00  0.00    -0.239 N 
ATOM      8  C   LIG d   1       5.947  -1.063  -3.878  0.00  0.00     0.235 A 
ATOM      9  O   LIG d   1       6.924  -1.131  -3.163  0.00  0.00    -0.274 OA
ATOM     10  H   LIG d   1       2.998  -0.939  -6.245  0.00  0.00     0.159 HD
ATOM     11  H   LIG d   1       6.769  -1.986  -5.461  0.00  0.00     0.159 HD
ENDROOT
BRANCH   1  12
ATOM     12  C   LIG d   1       4.984   1.034  -3.004  0.00  0.00    -0.033 C 
ATOM     13  H   LIG d   1       4.432   1.716  -3.650  0.00  0.00     0.028 H 
ATOM     14  H   LIG d   1       6.053   1.212  -3.115  0.00  0.00     0.028 H 
BRANCH  12  15
ATOM     15  C   LIG d   1       4.576   1.268  -1.548  0.00  0.00    -0.064 C 
ATOM     16  H   LIG d   1       5.421   1.050  -0.895  0.00  0.00     0.023 H 
ATOM     17  H   LIG d   1       4.274   2.307  -1.418  0.00  0.00     0.023 H 
ATOM     18  H   LIG d   1       3.743   0.613  -1.294  0.00  0.00     0.023 H 
ENDBRANCH  12  15
ENDBRANCH   1  12
BRANCH   1  19
ATOM     19  C   LIG d   1       4.195  -1.150  -2.143  0.00  0.00    -0.033 C 
ATOM     20  H   LIG d   1       5.000  -1.163  -1.407  0.00  0.00     0.028 H 
ATOM     21  H   LIG d   1       3.328  -0.640  -1.724  0.00  0.00     0.028 H 
BRANCH  19  22
ATOM     22  C   LIG d   1       3.816  -2.586  -2.509  0.00  0.00    -0.064 C 
ATOM     23  H   LIG d   1       3.502  -3.119  -1.612  0.00  0.00     0.023 H 
ATOM     24  H   LIG d   1       2.998  -2.573  -3.229  0.00  0.00     0.023 H 
ATOM     25  H   LIG d   1       4.678  -3.089  -2.947  0.00  0.00     0.023 H 
ENDBRANCH  19  22
ENDBRANCH   1  19
TORSDOF 4
ENDMDL
MODEL 7
REMARK VINA RESULT:      -5.0      1.554      3.353
REMARK  4 active torsions:
REMARK  status: ('A' for Active; 'I' for Inactive)
REMARK    1  A    between atoms: C_1  and  C_2 
REMARK    2  A    between atoms: C_2  and  C_3 
REMARK    3  A    between atoms: C_3  and  C_12 
REMARK    4  A    between atoms: C_12  and  C_13 
ROOT
ATOM      1  C   LIG d   1       4.393  -0.546  -3.637  0.00  0.00     0.123 A 
ATOM      2  C   LIG d   1       4.360  -1.830  -2.831  0.00  0.00     0.235 A 
ATOM      3  O   LIG d   1       4.338  -1.810  -1.618  0.00  0.00    -0.274 OA
ATOM      4  N   LIG d   1       4.357  -2.996  -3.512  0.00  0.00    -0.239 N 
ATOM      5  C   LIG d   1       4.381  -3.035  -4.848  0.00  0.00     0.312 A 
ATOM      6  O   LIG d   1       4.375  -4.127  -5.380  0.00  0.00    -0.252 OA
ATOM      7  N   LIG d   1       4.411  -1.960  -5.643  0.00  0.00    -0.239 N 
ATOM      8  C   LIG d   1       4.419  -0.704  -5.146  0.00  0.00     0.235 A 
ATOM      9  O   LIG d   1       4.446   0.262  -5.879  0.00  0.00    -0.274 OA
ATOM     10  H   LIG d   1       4.336  -3.829  -3.016  0.00  0.00     0.159 HD
ATOM     11  H   LIG d   1       4.427  -2.085  -6.604  0.00  0.00     0.159 HD
ENDROOT
BRANCH   1  12
ATOM     12  C   LIG d   1       3.160   0.281  -3.267  0.00  0.00    -0.033 C 
ATOM     13  H   LIG d   1       2.484  -0.325  -2.663  0.00  0.00     0.028 H 
ATOM     14  H   LIG d   1       2.650   0.599  -4.176  0.00  0.00     0.028 H 
BRANCH  12  15
ATOM     15  C   LIG d   1       3.593   1.512  -2.467  0.00  0.00    -0.064 C 
ATOM     16  H   LIG d   1       3.021   2.379  -2.798  0.00  0.00     0.023 H 
ATOM     17  H   LIG d   1       3.412   1.339  -1.407  0.00  0.00     0.023 H 
ATOM     18  H   LIG d   1       4.655   1.695  -2.630  0.00  0.00     0.023 H 
ENDBRANCH  12  15
ENDBRANCH   1  12
BRANCH   1  19
ATOM     19  C   LIG d   1       5.635   0.243  -3.220  0.00  0.00    -0.033 C 
ATOM     20  H   LIG d   1       5.671   1.182  -3.771  0.00  0.00     0.028 H 
ATOM     21  H   LIG d   1       5.591   0.450  -2.151  0.00  0.00     0.028 H 
BRANCH  19  22
ATOM     22  C   LIG d   1       6.888  -0.578  -3.530  0.00  0.00    -0.064 C 
ATOM     23  H   LIG d   1       7.724   0.094  -3.725  0.00  0.00     0.023 H 
ATOM     24  H   LIG d   1       7.126  -1.214  -2.677  0.00  0.00     0.023 H 
ATOM     25  H   LIG d   1       6.709  -1.199  -4.407  0.00  0.00     0.023 H 
ENDBRANCH  19  22
ENDBRANCH   1  19
TORSDOF 4
ENDMDL
MODEL 8
REMARK VINA RESULT:      -4.9      1.862      3.379
REMARK  4 active torsions:
REMARK  status: ('A' for Active; 'I' for Inactive)
REMARK    1  A    between atoms: C_1  and  C_2 
REMARK    2  A    between atoms: C_2  and  C_3 
REMARK    3  A    between atoms: C_3  and  C_12 
REMARK    4  A    between atoms: C_12  and  C_13 
ROOT
ATOM      1  C   LIG d   1       4.672  -0.423  -3.302  0.00  0.00     0.123 A 
ATOM      2  C   LIG d   1       5.231  -0.738  -4.677  0.00  0.00     0.235 A 
ATOM      3  O   LIG d   1       4.836  -1.694  -5.311  0.00  0.00    -0.274 OA
ATOM      4  N   LIG d   1       6.184   0.083  -5.168  0.00  0.00    -0.239 N 
ATOM      5  C   LIG d   1       6.629   1.140  -4.481  0.00  0.00     0.312 A 
ATOM      6  O   LIG d   1       7.488   1.827  -4.998  0.00  0.00    -0.252 OA
ATOM      7  N   LIG d   1       6.199   1.498  -3.266  0.00  0.00    -0.239 N 
ATOM      8  C   LIG d   1       5.248   0.799  -2.610  0.00  0.00     0.235 A 
ATOM      9  O   LIG d   1       4.867   1.135  -1.509  0.00  0.00    -0.274 OA
ATOM     10  H   LIG d   1       6.555  -0.100  -6.044  0.00  0.00     0.159 HD
ATOM     11  H   LIG d   1       6.581   2.283  -2.843  0.00  0.00     0.159 HD
ENDROOT
BRANCH   1  12
ATOM     12  C   LIG d   1       3.161  -0.226  -3.436  0.00  0.00    -0.033 C 
ATOM     13  H   LIG d   1       2.741   0.035  -2.464  0.00  0.00     0.028 H 
ATOM     14  H   LIG d   1       2.705  -1.150  -3.793  0.00  0.00     0.028 H 
BRANCH  12  15
ATOM     15  C   LIG d   1       2.879   0.900  -4.433  0.00  0.00    -0.064 C 
ATOM     16  H   LIG d   1       3.022   1.863  -3.942  0.00  0.00     0.023 H 
ATOM     17  H   LIG d   1       3.562   0.818  -5.278  0.00  0.00     0.023 H 
ATOM     18  H   LIG d   1       1.851   0.823  -4.786  0.00  0.00     0.023 H 
ENDBRANCH  12  15
ENDBRANCH   1  12
BRANCH   1  19
ATOM     19  C   LIG d   1       4.914  -1.637  -2.404  0.00  0.00    -0.033 C 
ATOM     20  H   LIG d   1       5.632  -2.304  -2.882  0.00  0.00     0.028 H 
ATOM     21  H   LIG d   1       5.309  -1.306  -1.445  0.00  0.00     0.028 H 
BRANCH  19  22
ATOM     22  C   LIG d   1       3.596  -2.380  -2.184  0.00  0.00    -0.064 C 
ATOM     23  H   LIG d   1       3.544  -2.732  -1.154  0.00  0.00     0.023 H 
ATOM     24  H   LIG d   1       2.761  -1.706  -2.380  0.00  0.00     0.023 H 
ATOM     25  H   LIG d   1       3.540  -3.231  -2.863  0.00  0.00     0.023 H 
ENDBRANCH  19  22
ENDBRANCH   1  19
TORSDOF 4
ENDMDL
MODEL 9
REMARK VINA RESULT:      -4.8      1.986      3.123
REMARK  4 active torsions:
REMARK  status: ('A' for Active; 'I' for Inactive)
REMARK    1  A    between atoms: C_1  and  C_2 
REMARK    2  A    between atoms: C_2  and  C_3 
REMARK    3  A    between atoms: C_3  and  C_12 
REMARK    4  A    between atoms: C_12  and  C_13 
ROOT
ATOM      1  C   LIG d   1       5.447  -1.772  -4.148  0.00  0.00     0.123 A 
ATOM      2  C   LIG d   1       6.797  -1.603  -3.476  0.00  0.00     0.235 A 
ATOM      3  O   LIG d   1       7.441  -2.564  -3.111  0.00  0.00    -0.274 OA
ATOM      4  N   LIG d   1       7.254  -0.346  -3.299  0.00  0.00    -0.239 N 
ATOM      5  C   LIG d   1       6.555   0.724  -3.695  0.00  0.00     0.312 A 
ATOM      6  O   LIG d   1       7.042   1.819  -3.497  0.00  0.00    -0.252 OA
ATOM      7  N   LIG d   1       5.360   0.676  -4.294  0.00  0.00    -0.239 N 
ATOM      8  C   LIG d   1       4.739  -0.494  -4.557  0.00  0.00     0.235 A 
ATOM      9  O   LIG d   1       3.655  -0.522  -5.101  0.00  0.00    -0.274 OA
ATOM     10  H   LIG d   1       8.114  -0.214  -2.872  0.00  0.00     0.159 HD
ATOM     11  H   LIG d   1       4.926   1.506  -4.547  0.00  0.00     0.159 HD
ENDROOT
BRANCH   1  12
ATOM     12  C   LIG d   1       5.641  -2.630  -5.399  0.00  0.00    -0.033 C 
ATOM     13  H   LIG d   1       6.707  -2.780  -5.575  0.00  0.00     0.028 H 
ATOM     14  H   LIG d   1       5.199  -2.126  -6.258  0.00  0.00     0.028 H 
BRANCH  12  15
ATOM     15  C   LIG d   1       4.962  -3.986  -5.198  0.00  0.00    -0.064 C 
ATOM     16  H   LIG d   1       3.883  -3.845  -5.127  0.00  0.00     0.023 H 
ATOM     17  H   LIG d   1       5.188  -4.636  -6.044  0.00  0.00     0.023 H 
ATOM     18  H   LIG d   1       5.329  -4.444  -4.280  0.00  0.00     0.023 H 
ENDBRANCH  12  15
ENDBRANCH   1  12
BRANCH   1  19
ATOM     19  C   LIG d   1       4.534  -2.535  -3.187  0.00  0.00    -0.033 C 
ATOM     20  H   LIG d   1       3.592  -2.764  -3.687  0.00  0.00     0.028 H 
ATOM     21  H   LIG d   1       5.019  -3.462  -2.884  0.00  0.00     0.028 H 
BRANCH  19  22
ATOM     22  C   LIG d   1       4.259  -1.675  -1.952  0.00  0.00    -0.064 C 
ATOM     23  H   LIG d   1       3.333  -1.118  -2.096  0.00  0.00     0.023 H 
ATOM     24  H   LIG d   1       4.164  -2.317  -1.076  0.00  0.00     0.023 H 
ATOM     25  H   LIG d   1       5.083  -0.978  -1.804  0.00  0.00     0.023 H 
ENDBRANCH  19  22
ENDBRANCH   1  19
TORSDOF 4
ENDMDL
MODEL 10
REMARK VINA RESULT:      -4.8      1.789      3.545
REMARK  4 active torsions:
REMARK  status: ('A' for Active; 'I' for Inactive)
REMARK    1  A    between atoms: C_1  and  C_2 
REMARK    2  A    between atoms: C_2  and  C_3 
REMARK    3  A    between atoms: C_3  and  C_12 
REMARK    4  A    between atoms: C_12  and  C_13 
ROOT
ATOM      1  C   LIG d   1       5.052  -0.448  -3.313  0.00  0.00     0.123 A 
ATOM      2  C   LIG d   1       4.998  -1.964  -3.279  0.00  0.00     0.235 A 
ATOM      3  O   LIG d   1       3.961  -2.551  -3.053  0.00  0.00    -0.274 OA
ATOM      4  N   LIG d   1       6.147  -2.635  -3.510  0.00  0.00    -0.239 N 
ATOM      5  C   LIG d   1       7.298  -2.003  -3.760  0.00  0.00     0.312 A 
ATOM      6  O   LIG d   1       8.284  -2.686  -3.957  0.00  0.00    -0.252 OA
ATOM      7  N   LIG d   1       7.444  -0.675  -3.811  0.00  0.00    -0.239 N 
ATOM      8  C   LIG d   1       6.408   0.166  -3.606  0.00  0.00     0.235 A 
ATOM      9  O   LIG d   1       6.556   1.369  -3.655  0.00  0.00    -0.274 OA
ATOM     10  H   LIG d   1       6.135  -3.605  -3.492  0.00  0.00     0.159 HD
ATOM     11  H   LIG d   1       8.320  -0.304  -4.000  0.00  0.00     0.159 HD
ENDROOT
BRANCH   1  12
ATOM     12  C   LIG d   1       4.068   0.040  -4.378  0.00  0.00    -0.033 C 
ATOM     13  H   LIG d   1       4.080   1.129  -4.411  0.00  0.00     0.028 H 
ATOM     14  H   LIG d   1       3.065  -0.306  -4.131  0.00  0.00     0.028 H 
BRANCH  12  15
ATOM     15  C   LIG d   1       4.478  -0.516  -5.744  0.00  0.00    -0.064 C 
ATOM     16  H   LIG d   1       4.323  -1.595  -5.758  0.00  0.00     0.023 H 
ATOM     17  H   LIG d   1       3.872  -0.051  -6.522  0.00  0.00     0.023 H 
ATOM     18  H   LIG d   1       5.530  -0.298  -5.924  0.00  0.00     0.023 H 
ENDBRANCH  12  15
ENDBRANCH   1  12
BRANCH   1  19
ATOM     19  C   LIG d   1       4.577   0.072  -1.956  0.00  0.00    -0.033 C 
ATOM     20  H   LIG d   1       4.086  -0.735  -1.410  0.00  0.00     0.028 H 
ATOM     21  H   LIG d   1       5.432   0.429  -1.384  0.00  0.00     0.028 H 
BRANCH  19  22
ATOM     22  C   LIG d   1       3.588   1.220  -2.166  0.00  0.00    -0.064 C 
ATOM     23  H   LIG d   1       4.117   2.088  -2.558  0.00  0.00     0.023 H 
ATOM     24  H   LIG d   1       2.820   0.912  -2.876  0.00  0.00     0.023 H 
ATOM     25  H   LIG d   1       3.122   1.477  -1.216  0.00  0.00     0.023 H 
ENDBRANCH  19  22
ENDBRANCH   1  19
TORSDOF 4
ENDMDL
