MODEL 1
REMARK VINA RESULT:      -5.9      0.000      0.000
REMARK  8 active torsions:
REMARK  status: ('A' for Active; 'I' for Inactive)
REMARK    1  A    between atoms: C_1  and  C_2 
REMARK    2  A    between atoms: C_2  and  C_4 
REMARK    3  A    between atoms: C_2  and  N_8 
REMARK    4  A    between atoms: C_4  and  O_6 
REMARK    5  A    between atoms: O_6  and  C_7 
REMARK    6  A    between atoms: N_8  and  O_9 
REMARK    7  A    between atoms: O_9  and  C_10 
REMARK    8  A    between atoms: C_10  and  C_11 
ROOT
ATOM      1  N   LIG d   1       3.498   0.695  -6.891  0.00  0.00    -0.187 NA
ATOM      2  H   LIG d   1       3.485  -0.312  -6.826  0.00  0.00     0.155 HD
ENDROOT
BRANCH   1   3
ATOM      3  C   LIG d   1       2.876   1.149  -8.142  0.00  0.00     0.127 C 
ATOM      4  H   LIG d   1       2.031   1.799  -7.912  0.00  0.00     0.060 H 
BRANCH   3   5
ATOM      5  C   LIG d   1       2.387  -0.061  -8.938  0.00  0.00    -0.037 C 
ATOM      6  H   LIG d   1       2.184  -0.888  -8.257  0.00  0.00     0.025 H 
ATOM      7  H   LIG d   1       1.474   0.201  -9.473  0.00  0.00     0.025 H 
ATOM      8  H   LIG d   1       3.153  -0.359  -9.654  0.00  0.00     0.025 H 
ENDBRANCH   3   5
BRANCH   3   9
ATOM      9  C   LIG d   1       3.889   1.911  -8.958  0.00  0.00     0.326 C 
ATOM     10  O   LIG d   1       3.535   2.537  -9.929  0.00  0.00    -0.249 OA
BRANCH   9  11
ATOM     11  O   LIG d   1       5.184   1.895  -8.606  0.00  0.00    -0.467 OA
BRANCH  11  12
ATOM     12  C   LIG d   1       6.082   1.108  -9.432  0.00  0.00     0.082 C 
ATOM     13  H   LIG d   1       6.223   0.125  -8.981  0.00  0.00     0.066 H 
ATOM     14  H   LIG d   1       5.652   0.992 -10.427  0.00  0.00     0.066 H 
ATOM     15  H   LIG d   1       7.044   1.615  -9.508  0.00  0.00     0.066 H 
ENDBRANCH  11  12
ENDBRANCH   9  11
ENDBRANCH   3   9
ENDBRANCH   1   3
BRANCH   1  16
ATOM     16  O   LIG d   1       2.846   1.302  -5.730  0.00  0.00    -0.294 OA
BRANCH  16  17
ATOM     17  C   LIG d   1       2.145   0.371  -4.905  0.00  0.00     0.094 C 
ATOM     18  H   LIG d   1       1.215   0.823  -4.557  0.00  0.00     0.063 H 
ATOM     19  H   LIG d   1       1.919  -0.527  -5.479  0.00  0.00     0.063 H 
BRANCH  17  20
ATOM     20  C   LIG d   1       3.000   0.008  -3.718  0.00  0.00    -0.020 A 
ATOM     21  C   LIG d   1       3.572   1.003  -2.947  0.00  0.00    -0.056 A 
ATOM     22  C   LIG d   1       4.357   0.670  -1.859  0.00  0.00    -0.061 A 
ATOM     23  H   LIG d   1       3.405   2.041  -3.195  0.00  0.00     0.062 H 
ATOM     24  C   LIG d   1       4.570  -0.659  -1.542  0.00  0.00    -0.062 A 
ATOM     25  H   LIG d   1       4.803   1.448  -1.256  0.00  0.00     0.062 H 
ATOM     26  C   LIG d   1       3.999  -1.653  -2.313  0.00  0.00    -0.061 A 
ATOM     27  H   LIG d   1       5.183  -0.918  -0.692  0.00  0.00     0.062 H 
ATOM     28  C   LIG d   1       3.210  -1.320  -3.398  0.00  0.00    -0.056 A 
ATOM     29  H   LIG d   1       4.166  -2.690  -2.065  0.00  0.00     0.062 H 
ATOM     30  H   LIG d   1       2.760  -2.097  -3.997  0.00  0.00     0.062 H 
ENDBRANCH  17  20
ENDBRANCH  16  17
ENDBRANCH   1  16
TORSDOF 8
ENDMDL
MODEL 2
REMARK VINA RESULT:      -5.8      1.358      2.133
REMARK  8 active torsions:
REMARK  status: ('A' for Active; 'I' for Inactive)
REMARK    1  A    between atoms: C_1  and  C_2 
REMARK    2  A    between atoms: C_2  and  C_4 
REMARK    3  A    between atoms: C_2  and  N_8 
REMARK    4  A    between atoms: C_4  and  O_6 
REMARK    5  A    between atoms: O_6  and  C_7 
REMARK    6  A    between atoms: N_8  and  O_9 
REMARK    7  A    between atoms: O_9  and  C_10 
REMARK    8  A    between atoms: C_10  and  C_11 
ROOT
ATOM      1  N   LIG d   1       2.870  -0.299  -6.955  0.00  0.00    -0.187 NA
ATOM      2  H   LIG d   1       2.204  -0.027  -7.662  0.00  0.00     0.155 HD
ENDROOT
BRANCH   1   3
ATOM      3  C   LIG d   1       4.165  -0.645  -7.556  0.00  0.00     0.127 C 
ATOM      4  H   LIG d   1       4.025  -1.441  -8.287  0.00  0.00     0.060 H 
BRANCH   3   5
ATOM      5  C   LIG d   1       5.126  -1.117  -6.464  0.00  0.00    -0.037 C 
ATOM      6  H   LIG d   1       4.594  -1.764  -5.766  0.00  0.00     0.025 H 
ATOM      7  H   LIG d   1       5.948  -1.671  -6.918  0.00  0.00     0.025 H 
ATOM      8  H   LIG d   1       5.521  -0.254  -5.929  0.00  0.00     0.025 H 
ENDBRANCH   3   5
BRANCH   3   9
ATOM      9  C   LIG d   1       4.741   0.569  -8.240  0.00  0.00     0.326 C 
ATOM     10  O   LIG d   1       5.773   1.055  -7.842  0.00  0.00    -0.249 OA
BRANCH   9  11
ATOM     11  O   LIG d   1       4.106   1.111  -9.292  0.00  0.00    -0.467 OA
BRANCH  11  12
ATOM     12  C   LIG d   1       3.940   2.554  -9.290  0.00  0.00     0.082 C 
ATOM     13  H   LIG d   1       4.900   3.029  -9.494  0.00  0.00     0.066 H 
ATOM     14  H   LIG d   1       3.223   2.838 -10.060  0.00  0.00     0.066 H 
ATOM     15  H   LIG d   1       3.574   2.876  -8.315  0.00  0.00     0.066 H 
ENDBRANCH  11  12
ENDBRANCH   9  11
ENDBRANCH   3   9
ENDBRANCH   1   3
BRANCH   1  16
ATOM     16  O   LIG d   1       3.023   0.752  -5.948  0.00  0.00    -0.294 OA
BRANCH  16  17
ATOM     17  C   LIG d   1       2.198   0.576  -4.795  0.00  0.00     0.094 C 
ATOM     18  H   LIG d   1       1.741   1.529  -4.527  0.00  0.00     0.063 H 
ATOM     19  H   LIG d   1       1.417  -0.152  -5.014  0.00  0.00     0.063 H 
BRANCH  17  20
ATOM     20  C   LIG d   1       3.040   0.081  -3.647  0.00  0.00    -0.020 A 
ATOM     21  C   LIG d   1       3.138  -1.275  -3.396  0.00  0.00    -0.056 A 
ATOM     22  C   LIG d   1       3.910  -1.729  -2.343  0.00  0.00    -0.061 A 
ATOM     23  H   LIG d   1       2.613  -1.980  -4.024  0.00  0.00     0.062 H 
ATOM     24  C   LIG d   1       4.583  -0.827  -1.540  0.00  0.00    -0.062 A 
ATOM     25  H   LIG d   1       3.987  -2.789  -2.148  0.00  0.00     0.062 H 
ATOM     26  C   LIG d   1       4.484   0.529  -1.791  0.00  0.00    -0.061 A 
ATOM     27  H   LIG d   1       5.185  -1.182  -0.717  0.00  0.00     0.062 H 
ATOM     28  C   LIG d   1       3.716   0.982  -2.847  0.00  0.00    -0.056 A 
ATOM     29  H   LIG d   1       5.009   1.233  -1.163  0.00  0.00     0.062 H 
ATOM     30  H   LIG d   1       3.643   2.041  -3.046  0.00  0.00     0.062 H 
ENDBRANCH  17  20
ENDBRANCH  16  17
ENDBRANCH   1  16
TORSDOF 8
ENDMDL
MODEL 3
REMARK VINA RESULT:      -5.7      1.610      2.010
REMARK  8 active torsions:
REMARK  status: ('A' for Active; 'I' for Inactive)
REMARK    1  A    between atoms: C_1  and  C_2 
REMARK    2  A    between atoms: C_2  and  C_4 
REMARK    3  A    between atoms: C_2  and  N_8 
REMARK    4  A    between atoms: C_4  and  O_6 
REMARK    5  A    between atoms: O_6  and  C_7 
REMARK    6  A    between atoms: N_8  and  O_9 
REMARK    7  A    between atoms: O_9  and  C_10 
REMARK    8  A    between atoms: C_10  and  C_11 
ROOT
ATOM      1  N   LIG d   1       3.832   0.374  -6.663  0.00  0.00    -0.187 NA
ATOM      2  H   LIG d   1       3.752  -0.605  -6.436  0.00  0.00     0.155 HD
ENDROOT
BRANCH   1   3
ATOM      3  C   LIG d   1       3.618   0.601  -8.098  0.00  0.00     0.127 C 
ATOM      4  H   LIG d   1       4.581   0.633  -8.609  0.00  0.00     0.060 H 
BRANCH   3   5
ATOM      5  C   LIG d   1       2.888   1.930  -8.302  0.00  0.00    -0.037 C 
ATOM      6  H   LIG d   1       3.426   2.724  -7.784  0.00  0.00     0.025 H 
ATOM      7  H   LIG d   1       2.840   2.158  -9.367  0.00  0.00     0.025 H 
ATOM      8  H   LIG d   1       1.877   1.855  -7.902  0.00  0.00     0.025 H 
ENDBRANCH   3   5
BRANCH   3   9
ATOM      9  C   LIG d   1       2.786  -0.520  -8.665  0.00  0.00     0.326 C 
ATOM     10  O   LIG d   1       1.799  -0.272  -9.316  0.00  0.00    -0.249 OA
BRANCH   9  11
ATOM     11  O   LIG d   1       3.140  -1.797  -8.445  0.00  0.00    -0.467 OA
BRANCH  11  12
ATOM     12  C   LIG d   1       3.766  -2.506  -9.547  0.00  0.00     0.082 C 
ATOM     13  H   LIG d   1       3.506  -3.564  -9.492  0.00  0.00     0.066 H 
ATOM     14  H   LIG d   1       3.414  -2.094 -10.492  0.00  0.00     0.066 H 
ATOM     15  H   LIG d   1       4.849  -2.394  -9.482  0.00  0.00     0.066 H 
ENDBRANCH  11  12
ENDBRANCH   9  11
ENDBRANCH   3   9
ENDBRANCH   1   3
BRANCH   1  16
ATOM     16  O   LIG d   1       2.905   1.175  -5.861  0.00  0.00    -0.294 OA
BRANCH  16  17
ATOM     17  C   LIG d   1       2.142   0.414  -4.925  0.00  0.00     0.094 C 
ATOM     18  H   LIG d   1       1.281   0.998  -4.598  0.00  0.00     0.063 H 
ATOM     19  H   LIG d   1       1.797  -0.506  -5.397  0.00  0.00     0.063 H 
BRANCH  17  20
ATOM     20  C   LIG d   1       3.000   0.076  -3.733  0.00  0.00    -0.020 A 
ATOM     21  C   LIG d   1       3.603   1.085  -3.007  0.00  0.00    -0.056 A 
ATOM     22  C   LIG d   1       4.391   0.775  -1.914  0.00  0.00    -0.061 A 
ATOM     23  H   LIG d   1       3.460   2.117  -3.293  0.00  0.00     0.062 H 
ATOM     24  C   LIG d   1       4.575  -0.545  -1.547  0.00  0.00    -0.062 A 
ATOM     25  H   LIG d   1       4.862   1.565  -1.346  0.00  0.00     0.062 H 
ATOM     26  C   LIG d   1       3.972  -1.555  -2.273  0.00  0.00    -0.061 A 
ATOM     27  H   LIG d   1       5.191  -0.786  -0.693  0.00  0.00     0.062 H 
ATOM     28  C   LIG d   1       3.181  -1.244  -3.363  0.00  0.00    -0.056 A 
ATOM     29  H   LIG d   1       4.117  -2.585  -1.987  0.00  0.00     0.062 H 
ATOM     30  H   LIG d   1       2.705  -2.033  -3.927  0.00  0.00     0.062 H 
ENDBRANCH  17  20
ENDBRANCH  16  17
ENDBRANCH   1  16
TORSDOF 8
ENDMDL
MODEL 4
REMARK VINA RESULT:      -5.7      1.517      2.174
REMARK  8 active torsions:
REMARK  status: ('A' for Active; 'I' for Inactive)
REMARK    1  A    between atoms: C_1  and  C_2 
REMARK    2  A    between atoms: C_2  and  C_4 
REMARK    3  A    between atoms: C_2  and  N_8 
REMARK    4  A    between atoms: C_4  and  O_6 
REMARK    5  A    between atoms: O_6  and  C_7 
REMARK    6  A    between atoms: N_8  and  O_9 
REMARK    7  A    between atoms: O_9  and  C_10 
REMARK    8  A    between atoms: C_10  and  C_11 
ROOT
ATOM      1  N   LIG d   1       2.683  -0.082  -7.215  0.00  0.00    -0.187 NA
ATOM      2  H   LIG d   1       1.676  -0.143  -7.221  0.00  0.00     0.155 HD
ENDROOT
BRANCH   1   3
ATOM      3  C   LIG d   1       3.180   0.551  -8.444  0.00  0.00     0.127 C 
ATOM      4  H   LIG d   1       4.266   0.464  -8.484  0.00  0.00     0.060 H 
BRANCH   3   5
ATOM      5  C   LIG d   1       2.785   2.029  -8.452  0.00  0.00    -0.037 C 
ATOM      6  H   LIG d   1       2.740   2.388  -9.481  0.00  0.00     0.025 H 
ATOM      7  H   LIG d   1       1.809   2.147  -7.983  0.00  0.00     0.025 H 
ATOM      8  H   LIG d   1       3.526   2.606  -7.898  0.00  0.00     0.025 H 
ENDBRANCH   3   5
BRANCH   3   9
ATOM      9  C   LIG d   1       2.576  -0.136  -9.642  0.00  0.00     0.326 C 
ATOM     10  O   LIG d   1       1.393  -0.378  -9.668  0.00  0.00    -0.249 OA
BRANCH   9  11
ATOM     11  O   LIG d   1       3.354  -0.481 -10.680  0.00  0.00    -0.467 OA
BRANCH  11  12
ATOM     12  C   LIG d   1       4.108   0.582 -11.321  0.00  0.00     0.082 C 
ATOM     13  H   LIG d   1       4.531   0.214 -12.256  0.00  0.00     0.066 H 
ATOM     14  H   LIG d   1       3.447   1.423 -11.528  0.00  0.00     0.066 H 
ATOM     15  H   LIG d   1       4.913   0.906 -10.661  0.00  0.00     0.066 H 
ENDBRANCH  11  12
ENDBRANCH   9  11
ENDBRANCH   3   9
ENDBRANCH   1   3
BRANCH   1  16
ATOM     16  O   LIG d   1       3.158   0.631  -6.029  0.00  0.00    -0.294 OA
BRANCH  16  17
ATOM     17  C   LIG d   1       2.298   0.508  -4.894  0.00  0.00     0.094 C 
ATOM     18  H   LIG d   1       1.852   1.477  -4.670  0.00  0.00     0.063 H 
ATOM     19  H   LIG d   1       1.510  -0.212  -5.111  0.00  0.00     0.063 H 
BRANCH  17  20
ATOM     20  C   LIG d   1       3.098   0.036  -3.707  0.00  0.00    -0.020 A 
ATOM     21  C   LIG d   1       3.209  -1.316  -3.442  0.00  0.00    -0.056 A 
ATOM     22  C   LIG d   1       3.942  -1.750  -2.353  0.00  0.00    -0.061 A 
ATOM     23  H   LIG d   1       2.723  -2.035  -4.086  0.00  0.00     0.062 H 
ATOM     24  C   LIG d   1       4.564  -0.830  -1.529  0.00  0.00    -0.062 A 
ATOM     25  H   LIG d   1       4.029  -2.806  -2.147  0.00  0.00     0.062 H 
ATOM     26  C   LIG d   1       4.453   0.522  -1.794  0.00  0.00    -0.061 A 
ATOM     27  H   LIG d   1       5.136  -1.170  -0.678  0.00  0.00     0.062 H 
ATOM     28  C   LIG d   1       3.724   0.954  -2.886  0.00  0.00    -0.056 A 
ATOM     29  H   LIG d   1       4.939   1.239  -1.150  0.00  0.00     0.062 H 
ATOM     30  H   LIG d   1       3.641   2.011  -3.096  0.00  0.00     0.062 H 
ENDBRANCH  17  20
ENDBRANCH  16  17
ENDBRANCH   1  16
TORSDOF 8
ENDMDL
MODEL 5
REMARK VINA RESULT:      -5.6      2.208      2.793
REMARK  8 active torsions:
REMARK  status: ('A' for Active; 'I' for Inactive)
REMARK    1  A    between atoms: C_1  and  C_2 
REMARK    2  A    between atoms: C_2  and  C_4 
REMARK    3  A    between atoms: C_2  and  N_8 
REMARK    4  A    between atoms: C_4  and  O_6 
REMARK    5  A    between atoms: O_6  and  C_7 
REMARK    6  A    between atoms: N_8  and  O_9 
REMARK    7  A    between atoms: O_9  and  C_10 
REMARK    8  A    between atoms: C_10  and  C_11 
ROOT
ATOM      1  N   LIG d   1       3.221  -0.445  -6.763  0.00  0.00    -0.187 NA
ATOM      2  H   LIG d   1       2.569  -0.503  -7.530  0.00  0.00     0.155 HD
ENDROOT
BRANCH   1   3
ATOM      3  C   LIG d   1       4.607  -0.422  -7.251  0.00  0.00     0.127 C 
ATOM      4  H   LIG d   1       4.831   0.563  -7.662  0.00  0.00     0.060 H 
BRANCH   3   5
ATOM      5  C   LIG d   1       4.782  -1.482  -8.339  0.00  0.00    -0.037 C 
ATOM      6  H   LIG d   1       4.586  -2.469  -7.920  0.00  0.00     0.025 H 
ATOM      7  H   LIG d   1       4.084  -1.287  -9.153  0.00  0.00     0.025 H 
ATOM      8  H   LIG d   1       5.803  -1.445  -8.721  0.00  0.00     0.025 H 
ENDBRANCH   3   5
BRANCH   3   9
ATOM      9  C   LIG d   1       5.546  -0.714  -6.109  0.00  0.00     0.326 C 
ATOM     10  O   LIG d   1       5.799  -1.857  -5.812  0.00  0.00    -0.249 OA
BRANCH   9  11
ATOM     11  O   LIG d   1       6.100   0.296  -5.420  0.00  0.00    -0.467 OA
BRANCH  11  12
ATOM     12  C   LIG d   1       7.011  -0.059  -4.346  0.00  0.00     0.082 C 
ATOM     13  H   LIG d   1       6.438  -0.312  -3.454  0.00  0.00     0.066 H 
ATOM     14  H   LIG d   1       7.612  -0.916  -4.648  0.00  0.00     0.066 H 
ATOM     15  H   LIG d   1       7.665   0.786  -4.131  0.00  0.00     0.066 H 
ENDBRANCH  11  12
ENDBRANCH   9  11
ENDBRANCH   3   9
ENDBRANCH   1   3
BRANCH   1  16
ATOM     16  O   LIG d   1       2.941   0.722  -5.925  0.00  0.00    -0.294 OA
BRANCH  16  17
ATOM     17  C   LIG d   1       2.125   0.438  -4.788  0.00  0.00     0.094 C 
ATOM     18  H   LIG d   1       1.553   1.327  -4.520  0.00  0.00     0.063 H 
ATOM     19  H   LIG d   1       1.440  -0.376  -5.025  0.00  0.00     0.063 H 
BRANCH  17  20
ATOM     20  C   LIG d   1       3.000   0.036  -3.629  0.00  0.00    -0.020 A 
ATOM     21  C   LIG d   1       3.622   1.005  -2.864  0.00  0.00    -0.056 A 
ATOM     22  C   LIG d   1       4.425   0.637  -1.800  0.00  0.00    -0.061 A 
ATOM     23  H   LIG d   1       3.481   2.050  -3.097  0.00  0.00     0.062 H 
ATOM     24  C   LIG d   1       4.606  -0.701  -1.502  0.00  0.00    -0.062 A 
ATOM     25  H   LIG d   1       4.911   1.394  -1.203  0.00  0.00     0.062 H 
ATOM     26  C   LIG d   1       3.984  -1.670  -2.267  0.00  0.00    -0.061 A 
ATOM     27  H   LIG d   1       5.234  -0.988  -0.672  0.00  0.00     0.062 H 
ATOM     28  C   LIG d   1       3.177  -1.301  -3.327  0.00  0.00    -0.056 A 
ATOM     29  H   LIG d   1       4.126  -2.714  -2.034  0.00  0.00     0.062 H 
ATOM     30  H   LIG d   1       2.687  -2.058  -3.921  0.00  0.00     0.062 H 
ENDBRANCH  17  20
ENDBRANCH  16  17
ENDBRANCH   1  16
TORSDOF 8
ENDMDL
MODEL 6
REMARK VINA RESULT:      -5.3      2.118      6.301
REMARK  8 active torsions:
REMARK  status: ('A' for Active; 'I' for Inactive)
REMARK    1  A    between atoms: C_1  and  C_2 
REMARK    2  A    between atoms: C_2  and  C_4 
REMARK    3  A    between atoms: C_2  and  N_8 
REMARK    4  A    between atoms: C_4  and  O_6 
REMARK    5  A    between atoms: O_6  and  C_7 
REMARK    6  A    between atoms: N_8  and  O_9 
REMARK    7  A    between atoms: O_9  and  C_10 
REMARK    8  A    between atoms: C_10  and  C_11 
ROOT
ATOM      1  N   LIG d   1       3.363   0.825  -4.656  0.00  0.00    -0.187 NA
ATOM      2  H   LIG d   1       2.360   0.807  -4.557  0.00  0.00     0.155 HD
ENDROOT
BRANCH   1   3
ATOM      3  C   LIG d   1       4.009   0.011  -3.617  0.00  0.00     0.127 C 
ATOM      4  H   LIG d   1       4.790  -0.601  -4.069  0.00  0.00     0.060 H 
BRANCH   3   5
ATOM      5  C   LIG d   1       2.968  -0.894  -2.957  0.00  0.00    -0.037 C 
ATOM      6  H   LIG d   1       2.555  -1.575  -3.701  0.00  0.00     0.025 H 
ATOM      7  H   LIG d   1       3.440  -1.468  -2.160  0.00  0.00     0.025 H 
ATOM      8  H   LIG d   1       2.168  -0.283  -2.539  0.00  0.00     0.025 H 
ENDBRANCH   3   5
BRANCH   3   9
ATOM      9  C   LIG d   1       4.619   0.916  -2.578  0.00  0.00     0.326 C 
ATOM     10  O   LIG d   1       3.999   1.195  -1.579  0.00  0.00    -0.249 OA
BRANCH   9  11
ATOM     11  O   LIG d   1       5.852   1.415  -2.762  0.00  0.00    -0.467 OA
BRANCH  11  12
ATOM     12  C   LIG d   1       6.784   0.605  -3.526  0.00  0.00     0.082 C 
ATOM     13  H   LIG d   1       6.953  -0.340  -3.008  0.00  0.00     0.066 H 
ATOM     14  H   LIG d   1       6.368   0.407  -4.514  0.00  0.00     0.066 H 
ATOM     15  H   LIG d   1       7.729   1.138  -3.629  0.00  0.00     0.066 H 
ENDBRANCH  11  12
ENDBRANCH   9  11
ENDBRANCH   3   9
ENDBRANCH   1   3
BRANCH   1  16
ATOM     16  O   LIG d   1       3.766   0.385  -5.992  0.00  0.00    -0.294 OA
BRANCH  16  17
ATOM     17  C   LIG d   1       2.674   0.185  -6.891  0.00  0.00     0.094 C 
ATOM     18  H   LIG d   1       2.407  -0.872  -6.910  0.00  0.00     0.063 H 
ATOM     19  H   LIG d   1       1.817   0.770  -6.559  0.00  0.00     0.063 H 
BRANCH  17  20
ATOM     20  C   LIG d   1       3.076   0.625  -8.275  0.00  0.00    -0.020 A 
ATOM     21  C   LIG d   1       3.276  -0.315  -9.269  0.00  0.00    -0.056 A 
ATOM     22  C   LIG d   1       3.645   0.089 -10.539  0.00  0.00    -0.061 A 
ATOM     23  H   LIG d   1       3.145  -1.365  -9.054  0.00  0.00     0.062 H 
ATOM     24  C   LIG d   1       3.814   1.433 -10.815  0.00  0.00    -0.062 A 
ATOM     25  H   LIG d   1       3.801  -0.646 -11.315  0.00  0.00     0.062 H 
ATOM     26  C   LIG d   1       3.613   2.373  -9.822  0.00  0.00    -0.061 A 
ATOM     27  H   LIG d   1       4.102   1.747 -11.807  0.00  0.00     0.062 H 
ATOM     28  C   LIG d   1       3.240   1.969  -8.553  0.00  0.00    -0.056 A 
ATOM     29  H   LIG d   1       3.745   3.422 -10.037  0.00  0.00     0.062 H 
ATOM     30  H   LIG d   1       3.078   2.704  -7.778  0.00  0.00     0.062 H 
ENDBRANCH  17  20
ENDBRANCH  16  17
ENDBRANCH   1  16
TORSDOF 8
ENDMDL
MODEL 7
REMARK VINA RESULT:      -5.2      2.326      3.410
REMARK  8 active torsions:
REMARK  status: ('A' for Active; 'I' for Inactive)
REMARK    1  A    between atoms: C_1  and  C_2 
REMARK    2  A    between atoms: C_2  and  C_4 
REMARK    3  A    between atoms: C_2  and  N_8 
REMARK    4  A    between atoms: C_4  and  O_6 
REMARK    5  A    between atoms: O_6  and  C_7 
REMARK    6  A    between atoms: N_8  and  O_9 
REMARK    7  A    between atoms: O_9  and  C_10 
REMARK    8  A    between atoms: C_10  and  C_11 
ROOT
ATOM      1  N   LIG d   1       4.432  -2.318  -6.250  0.00  0.00    -0.187 NA
ATOM      2  H   LIG d   1       3.710  -2.160  -5.564  0.00  0.00     0.155 HD
ENDROOT
BRANCH   1   3
ATOM      3  C   LIG d   1       4.380  -1.303  -7.311  0.00  0.00     0.127 C 
ATOM      4  H   LIG d   1       4.116  -1.779  -8.256  0.00  0.00     0.060 H 
BRANCH   3   5
ATOM      5  C   LIG d   1       5.748  -0.631  -7.444  0.00  0.00    -0.037 C 
ATOM      6  H   LIG d   1       6.506  -1.386  -7.651  0.00  0.00     0.025 H 
ATOM      7  H   LIG d   1       5.721   0.091  -8.260  0.00  0.00     0.025 H 
ATOM      8  H   LIG d   1       5.991  -0.117  -6.513  0.00  0.00     0.025 H 
ENDBRANCH   3   5
BRANCH   3   9
ATOM      9  C   LIG d   1       3.343  -0.266  -6.964  0.00  0.00     0.326 C 
ATOM     10  O   LIG d   1       2.371  -0.124  -7.668  0.00  0.00    -0.249 OA
BRANCH   9  11
ATOM     11  O   LIG d   1       3.499   0.501  -5.873  0.00  0.00    -0.467 OA
BRANCH  11  12
ATOM     12  C   LIG d   1       2.434   0.468  -4.886  0.00  0.00     0.082 C 
ATOM     13  H   LIG d   1       2.402   1.420  -4.355  0.00  0.00     0.066 H 
ATOM     14  H   LIG d   1       1.480   0.298  -5.386  0.00  0.00     0.066 H 
ATOM     15  H   LIG d   1       2.621  -0.338  -4.177  0.00  0.00     0.066 H 
ENDBRANCH  11  12
ENDBRANCH   9  11
ENDBRANCH   3   9
ENDBRANCH   1   3
BRANCH   1  16
ATOM     16  O   LIG d   1       5.754  -2.352  -5.622  0.00  0.00    -0.294 OA
BRANCH  16  17
ATOM     17  C   LIG d   1       5.726  -2.665  -4.229  0.00  0.00     0.094 C 
ATOM     18  H   LIG d   1       4.948  -3.404  -4.038  0.00  0.00     0.063 H 
ATOM     19  H   LIG d   1       6.692  -3.069  -3.927  0.00  0.00     0.063 H 
BRANCH  17  20
ATOM     20  C   LIG d   1       5.436  -1.414  -3.439  0.00  0.00    -0.020 A 
ATOM     21  C   LIG d   1       6.094  -0.237  -3.741  0.00  0.00    -0.056 A 
ATOM     22  C   LIG d   1       5.828   0.910  -3.017  0.00  0.00    -0.061 A 
ATOM     23  H   LIG d   1       6.817  -0.213  -4.543  0.00  0.00     0.062 H 
ATOM     24  C   LIG d   1       4.902   0.879  -1.990  0.00  0.00    -0.062 A 
ATOM     25  H   LIG d   1       6.343   1.830  -3.253  0.00  0.00     0.062 H 
ATOM     26  C   LIG d   1       4.243  -0.298  -1.688  0.00  0.00    -0.061 A 
ATOM     27  H   LIG d   1       4.695   1.776  -1.425  0.00  0.00     0.062 H 
ATOM     28  C   LIG d   1       4.507  -1.443  -2.416  0.00  0.00    -0.056 A 
ATOM     29  H   LIG d   1       3.521  -0.321  -0.887  0.00  0.00     0.062 H 
ATOM     30  H   LIG d   1       3.988  -2.362  -2.183  0.00  0.00     0.062 H 
ENDBRANCH  17  20
ENDBRANCH  16  17
ENDBRANCH   1  16
TORSDOF 8
ENDMDL
MODEL 8
REMARK VINA RESULT:      -4.9      2.307      2.888
REMARK  8 active torsions:
REMARK  status: ('A' for Active; 'I' for Inactive)
REMARK    1  A    between atoms: C_1  and  C_2 
REMARK    2  A    between atoms: C_2  and  C_4 
REMARK    3  A    between atoms: C_2  and  N_8 
REMARK    4  A    between atoms: C_4  and  O_6 
REMARK    5  A    between atoms: O_6  and  C_7 
REMARK    6  A    between atoms: N_8  and  O_9 
REMARK    7  A    between atoms: O_9  and  C_10 
REMARK    8  A    between atoms: C_10  and  C_11 
ROOT
ATOM      1  N   LIG d   1       5.311   0.337  -6.516  0.00  0.00    -0.187 NA
ATOM      2  H   LIG d   1       5.541   0.808  -7.378  0.00  0.00     0.155 HD
ENDROOT
BRANCH   1   3
ATOM      3  C   LIG d   1       4.100  -0.481  -6.671  0.00  0.00     0.127 C 
ATOM      4  H   LIG d   1       3.664  -0.672  -5.690  0.00  0.00     0.060 H 
BRANCH   3   5
ATOM      5  C   LIG d   1       4.463  -1.810  -7.336  0.00  0.00    -0.037 C 
ATOM      6  H   LIG d   1       5.340  -1.672  -7.970  0.00  0.00     0.025 H 
ATOM      7  H   LIG d   1       4.683  -2.552  -6.568  0.00  0.00     0.025 H 
ATOM      8  H   LIG d   1       3.625  -2.154  -7.943  0.00  0.00     0.025 H 
ENDBRANCH   3   5
BRANCH   3   9
ATOM      9  C   LIG d   1       3.104   0.254  -7.530  0.00  0.00     0.326 C 
ATOM     10  O   LIG d   1       3.149   1.458  -7.612  0.00  0.00    -0.249 OA
BRANCH   9  11
ATOM     11  O   LIG d   1       2.164  -0.429  -8.202  0.00  0.00    -0.467 OA
BRANCH  11  12
ATOM     12  C   LIG d   1       2.040  -0.156  -9.623  0.00  0.00     0.082 C 
ATOM     13  H   LIG d   1       2.028   0.922  -9.785  0.00  0.00     0.066 H 
ATOM     14  H   LIG d   1       2.886  -0.593 -10.153  0.00  0.00     0.066 H 
ATOM     15  H   LIG d   1       1.112  -0.590  -9.997  0.00  0.00     0.066 H 
ENDBRANCH  11  12
ENDBRANCH   9  11
ENDBRANCH   3   9
ENDBRANCH   1   3
BRANCH   1  16
ATOM     16  O   LIG d   1       6.435  -0.473  -6.047  0.00  0.00    -0.294 OA
BRANCH  16  17
ATOM     17  C   LIG d   1       7.040   0.012  -4.847  0.00  0.00     0.094 C 
ATOM     18  H   LIG d   1       7.942  -0.563  -4.637  0.00  0.00     0.063 H 
ATOM     19  H   LIG d   1       7.300   1.063  -4.970  0.00  0.00     0.063 H 
BRANCH  17  20
ATOM     20  C   LIG d   1       6.072  -0.136  -3.702  0.00  0.00    -0.020 A 
ATOM     21  C   LIG d   1       5.663   0.978  -2.993  0.00  0.00    -0.056 A 
ATOM     22  C   LIG d   1       4.775   0.842  -1.942  0.00  0.00    -0.061 A 
ATOM     23  H   LIG d   1       6.037   1.955  -3.261  0.00  0.00     0.062 H 
ATOM     24  C   LIG d   1       4.296  -0.409  -1.599  0.00  0.00    -0.062 A 
ATOM     25  H   LIG d   1       4.456   1.713  -1.389  0.00  0.00     0.062 H 
ATOM     26  C   LIG d   1       4.705  -1.523  -2.308  0.00  0.00    -0.061 A 
ATOM     27  H   LIG d   1       3.603  -0.514  -0.778  0.00  0.00     0.062 H 
ATOM     28  C   LIG d   1       5.589  -1.386  -3.362  0.00  0.00    -0.056 A 
ATOM     29  H   LIG d   1       4.331  -2.499  -2.040  0.00  0.00     0.062 H 
ATOM     30  H   LIG d   1       5.904  -2.256  -3.918  0.00  0.00     0.062 H 
ENDBRANCH  17  20
ENDBRANCH  16  17
ENDBRANCH   1  16
TORSDOF 8
ENDMDL
MODEL 9
REMARK VINA RESULT:      -4.9      2.592      3.767
REMARK  8 active torsions:
REMARK  status: ('A' for Active; 'I' for Inactive)
REMARK    1  A    between atoms: C_1  and  C_2 
REMARK    2  A    between atoms: C_2  and  C_4 
REMARK    3  A    between atoms: C_2  and  N_8 
REMARK    4  A    between atoms: C_4  and  O_6 
REMARK    5  A    between atoms: O_6  and  C_7 
REMARK    6  A    between atoms: N_8  and  O_9 
REMARK    7  A    between atoms: O_9  and  C_10 
REMARK    8  A    between atoms: C_10  and  C_11 
ROOT
ATOM      1  N   LIG d   1       7.083   1.144  -6.302  0.00  0.00    -0.187 NA
ATOM      2  H   LIG d   1       7.749   1.778  -6.716  0.00  0.00     0.155 HD
ENDROOT
BRANCH   1   3
ATOM      3  C   LIG d   1       6.523   0.236  -7.313  0.00  0.00     0.127 C 
ATOM      4  H   LIG d   1       7.267  -0.515  -7.578  0.00  0.00     0.060 H 
BRANCH   3   5
ATOM      5  C   LIG d   1       6.137   1.035  -8.559  0.00  0.00    -0.037 C 
ATOM      6  H   LIG d   1       6.634   0.611  -9.431  0.00  0.00     0.025 H 
ATOM      7  H   LIG d   1       5.057   0.991  -8.698  0.00  0.00     0.025 H 
ATOM      8  H   LIG d   1       6.444   2.074  -8.434  0.00  0.00     0.025 H 
ENDBRANCH   3   5
BRANCH   3   9
ATOM      9  C   LIG d   1       5.300  -0.444  -6.753  0.00  0.00     0.326 C 
ATOM     10  O   LIG d   1       5.205  -1.648  -6.796  0.00  0.00    -0.249 OA
BRANCH   9  11
ATOM     11  O   LIG d   1       4.314   0.288  -6.209  0.00  0.00    -0.467 OA
BRANCH  11  12
ATOM     12  C   LIG d   1       2.988   0.138  -6.782  0.00  0.00     0.082 C 
ATOM     13  H   LIG d   1       3.076  -0.166  -7.826  0.00  0.00     0.066 H 
ATOM     14  H   LIG d   1       2.436  -0.621  -6.228  0.00  0.00     0.066 H 
ATOM     15  H   LIG d   1       2.458   1.089  -6.724  0.00  0.00     0.066 H 
ENDBRANCH  11  12
ENDBRANCH   9  11
ENDBRANCH   3   9
ENDBRANCH   1   3
BRANCH   1  16
ATOM     16  O   LIG d   1       7.689   0.393  -5.202  0.00  0.00    -0.294 OA
BRANCH  16  17
ATOM     17  C   LIG d   1       7.508   0.995  -3.919  0.00  0.00     0.094 C 
ATOM     18  H   LIG d   1       8.398   0.829  -3.311  0.00  0.00     0.063 H 
ATOM     19  H   LIG d   1       7.346   2.066  -4.039  0.00  0.00     0.063 H 
BRANCH  17  20
ATOM     20  C   LIG d   1       6.313   0.379  -3.239  0.00  0.00    -0.020 A 
ATOM     21  C   LIG d   1       6.157  -0.994  -3.225  0.00  0.00    -0.056 A 
ATOM     22  C   LIG d   1       5.061  -1.560  -2.601  0.00  0.00    -0.061 A 
ATOM     23  H   LIG d   1       6.892  -1.627  -3.701  0.00  0.00     0.062 H 
ATOM     24  C   LIG d   1       4.119  -0.751  -1.991  0.00  0.00    -0.062 A 
ATOM     25  H   LIG d   1       4.940  -2.634  -2.589  0.00  0.00     0.062 H 
ATOM     26  C   LIG d   1       4.275   0.622  -2.005  0.00  0.00    -0.061 A 
ATOM     27  H   LIG d   1       3.263  -1.194  -1.504  0.00  0.00     0.062 H 
ATOM     28  C   LIG d   1       5.374   1.186  -2.625  0.00  0.00    -0.056 A 
ATOM     29  H   LIG d   1       3.540   1.253  -1.530  0.00  0.00     0.062 H 
ATOM     30  H   LIG d   1       5.498   2.259  -2.632  0.00  0.00     0.062 H 
ENDBRANCH  17  20
ENDBRANCH  16  17
ENDBRANCH   1  16
TORSDOF 8
ENDMDL
