MODEL 1
REMARK VINA RESULT:      -6.7      0.000      0.000
REMARK  16 active torsions:
REMARK  status: ('A' for Active; 'I' for Inactive)
REMARK    1  A    between atoms: C_1  and  C_2 
REMARK    2  A    between atoms: C_2  and  C_3 
REMARK    3  A    between atoms: C_3  and  C_4 
REMARK    4  A    between atoms: C_4  and  C_5 
REMARK    5  A    between atoms: C_5  and  C_6 
REMARK    6  A    between atoms: C_6  and  C_7 
REMARK    7  A    between atoms: C_7  and  C_8 
REMARK    8  A    between atoms: C_8  and  O_9 
REMARK    9  A    between atoms: O_9  and  C_10 
REMARK   10  A    between atoms: C_13  and  C_18 
REMARK   11  A    between atoms: C_15  and  O_16 
REMARK   12  A    between atoms: O_16  and  C_17 
REMARK   13  A    between atoms: C_19  and  C_20 
REMARK   14  A    between atoms: C_21  and  C_35 
REMARK   15  A    between atoms: C_21  and  C_36 
REMARK   16  A    between atoms: C_24  and  C_34 
ROOT
ATOM      1  C   LIG d   1       6.172  -0.114  -6.450  0.00  0.00     0.162 A 
ATOM      2  C   LIG d   1       6.672   0.077  -5.171  0.00  0.00    -0.016 A 
ATOM      3  C   LIG d   1       7.678   0.995  -4.951  0.00  0.00    -0.051 A 
ATOM      4  C   LIG d   1       8.194   1.735  -6.017  0.00  0.00    -0.021 A 
ATOM      5  C   LIG d   1       7.689   1.543  -7.304  0.00  0.00    -0.009 A 
ATOM      6  C   LIG d   1       6.685   0.617  -7.519  0.00  0.00     0.162 A 
ATOM      7  H   LIG d   1       6.276  -0.495  -4.346  0.00  0.00     0.066 H 
ATOM      8  H   LIG d   1       8.067   1.143  -3.954  0.00  0.00     0.062 H 
ATOM      9  H   LIG d   1       8.085   2.114  -8.131  0.00  0.00     0.066 H 
ENDROOT
BRANCH   4  10
ATOM     10  C   LIG d   1       9.270   2.720  -5.783  0.00  0.00    -0.055 C 
ATOM     11  C   LIG d   1       9.225   3.511  -4.720  0.00  0.00    -0.042 C 
ATOM     12  H   LIG d   1       8.402   3.435  -4.025  0.00  0.00     0.061 H 
ATOM     13  H   LIG d   1      10.094   2.796  -6.477  0.00  0.00     0.062 H 
BRANCH  11  14
ATOM     14  C   LIG d   1      10.323   4.515  -4.481  0.00  0.00     0.130 C 
ATOM     15  N   LIG d   1       9.752   5.829  -4.120  0.00  0.00    -0.304 N 
ATOM     16  C   LIG d   1       9.975   6.082  -2.784  0.00  0.00     0.035 A 
ATOM     17  C   LIG d   1       9.125   6.695  -5.131  0.00  0.00     0.023 C 
ATOM     18  C   LIG d   1      10.825   5.127  -2.218  0.00  0.00    -0.017 A 
ATOM     19  C   LIG d   1       9.487   7.139  -2.008  0.00  0.00    -0.040 A 
ATOM     20  C   LIG d   1      11.169   4.107  -3.267  0.00  0.00     0.034 C 
ATOM     21  C   LIG d   1      11.226   5.196  -0.898  0.00  0.00    -0.053 A 
ATOM     22  C   LIG d   1      10.739   6.253  -0.140  0.00  0.00    -0.050 A 
ATOM     23  H   LIG d   1      11.891   4.457  -0.472  0.00  0.00     0.062 H 
ATOM     24  C   LIG d   1       9.890   7.196  -0.685  0.00  0.00    -0.057 A 
ATOM     25  H   LIG d   1       9.530   8.001  -0.061  0.00  0.00     0.062 H 
ATOM     26  H   LIG d   1       8.821   7.880  -2.424  0.00  0.00     0.064 H 
ATOM     27  C   LIG d   1      10.196   6.981  -6.191  0.00  0.00     0.040 C 
ATOM     28  H   LIG d   1       8.276   6.186  -5.585  0.00  0.00     0.047 H 
ATOM     29  H   LIG d   1       8.799   7.628  -4.670  0.00  0.00     0.047 H 
ATOM     30  C   LIG d   1      11.021   5.762  -6.471  0.00  0.00     0.216 C 
ATOM     31  H   LIG d   1       9.710   7.301  -7.113  0.00  0.00     0.037 H 
ATOM     32  H   LIG d   1      10.847   7.779  -5.836  0.00  0.00     0.037 H 
ATOM     33  O   LIG d   1      11.638   5.742  -7.515  0.00  0.00    -0.276 OA
ATOM     34  N   LIG d   1      11.122   4.692  -5.688  0.00  0.00    -0.290 N 
ATOM     35  H   LIG d   1      11.776   4.013  -5.919  0.00  0.00     0.151 HD
BRANCH  20  36
ATOM     36  C   LIG d   1      10.785   2.703  -2.796  0.00  0.00    -0.052 C 
ATOM     37  H   LIG d   1       9.703   2.639  -2.688  0.00  0.00     0.024 H 
ATOM     38  H   LIG d   1      11.122   1.969  -3.528  0.00  0.00     0.024 H 
ATOM     39  H   LIG d   1      11.258   2.500  -1.834  0.00  0.00     0.024 H 
ENDBRANCH  20  36
BRANCH  20  40
ATOM     40  C   LIG d   1      12.659   4.171  -3.608  0.00  0.00    -0.052 C 
ATOM     41  H   LIG d   1      13.071   3.161  -3.625  0.00  0.00     0.024 H 
ATOM     42  H   LIG d   1      12.789   4.632  -4.587  0.00  0.00     0.024 H 
ATOM     43  H   LIG d   1      13.179   4.763  -2.855  0.00  0.00     0.024 H 
ENDBRANCH  20  40
BRANCH  22  44
ATOM     44  C   LIG d   1      11.146   6.375   1.306  0.00  0.00    -0.040 C 
ATOM     45  H   LIG d   1      12.095   6.909   1.373  0.00  0.00     0.028 H 
ATOM     46  H   LIG d   1      10.381   6.924   1.853  0.00  0.00     0.028 H 
ATOM     47  H   LIG d   1      11.258   5.380   1.736  0.00  0.00     0.028 H 
ENDBRANCH  22  44
ENDBRANCH  11  14
ENDBRANCH   4  10
BRANCH   6  48
ATOM     48  O   LIG d   1       6.194   0.424  -8.773  0.00  0.00    -0.491 OA
BRANCH  48  49
ATOM     49  C   LIG d   1       5.374   1.462  -9.315  0.00  0.00     0.079 C 
ATOM     50  H   LIG d   1       4.329   1.152  -9.284  0.00  0.00     0.066 H 
ATOM     51  H   LIG d   1       5.500   2.371  -8.726  0.00  0.00     0.066 H 
ATOM     52  H   LIG d   1       5.666   1.654 -10.347  0.00  0.00     0.066 H 
ENDBRANCH  48  49
ENDBRANCH   6  48
BRANCH   1  53
ATOM     53  O   LIG d   1       5.180  -1.020  -6.662  0.00  0.00    -0.488 OA
BRANCH  53  54
ATOM     54  C   LIG d   1       4.049  -0.959  -5.792  0.00  0.00     0.090 C 
ATOM     55  H   LIG d   1       4.384  -0.775  -4.772  0.00  0.00     0.070 H 
ATOM     56  H   LIG d   1       3.509  -1.905  -5.832  0.00  0.00     0.070 H 
BRANCH  54  57
ATOM     57  C   LIG d   1       3.123   0.175  -6.238  0.00  0.00    -0.019 C 
ATOM     58  H   LIG d   1       2.381  -0.215  -6.935  0.00  0.00     0.030 H 
ATOM     59  H   LIG d   1       3.710   0.951  -6.728  0.00  0.00     0.030 H 
BRANCH  57  60
ATOM     60  C   LIG d   1       2.415   0.764  -5.016  0.00  0.00    -0.050 C 
ATOM     61  H   LIG d   1       1.337   0.651  -5.130  0.00  0.00     0.027 H 
ATOM     62  H   LIG d   1       2.662   1.822  -4.929  0.00  0.00     0.027 H 
BRANCH  60  63
ATOM     63  C   LIG d   1       2.874   0.027  -3.756  0.00  0.00    -0.053 C 
ATOM     64  H   LIG d   1       3.641  -0.702  -4.021  0.00  0.00     0.026 H 
ATOM     65  H   LIG d   1       2.025  -0.485  -3.305  0.00  0.00     0.026 H 
BRANCH  63  66
ATOM     66  C   LIG d   1       3.452   1.033  -2.759  0.00  0.00    -0.053 C 
ATOM     67  H   LIG d   1       2.656   1.398  -2.109  0.00  0.00     0.026 H 
ATOM     68  H   LIG d   1       3.890   1.872  -3.300  0.00  0.00     0.026 H 
BRANCH  66  69
ATOM     69  C   LIG d   1       4.529   0.353  -1.913  0.00  0.00    -0.053 C 
ATOM     70  H   LIG d   1       4.478   0.726  -0.890  0.00  0.00     0.026 H 
ATOM     71  H   LIG d   1       5.511   0.574  -2.332  0.00  0.00     0.026 H 
BRANCH  69  72
ATOM     72  C   LIG d   1       4.303  -1.160  -1.917  0.00  0.00    -0.056 C 
ATOM     73  H   LIG d   1       3.401  -1.391  -2.485  0.00  0.00     0.026 H 
ATOM     74  H   LIG d   1       4.187  -1.512  -0.892  0.00  0.00     0.026 H 
BRANCH  72  75
ATOM     75  C   LIG d   1       5.504  -1.854  -2.563  0.00  0.00    -0.065 C 
ATOM     76  H   LIG d   1       5.233  -2.876  -2.829  0.00  0.00     0.023 H 
ATOM     77  H   LIG d   1       5.799  -1.310  -3.460  0.00  0.00     0.023 H 
ATOM     78  H   LIG d   1       6.335  -1.871  -1.858  0.00  0.00     0.023 H 
ENDBRANCH  72  75
ENDBRANCH  69  72
ENDBRANCH  66  69
ENDBRANCH  63  66
ENDBRANCH  60  63
ENDBRANCH  57  60
ENDBRANCH  54  57
ENDBRANCH  53  54
ENDBRANCH   1  53
TORSDOF 16
ENDMDL
MODEL 2
REMARK VINA RESULT:      -6.6      1.149      1.925
REMARK  16 active torsions:
REMARK  status: ('A' for Active; 'I' for Inactive)
REMARK    1  A    between atoms: C_1  and  C_2 
REMARK    2  A    between atoms: C_2  and  C_3 
REMARK    3  A    between atoms: C_3  and  C_4 
REMARK    4  A    between atoms: C_4  and  C_5 
REMARK    5  A    between atoms: C_5  and  C_6 
REMARK    6  A    between atoms: C_6  and  C_7 
REMARK    7  A    between atoms: C_7  and  C_8 
REMARK    8  A    between atoms: C_8  and  O_9 
REMARK    9  A    between atoms: O_9  and  C_10 
REMARK   10  A    between atoms: C_13  and  C_18 
REMARK   11  A    between atoms: C_15  and  O_16 
REMARK   12  A    between atoms: O_16  and  C_17 
REMARK   13  A    between atoms: C_19  and  C_20 
REMARK   14  A    between atoms: C_21  and  C_35 
REMARK   15  A    between atoms: C_21  and  C_36 
REMARK   16  A    between atoms: C_24  and  C_34 
ROOT
ATOM      1  C   LIG d   1       6.533  -0.159  -5.021  0.00  0.00     0.162 A 
ATOM      2  C   LIG d   1       6.853   0.496  -3.842  0.00  0.00    -0.016 A 
ATOM      3  C   LIG d   1       7.750   1.544  -3.853  0.00  0.00    -0.051 A 
ATOM      4  C   LIG d   1       8.337   1.948  -5.053  0.00  0.00    -0.021 A 
ATOM      5  C   LIG d   1       8.014   1.290  -6.241  0.00  0.00    -0.009 A 
ATOM      6  C   LIG d   1       7.118   0.236  -6.222  0.00  0.00     0.162 A 
ATOM      7  H   LIG d   1       6.401   0.184  -2.912  0.00  0.00     0.066 H 
ATOM      8  H   LIG d   1       7.998   2.053  -2.932  0.00  0.00     0.062 H 
ATOM      9  H   LIG d   1       8.466   1.600  -7.171  0.00  0.00     0.066 H 
ENDROOT
BRANCH   4  10
ATOM     10  C   LIG d   1       9.297   3.072  -5.066  0.00  0.00    -0.055 C 
ATOM     11  C   LIG d   1       9.388   3.879  -4.019  0.00  0.00    -0.042 C 
ATOM     12  H   LIG d   1       8.760   3.715  -3.155  0.00  0.00     0.061 H 
ATOM     13  H   LIG d   1       9.925   3.236  -5.930  0.00  0.00     0.062 H 
BRANCH  11  14
ATOM     14  C   LIG d   1      10.366   5.024  -4.032  0.00  0.00     0.130 C 
ATOM     15  N   LIG d   1       9.667   6.305  -3.809  0.00  0.00    -0.304 N 
ATOM     16  C   LIG d   1       9.961   6.783  -2.550  0.00  0.00     0.035 A 
ATOM     17  C   LIG d   1       8.858   6.932  -4.867  0.00  0.00     0.023 C 
ATOM     18  C   LIG d   1      10.965   6.027  -1.939  0.00  0.00    -0.017 A 
ATOM     19  C   LIG d   1       9.407   7.885  -1.889  0.00  0.00    -0.040 A 
ATOM     20  C   LIG d   1      11.351   4.904  -2.860  0.00  0.00     0.034 C 
ATOM     21  C   LIG d   1      11.458   6.342  -0.687  0.00  0.00    -0.053 A 
ATOM     22  C   LIG d   1      10.904   7.441  -0.044  0.00  0.00    -0.050 A 
ATOM     23  H   LIG d   1      12.241   5.756  -0.227  0.00  0.00     0.062 H 
ATOM     24  C   LIG d   1       9.904   8.188  -0.632  0.00  0.00    -0.057 A 
ATOM     25  H   LIG d   1       9.496   9.034  -0.097  0.00  0.00     0.062 H 
ATOM     26  H   LIG d   1       8.623   8.475  -2.340  0.00  0.00     0.064 H 
ATOM     27  C   LIG d   1       9.798   7.169  -6.056  0.00  0.00     0.040 C 
ATOM     28  H   LIG d   1       8.046   6.266  -5.160  0.00  0.00     0.047 H 
ATOM     29  H   LIG d   1       8.455   7.881  -4.515  0.00  0.00     0.047 H 
ATOM     30  C   LIG d   1      10.744   6.022  -6.238  0.00  0.00     0.216 C 
ATOM     31  H   LIG d   1       9.204   7.289  -6.963  0.00  0.00     0.037 H 
ATOM     32  H   LIG d   1      10.370   8.080  -5.883  0.00  0.00     0.037 H 
ATOM     33  O   LIG d   1      11.275   5.912  -7.323  0.00  0.00    -0.276 OA
ATOM     34  N   LIG d   1      11.040   5.103  -5.324  0.00  0.00    -0.290 N 
ATOM     35  H   LIG d   1      11.753   4.474  -5.517  0.00  0.00     0.151 HD
BRANCH  20  36
ATOM     36  C   LIG d   1      11.184   3.555  -2.159  0.00  0.00    -0.052 C 
ATOM     37  H   LIG d   1      12.152   3.059  -2.089  0.00  0.00     0.024 H 
ATOM     38  H   LIG d   1      10.783   3.713  -1.157  0.00  0.00     0.024 H 
ATOM     39  H   LIG d   1      10.496   2.930  -2.730  0.00  0.00     0.024 H 
ENDBRANCH  20  36
BRANCH  20  40
ATOM     40  C   LIG d   1      12.789   5.081  -3.349  0.00  0.00    -0.052 C 
ATOM     41  H   LIG d   1      12.949   4.469  -4.237  0.00  0.00     0.024 H 
ATOM     42  H   LIG d   1      12.964   6.129  -3.593  0.00  0.00     0.024 H 
ATOM     43  H   LIG d   1      13.480   4.771  -2.564  0.00  0.00     0.024 H 
ENDBRANCH  20  40
BRANCH  22  44
ATOM     44  C   LIG d   1      11.406   7.828   1.324  0.00  0.00    -0.040 C 
ATOM     45  H   LIG d   1      10.814   7.320   2.086  0.00  0.00     0.028 H 
ATOM     46  H   LIG d   1      12.451   7.538   1.422  0.00  0.00     0.028 H 
ATOM     47  H   LIG d   1      11.314   8.906   1.451  0.00  0.00     0.028 H 
ENDBRANCH  22  44
ENDBRANCH  11  14
ENDBRANCH   4  10
BRANCH   6  48
ATOM     48  O   LIG d   1       6.805  -0.411  -7.376  0.00  0.00    -0.491 OA
BRANCH  48  49
ATOM     49  C   LIG d   1       7.874  -0.652  -8.295  0.00  0.00     0.079 C 
ATOM     50  H   LIG d   1       8.305   0.299  -8.608  0.00  0.00     0.066 H 
ATOM     51  H   LIG d   1       8.641  -1.256  -7.810  0.00  0.00     0.066 H 
ATOM     52  H   LIG d   1       7.491  -1.182  -9.167  0.00  0.00     0.066 H 
ENDBRANCH  48  49
ENDBRANCH   6  48
BRANCH   1  53
ATOM     53  O   LIG d   1       5.648  -1.191  -5.005  0.00  0.00    -0.488 OA
BRANCH  53  54
ATOM     54  C   LIG d   1       5.824  -2.181  -3.991  0.00  0.00     0.090 C 
ATOM     55  H   LIG d   1       6.308  -1.731  -3.125  0.00  0.00     0.070 H 
ATOM     56  H   LIG d   1       6.447  -2.988  -4.375  0.00  0.00     0.070 H 
BRANCH  54  57
ATOM     57  C   LIG d   1       4.460  -2.740  -3.581  0.00  0.00    -0.019 C 
ATOM     58  H   LIG d   1       4.551  -3.807  -3.378  0.00  0.00     0.030 H 
ATOM     59  H   LIG d   1       3.746  -2.583  -4.390  0.00  0.00     0.030 H 
BRANCH  57  60
ATOM     60  C   LIG d   1       3.971  -2.020  -2.322  0.00  0.00    -0.050 C 
ATOM     61  H   LIG d   1       4.798  -1.468  -1.875  0.00  0.00     0.027 H 
ATOM     62  H   LIG d   1       3.594  -2.752  -1.608  0.00  0.00     0.027 H 
BRANCH  60  63
ATOM     63  C   LIG d   1       2.852  -1.045  -2.695  0.00  0.00    -0.053 C 
ATOM     64  H   LIG d   1       2.000  -1.200  -2.033  0.00  0.00     0.026 H 
ATOM     65  H   LIG d   1       2.547  -1.219  -3.727  0.00  0.00     0.026 H 
BRANCH  63  66
ATOM     66  C   LIG d   1       3.356   0.391  -2.548  0.00  0.00    -0.053 C 
ATOM     67  H   LIG d   1       4.410   0.380  -2.268  0.00  0.00     0.026 H 
ATOM     68  H   LIG d   1       2.782   0.901  -1.773  0.00  0.00     0.026 H 
BRANCH  66  69
ATOM     69  C   LIG d   1       3.189   1.130  -3.876  0.00  0.00    -0.053 C 
ATOM     70  H   LIG d   1       4.167   1.279  -4.336  0.00  0.00     0.026 H 
ATOM     71  H   LIG d   1       2.722   2.098  -3.696  0.00  0.00     0.026 H 
BRANCH  69  72
ATOM     72  C   LIG d   1       2.305   0.304  -4.813  0.00  0.00    -0.056 C 
ATOM     73  H   LIG d   1       1.295   0.713  -4.812  0.00  0.00     0.026 H 
ATOM     74  H   LIG d   1       2.280  -0.730  -4.469  0.00  0.00     0.026 H 
BRANCH  72  75
ATOM     75  C   LIG d   1       2.877   0.356  -6.231  0.00  0.00    -0.065 C 
ATOM     76  H   LIG d   1       2.074   0.198  -6.952  0.00  0.00     0.023 H 
ATOM     77  H   LIG d   1       3.334   1.330  -6.403  0.00  0.00     0.023 H 
ATOM     78  H   LIG d   1       3.628  -0.424  -6.348  0.00  0.00     0.023 H 
ENDBRANCH  72  75
ENDBRANCH  69  72
ENDBRANCH  66  69
ENDBRANCH  63  66
ENDBRANCH  60  63
ENDBRANCH  57  60
ENDBRANCH  54  57
ENDBRANCH  53  54
ENDBRANCH   1  53
TORSDOF 16
ENDMDL
MODEL 3
REMARK VINA RESULT:      -6.4      2.116      3.936
REMARK  16 active torsions:
REMARK  status: ('A' for Active; 'I' for Inactive)
REMARK    1  A    between atoms: C_1  and  C_2 
REMARK    2  A    between atoms: C_2  and  C_3 
REMARK    3  A    between atoms: C_3  and  C_4 
REMARK    4  A    between atoms: C_4  and  C_5 
REMARK    5  A    between atoms: C_5  and  C_6 
REMARK    6  A    between atoms: C_6  and  C_7 
REMARK    7  A    between atoms: C_7  and  C_8 
REMARK    8  A    between atoms: C_8  and  O_9 
REMARK    9  A    between atoms: O_9  and  C_10 
REMARK   10  A    between atoms: C_13  and  C_18 
REMARK   11  A    between atoms: C_15  and  O_16 
REMARK   12  A    between atoms: O_16  and  C_17 
REMARK   13  A    between atoms: C_19  and  C_20 
REMARK   14  A    between atoms: C_21  and  C_35 
REMARK   15  A    between atoms: C_21  and  C_36 
REMARK   16  A    between atoms: C_24  and  C_34 
ROOT
ATOM      1  C   LIG d   1       7.402   0.610  -5.676  0.00  0.00     0.162 A 
ATOM      2  C   LIG d   1       7.431   0.890  -4.319  0.00  0.00    -0.016 A 
ATOM      3  C   LIG d   1       8.155   1.966  -3.848  0.00  0.00    -0.051 A 
ATOM      4  C   LIG d   1       8.860   2.777  -4.739  0.00  0.00    -0.021 A 
ATOM      5  C   LIG d   1       8.831   2.495  -6.107  0.00  0.00    -0.009 A 
ATOM      6  C   LIG d   1       8.108   1.412  -6.571  0.00  0.00     0.162 A 
ATOM      7  H   LIG d   1       6.887   0.264  -3.627  0.00  0.00     0.066 H 
ATOM      8  H   LIG d   1       8.176   2.183  -2.790  0.00  0.00     0.062 H 
ATOM      9  H   LIG d   1       9.375   3.120  -6.799  0.00  0.00     0.066 H 
ENDROOT
BRANCH   4  10
ATOM     10  C   LIG d   1       9.635   3.931  -4.237  0.00  0.00    -0.055 C 
ATOM     11  C   LIG d   1       9.159   5.159  -4.378  0.00  0.00    -0.042 C 
ATOM     12  H   LIG d   1       8.206   5.317  -4.860  0.00  0.00     0.061 H 
ATOM     13  H   LIG d   1      10.589   3.773  -3.756  0.00  0.00     0.062 H 
BRANCH  11  14
ATOM     14  C   LIG d   1       9.949   6.336  -3.867  0.00  0.00     0.130 C 
ATOM     15  N   LIG d   1      11.149   5.877  -3.138  0.00  0.00    -0.304 N 
ATOM     16  C   LIG d   1      12.277   6.141  -3.885  0.00  0.00     0.035 A 
ATOM     17  C   LIG d   1      11.052   5.304  -1.786  0.00  0.00     0.023 C 
ATOM     18  C   LIG d   1      11.976   6.921  -5.005  0.00  0.00    -0.017 A 
ATOM     19  C   LIG d   1      13.596   5.749  -3.632  0.00  0.00    -0.040 A 
ATOM     20  C   LIG d   1      10.494   7.168  -5.037  0.00  0.00     0.034 C 
ATOM     21  C   LIG d   1      12.954   7.348  -5.883  0.00  0.00    -0.053 A 
ATOM     22  C   LIG d   1      14.260   6.958  -5.617  0.00  0.00    -0.050 A 
ATOM     23  H   LIG d   1      12.713   7.959  -6.741  0.00  0.00     0.062 H 
ATOM     24  C   LIG d   1      14.568   6.178  -4.521  0.00  0.00    -0.057 A 
ATOM     25  H   LIG d   1      15.596   5.892  -4.351  0.00  0.00     0.062 H 
ATOM     26  H   LIG d   1      13.846   5.138  -2.778  0.00  0.00     0.064 H 
ATOM     27  C   LIG d   1      10.408   6.377  -0.899  0.00  0.00     0.040 C 
ATOM     28  H   LIG d   1      10.428   4.410  -1.803  0.00  0.00     0.047 H 
ATOM     29  H   LIG d   1      12.046   5.059  -1.413  0.00  0.00     0.047 H 
ATOM     30  C   LIG d   1       9.315   7.098  -1.626  0.00  0.00     0.216 C 
ATOM     31  H   LIG d   1       9.991   5.903  -0.009  0.00  0.00     0.037 H 
ATOM     32  H   LIG d   1      11.169   7.094  -0.596  0.00  0.00     0.037 H 
ATOM     33  O   LIG d   1       8.504   7.696  -0.950  0.00  0.00    -0.276 OA
ATOM     34  N   LIG d   1       9.143   7.128  -2.944  0.00  0.00    -0.290 N 
ATOM     35  H   LIG d   1       8.467   7.722  -3.307  0.00  0.00     0.151 HD
BRANCH  20  36
ATOM     36  C   LIG d   1       9.898   6.682  -6.360  0.00  0.00    -0.052 C 
ATOM     37  H   LIG d   1       9.834   5.595  -6.352  0.00  0.00     0.024 H 
ATOM     38  H   LIG d   1       8.901   7.105  -6.486  0.00  0.00     0.024 H 
ATOM     39  H   LIG d   1      10.536   7.003  -7.185  0.00  0.00     0.024 H 
ENDBRANCH  20  36
BRANCH  20  40
ATOM     40  C   LIG d   1      10.192   8.652  -4.825  0.00  0.00    -0.052 C 
ATOM     41  H   LIG d   1       9.351   8.946  -5.454  0.00  0.00     0.024 H 
ATOM     42  H   LIG d   1       9.941   8.826  -3.778  0.00  0.00     0.024 H 
ATOM     43  H   LIG d   1      11.069   9.243  -5.091  0.00  0.00     0.024 H 
ENDBRANCH  20  40
BRANCH  22  44
ATOM     44  C   LIG d   1      15.366   7.397  -6.543  0.00  0.00    -0.040 C 
ATOM     45  H   LIG d   1      16.193   6.690  -6.482  0.00  0.00     0.028 H 
ATOM     46  H   LIG d   1      14.991   7.432  -7.565  0.00  0.00     0.028 H 
ATOM     47  H   LIG d   1      15.712   8.388  -6.249  0.00  0.00     0.028 H 
ENDBRANCH  22  44
ENDBRANCH  11  14
ENDBRANCH   4  10
BRANCH   6  48
ATOM     48  O   LIG d   1       8.081   1.132  -7.901  0.00  0.00    -0.491 OA
BRANCH  48  49
ATOM     49  C   LIG d   1       7.198   1.913  -8.711  0.00  0.00     0.079 C 
ATOM     50  H   LIG d   1       7.256   1.572  -9.744  0.00  0.00     0.066 H 
ATOM     51  H   LIG d   1       6.176   1.800  -8.348  0.00  0.00     0.066 H 
ATOM     52  H   LIG d   1       7.489   2.962  -8.657  0.00  0.00     0.066 H 
ENDBRANCH  48  49
ENDBRANCH   6  48
BRANCH   1  53
ATOM     53  O   LIG d   1       6.687  -0.451  -6.135  0.00  0.00    -0.488 OA
BRANCH  53  54
ATOM     54  C   LIG d   1       5.356  -0.601  -5.638  0.00  0.00     0.090 C 
ATOM     55  H   LIG d   1       4.646  -0.311  -6.411  0.00  0.00     0.070 H 
ATOM     56  H   LIG d   1       5.222   0.036  -4.763  0.00  0.00     0.070 H 
BRANCH  54  57
ATOM     57  C   LIG d   1       5.119  -2.061  -5.246  0.00  0.00    -0.019 C 
ATOM     58  H   LIG d   1       5.800  -2.702  -5.806  0.00  0.00     0.030 H 
ATOM     59  H   LIG d   1       4.090  -2.336  -5.475  0.00  0.00     0.030 H 
BRANCH  57  60
ATOM     60  C   LIG d   1       5.371  -2.234  -3.747  0.00  0.00    -0.050 C 
ATOM     61  H   LIG d   1       5.837  -1.331  -3.350  0.00  0.00     0.027 H 
ATOM     62  H   LIG d   1       6.032  -3.085  -3.585  0.00  0.00     0.027 H 
BRANCH  60  63
ATOM     63  C   LIG d   1       4.041  -2.478  -3.031  0.00  0.00    -0.053 C 
ATOM     64  H   LIG d   1       4.191  -3.186  -2.216  0.00  0.00     0.026 H 
ATOM     65  H   LIG d   1       3.317  -2.884  -3.738  0.00  0.00     0.026 H 
BRANCH  63  66
ATOM     66  C   LIG d   1       3.515  -1.156  -2.467  0.00  0.00    -0.053 C 
ATOM     67  H   LIG d   1       2.625  -1.345  -1.867  0.00  0.00     0.026 H 
ATOM     68  H   LIG d   1       3.261  -0.486  -3.289  0.00  0.00     0.026 H 
BRANCH  66  69
ATOM     69  C   LIG d   1       4.591  -0.509  -1.595  0.00  0.00    -0.053 C 
ATOM     70  H   LIG d   1       5.571  -0.893  -1.880  0.00  0.00     0.026 H 
ATOM     71  H   LIG d   1       4.400  -0.745  -0.548  0.00  0.00     0.026 H 
BRANCH  69  72
ATOM     72  C   LIG d   1       4.562   1.008  -1.789  0.00  0.00    -0.056 C 
ATOM     73  H   LIG d   1       5.563   1.362  -2.037  0.00  0.00     0.026 H 
ATOM     74  H   LIG d   1       4.227   1.486  -0.869  0.00  0.00     0.026 H 
BRANCH  72  75
ATOM     75  C   LIG d   1       3.600   1.359  -2.926  0.00  0.00    -0.065 C 
ATOM     76  H   LIG d   1       3.795   0.709  -3.780  0.00  0.00     0.023 H 
ATOM     77  H   LIG d   1       2.573   1.220  -2.589  0.00  0.00     0.023 H 
ATOM     78  H   LIG d   1       3.750   2.398  -3.220  0.00  0.00     0.023 H 
ENDBRANCH  72  75
ENDBRANCH  69  72
ENDBRANCH  66  69
ENDBRANCH  63  66
ENDBRANCH  60  63
ENDBRANCH  57  60
ENDBRANCH  54  57
ENDBRANCH  53  54
ENDBRANCH   1  53
TORSDOF 16
ENDMDL
MODEL 4
REMARK VINA RESULT:      -6.4      4.772      7.940
REMARK  16 active torsions:
REMARK  status: ('A' for Active; 'I' for Inactive)
REMARK    1  A    between atoms: C_1  and  C_2 
REMARK    2  A    between atoms: C_2  and  C_3 
REMARK    3  A    between atoms: C_3  and  C_4 
REMARK    4  A    between atoms: C_4  and  C_5 
REMARK    5  A    between atoms: C_5  and  C_6 
REMARK    6  A    between atoms: C_6  and  C_7 
REMARK    7  A    between atoms: C_7  and  C_8 
REMARK    8  A    between atoms: C_8  and  O_9 
REMARK    9  A    between atoms: O_9  and  C_10 
REMARK   10  A    between atoms: C_13  and  C_18 
REMARK   11  A    between atoms: C_15  and  O_16 
REMARK   12  A    between atoms: O_16  and  C_17 
REMARK   13  A    between atoms: C_19  and  C_20 
REMARK   14  A    between atoms: C_21  and  C_35 
REMARK   15  A    between atoms: C_21  and  C_36 
REMARK   16  A    between atoms: C_24  and  C_34 
ROOT
ATOM      1  C   LIG d   1       2.101  -1.881  -9.762  0.00  0.00     0.162 A 
ATOM      2  C   LIG d   1       2.028  -0.754  -8.958  0.00  0.00    -0.016 A 
ATOM      3  C   LIG d   1       2.855  -0.633  -7.859  0.00  0.00    -0.051 A 
ATOM      4  C   LIG d   1       3.767  -1.644  -7.557  0.00  0.00    -0.021 A 
ATOM      5  C   LIG d   1       3.841  -2.779  -8.368  0.00  0.00    -0.009 A 
ATOM      6  C   LIG d   1       3.006  -2.897  -9.464  0.00  0.00     0.162 A 
ATOM      7  H   LIG d   1       1.322   0.029  -9.189  0.00  0.00     0.066 H 
ATOM      8  H   LIG d   1       2.796   0.246  -7.234  0.00  0.00     0.062 H 
ATOM      9  H   LIG d   1       4.546  -3.563  -8.137  0.00  0.00     0.066 H 
ENDROOT
BRANCH   4  10
ATOM     10  C   LIG d   1       4.654  -1.515  -6.382  0.00  0.00    -0.055 C 
ATOM     11  C   LIG d   1       4.793  -0.341  -5.783  0.00  0.00    -0.042 C 
ATOM     12  H   LIG d   1       4.259   0.521  -6.154  0.00  0.00     0.061 H 
ATOM     13  H   LIG d   1       5.189  -2.377  -6.011  0.00  0.00     0.062 H 
BRANCH  11  14
ATOM     14  C   LIG d   1       5.697  -0.208  -4.585  0.00  0.00     0.130 C 
ATOM     15  N   LIG d   1       5.895  -1.521  -3.938  0.00  0.00    -0.304 N 
ATOM     16  C   LIG d   1       7.178  -1.968  -4.174  0.00  0.00     0.035 A 
ATOM     17  C   LIG d   1       4.839  -2.141  -3.123  0.00  0.00     0.023 C 
ATOM     18  C   LIG d   1       7.959  -0.980  -4.782  0.00  0.00    -0.017 A 
ATOM     19  C   LIG d   1       7.734  -3.213  -3.863  0.00  0.00    -0.040 A 
ATOM     20  C   LIG d   1       7.102   0.233  -5.018  0.00  0.00     0.034 C 
ATOM     21  C   LIG d   1       9.293  -1.182  -5.077  0.00  0.00    -0.053 A 
ATOM     22  C   LIG d   1       9.835  -2.420  -4.758  0.00  0.00    -0.050 A 
ATOM     23  H   LIG d   1       9.890  -0.408  -5.539  0.00  0.00     0.062 H 
ATOM     24  C   LIG d   1       9.070  -3.407  -4.168  0.00  0.00    -0.057 A 
ATOM     25  H   LIG d   1       9.528  -4.359  -3.939  0.00  0.00     0.062 H 
ATOM     26  H   LIG d   1       7.144  -3.992  -3.403  0.00  0.00     0.064 H 
ATOM     27  C   LIG d   1       4.526  -1.158  -1.987  0.00  0.00     0.040 C 
ATOM     28  H   LIG d   1       3.948  -2.307  -3.728  0.00  0.00     0.047 H 
ATOM     29  H   LIG d   1       5.192  -3.086  -2.711  0.00  0.00     0.047 H 
ATOM     30  C   LIG d   1       4.541   0.258  -2.476  0.00  0.00     0.216 C 
ATOM     31  H   LIG d   1       3.541  -1.384  -1.579  0.00  0.00     0.037 H 
ATOM     32  H   LIG d   1       5.272  -1.271  -1.201  0.00  0.00     0.037 H 
ATOM     33  O   LIG d   1       3.968   1.082  -1.794  0.00  0.00    -0.276 OA
ATOM     34  N   LIG d   1       5.107   0.690  -3.599  0.00  0.00    -0.290 N 
ATOM     35  H   LIG d   1       5.151   1.647  -3.754  0.00  0.00     0.151 HD
BRANCH  20  36
ATOM     36  C   LIG d   1       7.110   0.613  -6.500  0.00  0.00    -0.052 C 
ATOM     37  H   LIG d   1       6.161   1.079  -6.761  0.00  0.00     0.024 H 
ATOM     38  H   LIG d   1       7.924   1.313  -6.692  0.00  0.00     0.024 H 
ATOM     39  H   LIG d   1       7.252  -0.284  -7.105  0.00  0.00     0.024 H 
ENDBRANCH  20  36
BRANCH  20  40
ATOM     40  C   LIG d   1       7.584   1.405  -4.161  0.00  0.00    -0.052 C 
ATOM     41  H   LIG d   1       6.761   2.103  -4.005  0.00  0.00     0.024 H 
ATOM     42  H   LIG d   1       7.931   1.031  -3.197  0.00  0.00     0.024 H 
ATOM     43  H   LIG d   1       8.403   1.914  -4.670  0.00  0.00     0.024 H 
ENDBRANCH  20  40
BRANCH  22  44
ATOM     44  C   LIG d   1      11.286  -2.692  -5.059  0.00  0.00    -0.040 C 
ATOM     45  H   LIG d   1      11.633  -2.003  -5.829  0.00  0.00     0.028 H 
ATOM     46  H   LIG d   1      11.876  -2.554  -4.153  0.00  0.00     0.028 H 
ATOM     47  H   LIG d   1      11.397  -3.718  -5.411  0.00  0.00     0.028 H 
ENDBRANCH  22  44
ENDBRANCH  11  14
ENDBRANCH   4  10
BRANCH   6  48
ATOM     48  O   LIG d   1       3.072  -4.003 -10.252  0.00  0.00    -0.491 OA
BRANCH  48  49
ATOM     49  C   LIG d   1       2.500  -5.205  -9.733  0.00  0.00     0.079 C 
ATOM     50  H   LIG d   1       2.116  -5.809 -10.555  0.00  0.00     0.066 H 
ATOM     51  H   LIG d   1       3.262  -5.768  -9.194  0.00  0.00     0.066 H 
ATOM     52  H   LIG d   1       1.685  -4.955  -9.054  0.00  0.00     0.066 H 
ENDBRANCH  48  49
ENDBRANCH   6  48
BRANCH   1  53
ATOM     53  O   LIG d   1       1.285  -1.996 -10.843  0.00  0.00    -0.488 OA
BRANCH  53  54
ATOM     54  C   LIG d   1       1.501  -1.083 -11.920  0.00  0.00     0.090 C 
ATOM     55  H   LIG d   1       2.127  -0.260 -11.578  0.00  0.00     0.070 H 
ATOM     56  H   LIG d   1       0.543  -0.692 -12.262  0.00  0.00     0.070 H 
BRANCH  54  57
ATOM     57  C   LIG d   1       2.196  -1.809 -13.074  0.00  0.00    -0.019 C 
ATOM     58  H   LIG d   1       1.853  -1.396 -14.022  0.00  0.00     0.030 H 
ATOM     59  H   LIG d   1       1.956  -2.871 -13.032  0.00  0.00     0.030 H 
BRANCH  57  60
ATOM     60  C   LIG d   1       3.710  -1.623 -12.954  0.00  0.00    -0.050 C 
ATOM     61  H   LIG d   1       4.158  -1.637 -13.948  0.00  0.00     0.027 H 
ATOM     62  H   LIG d   1       4.129  -2.432 -12.355  0.00  0.00     0.027 H 
BRANCH  60  63
ATOM     63  C   LIG d   1       4.007  -0.282 -12.280  0.00  0.00    -0.053 C 
ATOM     64  H   LIG d   1       3.132   0.042 -11.715  0.00  0.00     0.026 H 
ATOM     65  H   LIG d   1       4.244   0.462 -13.040  0.00  0.00     0.026 H 
BRANCH  63  66
ATOM     66  C   LIG d   1       5.196  -0.440 -11.331  0.00  0.00    -0.053 C 
ATOM     67  H   LIG d   1       6.123  -0.436 -11.906  0.00  0.00     0.026 H 
ATOM     68  H   LIG d   1       5.109  -1.384 -10.792  0.00  0.00     0.026 H 
BRANCH  66  69
ATOM     69  C   LIG d   1       5.210   0.718 -10.332  0.00  0.00    -0.053 C 
ATOM     70  H   LIG d   1       6.123   1.301 -10.464  0.00  0.00     0.026 H 
ATOM     71  H   LIG d   1       5.176   0.322  -9.318  0.00  0.00     0.026 H 
BRANCH  69  72
ATOM     72  C   LIG d   1       3.993   1.614 -10.571  0.00  0.00    -0.056 C 
ATOM     73  H   LIG d   1       3.097   0.997 -10.642  0.00  0.00     0.026 H 
ATOM     74  H   LIG d   1       4.127   2.169 -11.499  0.00  0.00     0.026 H 
BRANCH  72  75
ATOM     75  C   LIG d   1       3.846   2.595  -9.406  0.00  0.00    -0.065 C 
ATOM     76  H   LIG d   1       3.501   2.059  -8.522  0.00  0.00     0.023 H 
ATOM     77  H   LIG d   1       4.809   3.059  -9.198  0.00  0.00     0.023 H 
ATOM     78  H   LIG d   1       3.121   3.365  -9.670  0.00  0.00     0.023 H 
ENDBRANCH  72  75
ENDBRANCH  69  72
ENDBRANCH  66  69
ENDBRANCH  63  66
ENDBRANCH  60  63
ENDBRANCH  57  60
ENDBRANCH  54  57
ENDBRANCH  53  54
ENDBRANCH   1  53
TORSDOF 16
ENDMDL
MODEL 5
REMARK VINA RESULT:      -6.1      2.033      3.306
REMARK  16 active torsions:
REMARK  status: ('A' for Active; 'I' for Inactive)
REMARK    1  A    between atoms: C_1  and  C_2 
REMARK    2  A    between atoms: C_2  and  C_3 
REMARK    3  A    between atoms: C_3  and  C_4 
REMARK    4  A    between atoms: C_4  and  C_5 
REMARK    5  A    between atoms: C_5  and  C_6 
REMARK    6  A    between atoms: C_6  and  C_7 
REMARK    7  A    between atoms: C_7  and  C_8 
REMARK    8  A    between atoms: C_8  and  O_9 
REMARK    9  A    between atoms: O_9  and  C_10 
REMARK   10  A    between atoms: C_13  and  C_18 
REMARK   11  A    between atoms: C_15  and  O_16 
REMARK   12  A    between atoms: O_16  and  C_17 
REMARK   13  A    between atoms: C_19  and  C_20 
REMARK   14  A    between atoms: C_21  and  C_35 
REMARK   15  A    between atoms: C_21  and  C_36 
REMARK   16  A    between atoms: C_24  and  C_34 
ROOT
ATOM      1  C   LIG d   1       7.486   0.977  -4.974  0.00  0.00     0.162 A 
ATOM      2  C   LIG d   1       7.887   1.581  -3.791  0.00  0.00    -0.016 A 
ATOM      3  C   LIG d   1       8.798   2.617  -3.817  0.00  0.00    -0.051 A 
ATOM      4  C   LIG d   1       9.317   3.061  -5.034  0.00  0.00    -0.021 A 
ATOM      5  C   LIG d   1       8.913   2.454  -6.224  0.00  0.00    -0.009 A 
ATOM      6  C   LIG d   1       8.004   1.412  -6.192  0.00  0.00     0.162 A 
ATOM      7  H   LIG d   1       7.487   1.239  -2.849  0.00  0.00     0.066 H 
ATOM      8  H   LIG d   1       9.108   3.086  -2.894  0.00  0.00     0.062 H 
ATOM      9  H   LIG d   1       9.312   2.794  -7.168  0.00  0.00     0.066 H 
ENDROOT
BRANCH   4  10
ATOM     10  C   LIG d   1      10.291   4.171  -5.062  0.00  0.00    -0.055 C 
ATOM     11  C   LIG d   1       9.953   5.362  -4.588  0.00  0.00    -0.042 C 
ATOM     12  H   LIG d   1       8.966   5.520  -4.180  0.00  0.00     0.061 H 
ATOM     13  H   LIG d   1      11.279   4.013  -5.470  0.00  0.00     0.062 H 
BRANCH  11  14
ATOM     14  C   LIG d   1      10.947   6.495  -4.617  0.00  0.00     0.130 C 
ATOM     15  N   LIG d   1      10.585   7.473  -5.662  0.00  0.00    -0.304 N 
ATOM     16  C   LIG d   1      10.111   8.627  -5.075  0.00  0.00     0.035 A 
ATOM     17  C   LIG d   1      10.807   7.189  -7.088  0.00  0.00     0.023 C 
ATOM     18  C   LIG d   1      10.287   8.604  -3.688  0.00  0.00    -0.017 A 
ATOM     19  C   LIG d   1       9.536   9.742  -5.693  0.00  0.00    -0.040 A 
ATOM     20  C   LIG d   1      10.898   7.286  -3.302  0.00  0.00     0.034 C 
ATOM     21  C   LIG d   1       9.926   9.670  -2.887  0.00  0.00    -0.053 A 
ATOM     22  C   LIG d   1       9.362  10.773  -3.514  0.00  0.00    -0.050 A 
ATOM     23  H   LIG d   1      10.074   9.646  -1.817  0.00  0.00     0.062 H 
ATOM     24  C   LIG d   1       9.172  10.803  -4.881  0.00  0.00    -0.057 A 
ATOM     25  H   LIG d   1       8.726  11.679  -5.331  0.00  0.00     0.062 H 
ATOM     26  H   LIG d   1       9.382   9.775  -6.762  0.00  0.00     0.064 H 
ATOM     27  C   LIG d   1      12.310   6.933  -7.257  0.00  0.00     0.040 C 
ATOM     28  H   LIG d   1      10.242   6.306  -7.386  0.00  0.00     0.047 H 
ATOM     29  H   LIG d   1      10.505   8.046  -7.690  0.00  0.00     0.047 H 
ATOM     30  C   LIG d   1      12.858   6.142  -6.109  0.00  0.00     0.216 C 
ATOM     31  H   LIG d   1      12.477   6.382  -8.182  0.00  0.00     0.037 H 
ATOM     32  H   LIG d   1      12.831   7.889  -7.313  0.00  0.00     0.037 H 
ATOM     33  O   LIG d   1      13.914   5.572  -6.287  0.00  0.00    -0.276 OA
ATOM     34  N   LIG d   1      12.282   5.992  -4.920  0.00  0.00    -0.290 N 
ATOM     35  H   LIG d   1      12.785   5.551  -4.217  0.00  0.00     0.151 HD
BRANCH  20  36
ATOM     36  C   LIG d   1      10.018   6.567  -2.278  0.00  0.00    -0.052 C 
ATOM     37  H   LIG d   1      10.644   5.968  -1.617  0.00  0.00     0.024 H 
ATOM     38  H   LIG d   1       9.468   7.303  -1.691  0.00  0.00     0.024 H 
ATOM     39  H   LIG d   1       9.313   5.916  -2.797  0.00  0.00     0.024 H 
ENDBRANCH  20  36
BRANCH  20  40
ATOM     40  C   LIG d   1      12.309   7.491  -2.748  0.00  0.00    -0.052 C 
ATOM     41  H   LIG d   1      12.827   8.245  -3.342  0.00  0.00     0.024 H 
ATOM     42  H   LIG d   1      12.247   7.824  -1.711  0.00  0.00     0.024 H 
ATOM     43  H   LIG d   1      12.858   6.550  -2.795  0.00  0.00     0.024 H 
ENDBRANCH  20  40
BRANCH  22  44
ATOM     44  C   LIG d   1       8.950  11.964  -2.687  0.00  0.00    -0.040 C 
ATOM     45  H   LIG d   1       7.884  12.147  -2.818  0.00  0.00     0.028 H 
ATOM     46  H   LIG d   1       9.159  11.765  -1.636  0.00  0.00     0.028 H 
ATOM     47  H   LIG d   1       9.512  12.841  -3.009  0.00  0.00     0.028 H 
ENDBRANCH  22  44
ENDBRANCH  11  14
ENDBRANCH   4  10
BRANCH   6  48
ATOM     48  O   LIG d   1       7.612   0.815  -7.349  0.00  0.00    -0.491 OA
BRANCH  48  49
ATOM     49  C   LIG d   1       7.054   1.660  -8.358  0.00  0.00     0.079 C 
ATOM     50  H   LIG d   1       7.829   2.317  -8.751  0.00  0.00     0.066 H 
ATOM     51  H   LIG d   1       6.653   1.046  -9.165  0.00  0.00     0.066 H 
ATOM     52  H   LIG d   1       6.253   2.260  -7.926  0.00  0.00     0.066 H 
ENDBRANCH  48  49
ENDBRANCH   6  48
BRANCH   1  53
ATOM     53  O   LIG d   1       6.588  -0.043  -4.944  0.00  0.00    -0.488 OA
BRANCH  53  54
ATOM     54  C   LIG d   1       7.090  -1.339  -4.613  0.00  0.00     0.090 C 
ATOM     55  H   LIG d   1       8.129  -1.256  -4.295  0.00  0.00     0.070 H 
ATOM     56  H   LIG d   1       7.029  -1.986  -5.489  0.00  0.00     0.070 H 
BRANCH  54  57
ATOM     57  C   LIG d   1       6.254  -1.937  -3.479  0.00  0.00    -0.019 C 
ATOM     58  H   LIG d   1       6.325  -1.296  -2.600  0.00  0.00     0.030 H 
ATOM     59  H   LIG d   1       6.629  -2.931  -3.237  0.00  0.00     0.030 H 
BRANCH  57  60
ATOM     60  C   LIG d   1       4.793  -2.036  -3.922  0.00  0.00    -0.050 C 
ATOM     61  H   LIG d   1       4.666  -2.907  -4.565  0.00  0.00     0.027 H 
ATOM     62  H   LIG d   1       4.517  -1.136  -4.471  0.00  0.00     0.027 H 
BRANCH  60  63
ATOM     63  C   LIG d   1       3.896  -2.179  -2.691  0.00  0.00    -0.053 C 
ATOM     64  H   LIG d   1       4.503  -2.104  -1.788  0.00  0.00     0.026 H 
ATOM     65  H   LIG d   1       3.397  -3.147  -2.714  0.00  0.00     0.026 H 
BRANCH  63  66
ATOM     66  C   LIG d   1       2.847  -1.065  -2.692  0.00  0.00    -0.053 C 
ATOM     67  H   LIG d   1       2.709  -0.694  -1.676  0.00  0.00     0.026 H 
ATOM     68  H   LIG d   1       1.900  -1.458  -3.065  0.00  0.00     0.026 H 
BRANCH  66  69
ATOM     69  C   LIG d   1       3.316   0.077  -3.594  0.00  0.00    -0.053 C 
ATOM     70  H   LIG d   1       2.549   0.290  -4.340  0.00  0.00     0.026 H 
ATOM     71  H   LIG d   1       4.240  -0.212  -4.094  0.00  0.00     0.026 H 
BRANCH  69  72
ATOM     72  C   LIG d   1       3.564   1.328  -2.748  0.00  0.00    -0.056 C 
ATOM     73  H   LIG d   1       2.647   1.599  -2.224  0.00  0.00     0.026 H 
ATOM     74  H   LIG d   1       3.869   2.149  -3.395  0.00  0.00     0.026 H 
BRANCH  72  75
ATOM     75  C   LIG d   1       4.669   1.043  -1.729  0.00  0.00    -0.065 C 
ATOM     76  H   LIG d   1       4.410   0.156  -1.150  0.00  0.00     0.023 H 
ATOM     77  H   LIG d   1       5.611   0.874  -2.251  0.00  0.00     0.023 H 
ATOM     78  H   LIG d   1       4.773   1.896  -1.058  0.00  0.00     0.023 H 
ENDBRANCH  72  75
ENDBRANCH  69  72
ENDBRANCH  66  69
ENDBRANCH  63  66
ENDBRANCH  60  63
ENDBRANCH  57  60
ENDBRANCH  54  57
ENDBRANCH  53  54
ENDBRANCH   1  53
TORSDOF 16
ENDMDL
MODEL 6
REMARK VINA RESULT:      -6.0      1.956      3.435
REMARK  16 active torsions:
REMARK  status: ('A' for Active; 'I' for Inactive)
REMARK    1  A    between atoms: C_1  and  C_2 
REMARK    2  A    between atoms: C_2  and  C_3 
REMARK    3  A    between atoms: C_3  and  C_4 
REMARK    4  A    between atoms: C_4  and  C_5 
REMARK    5  A    between atoms: C_5  and  C_6 
REMARK    6  A    between atoms: C_6  and  C_7 
REMARK    7  A    between atoms: C_7  and  C_8 
REMARK    8  A    between atoms: C_8  and  O_9 
REMARK    9  A    between atoms: O_9  and  C_10 
REMARK   10  A    between atoms: C_13  and  C_18 
REMARK   11  A    between atoms: C_15  and  O_16 
REMARK   12  A    between atoms: O_16  and  C_17 
REMARK   13  A    between atoms: C_19  and  C_20 
REMARK   14  A    between atoms: C_21  and  C_35 
REMARK   15  A    between atoms: C_21  and  C_36 
REMARK   16  A    between atoms: C_24  and  C_34 
ROOT
ATOM      1  C   LIG d   1       6.412  -0.533  -5.138  0.00  0.00     0.162 A 
ATOM      2  C   LIG d   1       7.105   0.040  -4.082  0.00  0.00    -0.016 A 
ATOM      3  C   LIG d   1       8.132   0.928  -4.328  0.00  0.00    -0.051 A 
ATOM      4  C   LIG d   1       8.474   1.253  -5.641  0.00  0.00    -0.021 A 
ATOM      5  C   LIG d   1       7.775   0.678  -6.704  0.00  0.00    -0.009 A 
ATOM      6  C   LIG d   1       6.751  -0.216  -6.452  0.00  0.00     0.162 A 
ATOM      7  H   LIG d   1       6.842  -0.211  -3.065  0.00  0.00     0.066 H 
ATOM      8  H   LIG d   1       8.670   1.373  -3.503  0.00  0.00     0.062 H 
ATOM      9  H   LIG d   1       8.037   0.928  -7.722  0.00  0.00     0.066 H 
ENDROOT
BRANCH   4  10
ATOM     10  C   LIG d   1       9.572   2.206  -5.906  0.00  0.00    -0.055 C 
ATOM     11  C   LIG d   1       9.413   3.493  -5.633  0.00  0.00    -0.042 C 
ATOM     12  H   LIG d   1       8.481   3.846  -5.218  0.00  0.00     0.061 H 
ATOM     13  H   LIG d   1      10.504   1.853  -6.322  0.00  0.00     0.062 H 
BRANCH  11  14
ATOM     14  C   LIG d   1      10.533   4.465  -5.903  0.00  0.00     0.130 C 
ATOM     15  N   LIG d   1      10.244   5.265  -7.110  0.00  0.00    -0.304 N 
ATOM     16  C   LIG d   1       9.939   6.559  -6.749  0.00  0.00     0.035 A 
ATOM     17  C   LIG d   1      10.365   4.689  -8.459  0.00  0.00     0.023 C 
ATOM     18  C   LIG d   1      10.174   6.778  -5.388  0.00  0.00    -0.017 A 
ATOM     19  C   LIG d   1       9.475   7.600  -7.560  0.00  0.00    -0.040 A 
ATOM     20  C   LIG d   1      10.639   5.491  -4.767  0.00  0.00     0.034 C 
ATOM     21  C   LIG d   1       9.980   8.014  -4.802  0.00  0.00    -0.053 A 
ATOM     22  C   LIG d   1       9.525   9.041  -5.619  0.00  0.00    -0.050 A 
ATOM     23  H   LIG d   1      10.173   8.175  -3.751  0.00  0.00     0.062 H 
ATOM     24  C   LIG d   1       9.279   8.834  -6.962  0.00  0.00    -0.057 A 
ATOM     25  H   LIG d   1       8.921   9.657  -7.563  0.00  0.00     0.062 H 
ATOM     26  H   LIG d   1       9.278   7.448  -8.611  0.00  0.00     0.064 H 
ATOM     27  C   LIG d   1      11.818   4.217  -8.607  0.00  0.00     0.040 C 
ATOM     28  H   LIG d   1       9.686   3.844  -8.567  0.00  0.00     0.047 H 
ATOM     29  H   LIG d   1      10.142   5.447  -9.209  0.00  0.00     0.047 H 
ATOM     30  C   LIG d   1      12.318   3.596  -7.339  0.00  0.00     0.216 C 
ATOM     31  H   LIG d   1      11.876   3.483  -9.411  0.00  0.00     0.037 H 
ATOM     32  H   LIG d   1      12.447   5.071  -8.858  0.00  0.00     0.037 H 
ATOM     33  O   LIG d   1      13.289   2.873  -7.425  0.00  0.00    -0.276 OA
ATOM     34  N   LIG d   1      11.784   3.749  -6.131  0.00  0.00    -0.290 N 
ATOM     35  H   LIG d   1      12.261   3.390  -5.367  0.00  0.00     0.151 HD
BRANCH  20  36
ATOM     36  C   LIG d   1       9.727   5.097  -3.604  0.00  0.00    -0.052 C 
ATOM     37  H   LIG d   1       9.869   4.043  -3.370  0.00  0.00     0.024 H 
ATOM     38  H   LIG d   1       9.973   5.699  -2.728  0.00  0.00     0.024 H 
ATOM     39  H   LIG d   1       8.687   5.270  -3.883  0.00  0.00     0.024 H 
ENDBRANCH  20  36
BRANCH  20  40
ATOM     40  C   LIG d   1      12.088   5.617  -4.293  0.00  0.00    -0.052 C 
ATOM     41  H   LIG d   1      12.355   6.672  -4.217  0.00  0.00     0.024 H 
ATOM     42  H   LIG d   1      12.194   5.145  -3.315  0.00  0.00     0.024 H 
ATOM     43  H   LIG d   1      12.748   5.125  -5.007  0.00  0.00     0.024 H 
ENDBRANCH  20  40
BRANCH  22  44
ATOM     44  C   LIG d   1       9.298  10.409  -5.030  0.00  0.00    -0.040 C 
ATOM     45  H   LIG d   1       8.653  10.988  -5.692  0.00  0.00     0.028 H 
ATOM     46  H   LIG d   1       8.823  10.310  -4.055  0.00  0.00     0.028 H 
ATOM     47  H   LIG d   1      10.254  10.919  -4.918  0.00  0.00     0.028 H 
ENDBRANCH  22  44
ENDBRANCH  11  14
ENDBRANCH   4  10
BRANCH   6  48
ATOM     48  O   LIG d   1       6.072  -0.782  -7.484  0.00  0.00    -0.491 OA
BRANCH  48  49
ATOM     49  C   LIG d   1       6.005  -0.037  -8.703  0.00  0.00     0.079 C 
ATOM     50  H   LIG d   1       6.013   1.029  -8.476  0.00  0.00     0.066 H 
ATOM     51  H   LIG d   1       6.864  -0.283  -9.327  0.00  0.00     0.066 H 
ATOM     52  H   LIG d   1       5.087  -0.290  -9.232  0.00  0.00     0.066 H 
ENDBRANCH  48  49
ENDBRANCH   6  48
BRANCH   1  53
ATOM     53  O   LIG d   1       5.401  -1.407  -4.890  0.00  0.00    -0.488 OA
BRANCH  53  54
ATOM     54  C   LIG d   1       5.541  -2.256  -3.750  0.00  0.00     0.090 C 
ATOM     55  H   LIG d   1       6.416  -1.952  -3.177  0.00  0.00     0.070 H 
ATOM     56  H   LIG d   1       5.664  -3.288  -4.079  0.00  0.00     0.070 H 
BRANCH  54  57
ATOM     57  C   LIG d   1       4.292  -2.146  -2.874  0.00  0.00    -0.019 C 
ATOM     58  H   LIG d   1       3.962  -3.143  -2.584  0.00  0.00     0.030 H 
ATOM     59  H   LIG d   1       3.499  -1.649  -3.434  0.00  0.00     0.030 H 
BRANCH  57  60
ATOM     60  C   LIG d   1       4.619  -1.331  -1.621  0.00  0.00    -0.050 C 
ATOM     61  H   LIG d   1       5.657  -1.502  -1.337  0.00  0.00     0.027 H 
ATOM     62  H   LIG d   1       3.963  -1.638  -0.806  0.00  0.00     0.027 H 
BRANCH  60  63
ATOM     63  C   LIG d   1       4.409   0.156  -1.911  0.00  0.00    -0.053 C 
ATOM     64  H   LIG d   1       5.187   0.508  -2.589  0.00  0.00     0.026 H 
ATOM     65  H   LIG d   1       4.457   0.719  -0.979  0.00  0.00     0.026 H 
BRANCH  63  66
ATOM     66  C   LIG d   1       3.038   0.361  -2.560  0.00  0.00    -0.053 C 
ATOM     67  H   LIG d   1       2.429   1.004  -1.925  0.00  0.00     0.026 H 
ATOM     68  H   LIG d   1       2.544  -0.604  -2.677  0.00  0.00     0.026 H 
BRANCH  66  69
ATOM     69  C   LIG d   1       3.214   1.015  -3.931  0.00  0.00    -0.053 C 
ATOM     70  H   LIG d   1       4.240   0.872  -4.273  0.00  0.00     0.026 H 
ATOM     71  H   LIG d   1       3.003   2.081  -3.854  0.00  0.00     0.026 H 
BRANCH  69  72
ATOM     72  C   LIG d   1       2.249   0.375  -4.930  0.00  0.00    -0.056 C 
ATOM     73  H   LIG d   1       1.312   0.932  -4.937  0.00  0.00     0.026 H 
ATOM     74  H   LIG d   1       2.055  -0.657  -4.637  0.00  0.00     0.026 H 
BRANCH  72  75
ATOM     75  C   LIG d   1       2.870   0.401  -6.328  0.00  0.00    -0.065 C 
ATOM     76  H   LIG d   1       3.872   0.826  -6.272  0.00  0.00     0.023 H 
ATOM     77  H   LIG d   1       2.926  -0.614  -6.720  0.00  0.00     0.023 H 
ATOM     78  H   LIG d   1       2.253   1.012  -6.987  0.00  0.00     0.023 H 
ENDBRANCH  72  75
ENDBRANCH  69  72
ENDBRANCH  66  69
ENDBRANCH  63  66
ENDBRANCH  60  63
ENDBRANCH  57  60
ENDBRANCH  54  57
ENDBRANCH  53  54
ENDBRANCH   1  53
TORSDOF 16
ENDMDL
MODEL 7
REMARK VINA RESULT:      -5.9      1.533      2.753
REMARK  16 active torsions:
REMARK  status: ('A' for Active; 'I' for Inactive)
REMARK    1  A    between atoms: C_1  and  C_2 
REMARK    2  A    between atoms: C_2  and  C_3 
REMARK    3  A    between atoms: C_3  and  C_4 
REMARK    4  A    between atoms: C_4  and  C_5 
REMARK    5  A    between atoms: C_5  and  C_6 
REMARK    6  A    between atoms: C_6  and  C_7 
REMARK    7  A    between atoms: C_7  and  C_8 
REMARK    8  A    between atoms: C_8  and  O_9 
REMARK    9  A    between atoms: O_9  and  C_10 
REMARK   10  A    between atoms: C_13  and  C_18 
REMARK   11  A    between atoms: C_15  and  O_16 
REMARK   12  A    between atoms: O_16  and  C_17 
REMARK   13  A    between atoms: C_19  and  C_20 
REMARK   14  A    between atoms: C_21  and  C_35 
REMARK   15  A    between atoms: C_21  and  C_36 
REMARK   16  A    between atoms: C_24  and  C_34 
ROOT
ATOM      1  C   LIG d   1       6.490  -0.332  -4.483  0.00  0.00     0.162 A 
ATOM      2  C   LIG d   1       6.726   0.605  -3.488  0.00  0.00    -0.016 A 
ATOM      3  C   LIG d   1       7.559   1.678  -3.731  0.00  0.00    -0.051 A 
ATOM      4  C   LIG d   1       8.164   1.823  -4.980  0.00  0.00    -0.021 A 
ATOM      5  C   LIG d   1       7.926   0.880  -5.982  0.00  0.00    -0.009 A 
ATOM      6  C   LIG d   1       7.095  -0.197  -5.731  0.00  0.00     0.162 A 
ATOM      7  H   LIG d   1       6.259   0.494  -2.521  0.00  0.00     0.066 H 
ATOM      8  H   LIG d   1       7.741   2.407  -2.955  0.00  0.00     0.062 H 
ATOM      9  H   LIG d   1       8.393   0.989  -6.949  0.00  0.00     0.066 H 
ENDROOT
BRANCH   4  10
ATOM     10  C   LIG d   1       9.055   2.972  -5.242  0.00  0.00    -0.055 C 
ATOM     11  C   LIG d   1       9.933   3.353  -4.325  0.00  0.00    -0.042 C 
ATOM     12  H   LIG d   1       9.997   2.823  -3.386  0.00  0.00     0.061 H 
ATOM     13  H   LIG d   1       8.991   3.502  -6.181  0.00  0.00     0.062 H 
BRANCH  11  14
ATOM     14  C   LIG d   1      10.842   4.525  -4.592  0.00  0.00     0.130 C 
ATOM     15  N   LIG d   1      10.606   5.598  -3.605  0.00  0.00    -0.304 N 
ATOM     16  C   LIG d   1      11.670   5.670  -2.733  0.00  0.00     0.035 A 
ATOM     17  C   LIG d   1       9.413   6.456  -3.676  0.00  0.00     0.023 C 
ATOM     18  C   LIG d   1      12.725   4.850  -3.146  0.00  0.00    -0.017 A 
ATOM     19  C   LIG d   1      11.792   6.445  -1.575  0.00  0.00    -0.040 A 
ATOM     20  C   LIG d   1      12.310   4.123  -4.394  0.00  0.00     0.034 C 
ATOM     21  C   LIG d   1      13.919   4.788  -2.451  0.00  0.00    -0.053 A 
ATOM     22  C   LIG d   1      14.029   5.568  -1.307  0.00  0.00    -0.050 A 
ATOM     23  H   LIG d   1      14.731   4.158  -2.784  0.00  0.00     0.062 H 
ATOM     24  C   LIG d   1      12.990   6.372  -0.883  0.00  0.00    -0.057 A 
ATOM     25  H   LIG d   1      13.114   6.960   0.015  0.00  0.00     0.062 H 
ATOM     26  H   LIG d   1      10.985   7.076  -1.234  0.00  0.00     0.064 H 
ATOM     27  C   LIG d   1       9.449   7.147  -5.045  0.00  0.00     0.040 C 
ATOM     28  H   LIG d   1       8.511   5.850  -3.587  0.00  0.00     0.047 H 
ATOM     29  H   LIG d   1       9.442   7.201  -2.881  0.00  0.00     0.047 H 
ATOM     30  C   LIG d   1       9.920   6.209  -6.114  0.00  0.00     0.216 C 
ATOM     31  H   LIG d   1       8.447   7.498  -5.295  0.00  0.00     0.037 H 
ATOM     32  H   LIG d   1      10.124   8.001  -4.997  0.00  0.00     0.037 H 
ATOM     33  O   LIG d   1       9.654   6.503  -7.261  0.00  0.00    -0.276 OA
ATOM     34  N   LIG d   1      10.586   5.075  -5.919  0.00  0.00    -0.290 N 
ATOM     35  H   LIG d   1      10.938   4.609  -6.693  0.00  0.00     0.151 HD
BRANCH  20  36
ATOM     36  C   LIG d   1      12.428   2.610  -4.196  0.00  0.00    -0.052 C 
ATOM     37  H   LIG d   1      11.844   2.097  -4.959  0.00  0.00     0.024 H 
ATOM     38  H   LIG d   1      13.474   2.314  -4.277  0.00  0.00     0.024 H 
ATOM     39  H   LIG d   1      12.050   2.342  -3.209  0.00  0.00     0.024 H 
ENDBRANCH  20  36
BRANCH  20  40
ATOM     40  C   LIG d   1      13.155   4.576  -5.585  0.00  0.00    -0.052 C 
ATOM     41  H   LIG d   1      12.953   3.931  -6.440  0.00  0.00     0.024 H 
ATOM     42  H   LIG d   1      12.902   5.606  -5.839  0.00  0.00     0.024 H 
ATOM     43  H   LIG d   1      14.212   4.515  -5.324  0.00  0.00     0.024 H 
ENDBRANCH  20  40
BRANCH  22  44
ATOM     44  C   LIG d   1      15.309   5.538  -0.513  0.00  0.00    -0.040 C 
ATOM     45  H   LIG d   1      15.125   5.925   0.490  0.00  0.00     0.028 H 
ATOM     46  H   LIG d   1      15.670   4.512  -0.446  0.00  0.00     0.028 H 
ATOM     47  H   LIG d   1      16.058   6.155  -1.009  0.00  0.00     0.028 H 
ENDBRANCH  22  44
ENDBRANCH  11  14
ENDBRANCH   4  10
BRANCH   6  48
ATOM     48  O   LIG d   1       6.864  -1.119  -6.702  0.00  0.00    -0.491 OA
BRANCH  48  49
ATOM     49  C   LIG d   1       6.354  -0.636  -7.947  0.00  0.00     0.079 C 
ATOM     50  H   LIG d   1       5.737   0.244  -7.770  0.00  0.00     0.066 H 
ATOM     51  H   LIG d   1       7.185  -0.371  -8.602  0.00  0.00     0.066 H 
ATOM     52  H   LIG d   1       5.753  -1.414  -8.419  0.00  0.00     0.066 H 
ENDBRANCH  48  49
ENDBRANCH   6  48
BRANCH   1  53
ATOM     53  O   LIG d   1       5.668  -1.388  -4.239  0.00  0.00    -0.488 OA
BRANCH  53  54
ATOM     54  C   LIG d   1       5.432  -1.724  -2.871  0.00  0.00     0.090 C 
ATOM     55  H   LIG d   1       5.827  -0.935  -2.230  0.00  0.00     0.070 H 
ATOM     56  H   LIG d   1       5.930  -2.664  -2.637  0.00  0.00     0.070 H 
BRANCH  54  57
ATOM     57  C   LIG d   1       3.928  -1.871  -2.633  0.00  0.00    -0.019 C 
ATOM     58  H   LIG d   1       3.757  -2.333  -1.661  0.00  0.00     0.030 H 
ATOM     59  H   LIG d   1       3.497  -2.497  -3.415  0.00  0.00     0.030 H 
BRANCH  57  60
ATOM     60  C   LIG d   1       3.270  -0.490  -2.665  0.00  0.00    -0.050 C 
ATOM     61  H   LIG d   1       4.028   0.270  -2.852  0.00  0.00     0.027 H 
ATOM     62  H   LIG d   1       2.788  -0.295  -1.707  0.00  0.00     0.027 H 
BRANCH  60  63
ATOM     63  C   LIG d   1       2.223  -0.449  -3.780  0.00  0.00    -0.053 C 
ATOM     64  H   LIG d   1       1.250  -0.197  -3.357  0.00  0.00     0.026 H 
ATOM     65  H   LIG d   1       2.168  -1.425  -4.262  0.00  0.00     0.026 H 
BRANCH  63  66
ATOM     66  C   LIG d   1       2.619   0.607  -4.813  0.00  0.00    -0.053 C 
ATOM     67  H   LIG d   1       3.385   1.258  -4.393  0.00  0.00     0.026 H 
ATOM     68  H   LIG d   1       1.744   1.202  -5.078  0.00  0.00     0.026 H 
BRANCH  66  69
ATOM     69  C   LIG d   1       3.165  -0.081  -6.065  0.00  0.00    -0.053 C 
ATOM     70  H   LIG d   1       2.715  -1.070  -6.161  0.00  0.00     0.026 H 
ATOM     71  H   LIG d   1       4.247  -0.181  -5.981  0.00  0.00     0.026 H 
BRANCH  69  72
ATOM     72  C   LIG d   1       2.825   0.757  -7.298  0.00  0.00    -0.056 C 
ATOM     73  H   LIG d   1       3.681   1.377  -7.563  0.00  0.00     0.026 H 
ATOM     74  H   LIG d   1       1.968   1.394  -7.079  0.00  0.00     0.026 H 
BRANCH  72  75
ATOM     75  C   LIG d   1       2.485  -0.170  -8.467  0.00  0.00    -0.065 C 
ATOM     76  H   LIG d   1       2.519  -1.207  -8.130  0.00  0.00     0.023 H 
ATOM     77  H   LIG d   1       1.486   0.060  -8.836  0.00  0.00     0.023 H 
ATOM     78  H   LIG d   1       3.211  -0.025  -9.268  0.00  0.00     0.023 H 
ENDBRANCH  72  75
ENDBRANCH  69  72
ENDBRANCH  66  69
ENDBRANCH  63  66
ENDBRANCH  60  63
ENDBRANCH  57  60
ENDBRANCH  54  57
ENDBRANCH  53  54
ENDBRANCH   1  53
TORSDOF 16
ENDMDL
MODEL 8
REMARK VINA RESULT:      -5.7      7.904     13.939
REMARK  16 active torsions:
REMARK  status: ('A' for Active; 'I' for Inactive)
REMARK    1  A    between atoms: C_1  and  C_2 
REMARK    2  A    between atoms: C_2  and  C_3 
REMARK    3  A    between atoms: C_3  and  C_4 
REMARK    4  A    between atoms: C_4  and  C_5 
REMARK    5  A    between atoms: C_5  and  C_6 
REMARK    6  A    between atoms: C_6  and  C_7 
REMARK    7  A    between atoms: C_7  and  C_8 
REMARK    8  A    between atoms: C_8  and  O_9 
REMARK    9  A    between atoms: O_9  and  C_10 
REMARK   10  A    between atoms: C_13  and  C_18 
REMARK   11  A    between atoms: C_15  and  O_16 
REMARK   12  A    between atoms: O_16  and  C_17 
REMARK   13  A    between atoms: C_19  and  C_20 
REMARK   14  A    between atoms: C_21  and  C_35 
REMARK   15  A    between atoms: C_21  and  C_36 
REMARK   16  A    between atoms: C_24  and  C_34 
ROOT
ATOM      1  C   LIG d   1       3.955  -1.788  -8.523  0.00  0.00     0.162 A 
ATOM      2  C   LIG d   1       2.949  -1.270  -9.323  0.00  0.00    -0.016 A 
ATOM      3  C   LIG d   1       2.074  -2.117  -9.972  0.00  0.00    -0.051 A 
ATOM      4  C   LIG d   1       2.201  -3.499  -9.824  0.00  0.00    -0.021 A 
ATOM      5  C   LIG d   1       3.215  -4.021  -9.017  0.00  0.00    -0.009 A 
ATOM      6  C   LIG d   1       4.091  -3.167  -8.374  0.00  0.00     0.162 A 
ATOM      7  H   LIG d   1       2.849  -0.201  -9.440  0.00  0.00     0.066 H 
ATOM      8  H   LIG d   1       1.290  -1.711 -10.595  0.00  0.00     0.062 H 
ATOM      9  H   LIG d   1       3.316  -5.090  -8.900  0.00  0.00     0.066 H 
ENDROOT
BRANCH   4  10
ATOM     10  C   LIG d   1       1.264  -4.408 -10.517  0.00  0.00    -0.055 C 
ATOM     11  C   LIG d   1      -0.022  -4.099 -10.596  0.00  0.00    -0.042 C 
ATOM     12  H   LIG d   1      -0.385  -3.183 -10.153  0.00  0.00     0.061 H 
ATOM     13  H   LIG d   1       1.628  -5.323 -10.960  0.00  0.00     0.062 H 
BRANCH  11  14
ATOM     14  C   LIG d   1      -0.977  -5.025 -11.303  0.00  0.00     0.130 C 
ATOM     15  N   LIG d   1      -2.142  -5.321 -10.444  0.00  0.00    -0.304 N 
ATOM     16  C   LIG d   1      -3.258  -4.679 -10.935  0.00  0.00     0.035 A 
ATOM     17  C   LIG d   1      -2.036  -6.240  -9.300  0.00  0.00     0.023 C 
ATOM     18  C   LIG d   1      -3.007  -4.102 -12.184  0.00  0.00    -0.017 A 
ATOM     19  C   LIG d   1      -4.527  -4.580 -10.356  0.00  0.00    -0.040 A 
ATOM     20  C   LIG d   1      -1.567  -4.343 -12.545  0.00  0.00     0.034 C 
ATOM     21  C   LIG d   1      -3.989  -3.438 -12.894  0.00  0.00    -0.053 A 
ATOM     22  C   LIG d   1      -5.246  -3.352 -12.310  0.00  0.00    -0.050 A 
ATOM     23  H   LIG d   1      -3.787  -3.003 -13.862  0.00  0.00     0.062 H 
ATOM     24  C   LIG d   1      -5.503  -3.908 -11.073  0.00  0.00    -0.057 A 
ATOM     25  H   LIG d   1      -6.493  -3.815 -10.651  0.00  0.00     0.062 H 
ATOM     26  H   LIG d   1      -4.738  -5.010  -9.388  0.00  0.00     0.064 H 
ATOM     27  C   LIG d   1      -1.575  -7.591  -9.861  0.00  0.00     0.040 C 
ATOM     28  H   LIG d   1      -1.304  -5.864  -8.585  0.00  0.00     0.047 H 
ATOM     29  H   LIG d   1      -3.008  -6.348  -8.818  0.00  0.00     0.047 H 
ATOM     30  C   LIG d   1      -0.550  -7.410 -10.938  0.00  0.00     0.216 C 
ATOM     31  H   LIG d   1      -1.144  -8.185  -9.055  0.00  0.00     0.037 H 
ATOM     32  H   LIG d   1      -2.435  -8.120 -10.272  0.00  0.00     0.037 H 
ATOM     33  O   LIG d   1       0.147  -8.368 -11.203  0.00  0.00    -0.276 OA
ATOM     34  N   LIG d   1      -0.322  -6.290 -11.617  0.00  0.00    -0.290 N 
ATOM     35  H   LIG d   1       0.290  -6.324 -12.370  0.00  0.00     0.151 HD
BRANCH  20  36
ATOM     36  C   LIG d   1      -0.855  -3.016 -12.815  0.00  0.00    -0.052 C 
ATOM     37  H   LIG d   1      -0.675  -2.911 -13.885  0.00  0.00     0.024 H 
ATOM     38  H   LIG d   1      -1.478  -2.191 -12.468  0.00  0.00     0.024 H 
ATOM     39  H   LIG d   1       0.098  -3.000 -12.284  0.00  0.00     0.024 H 
ENDBRANCH  20  36
BRANCH  20  40
ATOM     40  C   LIG d   1      -1.467  -5.264 -13.762  0.00  0.00    -0.052 C 
ATOM     41  H   LIG d   1      -1.016  -4.720 -14.593  0.00  0.00     0.024 H 
ATOM     42  H   LIG d   1      -0.847  -6.127 -13.514  0.00  0.00     0.024 H 
ATOM     43  H   LIG d   1      -2.464  -5.602 -14.045  0.00  0.00     0.024 H 
ENDBRANCH  20  40
BRANCH  22  44
ATOM     44  C   LIG d   1      -6.354  -2.639 -13.042  0.00  0.00    -0.040 C 
ATOM     45  H   LIG d   1      -5.941  -1.794 -13.594  0.00  0.00     0.028 H 
ATOM     46  H   LIG d   1      -6.833  -3.329 -13.736  0.00  0.00     0.028 H 
ATOM     47  H   LIG d   1      -7.090  -2.279 -12.323  0.00  0.00     0.028 H 
ENDBRANCH  22  44
ENDBRANCH  11  14
ENDBRANCH   4  10
BRANCH   6  48
ATOM     48  O   LIG d   1       5.082  -3.672  -7.592  0.00  0.00    -0.491 OA
BRANCH  48  49
ATOM     49  C   LIG d   1       4.701  -4.192  -6.316  0.00  0.00     0.079 C 
ATOM     50  H   LIG d   1       4.102  -5.093  -6.456  0.00  0.00     0.066 H 
ATOM     51  H   LIG d   1       5.594  -4.435  -5.741  0.00  0.00     0.066 H 
ATOM     52  H   LIG d   1       4.115  -3.446  -5.781  0.00  0.00     0.066 H 
ENDBRANCH  48  49
ENDBRANCH   6  48
BRANCH   1  53
ATOM     53  O   LIG d   1       4.815  -0.950  -7.885  0.00  0.00    -0.488 OA
BRANCH  53  54
ATOM     54  C   LIG d   1       4.240   0.053  -7.045  0.00  0.00     0.090 C 
ATOM     55  H   LIG d   1       3.292   0.382  -7.470  0.00  0.00     0.070 H 
ATOM     56  H   LIG d   1       4.920   0.901  -6.975  0.00  0.00     0.070 H 
BRANCH  54  57
ATOM     57  C   LIG d   1       4.001  -0.527  -5.649  0.00  0.00    -0.019 C 
ATOM     58  H   LIG d   1       4.865  -0.319  -5.017  0.00  0.00     0.030 H 
ATOM     59  H   LIG d   1       3.856  -1.604  -5.723  0.00  0.00     0.030 H 
BRANCH  57  60
ATOM     60  C   LIG d   1       2.754   0.115  -5.037  0.00  0.00    -0.050 C 
ATOM     61  H   LIG d   1       1.884  -0.126  -5.648  0.00  0.00     0.027 H 
ATOM     62  H   LIG d   1       2.883   1.197  -5.000  0.00  0.00     0.027 H 
BRANCH  60  63
ATOM     63  C   LIG d   1       2.547  -0.423  -3.620  0.00  0.00    -0.053 C 
ATOM     64  H   LIG d   1       1.625  -1.005  -3.583  0.00  0.00     0.026 H 
ATOM     65  H   LIG d   1       2.480   0.410  -2.921  0.00  0.00     0.026 H 
BRANCH  63  66
ATOM     66  C   LIG d   1       3.728  -1.317  -3.236  0.00  0.00    -0.053 C 
ATOM     67  H   LIG d   1       4.503  -1.243  -3.999  0.00  0.00     0.026 H 
ATOM     68  H   LIG d   1       3.392  -2.352  -3.161  0.00  0.00     0.026 H 
BRANCH  66  69
ATOM     69  C   LIG d   1       4.294  -0.865  -1.889  0.00  0.00    -0.053 C 
ATOM     70  H   LIG d   1       5.282  -1.302  -1.745  0.00  0.00     0.026 H 
ATOM     71  H   LIG d   1       3.631  -1.194  -1.089  0.00  0.00     0.026 H 
BRANCH  69  72
ATOM     72  C   LIG d   1       4.402   0.661  -1.866  0.00  0.00    -0.056 C 
ATOM     73  H   LIG d   1       4.530   1.000  -0.838  0.00  0.00     0.026 H 
ATOM     74  H   LIG d   1       3.493   1.095  -2.281  0.00  0.00     0.026 H 
BRANCH  72  75
ATOM     75  C   LIG d   1       5.606   1.100  -2.702  0.00  0.00    -0.065 C 
ATOM     76  H   LIG d   1       5.786   2.164  -2.548  0.00  0.00     0.023 H 
ATOM     77  H   LIG d   1       6.486   0.534  -2.397  0.00  0.00     0.023 H 
ATOM     78  H   LIG d   1       5.401   0.915  -3.757  0.00  0.00     0.023 H 
ENDBRANCH  72  75
ENDBRANCH  69  72
ENDBRANCH  66  69
ENDBRANCH  63  66
ENDBRANCH  60  63
ENDBRANCH  57  60
ENDBRANCH  54  57
ENDBRANCH  53  54
ENDBRANCH   1  53
TORSDOF 16
ENDMDL
MODEL 9
REMARK VINA RESULT:      -5.6      6.760     10.416
REMARK  16 active torsions:
REMARK  status: ('A' for Active; 'I' for Inactive)
REMARK    1  A    between atoms: C_1  and  C_2 
REMARK    2  A    between atoms: C_2  and  C_3 
REMARK    3  A    between atoms: C_3  and  C_4 
REMARK    4  A    between atoms: C_4  and  C_5 
REMARK    5  A    between atoms: C_5  and  C_6 
REMARK    6  A    between atoms: C_6  and  C_7 
REMARK    7  A    between atoms: C_7  and  C_8 
REMARK    8  A    between atoms: C_8  and  O_9 
REMARK    9  A    between atoms: O_9  and  C_10 
REMARK   10  A    between atoms: C_13  and  C_18 
REMARK   11  A    between atoms: C_15  and  O_16 
REMARK   12  A    between atoms: O_16  and  C_17 
REMARK   13  A    between atoms: C_19  and  C_20 
REMARK   14  A    between atoms: C_21  and  C_35 
REMARK   15  A    between atoms: C_21  and  C_36 
REMARK   16  A    between atoms: C_24  and  C_34 
ROOT
ATOM      1  C   LIG d   1      -0.460  -3.459 -12.495  0.00  0.00     0.162 A 
ATOM      2  C   LIG d   1      -0.058  -2.198 -12.909  0.00  0.00    -0.016 A 
ATOM      3  C   LIG d   1       0.918  -1.518 -12.211  0.00  0.00    -0.051 A 
ATOM      4  C   LIG d   1       1.504  -2.099 -11.085  0.00  0.00    -0.021 A 
ATOM      5  C   LIG d   1       1.100  -3.369 -10.668  0.00  0.00    -0.009 A 
ATOM      6  C   LIG d   1       0.117  -4.043 -11.369  0.00  0.00     0.162 A 
ATOM      7  H   LIG d   1      -0.511  -1.747 -13.779  0.00  0.00     0.066 H 
ATOM      8  H   LIG d   1       1.230  -0.536 -12.536  0.00  0.00     0.062 H 
ATOM      9  H   LIG d   1       1.552  -3.821  -9.798  0.00  0.00     0.066 H 
ENDROOT
BRANCH   4  10
ATOM     10  C   LIG d   1       2.551  -1.372 -10.337  0.00  0.00    -0.055 C 
ATOM     11  C   LIG d   1       2.764  -1.648  -9.059  0.00  0.00    -0.042 C 
ATOM     12  H   LIG d   1       2.172  -2.404  -8.564  0.00  0.00     0.061 H 
ATOM     13  H   LIG d   1       3.143  -0.616 -10.832  0.00  0.00     0.062 H 
BRANCH  11  14
ATOM     14  C   LIG d   1       3.832  -0.907  -8.295  0.00  0.00     0.130 C 
ATOM     15  N   LIG d   1       3.229   0.140  -7.446  0.00  0.00    -0.304 N 
ATOM     16  C   LIG d   1       3.307  -0.233  -6.122  0.00  0.00     0.035 A 
ATOM     17  C   LIG d   1       2.715   1.393  -8.022  0.00  0.00     0.023 C 
ATOM     18  C   LIG d   1       4.089  -1.381  -5.960  0.00  0.00    -0.017 A 
ATOM     19  C   LIG d   1       2.741   0.396  -5.008  0.00  0.00    -0.040 A 
ATOM     20  C   LIG d   1       4.542  -1.850  -7.314  0.00  0.00     0.034 C 
ATOM     21  C   LIG d   1       4.346  -1.920  -4.714  0.00  0.00    -0.053 A 
ATOM     22  C   LIG d   1       3.783  -1.283  -3.616  0.00  0.00    -0.050 A 
ATOM     23  H   LIG d   1       4.960  -2.803  -4.599  0.00  0.00     0.062 H 
ATOM     24  C   LIG d   1       3.000  -0.156  -3.765  0.00  0.00    -0.057 A 
ATOM     25  H   LIG d   1       2.576   0.309  -2.886  0.00  0.00     0.062 H 
ATOM     26  H   LIG d   1       2.125   1.278  -5.114  0.00  0.00     0.064 H 
ATOM     27  C   LIG d   1       3.895   2.063  -8.739  0.00  0.00     0.040 C 
ATOM     28  H   LIG d   1       1.919   1.178  -8.734  0.00  0.00     0.047 H 
ATOM     29  H   LIG d   1       2.344   2.042  -7.230  0.00  0.00     0.047 H 
ATOM     30  C   LIG d   1       4.742   1.053  -9.450  0.00  0.00     0.216 C 
ATOM     31  H   LIG d   1       3.511   2.780  -9.465  0.00  0.00     0.037 H 
ATOM     32  H   LIG d   1       4.506   2.589  -8.007  0.00  0.00     0.037 H 
ATOM     33  O   LIG d   1       5.469   1.464 -10.330  0.00  0.00    -0.276 OA
ATOM     34  N   LIG d   1       4.757  -0.256  -9.216  0.00  0.00    -0.290 N 
ATOM     35  H   LIG d   1       5.430  -0.796  -9.661  0.00  0.00     0.151 HD
BRANCH  20  36
ATOM     36  C   LIG d   1       4.107  -3.297  -7.552  0.00  0.00    -0.052 C 
ATOM     37  H   LIG d   1       4.226  -3.869  -6.633  0.00  0.00     0.024 H 
ATOM     38  H   LIG d   1       3.061  -3.316  -7.859  0.00  0.00     0.024 H 
ATOM     39  H   LIG d   1       4.723  -3.738  -8.337  0.00  0.00     0.024 H 
ENDBRANCH  20  36
BRANCH  20  40
ATOM     40  C   LIG d   1       6.060  -1.717  -7.447  0.00  0.00    -0.052 C 
ATOM     41  H   LIG d   1       6.542  -2.585  -6.997  0.00  0.00     0.024 H 
ATOM     42  H   LIG d   1       6.329  -1.659  -8.502  0.00  0.00     0.024 H 
ATOM     43  H   LIG d   1       6.391  -0.811  -6.938  0.00  0.00     0.024 H 
ENDBRANCH  20  40
BRANCH  22  44
ATOM     44  C   LIG d   1       4.033  -1.830  -2.235  0.00  0.00    -0.040 C 
ATOM     45  H   LIG d   1       3.350  -2.658  -2.042  0.00  0.00     0.028 H 
ATOM     46  H   LIG d   1       5.061  -2.183  -2.164  0.00  0.00     0.028 H 
ATOM     47  H   LIG d   1       3.867  -1.044  -1.498  0.00  0.00     0.028 H 
ENDBRANCH  22  44
ENDBRANCH  11  14
ENDBRANCH   4  10
BRANCH   6  48
ATOM     48  O   LIG d   1      -0.283  -5.277 -10.963  0.00  0.00    -0.491 OA
BRANCH  48  49
ATOM     49  C   LIG d   1      -1.297  -5.333  -9.957  0.00  0.00     0.079 C 
ATOM     50  H   LIG d   1      -1.039  -6.096  -9.224  0.00  0.00     0.066 H 
ATOM     51  H   LIG d   1      -1.372  -4.364  -9.463  0.00  0.00     0.066 H 
ATOM     52  H   LIG d   1      -2.253  -5.579 -10.419  0.00  0.00     0.066 H 
ENDBRANCH  48  49
ENDBRANCH   6  48
BRANCH   1  53
ATOM     53  O   LIG d   1      -1.423  -4.125 -13.186  0.00  0.00    -0.488 OA
BRANCH  53  54
ATOM     54  C   LIG d   1      -2.769  -3.678 -13.019  0.00  0.00     0.090 C 
ATOM     55  H   LIG d   1      -2.790  -2.842 -12.321  0.00  0.00     0.070 H 
ATOM     56  H   LIG d   1      -3.376  -4.493 -12.627  0.00  0.00     0.070 H 
BRANCH  54  57
ATOM     57  C   LIG d   1      -3.329  -3.230 -14.371  0.00  0.00    -0.019 C 
ATOM     58  H   LIG d   1      -3.868  -4.057 -14.833  0.00  0.00     0.030 H 
ATOM     59  H   LIG d   1      -2.509  -2.922 -15.020  0.00  0.00     0.030 H 
BRANCH  57  60
ATOM     60  C   LIG d   1      -4.284  -2.052 -14.162  0.00  0.00    -0.050 C 
ATOM     61  H   LIG d   1      -5.285  -2.429 -13.953  0.00  0.00     0.027 H 
ATOM     62  H   LIG d   1      -4.306  -1.438 -15.062  0.00  0.00     0.027 H 
BRANCH  60  63
ATOM     63  C   LIG d   1      -3.800  -1.209 -12.980  0.00  0.00    -0.053 C 
ATOM     64  H   LIG d   1      -2.731  -1.367 -12.834  0.00  0.00     0.026 H 
ATOM     65  H   LIG d   1      -4.337  -1.503 -12.079  0.00  0.00     0.026 H 
BRANCH  63  66
ATOM     66  C   LIG d   1      -4.061   0.271 -13.269  0.00  0.00    -0.053 C 
ATOM     67  H   LIG d   1      -4.678   0.693 -12.475  0.00  0.00     0.026 H 
ATOM     68  H   LIG d   1      -4.583   0.369 -14.222  0.00  0.00     0.026 H 
BRANCH  66  69
ATOM     69  C   LIG d   1      -2.731   1.021 -13.336  0.00  0.00    -0.053 C 
ATOM     70  H   LIG d   1      -1.922   0.312 -13.516  0.00  0.00     0.026 H 
ATOM     71  H   LIG d   1      -2.557   1.538 -12.392  0.00  0.00     0.026 H 
BRANCH  69  72
ATOM     72  C   LIG d   1      -2.776   2.042 -14.475  0.00  0.00    -0.056 C 
ATOM     73  H   LIG d   1      -2.168   1.686 -15.306  0.00  0.00     0.026 H 
ATOM     74  H   LIG d   1      -2.387   2.997 -14.122  0.00  0.00     0.026 H 
BRANCH  72  75
ATOM     75  C   LIG d   1      -4.223   2.222 -14.941  0.00  0.00    -0.065 C 
ATOM     76  H   LIG d   1      -4.231   2.693 -15.924  0.00  0.00     0.023 H 
ATOM     77  H   LIG d   1      -4.709   1.248 -15.001  0.00  0.00     0.023 H 
ATOM     78  H   LIG d   1      -4.757   2.853 -14.231  0.00  0.00     0.023 H 
ENDBRANCH  72  75
ENDBRANCH  69  72
ENDBRANCH  66  69
ENDBRANCH  63  66
ENDBRANCH  60  63
ENDBRANCH  57  60
ENDBRANCH  54  57
ENDBRANCH  53  54
ENDBRANCH   1  53
TORSDOF 16
ENDMDL
MODEL 10
REMARK VINA RESULT:      -5.5      5.380      8.223
REMARK  16 active torsions:
REMARK  status: ('A' for Active; 'I' for Inactive)
REMARK    1  A    between atoms: C_1  and  C_2 
REMARK    2  A    between atoms: C_2  and  C_3 
REMARK    3  A    between atoms: C_3  and  C_4 
REMARK    4  A    between atoms: C_4  and  C_5 
REMARK    5  A    between atoms: C_5  and  C_6 
REMARK    6  A    between atoms: C_6  and  C_7 
REMARK    7  A    between atoms: C_7  and  C_8 
REMARK    8  A    between atoms: C_8  and  O_9 
REMARK    9  A    between atoms: O_9  and  C_10 
REMARK   10  A    between atoms: C_13  and  C_18 
REMARK   11  A    between atoms: C_15  and  O_16 
REMARK   12  A    between atoms: O_16  and  C_17 
REMARK   13  A    between atoms: C_19  and  C_20 
REMARK   14  A    between atoms: C_21  and  C_35 
REMARK   15  A    between atoms: C_21  and  C_36 
REMARK   16  A    between atoms: C_24  and  C_34 
ROOT
ATOM      1  C   LIG d   1       4.551  -6.874  -9.544  0.00  0.00     0.162 A 
ATOM      2  C   LIG d   1       3.307  -6.331  -9.260  0.00  0.00    -0.016 A 
ATOM      3  C   LIG d   1       3.196  -4.999  -8.915  0.00  0.00    -0.051 A 
ATOM      4  C   LIG d   1       4.335  -4.196  -8.853  0.00  0.00    -0.021 A 
ATOM      5  C   LIG d   1       5.588  -4.744  -9.139  0.00  0.00    -0.009 A 
ATOM      6  C   LIG d   1       5.694  -6.080  -9.478  0.00  0.00     0.162 A 
ATOM      7  H   LIG d   1       2.425  -6.950  -9.307  0.00  0.00     0.066 H 
ATOM      8  H   LIG d   1       2.226  -4.578  -8.695  0.00  0.00     0.062 H 
ATOM      9  H   LIG d   1       6.472  -4.125  -9.092  0.00  0.00     0.066 H 
ENDROOT
BRANCH   4  10
ATOM     10  C   LIG d   1       4.217  -2.770  -8.485  0.00  0.00    -0.055 C 
ATOM     11  C   LIG d   1       5.296  -2.085  -8.132  0.00  0.00    -0.042 C 
ATOM     12  H   LIG d   1       6.260  -2.570  -8.112  0.00  0.00     0.061 H 
ATOM     13  H   LIG d   1       3.252  -2.285  -8.505  0.00  0.00     0.062 H 
BRANCH  11  14
ATOM     14  C   LIG d   1       5.176  -0.631  -7.757  0.00  0.00     0.130 C 
ATOM     15  N   LIG d   1       3.818  -0.335  -7.257  0.00  0.00    -0.304 N 
ATOM     16  C   LIG d   1       3.860  -0.120  -5.896  0.00  0.00     0.035 A 
ATOM     17  C   LIG d   1       2.669  -0.236  -8.171  0.00  0.00     0.023 C 
ATOM     18  C   LIG d   1       5.176  -0.057  -5.430  0.00  0.00    -0.017 A 
ATOM     19  C   LIG d   1       2.790   0.053  -5.012  0.00  0.00    -0.040 A 
ATOM     20  C   LIG d   1       6.108  -0.299  -6.584  0.00  0.00     0.034 C 
ATOM     21  C   LIG d   1       5.471   0.194  -4.103  0.00  0.00    -0.053 A 
ATOM     22  C   LIG d   1       4.400   0.369  -3.236  0.00  0.00    -0.050 A 
ATOM     23  H   LIG d   1       6.492   0.249  -3.754  0.00  0.00     0.062 H 
ATOM     24  C   LIG d   1       3.095   0.298  -3.683  0.00  0.00    -0.057 A 
ATOM     25  H   LIG d   1       2.290   0.436  -2.977  0.00  0.00     0.062 H 
ATOM     26  H   LIG d   1       1.766  -0.003  -5.351  0.00  0.00     0.064 H 
ATOM     27  C   LIG d   1       2.999   0.880  -9.171  0.00  0.00     0.040 C 
ATOM     28  H   LIG d   1       2.527  -1.179  -8.697  0.00  0.00     0.047 H 
ATOM     29  H   LIG d   1       1.769   0.019  -7.612  0.00  0.00     0.047 H 
ATOM     30  C   LIG d   1       4.440   0.838  -9.576  0.00  0.00     0.216 C 
ATOM     31  H   LIG d   1       2.376   0.760 -10.058  0.00  0.00     0.037 H 
ATOM     32  H   LIG d   1       2.784   1.845  -8.714  0.00  0.00     0.037 H 
ATOM     33  O   LIG d   1       4.741   1.408 -10.603  0.00  0.00    -0.276 OA
ATOM     34  N   LIG d   1       5.416   0.216  -8.920  0.00  0.00    -0.290 N 
ATOM     35  H   LIG d   1       6.330   0.354  -9.216  0.00  0.00     0.151 HD
BRANCH  20  36
ATOM     36  C   LIG d   1       7.033  -1.481  -6.286  0.00  0.00    -0.052 C 
ATOM     37  H   LIG d   1       6.436  -2.347  -6.002  0.00  0.00     0.024 H 
ATOM     38  H   LIG d   1       7.618  -1.718  -7.175  0.00  0.00     0.024 H 
ATOM     39  H   LIG d   1       7.705  -1.220  -5.468  0.00  0.00     0.024 H 
ENDBRANCH  20  36
BRANCH  20  40
ATOM     40  C   LIG d   1       6.925   0.958  -6.887  0.00  0.00    -0.052 C 
ATOM     41  H   LIG d   1       7.399   0.857  -7.863  0.00  0.00     0.024 H 
ATOM     42  H   LIG d   1       6.266   1.827  -6.892  0.00  0.00     0.024 H 
ATOM     43  H   LIG d   1       7.690   1.088  -6.121  0.00  0.00     0.024 H 
ENDBRANCH  20  40
BRANCH  22  44
ATOM     44  C   LIG d   1       4.665   0.645  -1.779  0.00  0.00    -0.040 C 
ATOM     45  H   LIG d   1       5.740   0.627  -1.595  0.00  0.00     0.028 H 
ATOM     46  H   LIG d   1       4.267   1.625  -1.517  0.00  0.00     0.028 H 
ATOM     47  H   LIG d   1       4.179  -0.118  -1.171  0.00  0.00     0.028 H 
ENDBRANCH  22  44
ENDBRANCH  11  14
ENDBRANCH   4  10
BRANCH   6  48
ATOM     48  O   LIG d   1       6.912  -6.617  -9.753  0.00  0.00    -0.491 OA
BRANCH  48  49
ATOM     49  C   LIG d   1       7.914  -6.505  -8.739  0.00  0.00     0.079 C 
ATOM     50  H   LIG d   1       8.694  -7.245  -8.917  0.00  0.00     0.066 H 
ATOM     51  H   LIG d   1       8.348  -5.506  -8.766  0.00  0.00     0.066 H 
ATOM     52  H   LIG d   1       7.463  -6.680  -7.763  0.00  0.00     0.066 H 
ENDBRANCH  48  49
ENDBRANCH   6  48
BRANCH   1  53
ATOM     53  O   LIG d   1       4.656  -8.186  -9.883  0.00  0.00    -0.488 OA
BRANCH  53  54
ATOM     54  C   LIG d   1       4.282  -9.145  -8.892  0.00  0.00     0.090 C 
ATOM     55  H   LIG d   1       4.200 -10.129  -9.352  0.00  0.00     0.070 H 
ATOM     56  H   LIG d   1       3.321  -8.865  -8.460  0.00  0.00     0.070 H 
BRANCH  54  57
ATOM     57  C   LIG d   1       5.344  -9.181  -7.791  0.00  0.00    -0.019 C 
ATOM     58  H   LIG d   1       6.187  -8.553  -8.078  0.00  0.00     0.030 H 
ATOM     59  H   LIG d   1       5.686 -10.207  -7.650  0.00  0.00     0.030 H 
BRANCH  57  60
ATOM     60  C   LIG d   1       4.741  -8.660  -6.484  0.00  0.00    -0.050 C 
ATOM     61  H   LIG d   1       4.762  -9.451  -5.734  0.00  0.00     0.027 H 
ATOM     62  H   LIG d   1       3.711  -8.350  -6.658  0.00  0.00     0.027 H 
BRANCH  60  63
ATOM     63  C   LIG d   1       5.558  -7.465  -5.988  0.00  0.00    -0.053 C 
ATOM     64  H   LIG d   1       6.278  -7.174  -6.752  0.00  0.00     0.026 H 
ATOM     65  H   LIG d   1       6.088  -7.741  -5.076  0.00  0.00     0.026 H 
BRANCH  63  66
ATOM     66  C   LIG d   1       4.620  -6.292  -5.698  0.00  0.00    -0.053 C 
ATOM     67  H   LIG d   1       4.002  -6.526  -4.831  0.00  0.00     0.026 H 
ATOM     68  H   LIG d   1       3.979  -6.117  -6.562  0.00  0.00     0.026 H 
BRANCH  66  69
ATOM     69  C   LIG d   1       5.446  -5.037  -5.412  0.00  0.00    -0.053 C 
ATOM     70  H   LIG d   1       6.082  -4.817  -6.271  0.00  0.00     0.026 H 
ATOM     71  H   LIG d   1       6.068  -5.204  -4.533  0.00  0.00     0.026 H 
BRANCH  69  72
ATOM     72  C   LIG d   1       4.509  -3.856  -5.156  0.00  0.00    -0.056 C 
ATOM     73  H   LIG d   1       3.476  -4.206  -5.154  0.00  0.00     0.026 H 
ATOM     74  H   LIG d   1       4.639  -3.112  -5.941  0.00  0.00     0.026 H 
BRANCH  72  75
ATOM     75  C   LIG d   1       4.837  -3.228  -3.799  0.00  0.00    -0.065 C 
ATOM     76  H   LIG d   1       4.078  -3.516  -3.072  0.00  0.00     0.023 H 
ATOM     77  H   LIG d   1       5.813  -3.579  -3.464  0.00  0.00     0.023 H 
ATOM     78  H   LIG d   1       4.854  -2.143  -3.896  0.00  0.00     0.023 H 
ENDBRANCH  72  75
ENDBRANCH  69  72
ENDBRANCH  66  69
ENDBRANCH  63  66
ENDBRANCH  60  63
ENDBRANCH  57  60
ENDBRANCH  54  57
ENDBRANCH  53  54
ENDBRANCH   1  53
TORSDOF 16
ENDMDL
