MODEL 1
REMARK VINA RESULT:      -6.5      0.000      0.000
REMARK  10 active torsions:
REMARK  status: ('A' for Active; 'I' for Inactive)
REMARK    1  A    between atoms: C_1  and  C_2 
REMARK    2  A    between atoms: C_5  and  O_31 
REMARK    3  A    between atoms: C_6  and  O_29 
REMARK    4  A    between atoms: C_12  and  C_13 
REMARK    5  A    between atoms: C_13  and  C_14 
REMARK       I    between atoms: C_14  and  N_16 
REMARK       I    between atoms: N_16  and  CA_17 
REMARK    6  A    between atoms: CA_17  and  CB_19 
REMARK       I    between atoms: CA_17  and  C_27 
REMARK    7  A    between atoms: CB_19  and  CG_20 
REMARK    8  A    between atoms: CZ_23  and  OH_26 
REMARK    9  A    between atoms: O_29  and  C_30 
REMARK   10  A    between atoms: O_31  and  C_32 
ROOT
ATOM      1  C   UNK d   0       5.412  -2.321  -7.304  0.00  0.00    -0.029 A 
ATOM      2  C   UNK d   0       5.448  -1.692  -5.982  0.00  0.00     0.025 A 
ATOM      3  C   UNK d   0       6.107  -0.472  -5.783  0.00  0.00    -0.005 A 
ATOM      4  C   UNK d   0       6.124   0.096  -4.529  0.00  0.00     0.162 A 
ATOM      5  C   UNK d   0       5.486  -0.541  -3.459  0.00  0.00     0.165 A 
ATOM      6  C   UNK d   0       4.833  -1.745  -3.647  0.00  0.00     0.027 A 
ATOM      7  C   UNK d   0       4.807  -2.331  -4.905  0.00  0.00     0.143 A 
ATOM      8  O   UNK d   0       4.172  -3.507  -5.104  0.00  0.00    -0.422 OA
ATOM      9  C   UNK d   0       4.131  -4.086  -6.314  0.00  0.00     0.341 A 
ATOM     10  O   UNK d   0       3.542  -5.145  -6.446  0.00  0.00    -0.245 OA
ATOM     11  C   UNK d   0       4.757  -3.504  -7.434  0.00  0.00     0.049 A 
ATOM     12  H   UNK d   0       6.600   0.020  -6.609  0.00  0.00     0.066 H 
ATOM     13  H   UNK d   0       4.343  -2.230  -2.817  0.00  0.00     0.069 H 
ENDROOT
BRANCH  11  14
ATOM     14  C   UNK d   0       4.694  -4.189  -8.775  0.00  0.00     0.056 C 
ATOM     15  H   UNK d   0       5.470  -3.786  -9.426  0.00  0.00     0.041 H 
ATOM     16  H   UNK d   0       4.849  -5.260  -8.644  0.00  0.00     0.041 H 
BRANCH  14  17
ATOM     17  C   UNK d   0       3.343  -3.950  -9.399  0.00  0.00     0.218 C 
ATOM     18  O   UNK d   0       2.605  -4.885  -9.623  0.00  0.00    -0.275 OA
ATOM     19  N   TYR d   1       2.954  -2.696  -9.706  0.00  0.00    -0.307 N 
ATOM     20  CA  TYR d   1       1.641  -2.464 -10.312  0.00  0.00     0.067 C 
ATOM     21  H   TYR d   1       3.544  -1.948  -9.527  0.00  0.00     0.149 HD
ATOM     22  HA  TYR d   1       0.922  -3.176  -9.905  0.00  0.00     0.056 H 
ATOM     23  C   TYR d   1       1.737  -2.646 -11.805  0.00  0.00     0.062 C 
ATOM     24  O   TYR d   1       2.794  -2.940 -12.311  0.00  0.00    -0.548 OA
ATOM     25  OXT TYR d   1       0.648  -2.483 -12.573  0.00  0.00    -0.548 OA
BRANCH  20  26
ATOM     26  CB  TYR d   1       1.181  -1.039 -10.001  0.00  0.00    -0.004 C 
ATOM     27  HB1 TYR d   1       0.560  -0.671 -10.818  0.00  0.00     0.034 H 
ATOM     28  HB2 TYR d   1       0.602  -1.038  -9.077  0.00  0.00     0.034 H 
BRANCH  26  29
ATOM     29  CG  TYR d   1       2.383  -0.145  -9.842  0.00  0.00    -0.045 A 
ATOM     30  CD1 TYR d   1       3.132   0.207 -10.950  0.00  0.00    -0.055 A 
ATOM     31  CE1 TYR d   1       4.236   1.025 -10.807  0.00  0.00    -0.020 A 
ATOM     32  HD1 TYR d   1       2.854  -0.158 -11.927  0.00  0.00     0.062 H 
ATOM     33  CZ  TYR d   1       4.593   1.495  -9.551  0.00  0.00     0.117 A 
ATOM     34  HE1 TYR d   1       4.821   1.300 -11.673  0.00  0.00     0.065 H 
ATOM     35  CE2 TYR d   1       3.839   1.139  -8.442  0.00  0.00    -0.020 A 
ATOM     36  CD2 TYR d   1       2.734   0.325  -8.590  0.00  0.00    -0.055 A 
ATOM     37  HE2 TYR d   1       4.116   1.503  -7.462  0.00  0.00     0.065 H 
ATOM     38  HD2 TYR d   1       2.144   0.053  -7.727  0.00  0.00     0.062 H 
BRANCH  33  39
ATOM     39  OH  TYR d   1       5.677   2.300  -9.408  0.00  0.00    -0.507 OA
ATOM     40  HH  TYR d   1       5.873   2.840 -10.185  0.00  0.00     0.292 HD
ENDBRANCH  33  39
ENDBRANCH  26  29
ENDBRANCH  20  26
ENDBRANCH  14  17
ENDBRANCH  11  14
BRANCH   1  41
ATOM     41  C   UNK d   0       6.084  -1.673  -8.488  0.00  0.00    -0.038 C 
ATOM     42  H   UNK d   0       5.725  -0.650  -8.594  0.00  0.00     0.028 H 
ATOM     43  H   UNK d   0       7.163  -1.665  -8.333  0.00  0.00     0.028 H 
ATOM     44  H   UNK d   0       5.850  -2.237  -9.391  0.00  0.00     0.028 H 
ENDBRANCH   1  41
BRANCH   4  45
ATOM     45  O   UNK d   0       6.762   1.281  -4.329  0.00  0.00    -0.491 OA
BRANCH  45  46
ATOM     46  C   UNK d   0       8.180   1.231  -4.150  0.00  0.00     0.079 C 
ATOM     47  H   UNK d   0       8.659   1.015  -5.105  0.00  0.00     0.066 H 
ATOM     48  H   UNK d   0       8.532   2.191  -3.776  0.00  0.00     0.066 H 
ATOM     49  H   UNK d   0       8.428   0.448  -3.433  0.00  0.00     0.066 H 
ENDBRANCH  45  46
ENDBRANCH   4  45
BRANCH   5  50
ATOM     50  O   UNK d   0       5.508   0.028  -2.226  0.00  0.00    -0.491 OA
BRANCH  50  51
ATOM     51  C   UNK d   0       4.366   0.799  -1.847  0.00  0.00     0.079 C 
ATOM     52  H   UNK d   0       4.430   1.789  -2.298  0.00  0.00     0.066 H 
ATOM     53  H   UNK d   0       3.461   0.301  -2.191  0.00  0.00     0.066 H 
ATOM     54  H   UNK d   0       4.338   0.896  -0.761  0.00  0.00     0.066 H 
ENDBRANCH  50  51
ENDBRANCH   5  50
TORSDOF 12
ENDMDL
MODEL 2
REMARK VINA RESULT:      -6.4      2.023      3.455
REMARK  10 active torsions:
REMARK  status: ('A' for Active; 'I' for Inactive)
REMARK    1  A    between atoms: C_1  and  C_2 
REMARK    2  A    between atoms: C_5  and  O_31 
REMARK    3  A    between atoms: C_6  and  O_29 
REMARK    4  A    between atoms: C_12  and  C_13 
REMARK    5  A    between atoms: C_13  and  C_14 
REMARK       I    between atoms: C_14  and  N_16 
REMARK       I    between atoms: N_16  and  CA_17 
REMARK    6  A    between atoms: CA_17  and  CB_19 
REMARK       I    between atoms: CA_17  and  C_27 
REMARK    7  A    between atoms: CB_19  and  CG_20 
REMARK    8  A    between atoms: CZ_23  and  OH_26 
REMARK    9  A    between atoms: O_29  and  C_30 
REMARK   10  A    between atoms: O_31  and  C_32 
ROOT
ATOM      1  C   UNK d   0       5.521  -2.912  -4.358  0.00  0.00    -0.029 A 
ATOM      2  C   UNK d   0       6.134  -1.599  -4.147  0.00  0.00     0.025 A 
ATOM      3  C   UNK d   0       5.544  -0.658  -3.294  0.00  0.00    -0.005 A 
ATOM      4  C   UNK d   0       6.143   0.569  -3.113  0.00  0.00     0.162 A 
ATOM      5  C   UNK d   0       7.336   0.873  -3.778  0.00  0.00     0.165 A 
ATOM      6  C   UNK d   0       7.926  -0.051  -4.621  0.00  0.00     0.027 A 
ATOM      7  C   UNK d   0       7.334  -1.291  -4.813  0.00  0.00     0.143 A 
ATOM      8  O   UNK d   0       7.900  -2.204  -5.634  0.00  0.00    -0.422 OA
ATOM      9  C   UNK d   0       7.346  -3.411  -5.827  0.00  0.00     0.341 A 
ATOM     10  O   UNK d   0       7.895  -4.203  -6.573  0.00  0.00    -0.245 OA
ATOM     11  C   UNK d   0       6.142  -3.783  -5.196  0.00  0.00     0.049 A 
ATOM     12  H   UNK d   0       4.622  -0.893  -2.781  0.00  0.00     0.066 H 
ATOM     13  H   UNK d   0       8.846   0.192  -5.129  0.00  0.00     0.069 H 
ENDROOT
BRANCH  11  14
ATOM     14  C   UNK d   0       5.548  -5.145  -5.445  0.00  0.00     0.056 C 
ATOM     15  H   UNK d   0       6.325  -5.820  -5.804  0.00  0.00     0.041 H 
ATOM     16  H   UNK d   0       5.129  -5.534  -4.517  0.00  0.00     0.041 H 
BRANCH  14  17
ATOM     17  C   UNK d   0       4.459  -5.037  -6.481  0.00  0.00     0.218 C 
ATOM     18  O   UNK d   0       3.348  -5.459  -6.239  0.00  0.00    -0.275 OA
ATOM     19  N   TYR d   1       4.718  -4.471  -7.676  0.00  0.00    -0.307 N 
ATOM     20  CA  TYR d   1       3.660  -4.366  -8.683  0.00  0.00     0.067 C 
ATOM     21  H   TYR d   1       5.607  -4.135  -7.870  0.00  0.00     0.149 HD
ATOM     22  HA  TYR d   1       2.705  -4.187  -8.189  0.00  0.00     0.056 H 
ATOM     23  C   TYR d   1       3.584  -5.650  -9.469  0.00  0.00     0.062 C 
ATOM     24  O   TYR d   1       4.338  -6.560  -9.214  0.00  0.00    -0.548 OA
ATOM     25  OXT TYR d   1       2.679  -5.783 -10.452  0.00  0.00    -0.548 OA
BRANCH  20  26
ATOM     26  CB  TYR d   1       3.970  -3.206  -9.630  0.00  0.00    -0.004 C 
ATOM     27  HB1 TYR d   1       5.021  -3.242  -9.917  0.00  0.00     0.034 H 
ATOM     28  HB2 TYR d   1       3.347  -3.288 -10.521  0.00  0.00     0.034 H 
BRANCH  26  29
ATOM     29  CG  TYR d   1       3.685  -1.900  -8.936  0.00  0.00    -0.045 A 
ATOM     30  CD1 TYR d   1       2.570  -1.160  -9.287  0.00  0.00    -0.055 A 
ATOM     31  CE1 TYR d   1       2.307   0.039  -8.654  0.00  0.00    -0.020 A 
ATOM     32  HD1 TYR d   1       1.906  -1.520 -10.059  0.00  0.00     0.062 H 
ATOM     33  CZ  TYR d   1       3.161   0.500  -7.663  0.00  0.00     0.117 A 
ATOM     34  HE1 TYR d   1       1.436   0.616  -8.929  0.00  0.00     0.065 H 
ATOM     35  CE2 TYR d   1       4.278  -0.244  -7.312  0.00  0.00    -0.020 A 
ATOM     36  CD2 TYR d   1       4.535  -1.444  -7.945  0.00  0.00    -0.055 A 
ATOM     37  HE2 TYR d   1       4.946   0.115  -6.541  0.00  0.00     0.065 H 
ATOM     38  HD2 TYR d   1       5.402  -2.025  -7.669  0.00  0.00     0.062 H 
BRANCH  33  39
ATOM     39  OH  TYR d   1       2.904   1.678  -7.037  0.00  0.00    -0.507 OA
ATOM     40  HH  TYR d   1       3.643   2.014  -6.511  0.00  0.00     0.292 HD
ENDBRANCH  33  39
ENDBRANCH  26  29
ENDBRANCH  20  26
ENDBRANCH  14  17
ENDBRANCH  11  14
BRANCH   1  41
ATOM     41  C   UNK d   0       4.236  -3.288  -3.665  0.00  0.00    -0.038 C 
ATOM     42  H   UNK d   0       4.417  -4.129  -2.997  0.00  0.00     0.028 H 
ATOM     43  H   UNK d   0       3.873  -2.437  -3.088  0.00  0.00     0.028 H 
ATOM     44  H   UNK d   0       3.490  -3.567  -4.408  0.00  0.00     0.028 H 
ENDBRANCH   1  41
BRANCH   4  45
ATOM     45  O   UNK d   0       5.574   1.487  -2.287  0.00  0.00    -0.491 OA
BRANCH  45  46
ATOM     46  C   UNK d   0       4.227   1.243  -1.877  0.00  0.00     0.079 C 
ATOM     47  H   UNK d   0       3.543   1.571  -2.660  0.00  0.00     0.066 H 
ATOM     48  H   UNK d   0       4.090   0.177  -1.697  0.00  0.00     0.066 H 
ATOM     49  H   UNK d   0       4.021   1.795  -0.959  0.00  0.00     0.066 H 
ENDBRANCH  45  46
ENDBRANCH   4  45
BRANCH   5  50
ATOM     50  O   UNK d   0       7.920   2.085  -3.593  0.00  0.00    -0.491 OA
BRANCH  50  51
ATOM     51  C   UNK d   0       9.331   2.165  -3.807  0.00  0.00     0.079 C 
ATOM     52  H   UNK d   0       9.756   2.918  -3.143  0.00  0.00     0.066 H 
ATOM     53  H   UNK d   0       9.785   1.198  -3.598  0.00  0.00     0.066 H 
ATOM     54  H   UNK d   0       9.525   2.443  -4.843  0.00  0.00     0.066 H 
ENDBRANCH  50  51
ENDBRANCH   5  50
TORSDOF 12
ENDMDL
MODEL 3
REMARK VINA RESULT:      -6.0      2.424      8.066
REMARK  10 active torsions:
REMARK  status: ('A' for Active; 'I' for Inactive)
REMARK    1  A    between atoms: C_1  and  C_2 
REMARK    2  A    between atoms: C_5  and  O_31 
REMARK    3  A    between atoms: C_6  and  O_29 
REMARK    4  A    between atoms: C_12  and  C_13 
REMARK    5  A    between atoms: C_13  and  C_14 
REMARK       I    between atoms: C_14  and  N_16 
REMARK       I    between atoms: N_16  and  CA_17 
REMARK    6  A    between atoms: CA_17  and  CB_19 
REMARK       I    between atoms: CA_17  and  C_27 
REMARK    7  A    between atoms: CB_19  and  CG_20 
REMARK    8  A    between atoms: CZ_23  and  OH_26 
REMARK    9  A    between atoms: O_29  and  C_30 
REMARK   10  A    between atoms: O_31  and  C_32 
ROOT
ATOM      1  C   UNK d   0       3.232  -1.838  -8.844  0.00  0.00    -0.029 A 
ATOM      2  C   UNK d   0       2.318  -2.240  -9.915  0.00  0.00     0.025 A 
ATOM      3  C   UNK d   0       2.077  -3.593 -10.185  0.00  0.00    -0.005 A 
ATOM      4  C   UNK d   0       1.212  -3.942 -11.199  0.00  0.00     0.162 A 
ATOM      5  C   UNK d   0       0.576  -2.950 -11.953  0.00  0.00     0.165 A 
ATOM      6  C   UNK d   0       0.809  -1.612 -11.693  0.00  0.00     0.027 A 
ATOM      7  C   UNK d   0       1.677  -1.244 -10.675  0.00  0.00     0.143 A 
ATOM      8  O   UNK d   0       1.913   0.060 -10.409  0.00  0.00    -0.422 OA
ATOM      9  C   UNK d   0       2.745   0.435  -9.425  0.00  0.00     0.341 A 
ATOM     10  O   UNK d   0       2.923   1.622  -9.218  0.00  0.00    -0.245 OA
ATOM     11  C   UNK d   0       3.424  -0.510  -8.629  0.00  0.00     0.049 A 
ATOM     12  H   UNK d   0       2.568  -4.359  -9.602  0.00  0.00     0.066 H 
ATOM     13  H   UNK d   0       0.315  -0.854 -12.280  0.00  0.00     0.069 H 
ENDROOT
BRANCH  11  14
ATOM     14  C   UNK d   0       4.356  -0.048  -7.538  0.00  0.00     0.056 C 
ATOM     15  H   UNK d   0       5.205  -0.729  -7.473  0.00  0.00     0.041 H 
ATOM     16  H   UNK d   0       4.712   0.957  -7.765  0.00  0.00     0.041 H 
BRANCH  14  17
ATOM     17  C   UNK d   0       3.621  -0.035  -6.222  0.00  0.00     0.218 C 
ATOM     18  O   UNK d   0       2.550   0.524  -6.132  0.00  0.00    -0.275 OA
ATOM     19  N   TYR d   1       4.155  -0.646  -5.146  0.00  0.00    -0.307 N 
ATOM     20  CA  TYR d   1       3.442  -0.634  -3.867  0.00  0.00     0.067 C 
ATOM     21  H   TYR d   1       5.013  -1.093  -5.218  0.00  0.00     0.149 HD
ATOM     22  HA  TYR d   1       2.368  -0.686  -4.049  0.00  0.00     0.056 H 
ATOM     23  C   TYR d   1       3.762   0.639  -3.124  0.00  0.00     0.062 C 
ATOM     24  O   TYR d   1       4.511   1.451  -3.614  0.00  0.00    -0.548 OA
ATOM     25  OXT TYR d   1       3.217   0.869  -1.920  0.00  0.00    -0.548 OA
BRANCH  20  26
ATOM     26  CB  TYR d   1       3.876  -1.836  -3.028  0.00  0.00    -0.004 C 
ATOM     27  HB1 TYR d   1       4.073  -1.515  -2.006  0.00  0.00     0.034 H 
ATOM     28  HB2 TYR d   1       3.083  -2.584  -3.027  0.00  0.00     0.034 H 
BRANCH  26  29
ATOM     29  CG  TYR d   1       5.129  -2.433  -3.616  0.00  0.00    -0.045 A 
ATOM     30  CD1 TYR d   1       5.039  -3.483  -4.511  0.00  0.00    -0.055 A 
ATOM     31  CE1 TYR d   1       6.185  -4.034  -5.050  0.00  0.00    -0.020 A 
ATOM     32  HD1 TYR d   1       4.071  -3.874  -4.789  0.00  0.00     0.062 H 
ATOM     33  CZ  TYR d   1       7.428  -3.531  -4.695  0.00  0.00     0.117 A 
ATOM     34  HE1 TYR d   1       6.114  -4.854  -5.750  0.00  0.00     0.065 H 
ATOM     35  CE2 TYR d   1       7.516  -2.477  -3.796  0.00  0.00    -0.020 A 
ATOM     36  CD2 TYR d   1       6.366  -1.927  -3.263  0.00  0.00    -0.055 A 
ATOM     37  HE2 TYR d   1       8.483  -2.085  -3.516  0.00  0.00     0.065 H 
ATOM     38  HD2 TYR d   1       6.434  -1.104  -2.568  0.00  0.00     0.062 H 
BRANCH  33  39
ATOM     39  OH  TYR d   1       8.558  -4.069  -5.224  0.00  0.00    -0.507 OA
ATOM     40  HH  TYR d   1       9.365  -3.840  -4.744  0.00  0.00     0.292 HD
ENDBRANCH  33  39
ENDBRANCH  26  29
ENDBRANCH  20  26
ENDBRANCH  14  17
ENDBRANCH  11  14
BRANCH   1  41
ATOM     41  C   UNK d   0       3.940  -2.869  -8.002  0.00  0.00    -0.038 C 
ATOM     42  H   UNK d   0       4.879  -3.145  -8.481  0.00  0.00     0.028 H 
ATOM     43  H   UNK d   0       4.144  -2.453  -7.015  0.00  0.00     0.028 H 
ATOM     44  H   UNK d   0       3.309  -3.751  -7.901  0.00  0.00     0.028 H 
ENDBRANCH   1  41
BRANCH   4  45
ATOM     45  O   UNK d   0       0.974  -5.254 -11.466  0.00  0.00    -0.491 OA
BRANCH  45  46
ATOM     46  C   UNK d   0       0.384  -6.032 -10.423  0.00  0.00     0.079 C 
ATOM     47  H   UNK d   0       0.705  -5.646  -9.456  0.00  0.00     0.066 H 
ATOM     48  H   UNK d   0      -0.702  -5.971 -10.495  0.00  0.00     0.066 H 
ATOM     49  H   UNK d   0       0.697  -7.071 -10.523  0.00  0.00     0.066 H 
ENDBRANCH  45  46
ENDBRANCH   4  45
BRANCH   5  50
ATOM     50  O   UNK d   0      -0.275  -3.304 -12.950  0.00  0.00    -0.491 OA
BRANCH  50  51
ATOM     51  C   UNK d   0      -1.138  -2.285 -13.459  0.00  0.00     0.079 C 
ATOM     52  H   UNK d   0      -0.992  -1.367 -12.890  0.00  0.00     0.066 H 
ATOM     53  H   UNK d   0      -0.906  -2.103 -14.508  0.00  0.00     0.066 H 
ATOM     54  H   UNK d   0      -2.175  -2.609 -13.367  0.00  0.00     0.066 H 
ENDBRANCH  50  51
ENDBRANCH   5  50
TORSDOF 12
ENDMDL
MODEL 4
REMARK VINA RESULT:      -6.0      7.005     10.201
REMARK  10 active torsions:
REMARK  status: ('A' for Active; 'I' for Inactive)
REMARK    1  A    between atoms: C_1  and  C_2 
REMARK    2  A    between atoms: C_5  and  O_31 
REMARK    3  A    between atoms: C_6  and  O_29 
REMARK    4  A    between atoms: C_12  and  C_13 
REMARK    5  A    between atoms: C_13  and  C_14 
REMARK       I    between atoms: C_14  and  N_16 
REMARK       I    between atoms: N_16  and  CA_17 
REMARK    6  A    between atoms: CA_17  and  CB_19 
REMARK       I    between atoms: CA_17  and  C_27 
REMARK    7  A    between atoms: CB_19  and  CG_20 
REMARK    8  A    between atoms: CZ_23  and  OH_26 
REMARK    9  A    between atoms: O_29  and  C_30 
REMARK   10  A    between atoms: O_31  and  C_32 
ROOT
ATOM      1  C   UNK d   0      10.459   6.913  -5.182  0.00  0.00    -0.029 A 
ATOM      2  C   UNK d   0      10.468   6.864  -3.719  0.00  0.00     0.025 A 
ATOM      3  C   UNK d   0       9.447   7.465  -2.972  0.00  0.00    -0.005 A 
ATOM      4  C   UNK d   0       9.482   7.402  -1.597  0.00  0.00     0.162 A 
ATOM      5  C   UNK d   0      10.530   6.740  -0.949  0.00  0.00     0.165 A 
ATOM      6  C   UNK d   0      11.541   6.143  -1.679  0.00  0.00     0.027 A 
ATOM      7  C   UNK d   0      11.521   6.198  -3.065  0.00  0.00     0.143 A 
ATOM      8  O   UNK d   0      12.503   5.619  -3.792  0.00  0.00    -0.422 OA
ATOM      9  C   UNK d   0      12.497   5.656  -5.133  0.00  0.00     0.341 A 
ATOM     10  O   UNK d   0      13.401   5.115  -5.746  0.00  0.00    -0.245 OA
ATOM     11  C   UNK d   0      11.476   6.310  -5.851  0.00  0.00     0.049 A 
ATOM     12  H   UNK d   0       8.638   7.976  -3.472  0.00  0.00     0.066 H 
ATOM     13  H   UNK d   0      12.347   5.635  -1.171  0.00  0.00     0.069 H 
ENDROOT
BRANCH  11  14
ATOM     14  C   UNK d   0      11.510   6.336  -7.358  0.00  0.00     0.056 C 
ATOM     15  H   UNK d   0      10.797   7.075  -7.724  0.00  0.00     0.041 H 
ATOM     16  H   UNK d   0      12.512   6.600  -7.695  0.00  0.00     0.041 H 
BRANCH  14  17
ATOM     17  C   UNK d   0      11.142   4.975  -7.892  0.00  0.00     0.218 C 
ATOM     18  O   UNK d   0      11.860   4.428  -8.701  0.00  0.00    -0.275 OA
ATOM     19  N   TYR d   1      10.016   4.367  -7.471  0.00  0.00    -0.307 N 
ATOM     20  CA  TYR d   1       9.659   3.045  -7.989  0.00  0.00     0.067 C 
ATOM     21  H   TYR d   1       9.442   4.805  -6.824  0.00  0.00     0.149 HD
ATOM     22  HA  TYR d   1      10.566   2.463  -8.156  0.00  0.00     0.056 H 
ATOM     23  C   TYR d   1       8.916   3.199  -9.292  0.00  0.00     0.062 C 
ATOM     24  O   TYR d   1       8.707   4.302  -9.740  0.00  0.00    -0.548 OA
ATOM     25  OXT TYR d   1       8.488   2.113  -9.954  0.00  0.00    -0.548 OA
BRANCH  20  26
ATOM     26  CB  TYR d   1       8.768   2.323  -6.977  0.00  0.00    -0.004 C 
ATOM     27  HB1 TYR d   1       7.771   2.761  -6.993  0.00  0.00     0.034 H 
ATOM     28  HB2 TYR d   1       8.704   1.266  -7.238  0.00  0.00     0.034 H 
BRANCH  26  29
ATOM     29  CG  TYR d   1       9.357   2.465  -5.598  0.00  0.00    -0.045 A 
ATOM     30  CD1 TYR d   1      10.520   1.792  -5.270  0.00  0.00    -0.055 A 
ATOM     31  CE1 TYR d   1      11.061   1.918  -4.006  0.00  0.00    -0.020 A 
ATOM     32  HD1 TYR d   1      11.005   1.165  -6.004  0.00  0.00     0.062 H 
ATOM     33  CZ  TYR d   1      10.438   2.724  -3.064  0.00  0.00     0.117 A 
ATOM     34  HE1 TYR d   1      11.969   1.392  -3.751  0.00  0.00     0.065 H 
ATOM     35  CE2 TYR d   1       9.271   3.398  -3.394  0.00  0.00    -0.020 A 
ATOM     36  CD2 TYR d   1       8.737   3.272  -4.661  0.00  0.00    -0.055 A 
ATOM     37  HE2 TYR d   1       8.784   4.026  -2.662  0.00  0.00     0.065 H 
ATOM     38  HD2 TYR d   1       7.832   3.801  -4.920  0.00  0.00     0.062 H 
BRANCH  33  39
ATOM     39  OH  TYR d   1      10.968   2.852  -1.819  0.00  0.00    -0.507 OA
ATOM     40  HH  TYR d   1      11.568   2.136  -1.571  0.00  0.00     0.292 HD
ENDBRANCH  33  39
ENDBRANCH  26  29
ENDBRANCH  20  26
ENDBRANCH  14  17
ENDBRANCH  11  14
BRANCH   1  41
ATOM     41  C   UNK d   0       9.351   7.614  -5.927  0.00  0.00    -0.038 C 
ATOM     42  H   UNK d   0       8.970   8.436  -5.321  0.00  0.00     0.028 H 
ATOM     43  H   UNK d   0       9.737   8.004  -6.868  0.00  0.00     0.028 H 
ATOM     44  H   UNK d   0       8.546   6.907  -6.129  0.00  0.00     0.028 H 
ENDBRANCH   1  41
BRANCH   4  45
ATOM     45  O   UNK d   0       8.494   7.984  -0.866  0.00  0.00    -0.491 OA
BRANCH  45  46
ATOM     46  C   UNK d   0       8.550   9.405  -0.715  0.00  0.00     0.079 C 
ATOM     47  H   UNK d   0       9.573   9.746  -0.875  0.00  0.00     0.066 H 
ATOM     48  H   UNK d   0       7.892   9.874  -1.446  0.00  0.00     0.066 H 
ATOM     49  H   UNK d   0       8.229   9.676   0.290  0.00  0.00     0.066 H 
ENDBRANCH  45  46
ENDBRANCH   4  45
BRANCH   5  50
ATOM     50  O   UNK d   0      10.555   6.683   0.407  0.00  0.00    -0.491 OA
BRANCH  50  51
ATOM     51  C   UNK d   0      11.241   5.577   0.998  0.00  0.00     0.079 C 
ATOM     52  H   UNK d   0      10.820   4.645   0.622  0.00  0.00     0.066 H 
ATOM     53  H   UNK d   0      12.299   5.627   0.742  0.00  0.00     0.066 H 
ATOM     54  H   UNK d   0      11.126   5.616   2.082  0.00  0.00     0.066 H 
ENDBRANCH  50  51
ENDBRANCH   5  50
TORSDOF 12
ENDMDL
MODEL 5
REMARK VINA RESULT:      -6.0      4.430      7.165
REMARK  10 active torsions:
REMARK  status: ('A' for Active; 'I' for Inactive)
REMARK    1  A    between atoms: C_1  and  C_2 
REMARK    2  A    between atoms: C_5  and  O_31 
REMARK    3  A    between atoms: C_6  and  O_29 
REMARK    4  A    between atoms: C_12  and  C_13 
REMARK    5  A    between atoms: C_13  and  C_14 
REMARK       I    between atoms: C_14  and  N_16 
REMARK       I    between atoms: N_16  and  CA_17 
REMARK    6  A    between atoms: CA_17  and  CB_19 
REMARK       I    between atoms: CA_17  and  C_27 
REMARK    7  A    between atoms: CB_19  and  CG_20 
REMARK    8  A    between atoms: CZ_23  and  OH_26 
REMARK    9  A    between atoms: O_29  and  C_30 
REMARK   10  A    between atoms: O_31  and  C_32 
ROOT
ATOM      1  C   UNK d   0       9.757   1.493  -5.588  0.00  0.00    -0.029 A 
ATOM      2  C   UNK d   0      10.380   2.436  -4.657  0.00  0.00     0.025 A 
ATOM      3  C   UNK d   0      11.696   2.874  -4.849  0.00  0.00    -0.005 A 
ATOM      4  C   UNK d   0      12.256   3.761  -3.957  0.00  0.00     0.162 A 
ATOM      5  C   UNK d   0      11.513   4.225  -2.866  0.00  0.00     0.165 A 
ATOM      6  C   UNK d   0      10.213   3.797  -2.669  0.00  0.00     0.027 A 
ATOM      7  C   UNK d   0       9.635   2.903  -3.558  0.00  0.00     0.143 A 
ATOM      8  O   UNK d   0       8.364   2.478  -3.379  0.00  0.00    -0.422 OA
ATOM      9  C   UNK d   0       7.786   1.619  -4.232  0.00  0.00     0.341 A 
ATOM     10  O   UNK d   0       6.636   1.267  -4.032  0.00  0.00    -0.245 OA
ATOM     11  C   UNK d   0       8.476   1.106  -5.349  0.00  0.00     0.049 A 
ATOM     12  H   UNK d   0      12.270   2.516  -5.692  0.00  0.00     0.066 H 
ATOM     13  H   UNK d   0       9.648   4.160  -1.824  0.00  0.00     0.069 H 
ENDROOT
BRANCH  11  14
ATOM     14  C   UNK d   0       7.794   0.137  -6.280  0.00  0.00     0.056 C 
ATOM     15  H   UNK d   0       6.811   0.524  -6.550  0.00  0.00     0.041 H 
ATOM     16  H   UNK d   0       8.395   0.014  -7.181  0.00  0.00     0.041 H 
BRANCH  14  17
ATOM     17  C   UNK d   0       7.638  -1.195  -5.593  0.00  0.00     0.218 C 
ATOM     18  O   UNK d   0       8.607  -1.752  -5.125  0.00  0.00    -0.275 OA
ATOM     19  N   TYR d   1       6.421  -1.766  -5.498  0.00  0.00    -0.307 N 
ATOM     20  CA  TYR d   1       6.270  -3.061  -4.830  0.00  0.00     0.067 C 
ATOM     21  H   TYR d   1       5.646  -1.320  -5.872  0.00  0.00     0.149 HD
ATOM     22  HA  TYR d   1       6.971  -3.124  -3.998  0.00  0.00     0.056 H 
ATOM     23  C   TYR d   1       6.554  -4.169  -5.811  0.00  0.00     0.062 C 
ATOM     24  O   TYR d   1       6.853  -3.904  -6.951  0.00  0.00    -0.548 OA
ATOM     25  OXT TYR d   1       6.477  -5.450  -5.418  0.00  0.00    -0.548 OA
BRANCH  20  26
ATOM     26  CB  TYR d   1       4.840  -3.200  -4.305  0.00  0.00    -0.004 C 
ATOM     27  HB1 TYR d   1       4.171  -3.439  -5.131  0.00  0.00     0.034 H 
ATOM     28  HB2 TYR d   1       4.801  -3.998  -3.564  0.00  0.00     0.034 H 
BRANCH  26  29
ATOM     29  CG  TYR d   1       4.409  -1.903  -3.669  0.00  0.00    -0.045 A 
ATOM     30  CD1 TYR d   1       3.593  -1.030  -4.364  0.00  0.00    -0.055 A 
ATOM     31  CE1 TYR d   1       3.198   0.159  -3.785  0.00  0.00    -0.020 A 
ATOM     32  HD1 TYR d   1       3.264  -1.280  -5.363  0.00  0.00     0.062 H 
ATOM     33  CZ  TYR d   1       3.620   0.479  -2.503  0.00  0.00     0.117 A 
ATOM     34  HE1 TYR d   1       2.560   0.841  -4.329  0.00  0.00     0.065 H 
ATOM     35  CE2 TYR d   1       4.440  -0.399  -1.807  0.00  0.00    -0.020 A 
ATOM     36  CD2 TYR d   1       4.828  -1.589  -2.389  0.00  0.00    -0.055 A 
ATOM     37  HE2 TYR d   1       4.770  -0.152  -0.808  0.00  0.00     0.065 H 
ATOM     38  HD2 TYR d   1       5.461  -2.274  -1.845  0.00  0.00     0.062 H 
BRANCH  33  39
ATOM     39  OH  TYR d   1       3.233   1.648  -1.929  0.00  0.00    -0.507 OA
ATOM     40  HH  TYR d   1       3.604   1.796  -1.049  0.00  0.00     0.292 HD
ENDBRANCH  33  39
ENDBRANCH  26  29
ENDBRANCH  20  26
ENDBRANCH  14  17
ENDBRANCH  11  14
BRANCH   1  41
ATOM     41  C   UNK d   0      10.515   0.966  -6.780  0.00  0.00    -0.038 C 
ATOM     42  H   UNK d   0      11.458   1.503  -6.875  0.00  0.00     0.028 H 
ATOM     43  H   UNK d   0      10.714  -0.097  -6.641  0.00  0.00     0.028 H 
ATOM     44  H   UNK d   0       9.921   1.111  -7.681  0.00  0.00     0.028 H 
ENDBRANCH   1  41
BRANCH   4  45
ATOM     45  O   UNK d   0      13.534   4.190  -4.138  0.00  0.00    -0.491 OA
BRANCH  45  46
ATOM     46  C   UNK d   0      14.577   3.334  -3.665  0.00  0.00     0.079 C 
ATOM     47  H   UNK d   0      15.306   3.923  -3.109  0.00  0.00     0.066 H 
ATOM     48  H   UNK d   0      14.153   2.571  -3.013  0.00  0.00     0.066 H 
ATOM     49  H   UNK d   0      15.067   2.855  -4.513  0.00  0.00     0.066 H 
ENDBRANCH  45  46
ENDBRANCH   4  45
BRANCH   5  50
ATOM     50  O   UNK d   0      12.074   5.100  -1.992  0.00  0.00    -0.491 OA
BRANCH  50  51
ATOM     51  C   UNK d   0      11.370   5.340  -0.772  0.00  0.00     0.079 C 
ATOM     52  H   UNK d   0      11.720   4.646  -0.008  0.00  0.00     0.066 H 
ATOM     53  H   UNK d   0      11.551   6.363  -0.444  0.00  0.00     0.066 H 
ATOM     54  H   UNK d   0      10.302   5.193  -0.934  0.00  0.00     0.066 H 
ENDBRANCH  50  51
ENDBRANCH   5  50
TORSDOF 12
ENDMDL
MODEL 6
REMARK VINA RESULT:      -6.0      4.740      8.796
REMARK  10 active torsions:
REMARK  status: ('A' for Active; 'I' for Inactive)
REMARK    1  A    between atoms: C_1  and  C_2 
REMARK    2  A    between atoms: C_5  and  O_31 
REMARK    3  A    between atoms: C_6  and  O_29 
REMARK    4  A    between atoms: C_12  and  C_13 
REMARK    5  A    between atoms: C_13  and  C_14 
REMARK       I    between atoms: C_14  and  N_16 
REMARK       I    between atoms: N_16  and  CA_17 
REMARK    6  A    between atoms: CA_17  and  CB_19 
REMARK       I    between atoms: CA_17  and  C_27 
REMARK    7  A    between atoms: CB_19  and  CG_20 
REMARK    8  A    between atoms: CZ_23  and  OH_26 
REMARK    9  A    between atoms: O_29  and  C_30 
REMARK   10  A    between atoms: O_31  and  C_32 
ROOT
ATOM      1  C   UNK d   0       9.736   3.848  -6.135  0.00  0.00    -0.029 A 
ATOM      2  C   UNK d   0       9.743   5.267  -5.779  0.00  0.00     0.025 A 
ATOM      3  C   UNK d   0       9.826   6.257  -6.766  0.00  0.00    -0.005 A 
ATOM      4  C   UNK d   0       9.831   7.585  -6.401  0.00  0.00     0.162 A 
ATOM      5  C   UNK d   0       9.752   7.944  -5.051  0.00  0.00     0.165 A 
ATOM      6  C   UNK d   0       9.670   6.973  -4.070  0.00  0.00     0.027 A 
ATOM      7  C   UNK d   0       9.664   5.631  -4.421  0.00  0.00     0.143 A 
ATOM      8  O   UNK d   0       9.583   4.671  -3.473  0.00  0.00    -0.422 OA
ATOM      9  C   UNK d   0       9.570   3.368  -3.794  0.00  0.00     0.341 A 
ATOM     10  O   UNK d   0       9.491   2.539  -2.904  0.00  0.00    -0.245 OA
ATOM     11  C   UNK d   0       9.653   2.934  -5.132  0.00  0.00     0.049 A 
ATOM     12  H   UNK d   0       9.887   5.980  -7.808  0.00  0.00     0.066 H 
ATOM     13  H   UNK d   0       9.609   7.259  -3.031  0.00  0.00     0.069 H 
ENDROOT
BRANCH  11  14
ATOM     14  C   UNK d   0       9.642   1.461  -5.451  0.00  0.00     0.056 C 
ATOM     15  H   UNK d   0       9.967   1.310  -6.480  0.00  0.00     0.041 H 
ATOM     16  H   UNK d   0      10.320   0.938  -4.776  0.00  0.00     0.041 H 
BRANCH  14  17
ATOM     17  C   UNK d   0       8.246   0.920  -5.280  0.00  0.00     0.218 C 
ATOM     18  O   UNK d   0       7.392   1.178  -6.101  0.00  0.00    -0.275 OA
ATOM     19  N   TYR d   1       7.947   0.148  -4.217  0.00  0.00    -0.307 N 
ATOM     20  CA  TYR d   1       6.591  -0.378  -4.051  0.00  0.00     0.067 C 
ATOM     21  H   TYR d   1       8.631  -0.058  -3.561  0.00  0.00     0.149 HD
ATOM     22  HA  TYR d   1       6.168  -0.607  -5.029  0.00  0.00     0.056 H 
ATOM     23  C   TYR d   1       5.732   0.653  -3.362  0.00  0.00     0.062 C 
ATOM     24  O   TYR d   1       6.206   1.717  -3.043  0.00  0.00    -0.548 OA
ATOM     25  OXT TYR d   1       4.442   0.388  -3.105  0.00  0.00    -0.548 OA
BRANCH  20  26
ATOM     26  CB  TYR d   1       6.637  -1.651  -3.204  0.00  0.00    -0.004 C 
ATOM     27  HB1 TYR d   1       7.618  -1.742  -2.738  0.00  0.00     0.034 H 
ATOM     28  HB2 TYR d   1       5.871  -1.601  -2.430  0.00  0.00     0.034 H 
BRANCH  26  29
ATOM     29  CG  TYR d   1       6.386  -2.849  -4.083  0.00  0.00    -0.045 A 
ATOM     30  CD1 TYR d   1       7.449  -3.604  -4.543  0.00  0.00    -0.055 A 
ATOM     31  CE1 TYR d   1       7.222  -4.701  -5.350  0.00  0.00    -0.020 A 
ATOM     32  HD1 TYR d   1       8.459  -3.334  -4.270  0.00  0.00     0.062 H 
ATOM     33  CZ  TYR d   1       5.925  -5.047  -5.699  0.00  0.00     0.117 A 
ATOM     34  HE1 TYR d   1       8.053  -5.290  -5.708  0.00  0.00     0.065 H 
ATOM     35  CE2 TYR d   1       4.859  -4.288  -5.236  0.00  0.00    -0.020 A 
ATOM     36  CD2 TYR d   1       5.091  -3.194  -4.425  0.00  0.00    -0.055 A 
ATOM     37  HE2 TYR d   1       3.847  -4.555  -5.508  0.00  0.00     0.065 H 
ATOM     38  HD2 TYR d   1       4.261  -2.606  -4.062  0.00  0.00     0.062 H 
BRANCH  33  39
ATOM     39  OH  TYR d   1       5.697  -6.126  -6.491  0.00  0.00    -0.507 OA
ATOM     40  HH  TYR d   1       5.338  -6.891  -6.022  0.00  0.00     0.292 HD
ENDBRANCH  33  39
ENDBRANCH  26  29
ENDBRANCH  20  26
ENDBRANCH  14  17
ENDBRANCH  11  14
BRANCH   1  41
ATOM     41  C   UNK d   0       9.818   3.410  -7.575  0.00  0.00    -0.038 C 
ATOM     42  H   UNK d   0       9.583   4.253  -8.224  0.00  0.00     0.028 H 
ATOM     43  H   UNK d   0      10.826   3.056  -7.790  0.00  0.00     0.028 H 
ATOM     44  H   UNK d   0       9.105   2.605  -7.751  0.00  0.00     0.028 H 
ENDBRANCH   1  41
BRANCH   4  45
ATOM     45  O   UNK d   0       9.911   8.551  -7.355  0.00  0.00    -0.491 OA
BRANCH  45  46
ATOM     46  C   UNK d   0       8.874   8.579  -8.339  0.00  0.00     0.079 C 
ATOM     47  H   UNK d   0       7.904   8.572  -7.844  0.00  0.00     0.066 H 
ATOM     48  H   UNK d   0       8.969   9.483  -8.940  0.00  0.00     0.066 H 
ATOM     49  H   UNK d   0       8.961   7.704  -8.983  0.00  0.00     0.066 H 
ENDBRANCH  45  46
ENDBRANCH   4  45
BRANCH   5  50
ATOM     50  O   UNK d   0       9.757   9.256  -4.702  0.00  0.00    -0.491 OA
BRANCH  50  51
ATOM     51  C   UNK d   0      10.437   9.603  -3.494  0.00  0.00     0.079 C 
ATOM     52  H   UNK d   0       9.795  10.241  -2.886  0.00  0.00     0.066 H 
ATOM     53  H   UNK d   0      10.678   8.697  -2.940  0.00  0.00     0.066 H 
ATOM     54  H   UNK d   0      11.355  10.138  -3.736  0.00  0.00     0.066 H 
ENDBRANCH  50  51
ENDBRANCH   5  50
TORSDOF 12
ENDMDL
MODEL 7
REMARK VINA RESULT:      -6.0      2.107      6.490
REMARK  10 active torsions:
REMARK  status: ('A' for Active; 'I' for Inactive)
REMARK    1  A    between atoms: C_1  and  C_2 
REMARK    2  A    between atoms: C_5  and  O_31 
REMARK    3  A    between atoms: C_6  and  O_29 
REMARK    4  A    between atoms: C_12  and  C_13 
REMARK    5  A    between atoms: C_13  and  C_14 
REMARK       I    between atoms: C_14  and  N_16 
REMARK       I    between atoms: N_16  and  CA_17 
REMARK    6  A    between atoms: CA_17  and  CB_19 
REMARK       I    between atoms: CA_17  and  C_27 
REMARK    7  A    between atoms: CB_19  and  CG_20 
REMARK    8  A    between atoms: CZ_23  and  OH_26 
REMARK    9  A    between atoms: O_29  and  C_30 
REMARK   10  A    between atoms: O_31  and  C_32 
ROOT
ATOM      1  C   UNK d   0       4.922  -3.533  -8.726  0.00  0.00    -0.029 A 
ATOM      2  C   UNK d   0       4.055  -4.040  -9.791  0.00  0.00     0.025 A 
ATOM      3  C   UNK d   0       4.207  -3.601 -11.113  0.00  0.00    -0.005 A 
ATOM      4  C   UNK d   0       3.377  -4.096 -12.095  0.00  0.00     0.162 A 
ATOM      5  C   UNK d   0       2.388  -5.032 -11.774  0.00  0.00     0.165 A 
ATOM      6  C   UNK d   0       2.232  -5.470 -10.472  0.00  0.00     0.027 A 
ATOM      7  C   UNK d   0       3.060  -4.982  -9.472  0.00  0.00     0.143 A 
ATOM      8  O   UNK d   0       2.919  -5.402  -8.195  0.00  0.00    -0.422 OA
ATOM      9  C   UNK d   0       3.714  -4.946  -7.215  0.00  0.00     0.341 A 
ATOM     10  O   UNK d   0       3.552  -5.358  -6.079  0.00  0.00    -0.245 OA
ATOM     11  C   UNK d   0       4.726  -3.997  -7.464  0.00  0.00     0.049 A 
ATOM     12  H   UNK d   0       4.971  -2.878 -11.360  0.00  0.00     0.066 H 
ATOM     13  H   UNK d   0       1.467  -6.193 -10.234  0.00  0.00     0.069 H 
ENDROOT
BRANCH  11  14
ATOM     14  C   UNK d   0       5.594  -3.504  -6.335  0.00  0.00     0.056 C 
ATOM     15  H   UNK d   0       5.399  -4.097  -5.441  0.00  0.00     0.041 H 
ATOM     16  H   UNK d   0       6.643  -3.602  -6.613  0.00  0.00     0.041 H 
BRANCH  14  17
ATOM     17  C   UNK d   0       5.281  -2.057  -6.055  0.00  0.00     0.218 C 
ATOM     18  O   UNK d   0       6.139  -1.327  -5.608  0.00  0.00    -0.275 OA
ATOM     19  N   TYR d   1       4.047  -1.574  -6.303  0.00  0.00    -0.307 N 
ATOM     20  CA  TYR d   1       3.743  -0.167  -6.032  0.00  0.00     0.067 C 
ATOM     21  H   TYR d   1       3.361  -2.158  -6.660  0.00  0.00     0.149 HD
ATOM     22  HA  TYR d   1       4.622   0.442  -6.243  0.00  0.00     0.056 H 
ATOM     23  C   TYR d   1       3.358  -0.006  -4.583  0.00  0.00     0.062 C 
ATOM     24  O   TYR d   1       3.340  -0.969  -3.853  0.00  0.00    -0.548 OA
ATOM     25  OXT TYR d   1       3.036   1.206  -4.104  0.00  0.00    -0.548 OA
BRANCH  20  26
ATOM     26  CB  TYR d   1       2.583   0.284  -6.920  0.00  0.00    -0.004 C 
ATOM     27  HB1 TYR d   1       1.757  -0.420  -6.825  0.00  0.00     0.034 H 
ATOM     28  HB2 TYR d   1       2.252   1.276  -6.610  0.00  0.00     0.034 H 
BRANCH  26  29
ATOM     29  CG  TYR d   1       3.039   0.333  -8.356  0.00  0.00    -0.045 A 
ATOM     30  CD1 TYR d   1       2.346  -0.370  -9.324  0.00  0.00    -0.055 A 
ATOM     31  CE1 TYR d   1       2.763  -0.329 -10.640  0.00  0.00    -0.020 A 
ATOM     32  HD1 TYR d   1       1.479  -0.953  -9.051  0.00  0.00     0.062 H 
ATOM     33  CZ  TYR d   1       3.876   0.420 -10.991  0.00  0.00     0.117 A 
ATOM     34  HE1 TYR d   1       2.221  -0.878 -11.396  0.00  0.00     0.065 H 
ATOM     35  CE2 TYR d   1       4.569   1.125 -10.018  0.00  0.00    -0.020 A 
ATOM     36  CD2 TYR d   1       4.146   1.085  -8.704  0.00  0.00    -0.055 A 
ATOM     37  HE2 TYR d   1       5.438   1.709 -10.288  0.00  0.00     0.065 H 
ATOM     38  HD2 TYR d   1       4.683   1.637  -7.946  0.00  0.00     0.062 H 
BRANCH  33  39
ATOM     39  OH  TYR d   1       4.288   0.464 -12.285  0.00  0.00    -0.507 OA
ATOM     40  HH  TYR d   1       5.245   0.384 -12.397  0.00  0.00     0.292 HD
ENDBRANCH  33  39
ENDBRANCH  26  29
ENDBRANCH  20  26
ENDBRANCH  14  17
ENDBRANCH  11  14
BRANCH   1  41
ATOM     41  C   UNK d   0       6.003  -2.524  -9.020  0.00  0.00    -0.038 C 
ATOM     42  H   UNK d   0       6.918  -3.045  -9.298  0.00  0.00     0.028 H 
ATOM     43  H   UNK d   0       5.685  -1.883  -9.843  0.00  0.00     0.028 H 
ATOM     44  H   UNK d   0       6.183  -1.917  -8.134  0.00  0.00     0.028 H 
ENDBRANCH   1  41
BRANCH   4  45
ATOM     45  O   UNK d   0       3.520  -3.673 -13.379  0.00  0.00    -0.491 OA
BRANCH  45  46
ATOM     46  C   UNK d   0       2.883  -2.442 -13.731  0.00  0.00     0.079 C 
ATOM     47  H   UNK d   0       1.870  -2.429 -13.330  0.00  0.00     0.066 H 
ATOM     48  H   UNK d   0       3.450  -1.609 -13.315  0.00  0.00     0.066 H 
ATOM     49  H   UNK d   0       2.846  -2.350 -14.817  0.00  0.00     0.066 H 
ENDBRANCH  45  46
ENDBRANCH   4  45
BRANCH   5  50
ATOM     50  O   UNK d   0       1.576  -5.514 -12.749  0.00  0.00    -0.491 OA
BRANCH  50  51
ATOM     51  C   UNK d   0       1.627  -6.920 -13.001  0.00  0.00     0.079 C 
ATOM     52  H   UNK d   0       1.575  -7.099 -14.075  0.00  0.00     0.066 H 
ATOM     53  H   UNK d   0       2.560  -7.325 -12.610  0.00  0.00     0.066 H 
ATOM     54  H   UNK d   0       0.784  -7.407 -12.510  0.00  0.00     0.066 H 
ENDBRANCH  50  51
ENDBRANCH   5  50
TORSDOF 12
ENDMDL
MODEL 8
REMARK VINA RESULT:      -5.9      2.356      7.792
REMARK  10 active torsions:
REMARK  status: ('A' for Active; 'I' for Inactive)
REMARK    1  A    between atoms: C_1  and  C_2 
REMARK    2  A    between atoms: C_5  and  O_31 
REMARK    3  A    between atoms: C_6  and  O_29 
REMARK    4  A    between atoms: C_12  and  C_13 
REMARK    5  A    between atoms: C_13  and  C_14 
REMARK       I    between atoms: C_14  and  N_16 
REMARK       I    between atoms: N_16  and  CA_17 
REMARK    6  A    between atoms: CA_17  and  CB_19 
REMARK       I    between atoms: CA_17  and  C_27 
REMARK    7  A    between atoms: CB_19  and  CG_20 
REMARK    8  A    between atoms: CZ_23  and  OH_26 
REMARK    9  A    between atoms: O_29  and  C_30 
REMARK   10  A    between atoms: O_31  and  C_32 
ROOT
ATOM      1  C   UNK d   0       2.751  -1.297  -8.945  0.00  0.00    -0.029 A 
ATOM      2  C   UNK d   0       2.458  -2.601  -9.542  0.00  0.00     0.025 A 
ATOM      3  C   UNK d   0       1.303  -2.799 -10.309  0.00  0.00    -0.005 A 
ATOM      4  C   UNK d   0       1.053  -4.036 -10.859  0.00  0.00     0.162 A 
ATOM      5  C   UNK d   0       1.951  -5.091 -10.655  0.00  0.00     0.165 A 
ATOM      6  C   UNK d   0       3.093  -4.903  -9.900  0.00  0.00     0.027 A 
ATOM      7  C   UNK d   0       3.359  -3.662  -9.339  0.00  0.00     0.143 A 
ATOM      8  O   UNK d   0       4.473  -3.465  -8.599  0.00  0.00    -0.422 OA
ATOM      9  C   UNK d   0       4.749  -2.271  -8.054  0.00  0.00     0.341 A 
ATOM     10  O   UNK d   0       5.769  -2.139  -7.399  0.00  0.00    -0.245 OA
ATOM     11  C   UNK d   0       3.888  -1.167  -8.213  0.00  0.00     0.049 A 
ATOM     12  H   UNK d   0       0.610  -1.985 -10.466  0.00  0.00     0.066 H 
ATOM     13  H   UNK d   0       3.780  -5.722  -9.747  0.00  0.00     0.069 H 
ENDROOT
BRANCH  11  14
ATOM     14  C   UNK d   0       4.230   0.157  -7.578  0.00  0.00     0.056 C 
ATOM     15  H   UNK d   0       5.313   0.243  -7.479  0.00  0.00     0.041 H 
ATOM     16  H   UNK d   0       3.858   0.968  -8.205  0.00  0.00     0.041 H 
BRANCH  14  17
ATOM     17  C   UNK d   0       3.593   0.241  -6.215  0.00  0.00     0.218 C 
ATOM     18  O   UNK d   0       2.657   0.988  -6.029  0.00  0.00    -0.275 OA
ATOM     19  N   TYR d   1       4.062  -0.516  -5.203  0.00  0.00    -0.307 N 
ATOM     20  CA  TYR d   1       3.443  -0.434  -3.879  0.00  0.00     0.067 C 
ATOM     21  H   TYR d   1       4.811  -1.113  -5.353  0.00  0.00     0.149 HD
ATOM     22  HA  TYR d   1       2.371  -0.272  -3.989  0.00  0.00     0.056 H 
ATOM     23  C   TYR d   1       4.048   0.713  -3.111  0.00  0.00     0.062 C 
ATOM     24  O   TYR d   1       4.908   1.393  -3.618  0.00  0.00    -0.548 OA
ATOM     25  OXT TYR d   1       3.630   0.980  -1.863  0.00  0.00    -0.548 OA
BRANCH  20  26
ATOM     26  CB  TYR d   1       3.686  -1.740  -3.121  0.00  0.00    -0.004 C 
ATOM     27  HB1 TYR d   1       3.789  -1.529  -2.057  0.00  0.00     0.034 H 
ATOM     28  HB2 TYR d   1       2.844  -2.414  -3.278  0.00  0.00     0.034 H 
BRANCH  26  29
ATOM     29  CG  TYR d   1       4.949  -2.388  -3.627  0.00  0.00    -0.045 A 
ATOM     30  CD1 TYR d   1       6.181  -1.872  -3.272  0.00  0.00    -0.055 A 
ATOM     31  CE1 TYR d   1       7.340  -2.462  -3.736  0.00  0.00    -0.020 A 
ATOM     32  HD1 TYR d   1       6.237  -1.004  -2.630  0.00  0.00     0.062 H 
ATOM     33  CZ  TYR d   1       7.267  -3.576  -4.559  0.00  0.00     0.117 A 
ATOM     34  HE1 TYR d   1       8.302  -2.058  -3.458  0.00  0.00     0.065 H 
ATOM     35  CE2 TYR d   1       6.029  -4.093  -4.915  0.00  0.00    -0.020 A 
ATOM     36  CD2 TYR d   1       4.874  -3.502  -4.444  0.00  0.00    -0.055 A 
ATOM     37  HE2 TYR d   1       5.970  -4.960  -5.557  0.00  0.00     0.065 H 
ATOM     38  HD2 TYR d   1       3.910  -3.906  -4.717  0.00  0.00     0.062 H 
BRANCH  33  39
ATOM     39  OH  TYR d   1       8.405  -4.161  -5.017  0.00  0.00    -0.507 OA
ATOM     40  HH  TYR d   1       9.217  -3.739  -4.705  0.00  0.00     0.292 HD
ENDBRANCH  33  39
ENDBRANCH  26  29
ENDBRANCH  20  26
ENDBRANCH  14  17
ENDBRANCH  11  14
BRANCH   1  41
ATOM     41  C   UNK d   0       1.816  -0.129  -9.137  0.00  0.00    -0.038 C 
ATOM     42  H   UNK d   0       0.819  -0.403  -8.792  0.00  0.00     0.028 H 
ATOM     43  H   UNK d   0       2.178   0.723  -8.562  0.00  0.00     0.028 H 
ATOM     44  H   UNK d   0       1.777   0.134 -10.193  0.00  0.00     0.028 H 
ENDBRANCH   1  41
BRANCH   4  45
ATOM     45  O   UNK d   0      -0.067  -4.235 -11.604  0.00  0.00    -0.491 OA
BRANCH  45  46
ATOM     46  C   UNK d   0      -0.210  -3.442 -12.784  0.00  0.00     0.079 C 
ATOM     47  H   UNK d   0      -1.106  -3.749 -13.322  0.00  0.00     0.066 H 
ATOM     48  H   UNK d   0      -0.295  -2.391 -12.508  0.00  0.00     0.066 H 
ATOM     49  H   UNK d   0       0.663  -3.580 -13.423  0.00  0.00     0.066 H 
ENDBRANCH  45  46
ENDBRANCH   4  45
BRANCH   5  50
ATOM     50  O   UNK d   0       1.696  -6.307 -11.202  0.00  0.00    -0.491 OA
BRANCH  50  51
ATOM     51  C   UNK d   0       2.424  -6.652 -12.383  0.00  0.00     0.079 C 
ATOM     52  H   UNK d   0       2.024  -6.097 -13.231  0.00  0.00     0.066 H 
ATOM     53  H   UNK d   0       3.475  -6.402 -12.247  0.00  0.00     0.066 H 
ATOM     54  H   UNK d   0       2.325  -7.722 -12.570  0.00  0.00     0.066 H 
ENDBRANCH  50  51
ENDBRANCH   5  50
TORSDOF 12
ENDMDL
MODEL 9
REMARK VINA RESULT:      -5.7      2.292      8.094
REMARK  10 active torsions:
REMARK  status: ('A' for Active; 'I' for Inactive)
REMARK    1  A    between atoms: C_1  and  C_2 
REMARK    2  A    between atoms: C_5  and  O_31 
REMARK    3  A    between atoms: C_6  and  O_29 
REMARK    4  A    between atoms: C_12  and  C_13 
REMARK    5  A    between atoms: C_13  and  C_14 
REMARK       I    between atoms: C_14  and  N_16 
REMARK       I    between atoms: N_16  and  CA_17 
REMARK    6  A    between atoms: CA_17  and  CB_19 
REMARK       I    between atoms: CA_17  and  C_27 
REMARK    7  A    between atoms: CB_19  and  CG_20 
REMARK    8  A    between atoms: CZ_23  and  OH_26 
REMARK    9  A    between atoms: O_29  and  C_30 
REMARK   10  A    between atoms: O_31  and  C_32 
ROOT
ATOM      1  C   UNK d   0       2.941  -1.462 -10.379  0.00  0.00    -0.029 A 
ATOM      2  C   UNK d   0       3.160  -1.363 -11.823  0.00  0.00     0.025 A 
ATOM      3  C   UNK d   0       2.452  -2.178 -12.716  0.00  0.00    -0.005 A 
ATOM      4  C   UNK d   0       2.678  -2.063 -14.069  0.00  0.00     0.162 A 
ATOM      5  C   UNK d   0       3.610  -1.136 -14.551  0.00  0.00     0.165 A 
ATOM      6  C   UNK d   0       4.312  -0.328 -13.676  0.00  0.00     0.027 A 
ATOM      7  C   UNK d   0       4.096  -0.432 -12.310  0.00  0.00     0.143 A 
ATOM      8  O   UNK d   0       4.775   0.352 -11.443  0.00  0.00    -0.422 OA
ATOM      9  C   UNK d   0       4.575   0.271 -10.119  0.00  0.00     0.341 A 
ATOM     10  O   UNK d   0       5.207   1.002  -9.377  0.00  0.00    -0.245 OA
ATOM     11  C   UNK d   0       3.657  -0.644  -9.564  0.00  0.00     0.049 A 
ATOM     12  H   UNK d   0       1.733  -2.893 -12.344  0.00  0.00     0.066 H 
ATOM     13  H   UNK d   0       5.029   0.384 -14.056  0.00  0.00     0.069 H 
ENDROOT
BRANCH  11  14
ATOM     14  C   UNK d   0       3.466  -0.710  -8.070  0.00  0.00     0.056 C 
ATOM     15  H   UNK d   0       3.717   0.255  -7.629  0.00  0.00     0.041 H 
ATOM     16  H   UNK d   0       2.426  -0.951  -7.847  0.00  0.00     0.041 H 
BRANCH  14  17
ATOM     17  C   UNK d   0       4.363  -1.774  -7.495  0.00  0.00     0.218 C 
ATOM     18  O   UNK d   0       5.421  -2.029  -8.030  0.00  0.00    -0.275 OA
ATOM     19  N   TYR d   1       3.991  -2.443  -6.386  0.00  0.00    -0.307 N 
ATOM     20  CA  TYR d   1       4.864  -3.478  -5.827  0.00  0.00     0.067 C 
ATOM     21  H   TYR d   1       3.145  -2.239  -5.958  0.00  0.00     0.149 HD
ATOM     22  HA  TYR d   1       5.906  -3.190  -5.969  0.00  0.00     0.056 H 
ATOM     23  C   TYR d   1       4.605  -4.787  -6.528  0.00  0.00     0.062 C 
ATOM     24  O   TYR d   1       3.776  -4.848  -7.405  0.00  0.00    -0.548 OA
ATOM     25  OXT TYR d   1       5.295  -5.884  -6.179  0.00  0.00    -0.548 OA
BRANCH  20  26
ATOM     26  CB  TYR d   1       4.577  -3.635  -4.332  0.00  0.00    -0.004 C 
ATOM     27  HB1 TYR d   1       3.556  -3.991  -4.194  0.00  0.00     0.034 H 
ATOM     28  HB2 TYR d   1       5.273  -4.354  -3.902  0.00  0.00     0.034 H 
BRANCH  26  29
ATOM     29  CG  TYR d   1       4.742  -2.304  -3.646  0.00  0.00    -0.045 A 
ATOM     30  CD1 TYR d   1       3.702  -1.776  -2.902  0.00  0.00    -0.055 A 
ATOM     31  CE1 TYR d   1       3.850  -0.556  -2.274  0.00  0.00    -0.020 A 
ATOM     32  HD1 TYR d   1       2.773  -2.320  -2.813  0.00  0.00     0.062 H 
ATOM     33  CZ  TYR d   1       5.043   0.142  -2.387  0.00  0.00     0.117 A 
ATOM     34  HE1 TYR d   1       3.037  -0.145  -1.693  0.00  0.00     0.065 H 
ATOM     35  CE2 TYR d   1       6.085  -0.389  -3.135  0.00  0.00    -0.020 A 
ATOM     36  CD2 TYR d   1       5.934  -1.612  -3.758  0.00  0.00    -0.055 A 
ATOM     37  HE2 TYR d   1       7.016   0.153  -3.226  0.00  0.00     0.065 H 
ATOM     38  HD2 TYR d   1       6.747  -2.028  -4.335  0.00  0.00     0.062 H 
BRANCH  33  39
ATOM     39  OH  TYR d   1       5.193   1.343  -1.770  0.00  0.00    -0.507 OA
ATOM     40  HH  TYR d   1       6.070   1.484  -1.390  0.00  0.00     0.292 HD
ENDBRANCH  33  39
ENDBRANCH  26  29
ENDBRANCH  20  26
ENDBRANCH  14  17
ENDBRANCH  11  14
BRANCH   1  41
ATOM     41  C   UNK d   0       1.948  -2.444  -9.811  0.00  0.00    -0.038 C 
ATOM     42  H   UNK d   0       2.464  -3.362  -9.532  0.00  0.00     0.028 H 
ATOM     43  H   UNK d   0       1.474  -2.011  -8.930  0.00  0.00     0.028 H 
ATOM     44  H   UNK d   0       1.188  -2.666 -10.560  0.00  0.00     0.028 H 
ENDBRANCH   1  41
BRANCH   4  45
ATOM     45  O   UNK d   0       1.995  -2.852 -14.941  0.00  0.00    -0.491 OA
BRANCH  45  46
ATOM     46  C   UNK d   0       0.668  -2.442 -15.283  0.00  0.00     0.079 C 
ATOM     47  H   UNK d   0       0.315  -1.712 -14.555  0.00  0.00     0.066 H 
ATOM     48  H   UNK d   0       0.671  -1.993 -16.276  0.00  0.00     0.066 H 
ATOM     49  H   UNK d   0       0.008  -3.310 -15.278  0.00  0.00     0.066 H 
ENDBRANCH  45  46
ENDBRANCH   4  45
BRANCH   5  50
ATOM     50  O   UNK d   0       3.825  -1.030 -15.887  0.00  0.00    -0.491 OA
BRANCH  50  51
ATOM     51  C   UNK d   0       3.929   0.290 -16.425  0.00  0.00     0.079 C 
ATOM     52  H   UNK d   0       3.347   0.355 -17.344  0.00  0.00     0.066 H 
ATOM     53  H   UNK d   0       3.547   1.008 -15.701  0.00  0.00     0.066 H 
ATOM     54  H   UNK d   0       4.975   0.512 -16.641  0.00  0.00     0.066 H 
ENDBRANCH  50  51
ENDBRANCH   5  50
TORSDOF 12
ENDMDL
