MODEL 1
REMARK VINA RESULT:      -5.0      0.000      0.000
REMARK  9 active torsions:
REMARK  status: ('A' for Active; 'I' for Inactive)
REMARK    1  A    between atoms: C_1  and  O_2 
REMARK    2  A    between atoms: O_2  and  C_3 
REMARK    3  A    between atoms: C_5  and  C_10 
REMARK    4  A    between atoms: C_8  and  O_9 
REMARK    5  A    between atoms: C_10  and  C_12 
REMARK    6  A    between atoms: C_10  and  O_17 
REMARK    7  A    between atoms: C_12  and  C_14 
REMARK    8  A    between atoms: C_12  and  O_16 
REMARK    9  A    between atoms: C_14  and  O_15 
ROOT
ATOM      1  C   LIG d   1      11.100   7.632   0.748  0.00  0.00     0.162 A 
ATOM      2  C   LIG d   1      10.873   8.654  -0.161  0.00  0.00    -0.011 A 
ATOM      3  C   LIG d   1      10.377   8.365  -1.418  0.00  0.00    -0.013 A 
ATOM      4  C   LIG d   1      10.115   7.056  -1.776  0.00  0.00    -0.052 A 
ATOM      5  C   LIG d   1      10.344   6.030  -0.877  0.00  0.00    -0.016 A 
ATOM      6  C   LIG d   1      10.835   6.315   0.386  0.00  0.00     0.159 A 
ATOM      7  H   LIG d   1      11.081   9.677   0.115  0.00  0.00     0.066 H 
ATOM      8  H   LIG d   1       9.730   6.832  -2.760  0.00  0.00     0.062 H 
ATOM      9  H   LIG d   1      10.138   5.009  -1.159  0.00  0.00     0.066 H 
ENDROOT
BRANCH   3  10
ATOM     10  C   LIG d   1      10.127   9.478  -2.402  0.00  0.00     0.108 C 
ATOM     11  H   LIG d   1      11.078   9.904  -2.719  0.00  0.00     0.067 H 
BRANCH  10  12
ATOM     12  C   LIG d   1       9.279  10.565  -1.737  0.00  0.00     0.108 C 
ATOM     13  H   LIG d   1       9.828  10.992  -0.899  0.00  0.00     0.065 H 
BRANCH  12  14
ATOM     14  C   LIG d   1       8.969  11.664  -2.757  0.00  0.00     0.073 C 
ATOM     15  H   LIG d   1       9.175  12.638  -2.314  0.00  0.00     0.058 H 
ATOM     16  H   LIG d   1       9.591  11.526  -3.640  0.00  0.00     0.058 H 
BRANCH  14  17
ATOM     17  O   LIG d   1       7.591  11.592  -3.129  0.00  0.00    -0.392 OA
ATOM     18  H   LIG d   1       7.342  12.205  -3.835  0.00  0.00     0.209 HD
ENDBRANCH  14  17
ENDBRANCH  12  14
BRANCH  12  19
ATOM     19  O   LIG d   1       8.057   9.995  -1.266  0.00  0.00    -0.387 OA
ATOM     20  H   LIG d   1       7.808   9.173  -1.711  0.00  0.00     0.210 HD
ENDBRANCH  12  19
ENDBRANCH  10  12
BRANCH  10  21
ATOM     21  O   LIG d   1       9.433   8.961  -3.539  0.00  0.00    -0.385 OA
ATOM     22  H   LIG d   1       8.476   9.094  -3.509  0.00  0.00     0.210 HD
ENDBRANCH  10  21
ENDBRANCH   3  10
BRANCH   1  23
ATOM     23  O   LIG d   1      11.583   7.917   1.987  0.00  0.00    -0.491 OA
BRANCH  23  24
ATOM     24  C   LIG d   1      12.005   9.261   2.226  0.00  0.00     0.079 C 
ATOM     25  H   LIG d   1      12.304   9.721   1.284  0.00  0.00     0.066 H 
ATOM     26  H   LIG d   1      11.181   9.827   2.662  0.00  0.00     0.066 H 
ATOM     27  H   LIG d   1      12.850   9.259   2.914  0.00  0.00     0.066 H 
ENDBRANCH  23  24
ENDBRANCH   1  23
BRANCH   6  28
ATOM     28  O   LIG d   1      11.062   5.307   1.273  0.00  0.00    -0.503 OA
ATOM     29  H   LIG d   1      11.996   5.086   1.385  0.00  0.00     0.292 HD
ENDBRANCH   6  28
TORSDOF 9
ENDMDL
MODEL 2
REMARK VINA RESULT:      -5.0     10.319     12.246
REMARK  9 active torsions:
REMARK  status: ('A' for Active; 'I' for Inactive)
REMARK    1  A    between atoms: C_1  and  O_2 
REMARK    2  A    between atoms: O_2  and  C_3 
REMARK    3  A    between atoms: C_5  and  C_10 
REMARK    4  A    between atoms: C_8  and  O_9 
REMARK    5  A    between atoms: C_10  and  C_12 
REMARK    6  A    between atoms: C_10  and  O_17 
REMARK    7  A    between atoms: C_12  and  C_14 
REMARK    8  A    between atoms: C_12  and  O_16 
REMARK    9  A    between atoms: C_14  and  O_15 
ROOT
ATOM      1  C   LIG d   1       5.774   0.364  -3.142  0.00  0.00     0.162 A 
ATOM      2  C   LIG d   1       5.918  -0.708  -4.009  0.00  0.00    -0.011 A 
ATOM      3  C   LIG d   1       5.176  -1.858  -3.815  0.00  0.00    -0.013 A 
ATOM      4  C   LIG d   1       4.297  -1.946  -2.752  0.00  0.00    -0.052 A 
ATOM      5  C   LIG d   1       4.153  -0.883  -1.879  0.00  0.00    -0.016 A 
ATOM      6  C   LIG d   1       4.890   0.274  -2.071  0.00  0.00     0.159 A 
ATOM      7  H   LIG d   1       6.606  -0.642  -4.838  0.00  0.00     0.066 H 
ATOM      8  H   LIG d   1       3.722  -2.848  -2.601  0.00  0.00     0.062 H 
ATOM      9  H   LIG d   1       3.467  -0.955  -1.049  0.00  0.00     0.066 H 
ENDROOT
BRANCH   3  10
ATOM     10  C   LIG d   1       5.330  -3.020  -4.762  0.00  0.00     0.108 C 
ATOM     11  H   LIG d   1       6.355  -3.387  -4.724  0.00  0.00     0.067 H 
BRANCH  10  12
ATOM     12  C   LIG d   1       5.004  -2.563  -6.186  0.00  0.00     0.108 C 
ATOM     13  H   LIG d   1       5.808  -1.928  -6.556  0.00  0.00     0.065 H 
BRANCH  12  14
ATOM     14  C   LIG d   1       4.863  -3.788  -7.094  0.00  0.00     0.073 C 
ATOM     15  H   LIG d   1       5.099  -3.508  -8.120  0.00  0.00     0.058 H 
ATOM     16  H   LIG d   1       5.549  -4.567  -6.762  0.00  0.00     0.058 H 
BRANCH  14  17
ATOM     17  O   LIG d   1       3.522  -4.275  -7.029  0.00  0.00    -0.392 OA
ATOM     18  H   LIG d   1       3.392  -4.984  -6.384  0.00  0.00     0.209 HD
ENDBRANCH  14  17
ENDBRANCH  12  14
BRANCH  12  19
ATOM     19  O   LIG d   1       3.778  -1.830  -6.183  0.00  0.00    -0.387 OA
ATOM     20  H   LIG d   1       3.768  -1.077  -6.791  0.00  0.00     0.210 HD
ENDBRANCH  12  19
ENDBRANCH  10  12
BRANCH  10  21
ATOM     21  O   LIG d   1       4.435  -4.066  -4.381  0.00  0.00    -0.385 OA
ATOM     22  H   LIG d   1       4.837  -4.743  -3.819  0.00  0.00     0.210 HD
ENDBRANCH  10  21
ENDBRANCH   3  10
BRANCH   1  23
ATOM     23  O   LIG d   1       6.500   1.498  -3.335  0.00  0.00    -0.491 OA
BRANCH  23  24
ATOM     24  C   LIG d   1       7.734   1.366  -4.041  0.00  0.00     0.079 C 
ATOM     25  H   LIG d   1       8.167   0.387  -3.836  0.00  0.00     0.066 H 
ATOM     26  H   LIG d   1       7.552   1.467  -5.112  0.00  0.00     0.066 H 
ATOM     27  H   LIG d   1       8.425   2.144  -3.714  0.00  0.00     0.066 H 
ENDBRANCH  23  24
ENDBRANCH   1  23
BRANCH   6  28
ATOM     28  O   LIG d   1       4.750   1.322  -1.214  0.00  0.00    -0.503 OA
ATOM     29  H   LIG d   1       3.857   1.694  -1.192  0.00  0.00     0.292 HD
ENDBRANCH   6  28
TORSDOF 9
ENDMDL
MODEL 3
REMARK VINA RESULT:      -4.8      1.086      2.626
REMARK  9 active torsions:
REMARK  status: ('A' for Active; 'I' for Inactive)
REMARK    1  A    between atoms: C_1  and  O_2 
REMARK    2  A    between atoms: O_2  and  C_3 
REMARK    3  A    between atoms: C_5  and  C_10 
REMARK    4  A    between atoms: C_8  and  O_9 
REMARK    5  A    between atoms: C_10  and  C_12 
REMARK    6  A    between atoms: C_10  and  O_17 
REMARK    7  A    between atoms: C_12  and  C_14 
REMARK    8  A    between atoms: C_12  and  O_16 
REMARK    9  A    between atoms: C_14  and  O_15 
ROOT
ATOM      1  C   LIG d   1      10.541   5.968  -1.251  0.00  0.00     0.162 A 
ATOM      2  C   LIG d   1      10.304   7.049  -2.084  0.00  0.00    -0.011 A 
ATOM      3  C   LIG d   1      10.398   8.337  -1.590  0.00  0.00    -0.013 A 
ATOM      4  C   LIG d   1      10.717   8.549  -0.262  0.00  0.00    -0.052 A 
ATOM      5  C   LIG d   1      10.949   7.474   0.577  0.00  0.00    -0.016 A 
ATOM      6  C   LIG d   1      10.862   6.182   0.086  0.00  0.00     0.159 A 
ATOM      7  H   LIG d   1      10.051   6.886  -3.121  0.00  0.00     0.066 H 
ATOM      8  H   LIG d   1      10.786   9.556   0.122  0.00  0.00     0.062 H 
ATOM      9  H   LIG d   1      11.198   7.642   1.613  0.00  0.00     0.066 H 
ENDROOT
BRANCH   3  10
ATOM     10  C   LIG d   1      10.145   9.511  -2.499  0.00  0.00     0.108 C 
ATOM     11  H   LIG d   1      11.095   9.965  -2.780  0.00  0.00     0.067 H 
BRANCH  10  12
ATOM     12  C   LIG d   1       9.282  10.544  -1.770  0.00  0.00     0.108 C 
ATOM     13  H   LIG d   1       9.833  10.940  -0.917  0.00  0.00     0.065 H 
BRANCH  12  14
ATOM     14  C   LIG d   1       8.936  11.686  -2.728  0.00  0.00     0.073 C 
ATOM     15  H   LIG d   1       9.115  12.641  -2.235  0.00  0.00     0.058 H 
ATOM     16  H   LIG d   1       9.558  11.614  -3.619  0.00  0.00     0.058 H 
BRANCH  14  17
ATOM     17  O   LIG d   1       7.559  11.594  -3.100  0.00  0.00    -0.392 OA
ATOM     18  H   LIG d   1       7.259  12.309  -3.679  0.00  0.00     0.209 HD
ENDBRANCH  14  17
ENDBRANCH  12  14
BRANCH  12  19
ATOM     19  O   LIG d   1       8.079   9.924  -1.314  0.00  0.00    -0.387 OA
ATOM     20  H   LIG d   1       7.707   9.282  -1.936  0.00  0.00     0.210 HD
ENDBRANCH  12  19
ENDBRANCH  10  12
BRANCH  10  21
ATOM     21  O   LIG d   1       9.464   9.066  -3.674  0.00  0.00    -0.385 OA
ATOM     22  H   LIG d   1       8.535   8.841  -3.529  0.00  0.00     0.210 HD
ENDBRANCH  10  21
ENDBRANCH   3  10
BRANCH   1  23
ATOM     23  O   LIG d   1      10.454   4.701  -1.738  0.00  0.00    -0.491 OA
BRANCH  23  24
ATOM     24  C   LIG d   1       9.880   4.542  -3.036  0.00  0.00     0.079 C 
ATOM     25  H   LIG d   1       9.612   5.521  -3.437  0.00  0.00     0.066 H 
ATOM     26  H   LIG d   1      10.604   4.065  -3.697  0.00  0.00     0.066 H 
ATOM     27  H   LIG d   1       8.986   3.922  -2.966  0.00  0.00     0.066 H 
ENDBRANCH  23  24
ENDBRANCH   1  23
BRANCH   6  28
ATOM     28  O   LIG d   1      11.089   5.123   0.910  0.00  0.00    -0.503 OA
ATOM     29  H   LIG d   1      11.995   5.075   1.247  0.00  0.00     0.292 HD
ENDBRANCH   6  28
TORSDOF 9
ENDMDL
MODEL 4
REMARK VINA RESULT:      -4.6      1.463      1.903
REMARK  9 active torsions:
REMARK  status: ('A' for Active; 'I' for Inactive)
REMARK    1  A    between atoms: C_1  and  O_2 
REMARK    2  A    between atoms: O_2  and  C_3 
REMARK    3  A    between atoms: C_5  and  C_10 
REMARK    4  A    between atoms: C_8  and  O_9 
REMARK    5  A    between atoms: C_10  and  C_12 
REMARK    6  A    between atoms: C_10  and  O_17 
REMARK    7  A    between atoms: C_12  and  C_14 
REMARK    8  A    between atoms: C_12  and  O_16 
REMARK    9  A    between atoms: C_14  and  O_15 
ROOT
ATOM      1  C   LIG d   1      10.915   6.635   0.114  0.00  0.00     0.162 A 
ATOM      2  C   LIG d   1      10.338   7.887  -0.027  0.00  0.00    -0.011 A 
ATOM      3  C   LIG d   1       9.610   8.189  -1.164  0.00  0.00    -0.013 A 
ATOM      4  C   LIG d   1       9.466   7.247  -2.165  0.00  0.00    -0.052 A 
ATOM      5  C   LIG d   1      10.044   5.998  -2.033  0.00  0.00    -0.016 A 
ATOM      6  C   LIG d   1      10.769   5.688  -0.895  0.00  0.00     0.159 A 
ATOM      7  H   LIG d   1      10.453   8.625   0.752  0.00  0.00     0.066 H 
ATOM      8  H   LIG d   1       8.900   7.487  -3.053  0.00  0.00     0.062 H 
ATOM      9  H   LIG d   1       9.929   5.265  -2.817  0.00  0.00     0.066 H 
ENDROOT
BRANCH   3  10
ATOM     10  C   LIG d   1       8.980   9.549  -1.313  0.00  0.00     0.108 C 
ATOM     11  H   LIG d   1       8.010   9.449  -1.799  0.00  0.00     0.067 H 
BRANCH  10  12
ATOM     12  C   LIG d   1       9.887  10.441  -2.164  0.00  0.00     0.108 C 
ATOM     13  H   LIG d   1      10.632   9.825  -2.667  0.00  0.00     0.065 H 
BRANCH  12  14
ATOM     14  C   LIG d   1       9.044  11.176  -3.209  0.00  0.00     0.073 C 
ATOM     15  H   LIG d   1       9.510  12.132  -3.444  0.00  0.00     0.058 H 
ATOM     16  H   LIG d   1       8.976  10.571  -4.112  0.00  0.00     0.058 H 
BRANCH  14  17
ATOM     17  O   LIG d   1       7.733  11.402  -2.687  0.00  0.00    -0.392 OA
ATOM     18  H   LIG d   1       7.603  11.063  -1.790  0.00  0.00     0.209 HD
ENDBRANCH  14  17
ENDBRANCH  12  14
BRANCH  12  19
ATOM     19  O   LIG d   1      10.542  11.393  -1.325  0.00  0.00    -0.387 OA
ATOM     20  H   LIG d   1      11.214  11.010  -0.744  0.00  0.00     0.210 HD
ENDBRANCH  12  19
ENDBRANCH  10  12
BRANCH  10  21
ATOM     21  O   LIG d   1       8.808  10.138  -0.023  0.00  0.00    -0.385 OA
ATOM     22  H   LIG d   1       7.972  10.611   0.086  0.00  0.00     0.210 HD
ENDBRANCH  10  21
ENDBRANCH   3  10
BRANCH   1  23
ATOM     23  O   LIG d   1      11.626   6.335   1.234  0.00  0.00    -0.491 OA
BRANCH  23  24
ATOM     24  C   LIG d   1      10.898   5.805   2.343  0.00  0.00     0.079 C 
ATOM     25  H   LIG d   1      10.759   4.733   2.207  0.00  0.00     0.066 H 
ATOM     26  H   LIG d   1      11.455   5.986   3.263  0.00  0.00     0.066 H 
ATOM     27  H   LIG d   1       9.925   6.293   2.405  0.00  0.00     0.066 H 
ENDBRANCH  23  24
ENDBRANCH   1  23
BRANCH   6  28
ATOM     28  O   LIG d   1      11.339   4.459  -0.764  0.00  0.00    -0.503 OA
ATOM     29  H   LIG d   1      11.504   4.199   0.153  0.00  0.00     0.292 HD
ENDBRANCH   6  28
TORSDOF 9
ENDMDL
MODEL 5
REMARK VINA RESULT:      -4.3     11.539     12.221
REMARK  9 active torsions:
REMARK  status: ('A' for Active; 'I' for Inactive)
REMARK    1  A    between atoms: C_1  and  O_2 
REMARK    2  A    between atoms: O_2  and  C_3 
REMARK    3  A    between atoms: C_5  and  C_10 
REMARK    4  A    between atoms: C_8  and  O_9 
REMARK    5  A    between atoms: C_10  and  C_12 
REMARK    6  A    between atoms: C_10  and  O_17 
REMARK    7  A    between atoms: C_12  and  C_14 
REMARK    8  A    between atoms: C_12  and  O_16 
REMARK    9  A    between atoms: C_14  and  O_15 
ROOT
ATOM      1  C   LIG d   1       4.941  -1.268  -3.827  0.00  0.00     0.162 A 
ATOM      2  C   LIG d   1       4.579  -0.873  -5.106  0.00  0.00    -0.011 A 
ATOM      3  C   LIG d   1       3.387  -0.203  -5.311  0.00  0.00    -0.013 A 
ATOM      4  C   LIG d   1       2.549   0.066  -4.244  0.00  0.00    -0.052 A 
ATOM      5  C   LIG d   1       2.902  -0.331  -2.967  0.00  0.00    -0.016 A 
ATOM      6  C   LIG d   1       4.097  -0.998  -2.755  0.00  0.00     0.159 A 
ATOM      7  H   LIG d   1       5.230  -1.085  -5.940  0.00  0.00     0.066 H 
ATOM      8  H   LIG d   1       1.617   0.586  -4.409  0.00  0.00     0.062 H 
ATOM      9  H   LIG d   1       2.245  -0.120  -2.137  0.00  0.00     0.066 H 
ENDROOT
BRANCH   3  10
ATOM     10  C   LIG d   1       2.998   0.230  -6.700  0.00  0.00     0.108 C 
ATOM     11  H   LIG d   1       2.076  -0.271  -6.993  0.00  0.00     0.067 H 
BRANCH  10  12
ATOM     12  C   LIG d   1       4.113  -0.141  -7.681  0.00  0.00     0.108 C 
ATOM     13  H   LIG d   1       4.753  -0.900  -7.232  0.00  0.00     0.065 H 
BRANCH  12  14
ATOM     14  C   LIG d   1       3.497  -0.690  -8.970  0.00  0.00     0.073 C 
ATOM     15  H   LIG d   1       3.899  -0.147  -9.825  0.00  0.00     0.058 H 
ATOM     16  H   LIG d   1       3.736  -1.748  -9.065  0.00  0.00     0.058 H 
BRANCH  14  17
ATOM     17  O   LIG d   1       2.078  -0.525  -8.925  0.00  0.00    -0.392 OA
ATOM     18  H   LIG d   1       1.625  -0.793  -9.737  0.00  0.00     0.209 HD
ENDBRANCH  14  17
ENDBRANCH  12  14
BRANCH  12  19
ATOM     19  O   LIG d   1       4.890   1.020  -7.982  0.00  0.00    -0.387 OA
ATOM     20  H   LIG d   1       4.371   1.833  -8.052  0.00  0.00     0.210 HD
ENDBRANCH  12  19
ENDBRANCH  10  12
BRANCH  10  21
ATOM     21  O   LIG d   1       2.798   1.645  -6.720  0.00  0.00    -0.385 OA
ATOM     22  H   LIG d   1       2.518   1.991  -7.578  0.00  0.00     0.210 HD
ENDBRANCH  10  21
ENDBRANCH   3  10
BRANCH   1  23
ATOM     23  O   LIG d   1       6.115  -1.923  -3.624  0.00  0.00    -0.491 OA
BRANCH  23  24
ATOM     24  C   LIG d   1       6.395  -3.034  -4.477  0.00  0.00     0.079 C 
ATOM     25  H   LIG d   1       5.569  -3.173  -5.175  0.00  0.00     0.066 H 
ATOM     26  H   LIG d   1       7.313  -2.842  -5.034  0.00  0.00     0.066 H 
ATOM     27  H   LIG d   1       6.517  -3.934  -3.874  0.00  0.00     0.066 H 
ENDBRANCH  23  24
ENDBRANCH   1  23
BRANCH   6  28
ATOM     28  O   LIG d   1       4.445  -1.389  -1.499  0.00  0.00    -0.503 OA
ATOM     29  H   LIG d   1       4.580  -0.656  -0.882  0.00  0.00     0.292 HD
ENDBRANCH   6  28
TORSDOF 9
ENDMDL
MODEL 6
REMARK VINA RESULT:      -4.2      3.556      6.615
REMARK  9 active torsions:
REMARK  status: ('A' for Active; 'I' for Inactive)
REMARK    1  A    between atoms: C_1  and  O_2 
REMARK    2  A    between atoms: O_2  and  C_3 
REMARK    3  A    between atoms: C_5  and  C_10 
REMARK    4  A    between atoms: C_8  and  O_9 
REMARK    5  A    between atoms: C_10  and  C_12 
REMARK    6  A    between atoms: C_10  and  O_17 
REMARK    7  A    between atoms: C_12  and  C_14 
REMARK    8  A    between atoms: C_12  and  O_16 
REMARK    9  A    between atoms: C_14  and  O_15 
ROOT
ATOM      1  C   LIG d   1      10.161  11.787  -6.662  0.00  0.00     0.162 A 
ATOM      2  C   LIG d   1       9.739  12.166  -5.397  0.00  0.00    -0.011 A 
ATOM      3  C   LIG d   1       9.275  11.214  -4.508  0.00  0.00    -0.013 A 
ATOM      4  C   LIG d   1       9.221   9.884  -4.882  0.00  0.00    -0.052 A 
ATOM      5  C   LIG d   1       9.635   9.500  -6.144  0.00  0.00    -0.016 A 
ATOM      6  C   LIG d   1      10.106  10.448  -7.037  0.00  0.00     0.159 A 
ATOM      7  H   LIG d   1       9.777  13.204  -5.104  0.00  0.00     0.066 H 
ATOM      8  H   LIG d   1       8.855   9.143  -4.187  0.00  0.00     0.062 H 
ATOM      9  H   LIG d   1       9.591   8.460  -6.434  0.00  0.00     0.066 H 
ENDROOT
BRANCH   3  10
ATOM     10  C   LIG d   1       8.822  11.627  -3.132  0.00  0.00     0.108 C 
ATOM     11  H   LIG d   1       9.254  12.596  -2.883  0.00  0.00     0.067 H 
BRANCH  10  12
ATOM     12  C   LIG d   1       9.281  10.585  -2.110  0.00  0.00     0.108 C 
ATOM     13  H   LIG d   1       9.782   9.767  -2.626  0.00  0.00     0.065 H 
BRANCH  12  14
ATOM     14  C   LIG d   1      10.251  11.235  -1.121  0.00  0.00     0.073 C 
ATOM     15  H   LIG d   1      10.221  10.695  -0.174  0.00  0.00     0.058 H 
ATOM     16  H   LIG d   1      11.262  11.201  -1.527  0.00  0.00     0.058 H 
BRANCH  14  17
ATOM     17  O   LIG d   1       9.870  12.595  -0.905  0.00  0.00    -0.392 OA
ATOM     18  H   LIG d   1      10.596  13.227  -1.000  0.00  0.00     0.209 HD
ENDBRANCH  14  17
ENDBRANCH  12  14
BRANCH  12  19
ATOM     19  O   LIG d   1       8.147  10.080  -1.402  0.00  0.00    -0.387 OA
ATOM     20  H   LIG d   1       7.302  10.437  -1.707  0.00  0.00     0.210 HD
ENDBRANCH  12  19
ENDBRANCH  10  12
BRANCH  10  21
ATOM     21  O   LIG d   1       7.396  11.721  -3.109  0.00  0.00    -0.385 OA
ATOM     22  H   LIG d   1       6.980  11.218  -2.396  0.00  0.00     0.210 HD
ENDBRANCH  10  21
ENDBRANCH   3  10
BRANCH   1  23
ATOM     23  O   LIG d   1      10.622  12.722  -7.534  0.00  0.00    -0.491 OA
BRANCH  23  24
ATOM     24  C   LIG d   1       9.710  13.749  -7.927  0.00  0.00     0.079 C 
ATOM     25  H   LIG d   1       9.275  14.208  -7.038  0.00  0.00     0.066 H 
ATOM     26  H   LIG d   1      10.242  14.507  -8.503  0.00  0.00     0.066 H 
ATOM     27  H   LIG d   1       8.917  13.318  -8.538  0.00  0.00     0.066 H 
ENDBRANCH  23  24
ENDBRANCH   1  23
BRANCH   6  28
ATOM     28  O   LIG d   1      10.513  10.072  -8.279  0.00  0.00    -0.503 OA
ATOM     29  H   LIG d   1      10.877  10.795  -8.809  0.00  0.00     0.292 HD
ENDBRANCH   6  28
TORSDOF 9
ENDMDL
MODEL 7
REMARK VINA RESULT:      -4.1     11.932     13.968
REMARK  9 active torsions:
REMARK  status: ('A' for Active; 'I' for Inactive)
REMARK    1  A    between atoms: C_1  and  O_2 
REMARK    2  A    between atoms: O_2  and  C_3 
REMARK    3  A    between atoms: C_5  and  C_10 
REMARK    4  A    between atoms: C_8  and  O_9 
REMARK    5  A    between atoms: C_10  and  C_12 
REMARK    6  A    between atoms: C_10  and  O_17 
REMARK    7  A    between atoms: C_12  and  C_14 
REMARK    8  A    between atoms: C_12  and  O_16 
REMARK    9  A    between atoms: C_14  and  O_15 
ROOT
ATOM      1  C   LIG d   1       3.358  -1.483  -9.056  0.00  0.00     0.162 A 
ATOM      2  C   LIG d   1       3.773  -1.503  -7.734  0.00  0.00    -0.011 A 
ATOM      3  C   LIG d   1       3.603  -0.385  -6.938  0.00  0.00    -0.013 A 
ATOM      4  C   LIG d   1       3.029   0.758  -7.463  0.00  0.00    -0.052 A 
ATOM      5  C   LIG d   1       2.618   0.787  -8.783  0.00  0.00    -0.016 A 
ATOM      6  C   LIG d   1       2.781  -0.332  -9.583  0.00  0.00     0.159 A 
ATOM      7  H   LIG d   1       4.225  -2.394  -7.323  0.00  0.00     0.066 H 
ATOM      8  H   LIG d   1       2.901   1.632  -6.840  0.00  0.00     0.062 H 
ATOM      9  H   LIG d   1       2.171   1.681  -9.189  0.00  0.00     0.066 H 
ENDROOT
BRANCH   3  10
ATOM     10  C   LIG d   1       4.051  -0.410  -5.500  0.00  0.00     0.108 C 
ATOM     11  H   LIG d   1       4.203  -1.442  -5.185  0.00  0.00     0.067 H 
BRANCH  10  12
ATOM     12  C   LIG d   1       2.978   0.238  -4.621  0.00  0.00     0.108 C 
ATOM     13  H   LIG d   1       2.087   0.429  -5.219  0.00  0.00     0.065 H 
BRANCH  12  14
ATOM     14  C   LIG d   1       2.627  -0.705  -3.468  0.00  0.00     0.073 C 
ATOM     15  H   LIG d   1       2.996  -0.286  -2.532  0.00  0.00     0.058 H 
ATOM     16  H   LIG d   1       1.545  -0.824  -3.412  0.00  0.00     0.058 H 
BRANCH  14  17
ATOM     17  O   LIG d   1       3.235  -1.978  -3.693  0.00  0.00    -0.392 OA
ATOM     18  H   LIG d   1       4.187  -1.936  -3.857  0.00  0.00     0.209 HD
ENDBRANCH  14  17
ENDBRANCH  12  14
BRANCH  12  19
ATOM     19  O   LIG d   1       3.473   1.470  -4.095  0.00  0.00    -0.387 OA
ATOM     20  H   LIG d   1       3.124   1.694  -3.222  0.00  0.00     0.210 HD
ENDBRANCH  12  19
ENDBRANCH  10  12
BRANCH  10  21
ATOM     21  O   LIG d   1       5.275   0.314  -5.370  0.00  0.00    -0.385 OA
ATOM     22  H   LIG d   1       6.000  -0.038  -5.904  0.00  0.00     0.210 HD
ENDBRANCH  10  21
ENDBRANCH   3  10
BRANCH   1  23
ATOM     23  O   LIG d   1       3.520  -2.585  -9.837  0.00  0.00    -0.491 OA
BRANCH  23  24
ATOM     24  C   LIG d   1       3.244  -3.852  -9.238  0.00  0.00     0.079 C 
ATOM     25  H   LIG d   1       4.163  -4.264  -8.820  0.00  0.00     0.066 H 
ATOM     26  H   LIG d   1       2.508  -3.725  -8.443  0.00  0.00     0.066 H 
ATOM     27  H   LIG d   1       2.851  -4.533  -9.993  0.00  0.00     0.066 H 
ENDBRANCH  23  24
ENDBRANCH   1  23
BRANCH   6  28
ATOM     28  O   LIG d   1       2.377  -0.305 -10.882  0.00  0.00    -0.503 OA
ATOM     29  H   LIG d   1       3.085  -0.102 -11.509  0.00  0.00     0.292 HD
ENDBRANCH   6  28
TORSDOF 9
ENDMDL
MODEL 8
REMARK VINA RESULT:      -4.1     13.689     15.437
REMARK  9 active torsions:
REMARK  status: ('A' for Active; 'I' for Inactive)
REMARK    1  A    between atoms: C_1  and  O_2 
REMARK    2  A    between atoms: O_2  and  C_3 
REMARK    3  A    between atoms: C_5  and  C_10 
REMARK    4  A    between atoms: C_8  and  O_9 
REMARK    5  A    between atoms: C_10  and  C_12 
REMARK    6  A    between atoms: C_10  and  O_17 
REMARK    7  A    between atoms: C_12  and  C_14 
REMARK    8  A    between atoms: C_12  and  O_16 
REMARK    9  A    between atoms: C_14  and  O_15 
ROOT
ATOM      1  C   LIG d   1       3.114   1.008  -8.410  0.00  0.00     0.162 A 
ATOM      2  C   LIG d   1       2.244   0.006  -8.812  0.00  0.00    -0.011 A 
ATOM      3  C   LIG d   1       2.225  -0.405 -10.132  0.00  0.00    -0.013 A 
ATOM      4  C   LIG d   1       3.066   0.188 -11.055  0.00  0.00    -0.052 A 
ATOM      5  C   LIG d   1       3.932   1.192 -10.662  0.00  0.00    -0.016 A 
ATOM      6  C   LIG d   1       3.960   1.604  -9.340  0.00  0.00     0.159 A 
ATOM      7  H   LIG d   1       1.584  -0.456  -8.094  0.00  0.00     0.066 H 
ATOM      8  H   LIG d   1       3.047  -0.133 -12.087  0.00  0.00     0.062 H 
ATOM      9  H   LIG d   1       4.588   1.653 -11.385  0.00  0.00     0.066 H 
ENDROOT
BRANCH   3  10
ATOM     10  C   LIG d   1       1.283  -1.497 -10.566  0.00  0.00     0.108 C 
ATOM     11  H   LIG d   1       0.660  -1.796  -9.723  0.00  0.00     0.067 H 
BRANCH  10  12
ATOM     12  C   LIG d   1       2.089  -2.702 -11.057  0.00  0.00     0.108 C 
ATOM     13  H   LIG d   1       3.116  -2.620 -10.701  0.00  0.00     0.065 H 
BRANCH  12  14
ATOM     14  C   LIG d   1       1.463  -3.989 -10.515  0.00  0.00     0.073 C 
ATOM     15  H   LIG d   1       1.529  -4.771 -11.271  0.00  0.00     0.058 H 
ATOM     16  H   LIG d   1       1.997  -4.303  -9.618  0.00  0.00     0.058 H 
BRANCH  14  17
ATOM     17  O   LIG d   1       0.091  -3.751 -10.194  0.00  0.00    -0.392 OA
ATOM     18  H   LIG d   1      -0.444  -4.555 -10.136  0.00  0.00     0.209 HD
ENDBRANCH  14  17
ENDBRANCH  12  14
BRANCH  12  19
ATOM     19  O   LIG d   1       2.079  -2.732 -12.485  0.00  0.00    -0.387 OA
ATOM     20  H   LIG d   1       2.376  -3.571 -12.863  0.00  0.00     0.210 HD
ENDBRANCH  12  19
ENDBRANCH  10  12
BRANCH  10  21
ATOM     21  O   LIG d   1       0.453  -1.016 -11.625  0.00  0.00    -0.385 OA
ATOM     22  H   LIG d   1       0.917  -0.464 -12.269  0.00  0.00     0.210 HD
ENDBRANCH  10  21
ENDBRANCH   3  10
BRANCH   1  23
ATOM     23  O   LIG d   1       3.137   1.409  -7.111  0.00  0.00    -0.491 OA
BRANCH  23  24
ATOM     24  C   LIG d   1       2.759   0.444  -6.127  0.00  0.00     0.079 C 
ATOM     25  H   LIG d   1       1.682   0.282  -6.172  0.00  0.00     0.066 H 
ATOM     26  H   LIG d   1       3.277  -0.496  -6.323  0.00  0.00     0.066 H 
ATOM     27  H   LIG d   1       3.030   0.810  -5.136  0.00  0.00     0.066 H 
ENDBRANCH  23  24
ENDBRANCH   1  23
BRANCH   6  28
ATOM     28  O   LIG d   1       4.811   2.591  -8.951  0.00  0.00    -0.503 OA
ATOM     29  H   LIG d   1       5.693   2.277  -8.709  0.00  0.00     0.292 HD
ENDBRANCH   6  28
TORSDOF 9
ENDMDL
MODEL 9
REMARK VINA RESULT:      -4.1      2.136      6.008
REMARK  9 active torsions:
REMARK  status: ('A' for Active; 'I' for Inactive)
REMARK    1  A    between atoms: C_1  and  O_2 
REMARK    2  A    between atoms: O_2  and  C_3 
REMARK    3  A    between atoms: C_5  and  C_10 
REMARK    4  A    between atoms: C_8  and  O_9 
REMARK    5  A    between atoms: C_10  and  C_12 
REMARK    6  A    between atoms: C_10  and  O_17 
REMARK    7  A    between atoms: C_12  and  C_14 
REMARK    8  A    between atoms: C_12  and  O_16 
REMARK    9  A    between atoms: C_14  and  O_15 
ROOT
ATOM      1  C   LIG d   1       9.872  10.093  -4.947  0.00  0.00     0.162 A 
ATOM      2  C   LIG d   1       9.965   9.580  -3.663  0.00  0.00    -0.011 A 
ATOM      3  C   LIG d   1       9.589  10.353  -2.580  0.00  0.00    -0.013 A 
ATOM      4  C   LIG d   1       9.131  11.643  -2.775  0.00  0.00    -0.052 A 
ATOM      5  C   LIG d   1       9.041  12.163  -4.053  0.00  0.00    -0.016 A 
ATOM      6  C   LIG d   1       9.411  11.391  -5.142  0.00  0.00     0.159 A 
ATOM      7  H   LIG d   1      10.326   8.574  -3.508  0.00  0.00     0.066 H 
ATOM      8  H   LIG d   1       8.842  12.246  -1.927  0.00  0.00     0.062 H 
ATOM      9  H   LIG d   1       8.683  13.171  -4.202  0.00  0.00     0.066 H 
ENDROOT
BRANCH   3  10
ATOM     10  C   LIG d   1       9.686   9.792  -1.186  0.00  0.00     0.108 C 
ATOM     11  H   LIG d   1      10.640  10.077  -0.744  0.00  0.00     0.067 H 
BRANCH  10  12
ATOM     12  C   LIG d   1       9.586   8.266  -1.243  0.00  0.00     0.108 C 
ATOM     13  H   LIG d   1       9.899   7.918  -2.227  0.00  0.00     0.065 H 
BRANCH  12  14
ATOM     14  C   LIG d   1      10.494   7.655  -0.173  0.00  0.00     0.073 C 
ATOM     15  H   LIG d   1      11.536   7.782  -0.466  0.00  0.00     0.058 H 
ATOM     16  H   LIG d   1      10.321   8.155   0.780  0.00  0.00     0.058 H 
BRANCH  14  17
ATOM     17  O   LIG d   1      10.203   6.263  -0.040  0.00  0.00    -0.392 OA
ATOM     18  H   LIG d   1      10.981   5.712   0.124  0.00  0.00     0.209 HD
ENDBRANCH  14  17
ENDBRANCH  12  14
BRANCH  12  19
ATOM     19  O   LIG d   1       8.235   7.867  -1.003  0.00  0.00    -0.387 OA
ATOM     20  H   LIG d   1       7.991   7.845  -0.068  0.00  0.00     0.210 HD
ENDBRANCH  12  19
ENDBRANCH  10  12
BRANCH  10  21
ATOM     21  O   LIG d   1       8.619  10.310  -0.389  0.00  0.00    -0.385 OA
ATOM     22  H   LIG d   1       7.876   9.701  -0.283  0.00  0.00     0.210 HD
ENDBRANCH  10  21
ENDBRANCH   3  10
BRANCH   1  23
ATOM     23  O   LIG d   1      10.236   9.331  -6.013  0.00  0.00    -0.491 OA
BRANCH  23  24
ATOM     24  C   LIG d   1       9.307   8.336  -6.447  0.00  0.00     0.079 C 
ATOM     25  H   LIG d   1       9.762   7.733  -7.234  0.00  0.00     0.066 H 
ATOM     26  H   LIG d   1       9.043   7.695  -5.605  0.00  0.00     0.066 H 
ATOM     27  H   LIG d   1       8.410   8.820  -6.832  0.00  0.00     0.066 H 
ENDBRANCH  23  24
ENDBRANCH   1  23
BRANCH   6  28
ATOM     28  O   LIG d   1       9.324  11.901  -6.400  0.00  0.00    -0.503 OA
ATOM     29  H   LIG d   1       9.525  11.262  -7.098  0.00  0.00     0.292 HD
ENDBRANCH   6  28
TORSDOF 9
ENDMDL
MODEL 10
REMARK VINA RESULT:      -4.1      3.580      6.581
REMARK  9 active torsions:
REMARK  status: ('A' for Active; 'I' for Inactive)
REMARK    1  A    between atoms: C_1  and  O_2 
REMARK    2  A    between atoms: O_2  and  C_3 
REMARK    3  A    between atoms: C_5  and  C_10 
REMARK    4  A    between atoms: C_8  and  O_9 
REMARK    5  A    between atoms: C_10  and  C_12 
REMARK    6  A    between atoms: C_10  and  O_17 
REMARK    7  A    between atoms: C_12  and  C_14 
REMARK    8  A    between atoms: C_12  and  O_16 
REMARK    9  A    between atoms: C_14  and  O_15 
ROOT
ATOM      1  C   LIG d   1       9.899  10.190  -6.252  0.00  0.00     0.162 A 
ATOM      2  C   LIG d   1       9.433  10.331  -4.955  0.00  0.00    -0.011 A 
ATOM      3  C   LIG d   1       9.209  11.592  -4.433  0.00  0.00    -0.013 A 
ATOM      4  C   LIG d   1       9.460  12.714  -5.200  0.00  0.00    -0.052 A 
ATOM      5  C   LIG d   1       9.931  12.581  -6.494  0.00  0.00    -0.016 A 
ATOM      6  C   LIG d   1      10.151  11.320  -7.024  0.00  0.00     0.159 A 
ATOM      7  H   LIG d   1       9.240   9.456  -4.353  0.00  0.00     0.066 H 
ATOM      8  H   LIG d   1       9.288  13.698  -4.789  0.00  0.00     0.062 H 
ATOM      9  H   LIG d   1      10.126  13.459  -7.090  0.00  0.00     0.066 H 
ENDROOT
BRANCH   3  10
ATOM     10  C   LIG d   1       8.698  11.742  -3.024  0.00  0.00     0.108 C 
ATOM     11  H   LIG d   1       8.894  12.755  -2.673  0.00  0.00     0.067 H 
BRANCH  10  12
ATOM     12  C   LIG d   1       9.410  10.739  -2.113  0.00  0.00     0.108 C 
ATOM     13  H   LIG d   1       9.994  10.048  -2.721  0.00  0.00     0.065 H 
BRANCH  12  14
ATOM     14  C   LIG d   1      10.341  11.491  -1.159  0.00  0.00     0.073 C 
ATOM     15  H   LIG d   1      10.342  10.996  -0.188  0.00  0.00     0.058 H 
ATOM     16  H   LIG d   1      11.352  11.496  -1.566  0.00  0.00     0.058 H 
BRANCH  14  17
ATOM     17  O   LIG d   1       9.882  12.835  -1.007  0.00  0.00    -0.392 OA
ATOM     18  H   LIG d   1       9.312  13.140  -1.727  0.00  0.00     0.209 HD
ENDBRANCH  14  17
ENDBRANCH  12  14
BRANCH  12  19
ATOM     19  O   LIG d   1       8.441  10.010  -1.358  0.00  0.00    -0.387 OA
ATOM     20  H   LIG d   1       7.563  10.415  -1.349  0.00  0.00     0.210 HD
ENDBRANCH  12  19
ENDBRANCH  10  12
BRANCH  10  21
ATOM     21  O   LIG d   1       7.291  11.493  -2.999  0.00  0.00    -0.385 OA
ATOM     22  H   LIG d   1       6.951  11.244  -2.129  0.00  0.00     0.210 HD
ENDBRANCH  10  21
ENDBRANCH   3  10
BRANCH   1  23
ATOM     23  O   LIG d   1      10.114   8.950  -6.768  0.00  0.00    -0.491 OA
BRANCH  23  24
ATOM     24  C   LIG d   1       9.027   8.339  -7.465  0.00  0.00     0.079 C 
ATOM     25  H   LIG d   1       8.266   9.090  -7.681  0.00  0.00     0.066 H 
ATOM     26  H   LIG d   1       9.390   7.910  -8.399  0.00  0.00     0.066 H 
ATOM     27  H   LIG d   1       8.595   7.552  -6.846  0.00  0.00     0.066 H 
ENDBRANCH  23  24
ENDBRANCH   1  23
BRANCH   6  28
ATOM     28  O   LIG d   1      10.615  11.187  -8.296  0.00  0.00    -0.503 OA
ATOM     29  H   LIG d   1      10.960  10.307  -8.498  0.00  0.00     0.292 HD
ENDBRANCH   6  28
TORSDOF 9
ENDMDL
