MODEL 1
REMARK VINA RESULT:      -4.8      0.000      0.000
REMARK  1 active torsions:
REMARK  status: ('A' for Active; 'I' for Inactive)
REMARK    1  A    between atoms: C_1  and  C_2 
ROOT
ATOM      1  C   LIG d   1       4.870   0.310  -2.705  0.00  0.00    -0.031 A 
ATOM      2  C   LIG d   1       5.896   1.150  -3.097  0.00  0.00    -0.043 A 
ATOM      3  C   LIG d   1       7.080   0.620  -3.572  0.00  0.00     0.018 A 
ATOM      4  C   LIG d   1       7.242  -0.752  -3.655  0.00  0.00    -0.046 A 
ATOM      5  C   LIG d   1       6.217  -1.592  -3.263  0.00  0.00    -0.042 A 
ATOM      6  C   LIG d   1       5.033  -1.062  -2.782  0.00  0.00     0.044 A 
ATOM      7 CL   LIG d   1       3.748  -2.117  -2.282  0.00  0.00    -0.083 Cl
ATOM      8 BR   LIG d   1       8.483   1.769  -4.109  0.00  0.00    -0.050 Br
ATOM      9  H   LIG d   1       5.771   2.221  -3.033  0.00  0.00     0.063 H 
ATOM     10  H   LIG d   1       8.167  -1.166  -4.026  0.00  0.00     0.063 H 
ATOM     11  H   LIG d   1       6.342  -2.663  -3.328  0.00  0.00     0.063 H 
ENDROOT
BRANCH   1  12
ATOM     12  C   LIG d   1       3.578   0.888  -2.187  0.00  0.00    -0.038 C 
ATOM     13  H   LIG d   1       2.862   0.084  -2.018  0.00  0.00     0.028 H 
ATOM     14  H   LIG d   1       3.765   1.412  -1.250  0.00  0.00     0.028 H 
ATOM     15  H   LIG d   1       3.175   1.587  -2.920  0.00  0.00     0.028 H 
ENDBRANCH   1  12
TORSDOF 1
ENDMDL
MODEL 2
REMARK VINA RESULT:      -4.7      2.725      3.526
REMARK  1 active torsions:
REMARK  status: ('A' for Active; 'I' for Inactive)
REMARK    1  A    between atoms: C_1  and  C_2 
ROOT
ATOM      1  C   LIG d   1       5.805  -0.350  -3.380  0.00  0.00    -0.031 A 
ATOM      2  C   LIG d   1       5.976  -1.465  -4.181  0.00  0.00    -0.043 A 
ATOM      3  C   LIG d   1       5.144  -2.558  -4.030  0.00  0.00     0.018 A 
ATOM      4  C   LIG d   1       4.140  -2.538  -3.079  0.00  0.00    -0.046 A 
ATOM      5  C   LIG d   1       3.968  -1.425  -2.279  0.00  0.00    -0.042 A 
ATOM      6  C   LIG d   1       4.805  -0.332  -2.425  0.00  0.00     0.044 A 
ATOM      7 CL   LIG d   1       4.596   1.063  -1.414  0.00  0.00    -0.083 Cl
ATOM      8 BR   LIG d   1       5.377  -4.082  -5.126  0.00  0.00    -0.050 Br
ATOM      9  H   LIG d   1       6.759  -1.480  -4.924  0.00  0.00     0.063 H 
ATOM     10  H   LIG d   1       3.489  -3.393  -2.961  0.00  0.00     0.063 H 
ATOM     11  H   LIG d   1       3.184  -1.409  -1.536  0.00  0.00     0.063 H 
ENDROOT
BRANCH   1  12
ATOM     12  C   LIG d   1       6.713   0.842  -3.544  0.00  0.00    -0.038 C 
ATOM     13  H   LIG d   1       6.180   1.747  -3.253  0.00  0.00     0.028 H 
ATOM     14  H   LIG d   1       7.592   0.719  -2.913  0.00  0.00     0.028 H 
ATOM     15  H   LIG d   1       7.022   0.921  -4.587  0.00  0.00     0.028 H 
ENDBRANCH   1  12
TORSDOF 1
ENDMDL
MODEL 3
REMARK VINA RESULT:      -4.6      1.879      2.557
REMARK  1 active torsions:
REMARK  status: ('A' for Active; 'I' for Inactive)
REMARK    1  A    between atoms: C_1  and  C_2 
ROOT
ATOM      1  C   LIG d   1       5.145  -1.184  -2.800  0.00  0.00    -0.031 A 
ATOM      2  C   LIG d   1       6.138  -1.899  -3.445  0.00  0.00    -0.043 A 
ATOM      3  C   LIG d   1       7.218  -1.237  -3.996  0.00  0.00     0.018 A 
ATOM      4  C   LIG d   1       7.307   0.141  -3.905  0.00  0.00    -0.046 A 
ATOM      5  C   LIG d   1       6.315   0.855  -3.261  0.00  0.00    -0.042 A 
ATOM      6  C   LIG d   1       5.230   0.193  -2.714  0.00  0.00     0.044 A 
ATOM      7 CL   LIG d   1       3.979   1.091  -1.912  0.00  0.00    -0.083 Cl
ATOM      8 BR   LIG d   1       8.577  -2.214  -4.877  0.00  0.00    -0.050 Br
ATOM      9  H   LIG d   1       6.069  -2.974  -3.516  0.00  0.00     0.063 H 
ATOM     10  H   LIG d   1       8.152   0.658  -4.336  0.00  0.00     0.063 H 
ATOM     11  H   LIG d   1       6.384   1.931  -3.189  0.00  0.00     0.063 H 
ENDROOT
BRANCH   1  12
ATOM     12  C   LIG d   1       3.967  -1.906  -2.199  0.00  0.00    -0.038 C 
ATOM     13  H   LIG d   1       3.960  -2.940  -2.542  0.00  0.00     0.028 H 
ATOM     14  H   LIG d   1       4.043  -1.884  -1.112  0.00  0.00     0.028 H 
ATOM     15  H   LIG d   1       3.044  -1.415  -2.508  0.00  0.00     0.028 H 
ENDBRANCH   1  12
TORSDOF 1
ENDMDL
MODEL 4
REMARK VINA RESULT:      -4.3      3.174      4.079
REMARK  1 active torsions:
REMARK  status: ('A' for Active; 'I' for Inactive)
REMARK    1  A    between atoms: C_1  and  C_2 
ROOT
ATOM      1  C   LIG d   1       4.514  -1.577  -4.642  0.00  0.00    -0.031 A 
ATOM      2  C   LIG d   1       4.348  -0.969  -5.873  0.00  0.00    -0.043 A 
ATOM      3  C   LIG d   1       3.335  -0.047  -6.057  0.00  0.00     0.018 A 
ATOM      4  C   LIG d   1       2.486   0.267  -5.011  0.00  0.00    -0.046 A 
ATOM      5  C   LIG d   1       2.651  -0.340  -3.781  0.00  0.00    -0.042 A 
ATOM      6  C   LIG d   1       3.662  -1.267  -3.598  0.00  0.00     0.044 A 
ATOM      7 CL   LIG d   1       3.865  -2.036  -2.054  0.00  0.00    -0.083 Cl
ATOM      8 BR   LIG d   1       3.108   0.784  -7.741  0.00  0.00    -0.050 Br
ATOM      9  H   LIG d   1       5.011  -1.214  -6.689  0.00  0.00     0.063 H 
ATOM     10  H   LIG d   1       1.694   0.988  -5.156  0.00  0.00     0.063 H 
ATOM     11  H   LIG d   1       1.989  -0.094  -2.964  0.00  0.00     0.063 H 
ENDROOT
BRANCH   1  12
ATOM     12  C   LIG d   1       5.619  -2.582  -4.441  0.00  0.00    -0.038 C 
ATOM     13  H   LIG d   1       5.252  -3.579  -4.683  0.00  0.00     0.028 H 
ATOM     14  H   LIG d   1       6.458  -2.335  -5.091  0.00  0.00     0.028 H 
ATOM     15  H   LIG d   1       5.946  -2.558  -3.401  0.00  0.00     0.028 H 
ENDBRANCH   1  12
TORSDOF 1
ENDMDL
MODEL 5
REMARK VINA RESULT:      -4.2      3.072      3.558
REMARK  1 active torsions:
REMARK  status: ('A' for Active; 'I' for Inactive)
REMARK    1  A    between atoms: C_1  and  C_2 
ROOT
ATOM      1  C   LIG d   1       3.452  -0.279  -4.200  0.00  0.00    -0.031 A 
ATOM      2  C   LIG d   1       3.809  -1.456  -4.833  0.00  0.00    -0.043 A 
ATOM      3  C   LIG d   1       4.620  -2.369  -4.186  0.00  0.00     0.018 A 
ATOM      4  C   LIG d   1       5.076  -2.106  -2.906  0.00  0.00    -0.046 A 
ATOM      5  C   LIG d   1       4.719  -0.931  -2.274  0.00  0.00    -0.042 A 
ATOM      6  C   LIG d   1       3.912  -0.013  -2.923  0.00  0.00     0.044 A 
ATOM      7 CL   LIG d   1       3.470   1.468  -2.132  0.00  0.00    -0.083 Cl
ATOM      8 BR   LIG d   1       5.108  -3.979  -5.050  0.00  0.00    -0.050 Br
ATOM      9  H   LIG d   1       3.453  -1.661  -5.831  0.00  0.00     0.063 H 
ATOM     10  H   LIG d   1       5.709  -2.821  -2.401  0.00  0.00     0.063 H 
ATOM     11  H   LIG d   1       5.074  -0.726  -1.274  0.00  0.00     0.063 H 
ENDROOT
BRANCH   1  12
ATOM     12  C   LIG d   1       2.567   0.717  -4.905  0.00  0.00    -0.038 C 
ATOM     13  H   LIG d   1       2.698   0.621  -5.983  0.00  0.00     0.028 H 
ATOM     14  H   LIG d   1       1.526   0.525  -4.647  0.00  0.00     0.028 H 
ATOM     15  H   LIG d   1       2.838   1.726  -4.595  0.00  0.00     0.028 H 
ENDBRANCH   1  12
TORSDOF 1
ENDMDL
MODEL 6
REMARK VINA RESULT:      -4.0      2.703      3.547
REMARK  1 active torsions:
REMARK  status: ('A' for Active; 'I' for Inactive)
REMARK    1  A    between atoms: C_1  and  C_2 
ROOT
ATOM      1  C   LIG d   1       5.071  -1.587  -4.930  0.00  0.00    -0.031 A 
ATOM      2  C   LIG d   1       4.815  -0.364  -4.337  0.00  0.00    -0.043 A 
ATOM      3  C   LIG d   1       4.229  -0.312  -3.086  0.00  0.00     0.018 A 
ATOM      4  C   LIG d   1       3.897  -1.482  -2.427  0.00  0.00    -0.046 A 
ATOM      5  C   LIG d   1       4.152  -2.703  -3.019  0.00  0.00    -0.042 A 
ATOM      6  C   LIG d   1       4.733  -2.757  -4.274  0.00  0.00     0.044 A 
ATOM      7 CL   LIG d   1       5.047  -4.292  -5.022  0.00  0.00    -0.083 Cl
ATOM      8 BR   LIG d   1       3.880   1.361  -2.275  0.00  0.00    -0.050 Br
ATOM      9  H   LIG d   1       5.074   0.550  -4.851  0.00  0.00     0.063 H 
ATOM     10  H   LIG d   1       3.439  -1.440  -1.450  0.00  0.00     0.063 H 
ATOM     11  H   LIG d   1       3.893  -3.618  -2.505  0.00  0.00     0.063 H 
ENDROOT
BRANCH   1  12
ATOM     12  C   LIG d   1       5.710  -1.644  -6.293  0.00  0.00    -0.038 C 
ATOM     13  H   LIG d   1       5.525  -2.620  -6.741  0.00  0.00     0.028 H 
ATOM     14  H   LIG d   1       5.284  -0.867  -6.928  0.00  0.00     0.028 H 
ATOM     15  H   LIG d   1       6.785  -1.486  -6.197  0.00  0.00     0.028 H 
ENDBRANCH   1  12
TORSDOF 1
ENDMDL
MODEL 7
REMARK VINA RESULT:      -3.4      7.537      8.251
REMARK  1 active torsions:
REMARK  status: ('A' for Active; 'I' for Inactive)
REMARK    1  A    between atoms: C_1  and  C_2 
ROOT
ATOM      1  C   LIG d   1       9.815   7.139  -1.322  0.00  0.00    -0.031 A 
ATOM      2  C   LIG d   1       9.464   6.621  -2.555  0.00  0.00    -0.043 A 
ATOM      3  C   LIG d   1       9.957   5.393  -2.955  0.00  0.00     0.018 A 
ATOM      4  C   LIG d   1      10.803   4.682  -2.123  0.00  0.00    -0.046 A 
ATOM      5  C   LIG d   1      11.154   5.199  -0.891  0.00  0.00    -0.042 A 
ATOM      6  C   LIG d   1      10.666   6.431  -0.492  0.00  0.00     0.044 A 
ATOM      7 CL   LIG d   1      11.113   7.084   1.052  0.00  0.00    -0.083 Cl
ATOM      8 BR   LIG d   1       9.476   4.685  -4.642  0.00  0.00    -0.050 Br
ATOM      9  H   LIG d   1       8.803   7.176  -3.205  0.00  0.00     0.063 H 
ATOM     10  H   LIG d   1      11.188   3.723  -2.436  0.00  0.00     0.063 H 
ATOM     11  H   LIG d   1      11.814   4.643  -0.240  0.00  0.00     0.063 H 
ENDROOT
BRANCH   1  12
ATOM     12  C   LIG d   1       9.277   8.477  -0.886  0.00  0.00    -0.038 C 
ATOM     13  H   LIG d   1      10.038   9.005  -0.312  0.00  0.00     0.028 H 
ATOM     14  H   LIG d   1       9.010   9.065  -1.764  0.00  0.00     0.028 H 
ATOM     15  H   LIG d   1       8.393   8.328  -0.265  0.00  0.00     0.028 H 
ENDBRANCH   1  12
TORSDOF 1
ENDMDL
MODEL 8
REMARK VINA RESULT:      -3.3      8.853      9.807
REMARK  1 active torsions:
REMARK  status: ('A' for Active; 'I' for Inactive)
REMARK    1  A    between atoms: C_1  and  C_2 
ROOT
ATOM      1  C   LIG d   1      10.822   6.722   0.243  0.00  0.00    -0.031 A 
ATOM      2  C   LIG d   1      10.378   6.210  -0.963  0.00  0.00    -0.043 A 
ATOM      3  C   LIG d   1      10.148   7.058  -2.030  0.00  0.00     0.018 A 
ATOM      4  C   LIG d   1      10.361   8.418  -1.894  0.00  0.00    -0.046 A 
ATOM      5  C   LIG d   1      10.804   8.930  -0.690  0.00  0.00    -0.042 A 
ATOM      6  C   LIG d   1      11.029   8.083   0.382  0.00  0.00     0.044 A 
ATOM      7 CL   LIG d   1      11.579   8.726   1.897  0.00  0.00    -0.083 Cl
ATOM      8 BR   LIG d   1       9.542   6.357  -3.679  0.00  0.00    -0.050 Br
ATOM      9  H   LIG d   1      10.213   5.149  -1.070  0.00  0.00     0.063 H 
ATOM     10  H   LIG d   1      10.181   9.080  -2.728  0.00  0.00     0.063 H 
ATOM     11  H   LIG d   1      10.971   9.992  -0.582  0.00  0.00     0.063 H 
ENDROOT
BRANCH   1  12
ATOM     12  C   LIG d   1      11.073   5.798   1.407  0.00  0.00    -0.038 C 
ATOM     13  H   LIG d   1      11.879   6.199   2.021  0.00  0.00     0.028 H 
ATOM     14  H   LIG d   1      10.167   5.714   2.006  0.00  0.00     0.028 H 
ATOM     15  H   LIG d   1      11.355   4.813   1.034  0.00  0.00     0.028 H 
ENDBRANCH   1  12
TORSDOF 1
ENDMDL
MODEL 9
REMARK VINA RESULT:      -3.3      8.808      9.075
REMARK  1 active torsions:
REMARK  status: ('A' for Active; 'I' for Inactive)
REMARK    1  A    between atoms: C_1  and  C_2 
ROOT
ATOM      1  C   LIG d   1       3.424  -0.414 -11.947  0.00  0.00    -0.031 A 
ATOM      2  C   LIG d   1       3.619   0.542 -10.968  0.00  0.00    -0.043 A 
ATOM      3  C   LIG d   1       2.762   0.606  -9.885  0.00  0.00     0.018 A 
ATOM      4  C   LIG d   1       1.709  -0.286  -9.781  0.00  0.00    -0.046 A 
ATOM      5  C   LIG d   1       1.515  -1.241 -10.759  0.00  0.00    -0.042 A 
ATOM      6  C   LIG d   1       2.368  -1.302 -11.847  0.00  0.00     0.044 A 
ATOM      7 CL   LIG d   1       2.120  -2.498 -13.081  0.00  0.00    -0.083 Cl
ATOM      8 BR   LIG d   1       3.028   1.914  -8.545  0.00  0.00    -0.050 Br
ATOM      9  H   LIG d   1       4.440   1.238 -11.049  0.00  0.00     0.063 H 
ATOM     10  H   LIG d   1       1.040  -0.235  -8.935  0.00  0.00     0.063 H 
ATOM     11  H   LIG d   1       0.693  -1.938 -10.678  0.00  0.00     0.063 H 
ENDROOT
BRANCH   1  12
ATOM     12  C   LIG d   1       4.359  -0.484 -13.128  0.00  0.00    -0.038 C 
ATOM     13  H   LIG d   1       5.340  -0.818 -12.795  0.00  0.00     0.028 H 
ATOM     14  H   LIG d   1       3.965  -1.187 -13.862  0.00  0.00     0.028 H 
ATOM     15  H   LIG d   1       4.445   0.504 -13.581  0.00  0.00     0.028 H 
ENDBRANCH   1  12
TORSDOF 1
ENDMDL
MODEL 10
REMARK VINA RESULT:      -3.3      7.402      8.315
REMARK  1 active torsions:
REMARK  status: ('A' for Active; 'I' for Inactive)
REMARK    1  A    between atoms: C_1  and  C_2 
ROOT
ATOM      1  C   LIG d   1      10.649   6.172  -0.553  0.00  0.00    -0.031 A 
ATOM      2  C   LIG d   1      10.930   4.920  -1.069  0.00  0.00    -0.043 A 
ATOM      3  C   LIG d   1      10.493   4.581  -2.336  0.00  0.00     0.018 A 
ATOM      4  C   LIG d   1       9.773   5.493  -3.088  0.00  0.00    -0.046 A 
ATOM      5  C   LIG d   1       9.492   6.743  -2.572  0.00  0.00    -0.042 A 
ATOM      6  C   LIG d   1       9.924   7.081  -1.302  0.00  0.00     0.044 A 
ATOM      7 CL   LIG d   1       9.564   8.650  -0.651  0.00  0.00    -0.083 Cl
ATOM      8 BR   LIG d   1      10.878   2.869  -3.042  0.00  0.00    -0.050 Br
ATOM      9  H   LIG d   1      11.492   4.209  -0.483  0.00  0.00     0.063 H 
ATOM     10  H   LIG d   1       9.432   5.227  -4.077  0.00  0.00     0.063 H 
ATOM     11  H   LIG d   1       8.930   7.456  -3.159  0.00  0.00     0.063 H 
ENDROOT
BRANCH   1  12
ATOM     12  C   LIG d   1      11.125   6.542   0.828  0.00  0.00    -0.038 C 
ATOM     13  H   LIG d   1      11.327   7.612   0.868  0.00  0.00     0.028 H 
ATOM     14  H   LIG d   1      10.356   6.289   1.558  0.00  0.00     0.028 H 
ATOM     15  H   LIG d   1      12.038   5.991   1.056  0.00  0.00     0.028 H 
ENDBRANCH   1  12
TORSDOF 1
ENDMDL
