MODEL 1
REMARK VINA RESULT:      -4.5      0.000      0.000
REMARK  4 active torsions:
REMARK  status: ('A' for Active; 'I' for Inactive)
REMARK    1  A    between atoms: C_2  and  N_23 
REMARK    2  A    between atoms: C_4  and  C_9 
REMARK    3  A    between atoms: C_9  and  C_10 
REMARK    4  A    between atoms: C_10  and  N_21 
ROOT
ATOM      1  C   LIG d   1       5.609   0.875  -2.910  0.00  0.00     0.091 C 
ATOM      2  C   LIG d   1       5.970  -0.544  -3.402  0.00  0.00     0.024 C 
ATOM      3  H   LIG d   1       5.676  -0.682  -4.443  0.00  0.00     0.089 H 
ATOM      4  C   LIG d   1       5.140  -1.457  -2.477  0.00  0.00     0.150 C 
ATOM      5  H   LIG d   1       5.799  -2.124  -1.919  0.00  0.00     0.079 H 
ATOM      6  O   LIG d   1       4.428  -0.576  -1.562  0.00  0.00    -0.455 OA
ATOM      7  C   LIG d   1       4.349   0.657  -2.093  0.00  0.00     0.313 C 
ATOM      8  O   LIG d   1       3.443   1.444  -1.947  0.00  0.00    -0.251 OA
ATOM      9  H   LIG d   1       6.405   1.279  -2.287  0.00  0.00     0.043 H 
ATOM     10  H   LIG d   1       5.409   1.535  -3.755  0.00  0.00     0.043 H 
ENDROOT
BRANCH   4  11
ATOM     11  C   LIG d   1       4.143  -2.274  -3.301  0.00  0.00     0.030 C 
ATOM     12  H   LIG d   1       4.101  -3.292  -2.914  0.00  0.00     0.035 H 
ATOM     13  H   LIG d   1       3.155  -1.818  -3.233  0.00  0.00     0.035 H 
BRANCH  11  14
ATOM     14  C   LIG d   1       4.593  -2.302  -4.764  0.00  0.00    -0.032 C 
ATOM     15  H   LIG d   1       4.189  -1.435  -5.285  0.00  0.00     0.081 H 
ATOM     16  H   LIG d   1       5.682  -2.281  -4.809  0.00  0.00     0.081 H 
BRANCH  14  17
ATOM     17  N   LIG d   1       4.113  -3.548  -5.389  0.00  0.00     0.219 N 
ATOM     18  H   LIG d   1       4.317  -3.538  -6.388  0.00  0.00     0.199 HD
ATOM     19  H   LIG d   1       4.565  -4.352  -4.959  0.00  0.00     0.199 HD
ATOM     20  H   LIG d   1       3.097  -3.623  -5.256  0.00  0.00     0.199 HD
ENDBRANCH  14  17
ENDBRANCH  11  14
ENDBRANCH   4  11
BRANCH   2  21
ATOM     21  N   LIG d   1       7.408  -0.826  -3.240  0.00  0.00     0.224 N 
ATOM     22  H   LIG d   1       7.915   0.038  -3.056  0.00  0.00     0.200 HD
ATOM     23  H   LIG d   1       7.552  -1.475  -2.469  0.00  0.00     0.200 HD
ATOM     24  H   LIG d   1       7.769  -1.248  -4.104  0.00  0.00     0.200 HD
ENDBRANCH   2  21
TORSDOF 4
ENDMDL
MODEL 2
REMARK VINA RESULT:      -4.5      2.422      2.913
REMARK  4 active torsions:
REMARK  status: ('A' for Active; 'I' for Inactive)
REMARK    1  A    between atoms: C_2  and  N_23 
REMARK    2  A    between atoms: C_4  and  C_9 
REMARK    3  A    between atoms: C_9  and  C_10 
REMARK    4  A    between atoms: C_10  and  N_21 
ROOT
ATOM      1  C   LIG d   1       4.985  -0.870  -2.655  0.00  0.00     0.091 C 
ATOM      2  C   LIG d   1       4.091  -1.242  -3.859  0.00  0.00     0.024 C 
ATOM      3  H   LIG d   1       4.547  -0.920  -4.796  0.00  0.00     0.089 H 
ATOM      4  C   LIG d   1       2.793  -0.455  -3.588  0.00  0.00     0.150 C 
ATOM      5  H   LIG d   1       1.949  -1.142  -3.505  0.00  0.00     0.079 H 
ATOM      6  O   LIG d   1       2.993   0.245  -2.327  0.00  0.00    -0.455 OA
ATOM      7  C   LIG d   1       4.309   0.362  -2.080  0.00  0.00     0.313 C 
ATOM      8  O   LIG d   1       4.854   1.277  -1.508  0.00  0.00    -0.251 OA
ATOM      9  H   LIG d   1       4.998  -1.676  -1.924  0.00  0.00     0.043 H 
ATOM     10  H   LIG d   1       5.996  -0.633  -2.986  0.00  0.00     0.043 H 
ENDROOT
BRANCH   4  11
ATOM     11  C   LIG d   1       2.542   0.550  -4.713  0.00  0.00     0.030 C 
ATOM     12  H   LIG d   1       1.469   0.640  -4.887  0.00  0.00     0.035 H 
ATOM     13  H   LIG d   1       2.948   1.521  -4.429  0.00  0.00     0.035 H 
BRANCH  11  14
ATOM     14  C   LIG d   1       3.227   0.065  -5.993  0.00  0.00    -0.032 C 
ATOM     15  H   LIG d   1       4.267  -0.180  -5.778  0.00  0.00     0.081 H 
ATOM     16  H   LIG d   1       2.713  -0.821  -6.365  0.00  0.00     0.081 H 
BRANCH  14  17
ATOM     17  N   LIG d   1       3.148   1.127  -7.012  0.00  0.00     0.219 N 
ATOM     18  H   LIG d   1       2.787   1.984  -6.595  0.00  0.00     0.199 HD
ATOM     19  H   LIG d   1       4.070   1.304  -7.404  0.00  0.00     0.199 HD
ATOM     20  H   LIG d   1       2.515   0.828  -7.763  0.00  0.00     0.199 HD
ENDBRANCH  14  17
ENDBRANCH  11  14
ENDBRANCH   4  11
BRANCH   2  21
ATOM     21  N   LIG d   1       3.812  -2.688  -3.903  0.00  0.00     0.224 N 
ATOM     22  H   LIG d   1       4.253  -3.105  -4.721  0.00  0.00     0.200 HD
ATOM     23  H   LIG d   1       4.167  -3.138  -3.061  0.00  0.00     0.200 HD
ATOM     24  H   LIG d   1       2.797  -2.835  -3.958  0.00  0.00     0.200 HD
ENDBRANCH   2  21
TORSDOF 4
ENDMDL
MODEL 3
REMARK VINA RESULT:      -4.4      1.556      3.252
REMARK  4 active torsions:
REMARK  status: ('A' for Active; 'I' for Inactive)
REMARK    1  A    between atoms: C_2  and  N_23 
REMARK    2  A    between atoms: C_4  and  C_9 
REMARK    3  A    between atoms: C_9  and  C_10 
REMARK    4  A    between atoms: C_10  and  N_21 
ROOT
ATOM      1  C   LIG d   1       3.165  -0.905  -2.816  0.00  0.00     0.091 C 
ATOM      2  C   LIG d   1       4.350  -1.696  -3.414  0.00  0.00     0.024 C 
ATOM      3  H   LIG d   1       4.912  -2.205  -2.631  0.00  0.00     0.089 H 
ATOM      4  C   LIG d   1       5.208  -0.596  -4.072  0.00  0.00     0.150 C 
ATOM      5  H   LIG d   1       5.309  -0.788  -5.141  0.00  0.00     0.079 H 
ATOM      6  O   LIG d   1       4.505   0.660  -3.853  0.00  0.00    -0.455 OA
ATOM      7  C   LIG d   1       3.661   0.530  -2.814  0.00  0.00     0.313 C 
ATOM      8  O   LIG d   1       3.356   1.393  -2.025  0.00  0.00    -0.251 OA
ATOM      9  H   LIG d   1       2.281  -1.004  -3.446  0.00  0.00     0.043 H 
ATOM     10  H   LIG d   1       2.953  -1.239  -1.801  0.00  0.00     0.043 H 
ENDROOT
BRANCH   4  11
ATOM     11  C   LIG d   1       6.590  -0.545  -3.417  0.00  0.00     0.030 C 
ATOM     12  H   LIG d   1       6.498  -0.141  -2.409  0.00  0.00     0.035 H 
ATOM     13  H   LIG d   1       7.007  -1.551  -3.370  0.00  0.00     0.035 H 
BRANCH  11  14
ATOM     14  C   LIG d   1       7.514   0.352  -4.244  0.00  0.00    -0.032 C 
ATOM     15  H   LIG d   1       8.551   0.147  -3.980  0.00  0.00     0.081 H 
ATOM     16  H   LIG d   1       7.360   0.151  -5.304  0.00  0.00     0.081 H 
BRANCH  14  17
ATOM     17  N   LIG d   1       7.183   1.763  -3.972  0.00  0.00     0.219 N 
ATOM     18  H   LIG d   1       7.461   2.009  -3.023  0.00  0.00     0.199 HD
ATOM     19  H   LIG d   1       7.664   2.368  -4.633  0.00  0.00     0.199 HD
ATOM     20  H   LIG d   1       6.170   1.897  -4.069  0.00  0.00     0.199 HD
ENDBRANCH  14  17
ENDBRANCH  11  14
ENDBRANCH   4  11
BRANCH   2  21
ATOM     21  N   LIG d   1       3.900  -2.666  -4.428  0.00  0.00     0.224 N 
ATOM     22  H   LIG d   1       3.959  -3.612  -4.056  0.00  0.00     0.200 HD
ATOM     23  H   LIG d   1       2.939  -2.468  -4.699  0.00  0.00     0.200 HD
ATOM     24  H   LIG d   1       4.503  -2.594  -5.256  0.00  0.00     0.200 HD
ENDBRANCH   2  21
TORSDOF 4
ENDMDL
MODEL 4
REMARK VINA RESULT:      -4.3      2.046      2.931
REMARK  4 active torsions:
REMARK  status: ('A' for Active; 'I' for Inactive)
REMARK    1  A    between atoms: C_2  and  N_23 
REMARK    2  A    between atoms: C_4  and  C_9 
REMARK    3  A    between atoms: C_9  and  C_10 
REMARK    4  A    between atoms: C_10  and  N_21 
ROOT
ATOM      1  C   LIG d   1       3.393   0.808  -2.812  0.00  0.00     0.091 C 
ATOM      2  C   LIG d   1       3.067  -0.567  -3.437  0.00  0.00     0.024 C 
ATOM      3  H   LIG d   1       2.909  -1.318  -2.662  0.00  0.00     0.089 H 
ATOM      4  C   LIG d   1       4.333  -0.888  -4.257  0.00  0.00     0.150 C 
ATOM      5  H   LIG d   1       4.076  -1.010  -5.310  0.00  0.00     0.079 H 
ATOM      6  O   LIG d   1       5.230   0.247  -4.089  0.00  0.00    -0.455 OA
ATOM      7  C   LIG d   1       4.898   0.923  -2.975  0.00  0.00     0.313 C 
ATOM      8  O   LIG d   1       5.656   1.512  -2.241  0.00  0.00    -0.251 OA
ATOM      9  H   LIG d   1       2.887   1.606  -3.354  0.00  0.00     0.043 H 
ATOM     10  H   LIG d   1       3.120   0.826  -1.757  0.00  0.00     0.043 H 
ENDROOT
BRANCH   4  11
ATOM     11  C   LIG d   1       4.993  -2.162  -3.727  0.00  0.00     0.030 C 
ATOM     12  H   LIG d   1       5.017  -2.132  -2.638  0.00  0.00     0.035 H 
ATOM     13  H   LIG d   1       4.422  -3.031  -4.055  0.00  0.00     0.035 H 
BRANCH  11  14
ATOM     14  C   LIG d   1       6.423  -2.258  -4.266  0.00  0.00    -0.032 C 
ATOM     15  H   LIG d   1       6.649  -3.295  -4.512  0.00  0.00     0.081 H 
ATOM     16  H   LIG d   1       6.514  -1.642  -5.161  0.00  0.00     0.081 H 
BRANCH  14  17
ATOM     17  N   LIG d   1       7.356  -1.756  -3.242  0.00  0.00     0.219 N 
ATOM     18  H   LIG d   1       8.317  -1.952  -3.519  0.00  0.00     0.199 HD
ATOM     19  H   LIG d   1       7.237  -0.752  -3.123  0.00  0.00     0.199 HD
ATOM     20  H   LIG d   1       7.163  -2.225  -2.350  0.00  0.00     0.199 HD
ENDBRANCH  14  17
ENDBRANCH  11  14
ENDBRANCH   4  11
BRANCH   2  21
ATOM     21  N   LIG d   1       1.890  -0.496  -4.322  0.00  0.00     0.224 N 
ATOM     22  H   LIG d   1       2.038   0.207  -5.044  0.00  0.00     0.200 HD
ATOM     23  H   LIG d   1       1.727  -1.402  -4.758  0.00  0.00     0.200 HD
ATOM     24  H   LIG d   1       1.065  -0.239  -3.767  0.00  0.00     0.200 HD
ENDBRANCH   2  21
TORSDOF 4
ENDMDL
MODEL 5
REMARK VINA RESULT:      -3.9      2.588      3.525
REMARK  4 active torsions:
REMARK  status: ('A' for Active; 'I' for Inactive)
REMARK    1  A    between atoms: C_2  and  N_23 
REMARK    2  A    between atoms: C_4  and  C_9 
REMARK    3  A    between atoms: C_9  and  C_10 
REMARK    4  A    between atoms: C_10  and  N_21 
ROOT
ATOM      1  C   LIG d   1       6.359  -1.619  -5.146  0.00  0.00     0.091 C 
ATOM      2  C   LIG d   1       6.388  -1.770  -3.609  0.00  0.00     0.024 C 
ATOM      3  H   LIG d   1       5.625  -2.473  -3.272  0.00  0.00     0.089 H 
ATOM      4  C   LIG d   1       6.072  -0.345  -3.111  0.00  0.00     0.150 C 
ATOM      5  H   LIG d   1       6.894   0.028  -2.498  0.00  0.00     0.079 H 
ATOM      6  O   LIG d   1       5.920   0.481  -4.300  0.00  0.00    -0.455 OA
ATOM      7  C   LIG d   1       5.640  -0.299  -5.359  0.00  0.00     0.313 C 
ATOM      8  O   LIG d   1       4.944  -0.006  -6.303  0.00  0.00    -0.251 OA
ATOM      9  H   LIG d   1       7.371  -1.573  -5.546  0.00  0.00     0.043 H 
ATOM     10  H   LIG d   1       5.801  -2.438  -5.602  0.00  0.00     0.043 H 
ENDROOT
BRANCH   4  11
ATOM     11  C   LIG d   1       4.774  -0.346  -2.302  0.00  0.00     0.030 C 
ATOM     12  H   LIG d   1       3.967  -0.751  -2.912  0.00  0.00     0.035 H 
ATOM     13  H   LIG d   1       4.901  -0.961  -1.411  0.00  0.00     0.035 H 
BRANCH  11  14
ATOM     14  C   LIG d   1       4.430   1.087  -1.888  0.00  0.00    -0.032 C 
ATOM     15  H   LIG d   1       3.776   1.067  -1.017  0.00  0.00     0.081 H 
ATOM     16  H   LIG d   1       5.347   1.624  -1.644  0.00  0.00     0.081 H 
BRANCH  14  17
ATOM     17  N   LIG d   1       3.764   1.765  -3.015  0.00  0.00     0.219 N 
ATOM     18  H   LIG d   1       3.945   2.767  -2.975  0.00  0.00     0.199 HD
ATOM     19  H   LIG d   1       4.109   1.395  -3.899  0.00  0.00     0.199 HD
ATOM     20  H   LIG d   1       2.752   1.605  -2.956  0.00  0.00     0.199 HD
ENDBRANCH  14  17
ENDBRANCH  11  14
ENDBRANCH   4  11
BRANCH   2  21
ATOM     21  N   LIG d   1       7.715  -2.196  -3.129  0.00  0.00     0.224 N 
ATOM     22  H   LIG d   1       8.410  -2.064  -3.862  0.00  0.00     0.200 HD
ATOM     23  H   LIG d   1       7.980  -1.654  -2.309  0.00  0.00     0.200 HD
ATOM     24  H   LIG d   1       7.680  -3.191  -2.876  0.00  0.00     0.200 HD
ENDBRANCH   2  21
TORSDOF 4
ENDMDL
MODEL 6
REMARK VINA RESULT:      -3.9      2.408      4.045
REMARK  4 active torsions:
REMARK  status: ('A' for Active; 'I' for Inactive)
REMARK    1  A    between atoms: C_2  and  N_23 
REMARK    2  A    between atoms: C_4  and  C_9 
REMARK    3  A    between atoms: C_9  and  C_10 
REMARK    4  A    between atoms: C_10  and  N_21 
ROOT
ATOM      1  C   LIG d   1       4.067  -1.533  -5.227  0.00  0.00     0.091 C 
ATOM      2  C   LIG d   1       3.401  -0.414  -4.395  0.00  0.00     0.024 C 
ATOM      3  H   LIG d   1       4.016   0.487  -4.392  0.00  0.00     0.089 H 
ATOM      4  C   LIG d   1       3.327  -1.025  -2.981  0.00  0.00     0.150 C 
ATOM      5  H   LIG d   1       2.290  -1.076  -2.649  0.00  0.00     0.079 H 
ATOM      6  O   LIG d   1       3.886  -2.366  -3.084  0.00  0.00    -0.455 OA
ATOM      7  C   LIG d   1       4.669  -2.446  -4.174  0.00  0.00     0.313 C 
ATOM      8  O   LIG d   1       5.666  -3.119  -4.294  0.00  0.00    -0.251 OA
ATOM      9  H   LIG d   1       3.322  -2.066  -5.817  0.00  0.00     0.043 H 
ATOM     10  H   LIG d   1       4.845  -1.122  -5.869  0.00  0.00     0.043 H 
ENDROOT
BRANCH   4  11
ATOM     11  C   LIG d   1       4.150  -0.187  -2.001  0.00  0.00     0.030 C 
ATOM     12  H   LIG d   1       3.629  -0.130  -1.046  0.00  0.00     0.035 H 
ATOM     13  H   LIG d   1       5.126  -0.652  -1.857  0.00  0.00     0.035 H 
BRANCH  11  14
ATOM     14  C   LIG d   1       4.335   1.223  -2.567  0.00  0.00    -0.032 C 
ATOM     15  H   LIG d   1       3.633   1.382  -3.385  0.00  0.00     0.081 H 
ATOM     16  H   LIG d   1       4.152   1.956  -1.781  0.00  0.00     0.081 H 
BRANCH  14  17
ATOM     17  N   LIG d   1       5.722   1.370  -3.044  0.00  0.00     0.219 N 
ATOM     18  H   LIG d   1       6.033   0.506  -3.485  0.00  0.00     0.199 HD
ATOM     19  H   LIG d   1       5.781   2.133  -3.716  0.00  0.00     0.199 HD
ATOM     20  H   LIG d   1       6.334   1.578  -2.246  0.00  0.00     0.199 HD
ENDBRANCH  14  17
ENDBRANCH  11  14
ENDBRANCH   4  11
BRANCH   2  21
ATOM     21  N   LIG d   1       2.047  -0.102  -4.887  0.00  0.00     0.224 N 
ATOM     22  H   LIG d   1       1.543  -0.963  -5.090  0.00  0.00     0.200 HD
ATOM     23  H   LIG d   1       1.536   0.434  -4.188  0.00  0.00     0.200 HD
ATOM     24  H   LIG d   1       2.120   0.454  -5.747  0.00  0.00     0.200 HD
ENDBRANCH   2  21
TORSDOF 4
ENDMDL
MODEL 7
REMARK VINA RESULT:      -3.8      2.294      2.755
REMARK  4 active torsions:
REMARK  status: ('A' for Active; 'I' for Inactive)
REMARK    1  A    between atoms: C_2  and  N_23 
REMARK    2  A    between atoms: C_4  and  C_9 
REMARK    3  A    between atoms: C_9  and  C_10 
REMARK    4  A    between atoms: C_10  and  N_21 
ROOT
ATOM      1  C   LIG d   1       5.833   1.260  -3.027  0.00  0.00     0.091 C 
ATOM      2  C   LIG d   1       4.318   1.005  -2.868  0.00  0.00     0.024 C 
ATOM      3  H   LIG d   1       4.068   0.779  -1.831  0.00  0.00     0.089 H 
ATOM      4  C   LIG d   1       4.073  -0.224  -3.766  0.00  0.00     0.150 C 
ATOM      5  H   LIG d   1       3.350   0.019  -4.545  0.00  0.00     0.079 H 
ATOM      6  O   LIG d   1       5.358  -0.559  -4.363  0.00  0.00    -0.455 OA
ATOM      7  C   LIG d   1       6.350  -0.039  -3.620  0.00  0.00     0.313 C 
ATOM      8  O   LIG d   1       7.448  -0.516  -3.453  0.00  0.00    -0.251 OA
ATOM      9  H   LIG d   1       6.013   2.090  -3.708  0.00  0.00     0.043 H 
ATOM     10  H   LIG d   1       6.295   1.450  -2.058  0.00  0.00     0.043 H 
ENDROOT
BRANCH   4  11
ATOM     11  C   LIG d   1       3.563  -1.397  -2.926  0.00  0.00     0.030 C 
ATOM     12  H   LIG d   1       3.752  -1.196  -1.872  0.00  0.00     0.035 H 
ATOM     13  H   LIG d   1       2.492  -1.520  -3.088  0.00  0.00     0.035 H 
BRANCH  11  14
ATOM     14  C   LIG d   1       4.293  -2.677  -3.341  0.00  0.00    -0.032 C 
ATOM     15  H   LIG d   1       5.366  -2.541  -3.211  0.00  0.00     0.081 H 
ATOM     16  H   LIG d   1       3.952  -3.505  -2.720  0.00  0.00     0.081 H 
BRANCH  14  17
ATOM     17  N   LIG d   1       3.978  -2.973  -4.750  0.00  0.00     0.219 N 
ATOM     18  H   LIG d   1       4.833  -2.986  -5.303  0.00  0.00     0.199 HD
ATOM     19  H   LIG d   1       3.515  -3.877  -4.822  0.00  0.00     0.199 HD
ATOM     20  H   LIG d   1       3.353  -2.246  -5.117  0.00  0.00     0.199 HD
ENDBRANCH  14  17
ENDBRANCH  11  14
ENDBRANCH   4  11
BRANCH   2  21
ATOM     21  N   LIG d   1       3.521   2.151  -3.342  0.00  0.00     0.224 N 
ATOM     22  H   LIG d   1       2.527   1.952  -3.237  0.00  0.00     0.200 HD
ATOM     23  H   LIG d   1       3.758   2.985  -2.810  0.00  0.00     0.200 HD
ATOM     24  H   LIG d   1       3.726   2.317  -4.335  0.00  0.00     0.200 HD
ENDBRANCH   2  21
TORSDOF 4
ENDMDL
MODEL 8
REMARK VINA RESULT:      -3.8      2.254      2.799
REMARK  4 active torsions:
REMARK  status: ('A' for Active; 'I' for Inactive)
REMARK    1  A    between atoms: C_2  and  N_23 
REMARK    2  A    between atoms: C_4  and  C_9 
REMARK    3  A    between atoms: C_9  and  C_10 
REMARK    4  A    between atoms: C_10  and  N_21 
ROOT
ATOM      1  C   LIG d   1       4.019  -0.156  -5.435  0.00  0.00     0.091 C 
ATOM      2  C   LIG d   1       5.139  -0.209  -4.372  0.00  0.00     0.024 C 
ATOM      3  H   LIG d   1       5.283  -1.227  -4.009  0.00  0.00     0.089 H 
ATOM      4  C   LIG d   1       4.599   0.698  -3.249  0.00  0.00     0.150 C 
ATOM      5  H   LIG d   1       5.285   1.528  -3.075  0.00  0.00     0.079 H 
ATOM      6  O   LIG d   1       3.313   1.202  -3.710  0.00  0.00    -0.455 OA
ATOM      7  C   LIG d   1       2.829   0.392  -4.669  0.00  0.00     0.313 C 
ATOM      8  O   LIG d   1       1.665   0.146  -4.880  0.00  0.00    -0.251 OA
ATOM      9  H   LIG d   1       4.294   0.515  -6.248  0.00  0.00     0.043 H 
ATOM     10  H   LIG d   1       3.803  -1.155  -5.816  0.00  0.00     0.043 H 
ENDROOT
BRANCH   4  11
ATOM     11  C   LIG d   1       4.416  -0.109  -1.962  0.00  0.00     0.030 C 
ATOM     12  H   LIG d   1       5.064   0.295  -1.185  0.00  0.00     0.035 H 
ATOM     13  H   LIG d   1       3.376  -0.047  -1.640  0.00  0.00     0.035 H 
BRANCH  11  14
ATOM     14  C   LIG d   1       4.783  -1.572  -2.222  0.00  0.00    -0.032 C 
ATOM     15  H   LIG d   1       5.373  -1.642  -3.136  0.00  0.00     0.081 H 
ATOM     16  H   LIG d   1       5.365  -1.954  -1.383  0.00  0.00     0.081 H 
BRANCH  14  17
ATOM     17  N   LIG d   1       3.545  -2.363  -2.346  0.00  0.00     0.219 N 
ATOM     18  H   LIG d   1       3.556  -2.895  -3.215  0.00  0.00     0.199 HD
ATOM     19  H   LIG d   1       3.460  -3.002  -1.559  0.00  0.00     0.199 HD
ATOM     20  H   LIG d   1       2.739  -1.728  -2.352  0.00  0.00     0.199 HD
ENDBRANCH  14  17
ENDBRANCH  11  14
ENDBRANCH   4  11
BRANCH   2  21
ATOM     21  N   LIG d   1       6.410   0.326  -4.894  0.00  0.00     0.224 N 
ATOM     22  H   LIG d   1       7.154   0.186  -4.212  0.00  0.00     0.200 HD
ATOM     23  H   LIG d   1       6.655  -0.142  -5.764  0.00  0.00     0.200 HD
ATOM     24  H   LIG d   1       6.304   1.332  -5.073  0.00  0.00     0.200 HD
ENDBRANCH   2  21
TORSDOF 4
ENDMDL
MODEL 9
REMARK VINA RESULT:      -3.8      2.171      2.303
REMARK  4 active torsions:
REMARK  status: ('A' for Active; 'I' for Inactive)
REMARK    1  A    between atoms: C_2  and  N_23 
REMARK    2  A    between atoms: C_4  and  C_9 
REMARK    3  A    between atoms: C_9  and  C_10 
REMARK    4  A    between atoms: C_10  and  N_21 
ROOT
ATOM      1  C   LIG d   1       3.427   1.194  -3.350  0.00  0.00     0.091 C 
ATOM      2  C   LIG d   1       4.621   0.513  -2.645  0.00  0.00     0.024 C 
ATOM      3  H   LIG d   1       5.547   0.690  -3.192  0.00  0.00     0.089 H 
ATOM      4  C   LIG d   1       4.243  -0.981  -2.682  0.00  0.00     0.150 C 
ATOM      5  H   LIG d   1       4.180  -1.377  -1.668  0.00  0.00     0.079 H 
ATOM      6  O   LIG d   1       2.942  -1.061  -3.331  0.00  0.00    -0.455 OA
ATOM      7  C   LIG d   1       2.737   0.047  -4.066  0.00  0.00     0.313 C 
ATOM      8  O   LIG d   1       2.119   0.116  -5.103  0.00  0.00    -0.251 OA
ATOM      9  H   LIG d   1       2.758   1.648  -2.620  0.00  0.00     0.043 H 
ATOM     10  H   LIG d   1       3.776   1.938  -4.066  0.00  0.00     0.043 H 
ENDROOT
BRANCH   4  11
ATOM     11  C   LIG d   1       5.281  -1.766  -3.487  0.00  0.00     0.030 C 
ATOM     12  H   LIG d   1       5.629  -1.157  -4.321  0.00  0.00     0.035 H 
ATOM     13  H   LIG d   1       6.123  -2.020  -2.844  0.00  0.00     0.035 H 
BRANCH  11  14
ATOM     14  C   LIG d   1       4.644  -3.050  -4.025  0.00  0.00    -0.032 C 
ATOM     15  H   LIG d   1       5.406  -3.825  -4.108  0.00  0.00     0.081 H 
ATOM     16  H   LIG d   1       3.861  -3.380  -3.342  0.00  0.00     0.081 H 
BRANCH  14  17
ATOM     17  N   LIG d   1       4.045  -2.773  -5.343  0.00  0.00     0.219 N 
ATOM     18  H   LIG d   1       4.776  -2.678  -6.046  0.00  0.00     0.199 HD
ATOM     19  H   LIG d   1       3.418  -3.530  -5.607  0.00  0.00     0.199 HD
ATOM     20  H   LIG d   1       3.512  -1.897  -5.293  0.00  0.00     0.199 HD
ENDBRANCH  14  17
ENDBRANCH  11  14
ENDBRANCH   4  11
BRANCH   2  21
ATOM     21  N   LIG d   1       4.761   0.970  -1.250  0.00  0.00     0.224 N 
ATOM     22  H   LIG d   1       4.811   1.987  -1.219  0.00  0.00     0.200 HD
ATOM     23  H   LIG d   1       3.966   0.653  -0.698  0.00  0.00     0.200 HD
ATOM     24  H   LIG d   1       5.623   0.579  -0.852  0.00  0.00     0.200 HD
ENDBRANCH   2  21
TORSDOF 4
ENDMDL
