MODEL 1
REMARK VINA RESULT:      -6.1      0.000      0.000
REMARK  7 active torsions:
REMARK  status: ('A' for Active; 'I' for Inactive)
REMARK    1  A    between atoms: C_1  and  C_2 
REMARK    2  A    between atoms: C_2  and  C_4 
REMARK    3  A    between atoms: C_2  and  O_20 
REMARK    4  A    between atoms: C_4  and  C_5 
REMARK    5  A    between atoms: C_5  and  C_6 
REMARK    6  A    between atoms: C_6  and  C_7 
REMARK    7  A    between atoms: C_14  and  O_19 
ROOT
ATOM      1  C   LIG d   1       3.823  -0.508  -6.753  0.00  0.00     0.107 C 
ATOM      2  H   LIG d   1       4.724   0.106  -6.770  0.00  0.00     0.074 H 
ATOM      3  C   LIG d   1       4.056  -1.733  -5.869  0.00  0.00     0.011 C 
ATOM      4  C   LIG d   1       4.148  -1.322  -4.423  0.00  0.00    -0.026 A 
ATOM      5  C   LIG d   1       4.769  -2.146  -3.508  0.00  0.00    -0.057 A 
ATOM      6  C   LIG d   1       4.854  -1.771  -2.177  0.00  0.00    -0.058 A 
ATOM      7  C   LIG d   1       4.319  -0.573  -1.749  0.00  0.00    -0.019 A 
ATOM      8  C   LIG d   1       3.691   0.270  -2.655  0.00  0.00     0.131 A 
ATOM      9  C   LIG d   1       3.606  -0.106  -3.999  0.00  0.00     0.103 A 
ATOM     10  C   LIG d   1       2.951   0.776  -4.988  0.00  0.00     0.343 C 
ATOM     11  O   LIG d   1       2.622   1.911  -4.707  0.00  0.00    -0.245 OA
ATOM     12  O   LIG d   1       2.733   0.261  -6.225  0.00  0.00    -0.458 OA
ATOM     13  H   LIG d   1       3.228  -2.431  -5.994  0.00  0.00     0.035 H 
ATOM     14  H   LIG d   1       4.985  -2.220  -6.166  0.00  0.00     0.035 H 
ATOM     15  H   LIG d   1       5.192  -3.085  -3.831  0.00  0.00     0.062 H 
ATOM     16  H   LIG d   1       5.342  -2.423  -1.468  0.00  0.00     0.062 H 
ATOM     17  H   LIG d   1       4.388  -0.292  -0.707  0.00  0.00     0.065 H 
ENDROOT
BRANCH   1  18
ATOM     18  C   LIG d   1       3.487  -0.961  -8.175  0.00  0.00    -0.015 C 
ATOM     19  H   LIG d   1       3.085  -1.973  -8.148  0.00  0.00     0.030 H 
ATOM     20  H   LIG d   1       4.390  -0.944  -8.784  0.00  0.00     0.030 H 
BRANCH  18  21
ATOM     21  C   LIG d   1       2.446  -0.015  -8.779  0.00  0.00    -0.047 C 
ATOM     22  H   LIG d   1       2.058   0.643  -8.001  0.00  0.00     0.027 H 
ATOM     23  H   LIG d   1       1.628  -0.597  -9.203  0.00  0.00     0.027 H 
BRANCH  21  24
ATOM     24  C   LIG d   1       3.098   0.825  -9.879  0.00  0.00    -0.027 C 
ATOM     25  H   LIG d   1       2.413   0.914 -10.723  0.00  0.00     0.029 H 
ATOM     26  H   LIG d   1       4.018   0.341 -10.209  0.00  0.00     0.029 H 
BRANCH  24  27
ATOM     27  C   LIG d   1       3.421   2.217  -9.335  0.00  0.00     0.052 C 
ATOM     28  H   LIG d   1       3.042   2.973 -10.023  0.00  0.00     0.059 H 
BRANCH  27  29
ATOM     29  C   LIG d   1       4.937   2.371  -9.195  0.00  0.00    -0.039 C 
ATOM     30  H   LIG d   1       5.379   2.525 -10.179  0.00  0.00     0.025 H 
ATOM     31  H   LIG d   1       5.159   3.227  -8.558  0.00  0.00     0.025 H 
ATOM     32  H   LIG d   1       5.353   1.468  -8.747  0.00  0.00     0.025 H 
ENDBRANCH  27  29
BRANCH  27  33
ATOM     33  O   LIG d   1       2.805   2.384  -8.056  0.00  0.00    -0.392 OA
ATOM     34  H   LIG d   1       1.984   1.884  -7.947  0.00  0.00     0.210 HD
ENDBRANCH  27  33
ENDBRANCH  24  27
ENDBRANCH  21  24
ENDBRANCH  18  21
ENDBRANCH   1  18
BRANCH   8  35
ATOM     35  O   LIG d   1       3.162   1.448  -2.239  0.00  0.00    -0.506 OA
ATOM     36  H   LIG d   1       3.196   1.578  -1.281  0.00  0.00     0.292 HD
ENDBRANCH   8  35
TORSDOF 7
ENDMDL
MODEL 2
REMARK VINA RESULT:      -5.9      2.061      2.937
REMARK  7 active torsions:
REMARK  status: ('A' for Active; 'I' for Inactive)
REMARK    1  A    between atoms: C_1  and  C_2 
REMARK    2  A    between atoms: C_2  and  C_4 
REMARK    3  A    between atoms: C_2  and  O_20 
REMARK    4  A    between atoms: C_4  and  C_5 
REMARK    5  A    between atoms: C_5  and  C_6 
REMARK    6  A    between atoms: C_6  and  C_7 
REMARK    7  A    between atoms: C_14  and  O_19 
ROOT
ATOM      1  C   LIG d   1       3.173   0.372  -7.105  0.00  0.00     0.107 C 
ATOM      2  H   LIG d   1       2.748  -0.565  -7.465  0.00  0.00     0.074 H 
ATOM      3  C   LIG d   1       2.665   0.655  -5.692  0.00  0.00     0.011 C 
ATOM      4  C   LIG d   1       3.265  -0.324  -4.717  0.00  0.00    -0.026 A 
ATOM      5  C   LIG d   1       2.654  -0.553  -3.502  0.00  0.00    -0.057 A 
ATOM      6  C   LIG d   1       3.205  -1.450  -2.602  0.00  0.00    -0.058 A 
ATOM      7  C   LIG d   1       4.371  -2.124  -2.907  0.00  0.00    -0.019 A 
ATOM      8  C   LIG d   1       5.000  -1.907  -4.125  0.00  0.00     0.131 A 
ATOM      9  C   LIG d   1       4.444  -1.003  -5.035  0.00  0.00     0.103 A 
ATOM     10  C   LIG d   1       5.087  -0.758  -6.343  0.00  0.00     0.343 C 
ATOM     11  O   LIG d   1       6.007  -1.448  -6.736  0.00  0.00    -0.245 OA
ATOM     12  O   LIG d   1       4.604   0.270  -7.086  0.00  0.00    -0.458 OA
ATOM     13  H   LIG d   1       2.943   1.668  -5.404  0.00  0.00     0.035 H 
ATOM     14  H   LIG d   1       1.578   0.562  -5.674  0.00  0.00     0.035 H 
ATOM     15  H   LIG d   1       1.742  -0.032  -3.252  0.00  0.00     0.062 H 
ATOM     16  H   LIG d   1       2.719  -1.623  -1.654  0.00  0.00     0.062 H 
ATOM     17  H   LIG d   1       4.794  -2.821  -2.196  0.00  0.00     0.065 H 
ENDROOT
BRANCH   1  18
ATOM     18  C   LIG d   1       2.756   1.512  -8.036  0.00  0.00    -0.015 C 
ATOM     19  H   LIG d   1       2.362   2.338  -7.445  0.00  0.00     0.030 H 
ATOM     20  H   LIG d   1       1.987   1.158  -8.722  0.00  0.00     0.030 H 
BRANCH  18  21
ATOM     21  C   LIG d   1       3.971   1.990  -8.834  0.00  0.00    -0.047 C 
ATOM     22  H   LIG d   1       4.820   1.339  -8.628  0.00  0.00     0.027 H 
ATOM     23  H   LIG d   1       4.218   3.011  -8.543  0.00  0.00     0.027 H 
BRANCH  21  24
ATOM     24  C   LIG d   1       3.647   1.949 -10.329  0.00  0.00    -0.027 C 
ATOM     25  H   LIG d   1       4.003   2.864 -10.803  0.00  0.00     0.029 H 
ATOM     26  H   LIG d   1       2.569   1.866 -10.465  0.00  0.00     0.029 H 
BRANCH  24  27
ATOM     27  C   LIG d   1       4.337   0.742 -10.968  0.00  0.00     0.052 C 
ATOM     28  H   LIG d   1       4.890   1.065 -11.849  0.00  0.00     0.059 H 
BRANCH  27  29
ATOM     29  C   LIG d   1       3.283  -0.289 -11.376  0.00  0.00    -0.039 C 
ATOM     30  H   LIG d   1       3.569  -1.270 -10.995  0.00  0.00     0.025 H 
ATOM     31  H   LIG d   1       2.316  -0.005 -10.963  0.00  0.00     0.025 H 
ATOM     32  H   LIG d   1       3.217  -0.329 -12.464  0.00  0.00     0.025 H 
ENDBRANCH  27  29
BRANCH  27  33
ATOM     33  O   LIG d   1       5.238   0.155 -10.027  0.00  0.00    -0.392 OA
ATOM     34  H   LIG d   1       5.221   0.571  -9.154  0.00  0.00     0.210 HD
ENDBRANCH  27  33
ENDBRANCH  24  27
ENDBRANCH  21  24
ENDBRANCH  18  21
ENDBRANCH   1  18
BRANCH   8  35
ATOM     35  O   LIG d   1       6.147  -2.567  -4.429  0.00  0.00    -0.506 OA
ATOM     36  H   LIG d   1       6.903  -1.986  -4.591  0.00  0.00     0.292 HD
ENDBRANCH   8  35
TORSDOF 7
ENDMDL
MODEL 3
REMARK VINA RESULT:      -5.8      2.622      4.464
REMARK  7 active torsions:
REMARK  status: ('A' for Active; 'I' for Inactive)
REMARK    1  A    between atoms: C_1  and  C_2 
REMARK    2  A    between atoms: C_2  and  C_4 
REMARK    3  A    between atoms: C_2  and  O_20 
REMARK    4  A    between atoms: C_4  and  C_5 
REMARK    5  A    between atoms: C_5  and  C_6 
REMARK    6  A    between atoms: C_6  and  C_7 
REMARK    7  A    between atoms: C_14  and  O_19 
ROOT
ATOM      1  C   LIG d   1       5.790  -2.427  -4.946  0.00  0.00     0.107 C 
ATOM      2  H   LIG d   1       6.519  -1.703  -5.311  0.00  0.00     0.074 H 
ATOM      3  C   LIG d   1       5.575  -2.223  -3.446  0.00  0.00     0.011 C 
ATOM      4  C   LIG d   1       4.843  -0.931  -3.196  0.00  0.00    -0.026 A 
ATOM      5  C   LIG d   1       4.913  -0.325  -1.959  0.00  0.00    -0.057 A 
ATOM      6  C   LIG d   1       4.240   0.862  -1.725  0.00  0.00    -0.058 A 
ATOM      7  C   LIG d   1       3.489   1.453  -2.722  0.00  0.00    -0.019 A 
ATOM      8  C   LIG d   1       3.408   0.858  -3.973  0.00  0.00     0.131 A 
ATOM      9  C   LIG d   1       4.089  -0.340  -4.212  0.00  0.00     0.103 A 
ATOM     10  C   LIG d   1       4.027  -0.991  -5.537  0.00  0.00     0.343 C 
ATOM     11  O   LIG d   1       3.534  -0.432  -6.496  0.00  0.00    -0.245 OA
ATOM     12  O   LIG d   1       4.546  -2.241  -5.635  0.00  0.00    -0.458 OA
ATOM     13  H   LIG d   1       4.990  -3.053  -3.049  0.00  0.00     0.035 H 
ATOM     14  H   LIG d   1       6.542  -2.194  -2.944  0.00  0.00     0.035 H 
ATOM     15  H   LIG d   1       5.496  -0.777  -1.171  0.00  0.00     0.062 H 
ATOM     16  H   LIG d   1       4.300   1.329  -0.753  0.00  0.00     0.062 H 
ATOM     17  H   LIG d   1       2.966   2.378  -2.528  0.00  0.00     0.065 H 
ENDROOT
BRANCH   1  18
ATOM     18  C   LIG d   1       6.307  -3.844  -5.199  0.00  0.00    -0.015 C 
ATOM     19  H   LIG d   1       5.765  -4.548  -4.569  0.00  0.00     0.030 H 
ATOM     20  H   LIG d   1       7.371  -3.891  -4.964  0.00  0.00     0.030 H 
BRANCH  18  21
ATOM     21  C   LIG d   1       6.094  -4.210  -6.670  0.00  0.00    -0.047 C 
ATOM     22  H   LIG d   1       7.057  -4.245  -7.180  0.00  0.00     0.027 H 
ATOM     23  H   LIG d   1       5.461  -3.459  -7.143  0.00  0.00     0.027 H 
BRANCH  21  24
ATOM     24  C   LIG d   1       5.417  -5.578  -6.763  0.00  0.00    -0.027 C 
ATOM     25  H   LIG d   1       5.398  -6.042  -5.777  0.00  0.00     0.029 H 
ATOM     26  H   LIG d   1       5.975  -6.213  -7.451  0.00  0.00     0.029 H 
BRANCH  24  27
ATOM     27  C   LIG d   1       3.985  -5.407  -7.273  0.00  0.00     0.052 C 
ATOM     28  H   LIG d   1       3.634  -6.350  -7.692  0.00  0.00     0.059 H 
BRANCH  27  29
ATOM     29  C   LIG d   1       3.956  -4.326  -8.356  0.00  0.00    -0.039 C 
ATOM     30  H   LIG d   1       3.201  -4.579  -9.101  0.00  0.00     0.025 H 
ATOM     31  H   LIG d   1       3.714  -3.365  -7.904  0.00  0.00     0.025 H 
ATOM     32  H   LIG d   1       4.933  -4.266  -8.836  0.00  0.00     0.025 H 
ENDBRANCH  27  29
BRANCH  27  33
ATOM     33  O   LIG d   1       3.137  -5.020  -6.191  0.00  0.00    -0.392 OA
ATOM     34  H   LIG d   1       3.577  -4.479  -5.520  0.00  0.00     0.210 HD
ENDBRANCH  27  33
ENDBRANCH  24  27
ENDBRANCH  21  24
ENDBRANCH  18  21
ENDBRANCH   1  18
BRANCH   8  35
ATOM     35  O   LIG d   1       2.671   1.434  -4.957  0.00  0.00    -0.506 OA
ATOM     36  H   LIG d   1       3.074   1.378  -5.835  0.00  0.00     0.292 HD
ENDBRANCH   8  35
TORSDOF 7
ENDMDL
MODEL 4
REMARK VINA RESULT:      -5.7      1.950      2.392
REMARK  7 active torsions:
REMARK  status: ('A' for Active; 'I' for Inactive)
REMARK    1  A    between atoms: C_1  and  C_2 
REMARK    2  A    between atoms: C_2  and  C_4 
REMARK    3  A    between atoms: C_2  and  O_20 
REMARK    4  A    between atoms: C_4  and  C_5 
REMARK    5  A    between atoms: C_5  and  C_6 
REMARK    6  A    between atoms: C_6  and  C_7 
REMARK    7  A    between atoms: C_14  and  O_19 
ROOT
ATOM      1  C   LIG d   1       4.057  -1.108  -6.721  0.00  0.00     0.107 C 
ATOM      2  H   LIG d   1       4.034  -2.104  -6.280  0.00  0.00     0.074 H 
ATOM      3  C   LIG d   1       3.209  -0.156  -5.878  0.00  0.00     0.011 C 
ATOM      4  C   LIG d   1       3.878   0.104  -4.554  0.00  0.00    -0.026 A 
ATOM      5  C   LIG d   1       3.139   0.558  -3.482  0.00  0.00    -0.057 A 
ATOM      6  C   LIG d   1       3.752   0.800  -2.264  0.00  0.00    -0.058 A 
ATOM      7  C   LIG d   1       5.108   0.593  -2.107  0.00  0.00    -0.019 A 
ATOM      8  C   LIG d   1       5.868   0.136  -3.174  0.00  0.00     0.131 A 
ATOM      9  C   LIG d   1       5.250  -0.111  -4.404  0.00  0.00     0.103 A 
ATOM     10  C   LIG d   1       6.034  -0.606  -5.555  0.00  0.00     0.343 C 
ATOM     11  O   LIG d   1       7.185  -0.973  -5.428  0.00  0.00    -0.245 OA
ATOM     12  O   LIG d   1       5.410  -0.634  -6.760  0.00  0.00    -0.458 OA
ATOM     13  H   LIG d   1       3.085   0.786  -6.411  0.00  0.00     0.035 H 
ATOM     14  H   LIG d   1       2.229  -0.602  -5.706  0.00  0.00     0.035 H 
ATOM     15  H   LIG d   1       2.077   0.723  -3.593  0.00  0.00     0.062 H 
ATOM     16  H   LIG d   1       3.164   1.155  -1.431  0.00  0.00     0.062 H 
ATOM     17  H   LIG d   1       5.577   0.787  -1.153  0.00  0.00     0.065 H 
ENDROOT
BRANCH   1  18
ATOM     18  C   LIG d   1       3.496  -1.167  -8.143  0.00  0.00    -0.015 C 
ATOM     19  H   LIG d   1       3.015  -2.131  -8.305  0.00  0.00     0.030 H 
ATOM     20  H   LIG d   1       4.308  -1.042  -8.860  0.00  0.00     0.030 H 
BRANCH  18  21
ATOM     21  C   LIG d   1       2.470  -0.048  -8.335  0.00  0.00    -0.047 C 
ATOM     22  H   LIG d   1       2.498   0.621  -7.474  0.00  0.00     0.027 H 
ATOM     23  H   LIG d   1       1.474  -0.480  -8.426  0.00  0.00     0.027 H 
BRANCH  21  24
ATOM     24  C   LIG d   1       2.804   0.739  -9.604  0.00  0.00    -0.027 C 
ATOM     25  H   LIG d   1       1.915   0.812 -10.230  0.00  0.00     0.029 H 
ATOM     26  H   LIG d   1       3.593   0.225 -10.152  0.00  0.00     0.029 H 
BRANCH  24  27
ATOM     27  C   LIG d   1       3.278   2.143  -9.224  0.00  0.00     0.052 C 
ATOM     28  H   LIG d   1       2.894   2.863  -9.946  0.00  0.00     0.059 H 
BRANCH  27  29
ATOM     29  C   LIG d   1       4.808   2.183  -9.227  0.00  0.00    -0.039 C 
ATOM     30  H   LIG d   1       5.160   2.677  -8.321  0.00  0.00     0.025 H 
ATOM     31  H   LIG d   1       5.198   1.166  -9.262  0.00  0.00     0.025 H 
ATOM     32  H   LIG d   1       5.154   2.736 -10.100  0.00  0.00     0.025 H 
ENDBRANCH  27  29
BRANCH  27  33
ATOM     33  O   LIG d   1       2.796   2.472  -7.920  0.00  0.00    -0.392 OA
ATOM     34  H   LIG d   1       2.607   1.703  -7.364  0.00  0.00     0.210 HD
ENDBRANCH  27  33
ENDBRANCH  24  27
ENDBRANCH  21  24
ENDBRANCH  18  21
ENDBRANCH   1  18
BRANCH   8  35
ATOM     35  O   LIG d   1       7.202  -0.069  -3.025  0.00  0.00    -0.506 OA
ATOM     36  H   LIG d   1       7.426  -0.911  -2.606  0.00  0.00     0.292 HD
ENDBRANCH   8  35
TORSDOF 7
ENDMDL
MODEL 5
REMARK VINA RESULT:      -5.7      3.745      4.861
REMARK  7 active torsions:
REMARK  status: ('A' for Active; 'I' for Inactive)
REMARK    1  A    between atoms: C_1  and  C_2 
REMARK    2  A    between atoms: C_2  and  C_4 
REMARK    3  A    between atoms: C_2  and  O_20 
REMARK    4  A    between atoms: C_4  and  C_5 
REMARK    5  A    between atoms: C_5  and  C_6 
REMARK    6  A    between atoms: C_6  and  C_7 
REMARK    7  A    between atoms: C_14  and  O_19 
ROOT
ATOM      1  C   LIG d   1       6.915  -3.053  -4.608  0.00  0.00     0.107 C 
ATOM      2  H   LIG d   1       7.618  -3.134  -3.779  0.00  0.00     0.074 H 
ATOM      3  C   LIG d   1       5.491  -2.942  -4.062  0.00  0.00     0.011 C 
ATOM      4  C   LIG d   1       5.293  -1.608  -3.390  0.00  0.00    -0.026 A 
ATOM      5  C   LIG d   1       4.281  -1.441  -2.470  0.00  0.00    -0.057 A 
ATOM      6  C   LIG d   1       4.095  -0.215  -1.852  0.00  0.00    -0.058 A 
ATOM      7  C   LIG d   1       4.917   0.854  -2.150  0.00  0.00    -0.019 A 
ATOM      8  C   LIG d   1       5.942   0.704  -3.074  0.00  0.00     0.131 A 
ATOM      9  C   LIG d   1       6.132  -0.534  -3.696  0.00  0.00     0.103 A 
ATOM     10  C   LIG d   1       7.221  -0.725  -4.678  0.00  0.00     0.343 C 
ATOM     11  O   LIG d   1       8.078   0.119  -4.846  0.00  0.00    -0.245 OA
ATOM     12  O   LIG d   1       7.221  -1.885  -5.382  0.00  0.00    -0.458 OA
ATOM     13  H   LIG d   1       4.781  -3.042  -4.882  0.00  0.00     0.035 H 
ATOM     14  H   LIG d   1       5.319  -3.740  -3.338  0.00  0.00     0.035 H 
ATOM     15  H   LIG d   1       3.631  -2.269  -2.228  0.00  0.00     0.062 H 
ATOM     16  H   LIG d   1       3.300  -0.094  -1.132  0.00  0.00     0.062 H 
ATOM     17  H   LIG d   1       4.762   1.806  -1.664  0.00  0.00     0.065 H 
ENDROOT
BRANCH   1  18
ATOM     18  C   LIG d   1       7.026  -4.295  -5.493  0.00  0.00    -0.015 C 
ATOM     19  H   LIG d   1       7.775  -4.971  -5.081  0.00  0.00     0.030 H 
ATOM     20  H   LIG d   1       7.319  -3.999  -6.500  0.00  0.00     0.030 H 
BRANCH  18  21
ATOM     21  C   LIG d   1       5.672  -5.008  -5.546  0.00  0.00    -0.047 C 
ATOM     22  H   LIG d   1       4.891  -4.329  -5.204  0.00  0.00     0.027 H 
ATOM     23  H   LIG d   1       5.698  -5.886  -4.901  0.00  0.00     0.027 H 
BRANCH  21  24
ATOM     24  C   LIG d   1       5.379  -5.441  -6.984  0.00  0.00    -0.027 C 
ATOM     25  H   LIG d   1       5.446  -6.526  -7.058  0.00  0.00     0.029 H 
ATOM     26  H   LIG d   1       6.107  -4.986  -7.656  0.00  0.00     0.029 H 
BRANCH  24  27
ATOM     27  C   LIG d   1       3.971  -4.988  -7.376  0.00  0.00     0.052 C 
ATOM     28  H   LIG d   1       3.602  -5.614  -8.189  0.00  0.00     0.059 H 
BRANCH  27  29
ATOM     29  C   LIG d   1       4.013  -3.529  -7.834  0.00  0.00    -0.039 C 
ATOM     30  H   LIG d   1       5.047  -3.237  -8.020  0.00  0.00     0.025 H 
ATOM     31  H   LIG d   1       3.433  -3.418  -8.750  0.00  0.00     0.025 H 
ATOM     32  H   LIG d   1       3.591  -2.893  -7.056  0.00  0.00     0.025 H 
ENDBRANCH  27  29
BRANCH  27  33
ATOM     33  O   LIG d   1       3.101  -5.109  -6.249  0.00  0.00    -0.392 OA
ATOM     34  H   LIG d   1       2.937  -4.275  -5.787  0.00  0.00     0.210 HD
ENDBRANCH  27  33
ENDBRANCH  24  27
ENDBRANCH  21  24
ENDBRANCH  18  21
ENDBRANCH   1  18
BRANCH   8  35
ATOM     35  O   LIG d   1       6.753   1.751  -3.371  0.00  0.00    -0.506 OA
ATOM     36  H   LIG d   1       6.611   2.529  -2.814  0.00  0.00     0.292 HD
ENDBRANCH   8  35
TORSDOF 7
ENDMDL
MODEL 6
REMARK VINA RESULT:      -5.5      3.375      6.091
REMARK  7 active torsions:
REMARK  status: ('A' for Active; 'I' for Inactive)
REMARK    1  A    between atoms: C_1  and  C_2 
REMARK    2  A    between atoms: C_2  and  C_4 
REMARK    3  A    between atoms: C_2  and  O_20 
REMARK    4  A    between atoms: C_4  and  C_5 
REMARK    5  A    between atoms: C_5  and  C_6 
REMARK    6  A    between atoms: C_6  and  C_7 
REMARK    7  A    between atoms: C_14  and  O_19 
ROOT
ATOM      1  C   LIG d   1       6.195  -2.302  -4.675  0.00  0.00     0.107 C 
ATOM      2  H   LIG d   1       6.857  -1.537  -5.079  0.00  0.00     0.074 H 
ATOM      3  C   LIG d   1       5.893  -1.994  -3.208  0.00  0.00     0.011 C 
ATOM      4  C   LIG d   1       5.017  -0.774  -3.102  0.00  0.00    -0.026 A 
ATOM      5  C   LIG d   1       4.967  -0.059  -1.924  0.00  0.00    -0.057 A 
ATOM      6  C   LIG d   1       4.160   1.062  -1.823  0.00  0.00    -0.058 A 
ATOM      7  C   LIG d   1       3.396   1.477  -2.895  0.00  0.00    -0.019 A 
ATOM      8  C   LIG d   1       3.434   0.771  -4.089  0.00  0.00     0.131 A 
ATOM      9  C   LIG d   1       4.249  -0.360  -4.193  0.00  0.00     0.103 A 
ATOM     10  C   LIG d   1       4.316  -1.127  -5.455  0.00  0.00     0.343 C 
ATOM     11  O   LIG d   1       3.808  -0.711  -6.478  0.00  0.00    -0.245 OA
ATOM     12  O   LIG d   1       4.970  -2.316  -5.421  0.00  0.00    -0.458 OA
ATOM     13  H   LIG d   1       5.384  -2.846  -2.758  0.00  0.00     0.035 H 
ATOM     14  H   LIG d   1       6.829  -1.814  -2.678  0.00  0.00     0.035 H 
ATOM     15  H   LIG d   1       5.560  -0.374  -1.078  0.00  0.00     0.062 H 
ATOM     16  H   LIG d   1       4.128   1.615  -0.896  0.00  0.00     0.062 H 
ATOM     17  H   LIG d   1       2.768   2.352  -2.804  0.00  0.00     0.065 H 
ENDROOT
BRANCH   1  18
ATOM     18  C   LIG d   1       6.872  -3.670  -4.781  0.00  0.00    -0.015 C 
ATOM     19  H   LIG d   1       6.702  -4.084  -5.774  0.00  0.00     0.030 H 
ATOM     20  H   LIG d   1       6.454  -4.341  -4.030  0.00  0.00     0.030 H 
BRANCH  18  21
ATOM     21  C   LIG d   1       8.376  -3.515  -4.545  0.00  0.00    -0.047 C 
ATOM     22  H   LIG d   1       8.554  -2.680  -3.867  0.00  0.00     0.027 H 
ATOM     23  H   LIG d   1       8.875  -3.323  -5.495  0.00  0.00     0.027 H 
BRANCH  21  24
ATOM     24  C   LIG d   1       8.931  -4.800  -3.927  0.00  0.00    -0.027 C 
ATOM     25  H   LIG d   1       9.583  -5.296  -4.646  0.00  0.00     0.029 H 
ATOM     26  H   LIG d   1       8.107  -5.463  -3.667  0.00  0.00     0.029 H 
BRANCH  24  27
ATOM     27  C   LIG d   1       9.728  -4.458  -2.667  0.00  0.00     0.052 C 
ATOM     28  H   LIG d   1      10.749  -4.195  -2.943  0.00  0.00     0.059 H 
BRANCH  27  29
ATOM     29  C   LIG d   1       9.748  -5.669  -1.732  0.00  0.00    -0.039 C 
ATOM     30  H   LIG d   1       8.737  -6.064  -1.628  0.00  0.00     0.025 H 
ATOM     31  H   LIG d   1      10.399  -6.438  -2.147  0.00  0.00     0.025 H 
ATOM     32  H   LIG d   1      10.121  -5.366  -0.754  0.00  0.00     0.025 H 
ENDBRANCH  27  29
BRANCH  27  33
ATOM     33  O   LIG d   1       9.114  -3.352  -2.001  0.00  0.00    -0.392 OA
ATOM     34  H   LIG d   1       9.247  -3.347  -1.043  0.00  0.00     0.210 HD
ENDBRANCH  27  33
ENDBRANCH  24  27
ENDBRANCH  21  24
ENDBRANCH  18  21
ENDBRANCH   1  18
BRANCH   8  35
ATOM     35  O   LIG d   1       2.684   1.174  -5.145  0.00  0.00    -0.506 OA
ATOM     36  H   LIG d   1       1.781   1.434  -4.911  0.00  0.00     0.292 HD
ENDBRANCH   8  35
TORSDOF 7
ENDMDL
MODEL 7
REMARK VINA RESULT:      -5.5      2.867      6.138
REMARK  7 active torsions:
REMARK  status: ('A' for Active; 'I' for Inactive)
REMARK    1  A    between atoms: C_1  and  C_2 
REMARK    2  A    between atoms: C_2  and  C_4 
REMARK    3  A    between atoms: C_2  and  O_20 
REMARK    4  A    between atoms: C_4  and  C_5 
REMARK    5  A    between atoms: C_5  and  C_6 
REMARK    6  A    between atoms: C_6  and  C_7 
REMARK    7  A    between atoms: C_14  and  O_19 
ROOT
ATOM      1  C   LIG d   1       5.663  -2.602  -4.414  0.00  0.00     0.107 C 
ATOM      2  H   LIG d   1       6.574  -3.121  -4.714  0.00  0.00     0.074 H 
ATOM      3  C   LIG d   1       5.226  -1.651  -5.527  0.00  0.00     0.011 C 
ATOM      4  C   LIG d   1       4.730  -2.433  -6.715  0.00  0.00    -0.026 A 
ATOM      5  C   LIG d   1       4.694  -1.847  -7.963  0.00  0.00    -0.057 A 
ATOM      6  C   LIG d   1       4.237  -2.563  -9.057  0.00  0.00    -0.058 A 
ATOM      7  C   LIG d   1       3.810  -3.868  -8.914  0.00  0.00    -0.019 A 
ATOM      8  C   LIG d   1       3.840  -4.475  -7.667  0.00  0.00     0.131 A 
ATOM      9  C   LIG d   1       4.303  -3.754  -6.561  0.00  0.00     0.103 A 
ATOM     10  C   LIG d   1       4.354  -4.378  -5.222  0.00  0.00     0.343 C 
ATOM     11  O   LIG d   1       4.162  -5.568  -5.069  0.00  0.00    -0.245 OA
ATOM     12  O   LIG d   1       4.625  -3.563  -4.172  0.00  0.00    -0.458 OA
ATOM     13  H   LIG d   1       4.427  -1.008  -5.160  0.00  0.00     0.035 H 
ATOM     14  H   LIG d   1       6.073  -1.035  -5.829  0.00  0.00     0.035 H 
ATOM     15  H   LIG d   1       5.025  -0.827  -8.088  0.00  0.00     0.062 H 
ATOM     16  H   LIG d   1       4.212  -2.095 -10.030  0.00  0.00     0.062 H 
ATOM     17  H   LIG d   1       3.453  -4.416  -9.774  0.00  0.00     0.065 H 
ENDROOT
BRANCH   1  18
ATOM     18  C   LIG d   1       5.928  -1.805  -3.136  0.00  0.00    -0.015 C 
ATOM     19  H   LIG d   1       6.298  -0.813  -3.396  0.00  0.00     0.030 H 
ATOM     20  H   LIG d   1       6.672  -2.323  -2.531  0.00  0.00     0.030 H 
BRANCH  18  21
ATOM     21  C   LIG d   1       4.628  -1.670  -2.340  0.00  0.00    -0.047 C 
ATOM     22  H   LIG d   1       4.658  -2.336  -1.478  0.00  0.00     0.027 H 
ATOM     23  H   LIG d   1       3.783  -1.937  -2.975  0.00  0.00     0.027 H 
BRANCH  21  24
ATOM     24  C   LIG d   1       4.469  -0.225  -1.862  0.00  0.00    -0.027 C 
ATOM     25  H   LIG d   1       5.395   0.321  -2.043  0.00  0.00     0.029 H 
ATOM     26  H   LIG d   1       4.246  -0.217  -0.796  0.00  0.00     0.029 H 
BRANCH  24  27
ATOM     27  C   LIG d   1       3.325   0.443  -2.627  0.00  0.00     0.052 C 
ATOM     28  H   LIG d   1       2.721   1.031  -1.937  0.00  0.00     0.059 H 
BRANCH  27  29
ATOM     29  C   LIG d   1       2.452  -0.631  -3.280  0.00  0.00    -0.039 C 
ATOM     30  H   LIG d   1       2.831  -1.618  -3.013  0.00  0.00     0.025 H 
ATOM     31  H   LIG d   1       1.426  -0.528  -2.930  0.00  0.00     0.025 H 
ATOM     32  H   LIG d   1       2.481  -0.513  -4.363  0.00  0.00     0.025 H 
ENDBRANCH  27  29
BRANCH  27  33
ATOM     33  O   LIG d   1       3.863   1.298  -3.638  0.00  0.00    -0.392 OA
ATOM     34  H   LIG d   1       4.820   1.219  -3.751  0.00  0.00     0.210 HD
ENDBRANCH  27  33
ENDBRANCH  24  27
ENDBRANCH  21  24
ENDBRANCH  18  21
ENDBRANCH   1  18
BRANCH   8  35
ATOM     35  O   LIG d   1       3.420  -5.757  -7.521  0.00  0.00    -0.506 OA
ATOM     36  H   LIG d   1       2.936  -6.102  -8.284  0.00  0.00     0.292 HD
ENDBRANCH   8  35
TORSDOF 7
ENDMDL
MODEL 8
REMARK VINA RESULT:      -5.5      2.086      6.013
REMARK  7 active torsions:
REMARK  status: ('A' for Active; 'I' for Inactive)
REMARK    1  A    between atoms: C_1  and  C_2 
REMARK    2  A    between atoms: C_2  and  C_4 
REMARK    3  A    between atoms: C_2  and  O_20 
REMARK    4  A    between atoms: C_4  and  C_5 
REMARK    5  A    between atoms: C_5  and  C_6 
REMARK    6  A    between atoms: C_6  and  C_7 
REMARK    7  A    between atoms: C_14  and  O_19 
ROOT
ATOM      1  C   LIG d   1       3.267   0.104  -5.325  0.00  0.00     0.107 C 
ATOM      2  H   LIG d   1       3.998   0.822  -4.954  0.00  0.00     0.074 H 
ATOM      3  C   LIG d   1       2.396   0.767  -6.392  0.00  0.00     0.011 C 
ATOM      4  C   LIG d   1       3.202   1.022  -7.638  0.00  0.00    -0.026 A 
ATOM      5  C   LIG d   1       2.786   1.970  -8.549  0.00  0.00    -0.057 A 
ATOM      6  C   LIG d   1       3.525   2.205  -9.697  0.00  0.00    -0.058 A 
ATOM      7  C   LIG d   1       4.683   1.495  -9.946  0.00  0.00    -0.019 A 
ATOM      8  C   LIG d   1       5.118   0.538  -9.039  0.00  0.00     0.131 A 
ATOM      9  C   LIG d   1       4.374   0.301  -7.879  0.00  0.00     0.103 A 
ATOM     10  C   LIG d   1       4.818  -0.706  -6.892  0.00  0.00     0.343 C 
ATOM     11  O   LIG d   1       5.911  -1.230  -6.968  0.00  0.00    -0.245 OA
ATOM     12  O   LIG d   1       3.949  -1.020  -5.897  0.00  0.00    -0.458 OA
ATOM     13  H   LIG d   1       1.558   0.113  -6.632  0.00  0.00     0.035 H 
ATOM     14  H   LIG d   1       2.014   1.714  -6.009  0.00  0.00     0.035 H 
ATOM     15  H   LIG d   1       1.882   2.531  -8.367  0.00  0.00     0.062 H 
ATOM     16  H   LIG d   1       3.191   2.949 -10.405  0.00  0.00     0.062 H 
ATOM     17  H   LIG d   1       5.250   1.685 -10.846  0.00  0.00     0.065 H 
ENDROOT
BRANCH   1  18
ATOM     18  C   LIG d   1       2.385  -0.370  -4.168  0.00  0.00    -0.015 C 
ATOM     19  H   LIG d   1       2.092  -1.406  -4.335  0.00  0.00     0.030 H 
ATOM     20  H   LIG d   1       1.493   0.255  -4.111  0.00  0.00     0.030 H 
BRANCH  18  21
ATOM     21  C   LIG d   1       3.165  -0.266  -2.856  0.00  0.00    -0.047 C 
ATOM     22  H   LIG d   1       2.496   0.062  -2.060  0.00  0.00     0.027 H 
ATOM     23  H   LIG d   1       3.974   0.455  -2.970  0.00  0.00     0.027 H 
BRANCH  21  24
ATOM     24  C   LIG d   1       3.749  -1.635  -2.500  0.00  0.00    -0.027 C 
ATOM     25  H   LIG d   1       3.310  -2.396  -3.145  0.00  0.00     0.029 H 
ATOM     26  H   LIG d   1       3.523  -1.867  -1.459  0.00  0.00     0.029 H 
BRANCH  24  27
ATOM     27  C   LIG d   1       5.265  -1.610  -2.699  0.00  0.00     0.052 C 
ATOM     28  H   LIG d   1       5.749  -2.124  -1.869  0.00  0.00     0.059 H 
BRANCH  27  29
ATOM     29  C   LIG d   1       5.749  -0.160  -2.753  0.00  0.00    -0.039 C 
ATOM     30  H   LIG d   1       5.048   0.478  -2.214  0.00  0.00     0.025 H 
ATOM     31  H   LIG d   1       6.734  -0.088  -2.292  0.00  0.00     0.025 H 
ATOM     32  H   LIG d   1       5.809   0.164  -3.792  0.00  0.00     0.025 H 
ENDBRANCH  27  29
BRANCH  27  33
ATOM     33  O   LIG d   1       5.596  -2.268  -3.924  0.00  0.00    -0.392 OA
ATOM     34  H   LIG d   1       4.828  -2.499  -4.466  0.00  0.00     0.210 HD
ENDBRANCH  27  33
ENDBRANCH  24  27
ENDBRANCH  21  24
ENDBRANCH  18  21
ENDBRANCH   1  18
BRANCH   8  35
ATOM     35  O   LIG d   1       6.255  -0.163  -9.279  0.00  0.00    -0.506 OA
ATOM     36  H   LIG d   1       6.585  -0.079 -10.184  0.00  0.00     0.292 HD
ENDBRANCH   8  35
TORSDOF 7
ENDMDL
MODEL 9
REMARK VINA RESULT:      -5.4      4.914      6.180
REMARK  7 active torsions:
REMARK  status: ('A' for Active; 'I' for Inactive)
REMARK    1  A    between atoms: C_1  and  C_2 
REMARK    2  A    between atoms: C_2  and  C_4 
REMARK    3  A    between atoms: C_2  and  O_20 
REMARK    4  A    between atoms: C_4  and  C_5 
REMARK    5  A    between atoms: C_5  and  C_6 
REMARK    6  A    between atoms: C_6  and  C_7 
REMARK    7  A    between atoms: C_14  and  O_19 
ROOT
ATOM      1  C   LIG d   1       7.539   0.389  -4.553  0.00  0.00     0.107 C 
ATOM      2  H   LIG d   1       7.056   0.419  -5.530  0.00  0.00     0.074 H 
ATOM      3  C   LIG d   1       6.660   1.103  -3.527  0.00  0.00     0.011 C 
ATOM      4  C   LIG d   1       5.417   0.298  -3.255  0.00  0.00    -0.026 A 
ATOM      5  C   LIG d   1       4.300   0.908  -2.723  0.00  0.00    -0.057 A 
ATOM      6  C   LIG d   1       3.156   0.169  -2.469  0.00  0.00    -0.058 A 
ATOM      7  C   LIG d   1       3.118  -1.184  -2.743  0.00  0.00    -0.019 A 
ATOM      8  C   LIG d   1       4.232  -1.814  -3.279  0.00  0.00     0.131 A 
ATOM      9  C   LIG d   1       5.387  -1.070  -3.537  0.00  0.00     0.103 A 
ATOM     10  C   LIG d   1       6.585  -1.714  -4.116  0.00  0.00     0.343 C 
ATOM     11  O   LIG d   1       6.551  -2.852  -4.540  0.00  0.00    -0.245 OA
ATOM     12  O   LIG d   1       7.724  -0.977  -4.154  0.00  0.00    -0.458 OA
ATOM     13  H   LIG d   1       7.218   1.230  -2.599  0.00  0.00     0.035 H 
ATOM     14  H   LIG d   1       6.378   2.083  -3.913  0.00  0.00     0.035 H 
ATOM     15  H   LIG d   1       4.318   1.965  -2.504  0.00  0.00     0.062 H 
ATOM     16  H   LIG d   1       2.287   0.656  -2.053  0.00  0.00     0.062 H 
ATOM     17  H   LIG d   1       2.221  -1.751  -2.539  0.00  0.00     0.065 H 
ENDROOT
BRANCH   1  18
ATOM     18  C   LIG d   1       8.898   1.085  -4.635  0.00  0.00    -0.015 C 
ATOM     19  H   LIG d   1       9.035   1.501  -5.632  0.00  0.00     0.030 H 
ATOM     20  H   LIG d   1       9.689   0.364  -4.430  0.00  0.00     0.030 H 
BRANCH  18  21
ATOM     21  C   LIG d   1       8.957   2.212  -3.601  0.00  0.00    -0.047 C 
ATOM     22  H   LIG d   1       8.902   1.789  -2.598  0.00  0.00     0.027 H 
ATOM     23  H   LIG d   1       8.117   2.890  -3.755  0.00  0.00     0.027 H 
BRANCH  21  24
ATOM     24  C   LIG d   1      10.269   2.982  -3.758  0.00  0.00    -0.027 C 
ATOM     25  H   LIG d   1      10.327   3.400  -4.763  0.00  0.00     0.029 H 
ATOM     26  H   LIG d   1      11.109   2.305  -3.599  0.00  0.00     0.029 H 
BRANCH  24  27
ATOM     27  C   LIG d   1      10.325   4.113  -2.731  0.00  0.00     0.052 C 
ATOM     28  H   LIG d   1       9.311   4.389  -2.440  0.00  0.00     0.059 H 
BRANCH  27  29
ATOM     29  C   LIG d   1      11.028   5.326  -3.344  0.00  0.00    -0.039 C 
ATOM     30  H   LIG d   1      12.036   5.045  -3.649  0.00  0.00     0.025 H 
ATOM     31  H   LIG d   1      10.467   5.670  -4.213  0.00  0.00     0.025 H 
ATOM     32  H   LIG d   1      11.081   6.126  -2.606  0.00  0.00     0.025 H 
ENDBRANCH  27  29
BRANCH  27  33
ATOM     33  O   LIG d   1      11.049   3.675  -1.579  0.00  0.00    -0.392 OA
ATOM     34  H   LIG d   1      11.872   4.158  -1.425  0.00  0.00     0.210 HD
ENDBRANCH  27  33
ENDBRANCH  24  27
ENDBRANCH  21  24
ENDBRANCH  18  21
ENDBRANCH   1  18
BRANCH   8  35
ATOM     35  O   LIG d   1       4.200  -3.144  -3.549  0.00  0.00    -0.506 OA
ATOM     36  H   LIG d   1       3.378  -3.580  -3.284  0.00  0.00     0.292 HD
ENDBRANCH   8  35
TORSDOF 7
ENDMDL
