MODEL 1
REMARK VINA RESULT:      -7.7      0.000      0.000
REMARK  12 active torsions:
REMARK  status: ('A' for Active; 'I' for Inactive)
REMARK    1  A    between atoms: C_1  and  C_2 
REMARK    2  A    between atoms: C_2  and  C_3 
REMARK    3  A    between atoms: C_12  and  O_15 
REMARK    4  A    between atoms: C_13  and  C_14 
REMARK    5  A    between atoms: O_15  and  C_16 
REMARK    6  A    between atoms: C_16  and  C_18 
REMARK    7  A    between atoms: C_18  and  C_20 
REMARK    8  A    between atoms: C_18  and  N_31 
REMARK    9  A    between atoms: C_20  and  C_21 
REMARK   10  A    between atoms: N_31  and  S_32 
REMARK   11  A    between atoms: S_32  and  C_35 
REMARK   12  A    between atoms: C_38  and  C_41 
ROOT
ATOM      1  C   LIG d   1      10.030   3.301  -5.701  0.00  0.00     0.130 C 
ATOM      2  H   LIG d   1      10.943   2.969  -5.206  0.00  0.00     0.060 H 
ENDROOT
BRANCH   1   3
ATOM      3  C   LIG d   1       9.257   2.101  -6.184  0.00  0.00     0.332 C 
ATOM      4  O   LIG d   1       8.520   2.201  -7.137  0.00  0.00    -0.249 OA
BRANCH   3   5
ATOM      5  O   LIG d   1       9.386   0.921  -5.557  0.00  0.00    -0.424 OA
BRANCH   5   6
ATOM      6  C   LIG d   1       8.300   0.418  -4.915  0.00  0.00     0.138 A 
ATOM      7  C   LIG d   1       7.720   1.137  -3.872  0.00  0.00    -0.018 A 
ATOM      8  C   LIG d   1       6.628   0.646  -3.216  0.00  0.00    -0.047 A 
ATOM      9  H   LIG d   1       8.136   2.090  -3.580  0.00  0.00     0.066 H 
ATOM     10  C   LIG d   1       6.088  -0.589  -3.594  0.00  0.00     0.021 A 
ATOM     11  H   LIG d   1       6.182   1.207  -2.409  0.00  0.00     0.063 H 
ATOM     12  C   LIG d   1       4.917  -1.140  -2.909  0.00  0.00    -0.030 A 
ATOM     13  C   LIG d   1       6.673  -1.322  -4.644  0.00  0.00     0.146 A 
ATOM     14  C   LIG d   1       4.436  -2.341  -3.326  0.00  0.00     0.027 A 
ATOM     15  C   LIG d   1       5.070  -3.020  -4.388  0.00  0.00     0.338 A 
ATOM     16  H   LIG d   1       3.572  -2.774  -2.845  0.00  0.00     0.069 H 
ATOM     17  O   LIG d   1       4.628  -4.095  -4.751  0.00  0.00    -0.245 OA
ATOM     18  O   LIG d   1       6.146  -2.511  -5.009  0.00  0.00    -0.422 OA
ATOM     19  C   LIG d   1       7.785  -0.811  -5.295  0.00  0.00     0.035 A 
BRANCH  12  20
ATOM     20  C   LIG d   1       4.260  -0.395  -1.777  0.00  0.00    -0.030 C 
ATOM     21  H   LIG d   1       5.026   0.044  -1.137  0.00  0.00     0.031 H 
ATOM     22  H   LIG d   1       3.651  -1.085  -1.192  0.00  0.00     0.031 H 
BRANCH  20  23
ATOM     23  C   LIG d   1       3.373   0.715  -2.344  0.00  0.00    -0.061 C 
ATOM     24  H   LIG d   1       3.322   1.539  -1.632  0.00  0.00     0.023 H 
ATOM     25  H   LIG d   1       3.793   1.072  -3.284  0.00  0.00     0.023 H 
ATOM     26  H   LIG d   1       2.369   0.325  -2.519  0.00  0.00     0.023 H 
ENDBRANCH  20  23
ENDBRANCH  12  20
BRANCH  19  27
ATOM     27  C   LIG d   1       8.420  -1.581  -6.423  0.00  0.00    -0.033 C 
ATOM     28  H   LIG d   1       8.505  -2.631  -6.144  0.00  0.00     0.028 H 
ATOM     29  H   LIG d   1       7.801  -1.491  -7.316  0.00  0.00     0.028 H 
ATOM     30  H   LIG d   1       9.412  -1.177  -6.627  0.00  0.00     0.028 H 
ENDBRANCH  19  27
ENDBRANCH   5   6
ENDBRANCH   3   5
ENDBRANCH   1   3
BRANCH   1  31
ATOM     31  C   LIG d   1       9.173   4.095  -4.713  0.00  0.00     0.002 C 
ATOM     32  H   LIG d   1       8.973   5.085  -5.121  0.00  0.00     0.034 H 
ATOM     33  H   LIG d   1       8.232   3.572  -4.547  0.00  0.00     0.034 H 
BRANCH  31  34
ATOM     34  C   LIG d   1       9.910   4.232  -3.405  0.00  0.00    -0.020 A 
ATOM     35  C   LIG d   1       9.936   5.411  -2.538  0.00  0.00     0.003 A 
ATOM     36  C   LIG d   1      10.745   5.069  -1.440  0.00  0.00     0.047 A 
ATOM     37  C   LIG d   1       9.354   6.679  -2.606  0.00  0.00    -0.052 A 
ATOM     38  N   LIG d   1      11.181   3.779  -1.642  0.00  0.00    -0.360 N 
ATOM     39  C   LIG d   1      10.954   6.003  -0.430  0.00  0.00    -0.038 A 
ATOM     40  C   LIG d   1      10.674   3.297  -2.818  0.00  0.00     0.006 A 
ATOM     41  H   LIG d   1      11.760   3.285  -1.041  0.00  0.00     0.165 HD
ATOM     42  H   LIG d   1      10.859   2.309  -3.214  0.00  0.00     0.081 H 
ATOM     43  C   LIG d   1      10.377   7.251  -0.523  0.00  0.00    -0.060 A 
ATOM     44  H   LIG d   1      11.577   5.756   0.418  0.00  0.00     0.064 H 
ATOM     45  C   LIG d   1       9.576   7.583  -1.606  0.00  0.00    -0.061 A 
ATOM     46  H   LIG d   1      10.545   7.977   0.260  0.00  0.00     0.062 H 
ATOM     47  H   LIG d   1       9.125   8.563  -1.659  0.00  0.00     0.062 H 
ATOM     48  H   LIG d   1       8.730   6.943  -3.447  0.00  0.00     0.062 H 
ENDBRANCH  31  34
ENDBRANCH   1  31
BRANCH   1  49
ATOM     49  N   LIG d   1      10.376   4.152  -6.842  0.00  0.00    -0.176 N 
ATOM     50  H   LIG d   1       9.860   4.097  -7.662  0.00  0.00     0.149 HD
BRANCH  49  51
ATOM     51  S   LIG d   1      11.647   5.207  -6.733  0.00  0.00     0.059 S 
ATOM     52  O   LIG d   1      12.495   4.715  -5.703  0.00  0.00    -0.153 OA
ATOM     53  O   LIG d   1      12.109   5.426  -8.059  0.00  0.00    -0.153 OA
BRANCH  51  54
ATOM     54  C   LIG d   1      11.002   6.744  -6.163  0.00  0.00     0.105 A 
ATOM     55  C   LIG d   1       9.738   7.148  -6.550  0.00  0.00    -0.035 A 
ATOM     56  C   LIG d   1       9.229   8.353  -6.099  0.00  0.00    -0.057 A 
ATOM     57  H   LIG d   1       9.146   6.522  -7.201  0.00  0.00     0.064 H 
ATOM     58  C   LIG d   1       9.989   9.156  -5.270  0.00  0.00    -0.050 A 
ATOM     59  H   LIG d   1       8.240   8.666  -6.398  0.00  0.00     0.062 H 
ATOM     60  C   LIG d   1      11.255   8.754  -4.887  0.00  0.00    -0.057 A 
ATOM     61  C   LIG d   1      11.761   7.549  -5.334  0.00  0.00    -0.035 A 
ATOM     62  H   LIG d   1      11.848   9.382  -4.239  0.00  0.00     0.062 H 
ATOM     63  H   LIG d   1      12.751   7.234  -5.035  0.00  0.00     0.064 H 
BRANCH  58  64
ATOM     64  C   LIG d   1       9.437  10.470  -4.782  0.00  0.00    -0.040 C 
ATOM     65  H   LIG d   1       9.839  11.282  -5.388  0.00  0.00     0.028 H 
ATOM     66  H   LIG d   1       8.349  10.461  -4.864  0.00  0.00     0.028 H 
ATOM     67  H   LIG d   1       9.720  10.620  -3.740  0.00  0.00     0.028 H 
ENDBRANCH  58  64
ENDBRANCH  51  54
ENDBRANCH  49  51
ENDBRANCH   1  49
TORSDOF 12
ENDMDL
MODEL 2
REMARK VINA RESULT:      -7.5      4.476      9.207
REMARK  12 active torsions:
REMARK  status: ('A' for Active; 'I' for Inactive)
REMARK    1  A    between atoms: C_1  and  C_2 
REMARK    2  A    between atoms: C_2  and  C_3 
REMARK    3  A    between atoms: C_12  and  O_15 
REMARK    4  A    between atoms: C_13  and  C_14 
REMARK    5  A    between atoms: O_15  and  C_16 
REMARK    6  A    between atoms: C_16  and  C_18 
REMARK    7  A    between atoms: C_18  and  C_20 
REMARK    8  A    between atoms: C_18  and  N_31 
REMARK    9  A    between atoms: C_20  and  C_21 
REMARK   10  A    between atoms: N_31  and  S_32 
REMARK   11  A    between atoms: S_32  and  C_35 
REMARK   12  A    between atoms: C_38  and  C_41 
ROOT
ATOM      1  C   LIG d   1       4.778  -2.433  -5.500  0.00  0.00     0.130 C 
ATOM      2  H   LIG d   1       5.731  -2.439  -6.030  0.00  0.00     0.060 H 
ENDROOT
BRANCH   1   3
ATOM      3  C   LIG d   1       5.026  -2.584  -4.021  0.00  0.00     0.332 C 
ATOM      4  O   LIG d   1       4.098  -2.778  -3.270  0.00  0.00    -0.249 OA
BRANCH   3   5
ATOM      5  O   LIG d   1       6.275  -2.504  -3.537  0.00  0.00    -0.424 OA
BRANCH   5   6
ATOM      6  C   LIG d   1       7.018  -1.415  -3.866  0.00  0.00     0.138 A 
ATOM      7  C   LIG d   1       6.623  -0.152  -3.431  0.00  0.00    -0.018 A 
ATOM      8  C   LIG d   1       7.358   0.952  -3.752  0.00  0.00    -0.047 A 
ATOM      9  H   LIG d   1       5.728  -0.046  -2.834  0.00  0.00     0.066 H 
ATOM     10  C   LIG d   1       8.517   0.814  -4.524  0.00  0.00     0.021 A 
ATOM     11  H   LIG d   1       7.047   1.928  -3.411  0.00  0.00     0.063 H 
ATOM     12  C   LIG d   1       9.326   1.981  -4.884  0.00  0.00    -0.030 A 
ATOM     13  C   LIG d   1       8.919  -0.459  -4.971  0.00  0.00     0.146 A 
ATOM     14  C   LIG d   1      10.443   1.781  -5.630  0.00  0.00     0.027 A 
ATOM     15  C   LIG d   1      10.789   0.477  -6.041  0.00  0.00     0.338 A 
ATOM     16  H   LIG d   1      11.064   2.619  -5.910  0.00  0.00     0.069 H 
ATOM     17  O   LIG d   1      11.793   0.312  -6.710  0.00  0.00    -0.245 OA
ATOM     18  O   LIG d   1      10.040  -0.588  -5.712  0.00  0.00    -0.422 OA
ATOM     19  C   LIG d   1       8.156  -1.569  -4.640  0.00  0.00     0.035 A 
BRANCH  12  20
ATOM     20  C   LIG d   1       8.934   3.364  -4.433  0.00  0.00    -0.030 C 
ATOM     21  H   LIG d   1       7.874   3.376  -4.178  0.00  0.00     0.031 H 
ATOM     22  H   LIG d   1       9.122   4.075  -5.237  0.00  0.00     0.031 H 
BRANCH  20  23
ATOM     23  C   LIG d   1       9.758   3.753  -3.204  0.00  0.00    -0.061 C 
ATOM     24  H   LIG d   1       9.855   4.838  -3.161  0.00  0.00     0.023 H 
ATOM     25  H   LIG d   1       9.259   3.396  -2.304  0.00  0.00     0.023 H 
ATOM     26  H   LIG d   1      10.749   3.302  -3.273  0.00  0.00     0.023 H 
ENDBRANCH  20  23
ENDBRANCH  12  20
BRANCH  19  27
ATOM     27  C   LIG d   1       8.575  -2.939  -5.107  0.00  0.00    -0.033 C 
ATOM     28  H   LIG d   1       9.568  -2.883  -5.552  0.00  0.00     0.028 H 
ATOM     29  H   LIG d   1       8.597  -3.620  -4.256  0.00  0.00     0.028 H 
ATOM     30  H   LIG d   1       7.864  -3.304  -5.847  0.00  0.00     0.028 H 
ENDBRANCH  19  27
ENDBRANCH   5   6
ENDBRANCH   3   5
ENDBRANCH   1   3
BRANCH   1  31
ATOM     31  C   LIG d   1       4.056  -1.110  -5.763  0.00  0.00     0.002 C 
ATOM     32  H   LIG d   1       3.029  -1.311  -6.064  0.00  0.00     0.034 H 
ATOM     33  H   LIG d   1       4.058  -0.508  -4.854  0.00  0.00     0.034 H 
BRANCH  31  34
ATOM     34  C   LIG d   1       4.764  -0.361  -6.863  0.00  0.00    -0.020 A 
ATOM     35  C   LIG d   1       4.158   0.581  -7.806  0.00  0.00     0.003 A 
ATOM     36  C   LIG d   1       5.201   1.025  -8.638  0.00  0.00     0.047 A 
ATOM     37  C   LIG d   1       2.862   1.065  -7.997  0.00  0.00    -0.052 A 
ATOM     38  N   LIG d   1       6.349   0.384  -8.227  0.00  0.00    -0.360 N 
ATOM     39  C   LIG d   1       4.927   1.946  -9.644  0.00  0.00    -0.038 A 
ATOM     40  C   LIG d   1       6.068  -0.438  -7.170  0.00  0.00     0.006 A 
ATOM     41  H   LIG d   1       7.225   0.497  -8.628  0.00  0.00     0.165 HD
ATOM     42  H   LIG d   1       6.791  -1.056  -6.656  0.00  0.00     0.081 H 
ATOM     43  C   LIG d   1       3.639   2.403  -9.820  0.00  0.00    -0.060 A 
ATOM     44  H   LIG d   1       5.719   2.292 -10.293  0.00  0.00     0.064 H 
ATOM     45  C   LIG d   1       2.613   1.966  -8.994  0.00  0.00    -0.061 A 
ATOM     46  H   LIG d   1       3.427   3.114 -10.605  0.00  0.00     0.062 H 
ATOM     47  H   LIG d   1       1.611   2.340  -9.140  0.00  0.00     0.062 H 
ATOM     48  H   LIG d   1       2.059   0.729  -7.358  0.00  0.00     0.062 H 
ENDBRANCH  31  34
ENDBRANCH   1  31
BRANCH   1  49
ATOM     49  N   LIG d   1       3.948  -3.544  -5.973  0.00  0.00    -0.176 N 
ATOM     50  H   LIG d   1       3.145  -3.789  -5.489  0.00  0.00     0.149 HD
BRANCH  49  51
ATOM     51  S   LIG d   1       4.385  -4.382  -7.333  0.00  0.00     0.059 S 
ATOM     52  O   LIG d   1       5.782  -4.622  -7.231  0.00  0.00    -0.153 OA
ATOM     53  O   LIG d   1       3.440  -5.433  -7.483  0.00  0.00    -0.153 OA
BRANCH  51  54
ATOM     54  C   LIG d   1       4.158  -3.301  -8.706  0.00  0.00     0.105 A 
ATOM     55  C   LIG d   1       2.905  -2.787  -8.981  0.00  0.00    -0.035 A 
ATOM     56  C   LIG d   1       2.727  -1.934 -10.055  0.00  0.00    -0.057 A 
ATOM     57  H   LIG d   1       2.064  -3.047  -8.354  0.00  0.00     0.064 H 
ATOM     58  C   LIG d   1       3.802  -1.605 -10.860  0.00  0.00    -0.050 A 
ATOM     59  H   LIG d   1       1.749  -1.529 -10.267  0.00  0.00     0.062 H 
ATOM     60  C   LIG d   1       5.054  -2.122 -10.588  0.00  0.00    -0.057 A 
ATOM     61  C   LIG d   1       5.232  -2.971  -9.511  0.00  0.00    -0.035 A 
ATOM     62  H   LIG d   1       5.893  -1.864 -11.217  0.00  0.00     0.062 H 
ATOM     63  H   LIG d   1       6.211  -3.376  -9.298  0.00  0.00     0.064 H 
BRANCH  58  64
ATOM     64  C   LIG d   1       3.608  -0.679 -12.033  0.00  0.00    -0.040 C 
ATOM     65  H   LIG d   1       2.549  -0.442 -12.138  0.00  0.00     0.028 H 
ATOM     66  H   LIG d   1       4.171   0.240 -11.868  0.00  0.00     0.028 H 
ATOM     67  H   LIG d   1       3.964  -1.164 -12.942  0.00  0.00     0.028 H 
ENDBRANCH  58  64
ENDBRANCH  51  54
ENDBRANCH  49  51
ENDBRANCH   1  49
TORSDOF 12
ENDMDL
MODEL 3
REMARK VINA RESULT:      -7.5      6.400      9.646
REMARK  12 active torsions:
REMARK  status: ('A' for Active; 'I' for Inactive)
REMARK    1  A    between atoms: C_1  and  C_2 
REMARK    2  A    between atoms: C_2  and  C_3 
REMARK    3  A    between atoms: C_12  and  O_15 
REMARK    4  A    between atoms: C_13  and  C_14 
REMARK    5  A    between atoms: O_15  and  C_16 
REMARK    6  A    between atoms: C_16  and  C_18 
REMARK    7  A    between atoms: C_18  and  C_20 
REMARK    8  A    between atoms: C_18  and  N_31 
REMARK    9  A    between atoms: C_20  and  C_21 
REMARK   10  A    between atoms: N_31  and  S_32 
REMARK   11  A    between atoms: S_32  and  C_35 
REMARK   12  A    between atoms: C_38  and  C_41 
ROOT
ATOM      1  C   LIG d   1       4.976  -3.679  -5.872  0.00  0.00     0.130 C 
ATOM      2  H   LIG d   1       5.950  -3.447  -6.301  0.00  0.00     0.060 H 
ENDROOT
BRANCH   1   3
ATOM      3  C   LIG d   1       4.517  -5.027  -6.368  0.00  0.00     0.332 C 
ATOM      4  O   LIG d   1       3.340  -5.304  -6.360  0.00  0.00    -0.249 OA
BRANCH   3   5
ATOM      5  O   LIG d   1       5.413  -5.918  -6.818  0.00  0.00    -0.424 OA
BRANCH   5   6
ATOM      6  C   LIG d   1       5.840  -6.882  -5.962  0.00  0.00     0.138 A 
ATOM      7  C   LIG d   1       4.973  -7.908  -5.589  0.00  0.00    -0.018 A 
ATOM      8  C   LIG d   1       5.387  -8.885  -4.730  0.00  0.00    -0.047 A 
ATOM      9  H   LIG d   1       3.968  -7.931  -5.984  0.00  0.00     0.066 H 
ATOM     10  C   LIG d   1       6.689  -8.855  -4.220  0.00  0.00     0.021 A 
ATOM     11  H   LIG d   1       4.711  -9.678  -4.446  0.00  0.00     0.063 H 
ATOM     12  C   LIG d   1       7.160  -9.890  -3.297  0.00  0.00    -0.030 A 
ATOM     13  C   LIG d   1       7.568  -7.819  -4.588  0.00  0.00     0.146 A 
ATOM     14  C   LIG d   1       8.437  -9.810  -2.840  0.00  0.00     0.027 A 
ATOM     15  C   LIG d   1       9.264  -8.745  -3.254  0.00  0.00     0.338 A 
ATOM     16  H   LIG d   1       8.817 -10.559  -2.161  0.00  0.00     0.069 H 
ATOM     17  O   LIG d   1      10.407  -8.685  -2.837  0.00  0.00    -0.245 OA
ATOM     18  O   LIG d   1       8.825  -7.797  -4.097  0.00  0.00    -0.422 OA
ATOM     19  C   LIG d   1       7.129  -6.832  -5.457  0.00  0.00     0.035 A 
BRANCH  12  20
ATOM     20  C   LIG d   1       6.255 -11.017  -2.869  0.00  0.00    -0.030 C 
ATOM     21  H   LIG d   1       6.704 -11.970  -3.149  0.00  0.00     0.031 H 
ATOM     22  H   LIG d   1       5.288 -10.913  -3.361  0.00  0.00     0.031 H 
BRANCH  20  23
ATOM     23  C   LIG d   1       6.063 -10.969  -1.352  0.00  0.00    -0.061 C 
ATOM     24  H   LIG d   1       5.984 -11.985  -0.964  0.00  0.00     0.023 H 
ATOM     25  H   LIG d   1       6.917 -10.470  -0.893  0.00  0.00     0.023 H 
ATOM     26  H   LIG d   1       5.151 -10.419  -1.118  0.00  0.00     0.023 H 
ENDBRANCH  20  23
ENDBRANCH  12  20
BRANCH  19  27
ATOM     27  C   LIG d   1       8.058  -5.718  -5.865  0.00  0.00    -0.033 C 
ATOM     28  H   LIG d   1       7.627  -5.174  -6.706  0.00  0.00     0.028 H 
ATOM     29  H   LIG d   1       8.199  -5.037  -5.026  0.00  0.00     0.028 H 
ATOM     30  H   LIG d   1       9.021  -6.137  -6.159  0.00  0.00     0.028 H 
ENDBRANCH  19  27
ENDBRANCH   5   6
ENDBRANCH   3   5
ENDBRANCH   1   3
BRANCH   1  31
ATOM     31  C   LIG d   1       5.083  -3.708  -4.346  0.00  0.00     0.002 C 
ATOM     32  H   LIG d   1       4.094  -3.856  -3.915  0.00  0.00     0.034 H 
ATOM     33  H   LIG d   1       5.739  -4.524  -4.043  0.00  0.00     0.034 H 
BRANCH  31  34
ATOM     34  C   LIG d   1       5.651  -2.400  -3.858  0.00  0.00    -0.020 A 
ATOM     35  C   LIG d   1       4.898  -1.277  -3.296  0.00  0.00     0.003 A 
ATOM     36  C   LIG d   1       5.847  -0.288  -2.983  0.00  0.00     0.047 A 
ATOM     37  C   LIG d   1       3.544  -1.048  -3.042  0.00  0.00    -0.052 A 
ATOM     38  N   LIG d   1       7.082  -0.781  -3.343  0.00  0.00    -0.360 N 
ATOM     39  C   LIG d   1       5.423   0.911  -2.421  0.00  0.00    -0.038 A 
ATOM     40  C   LIG d   1       6.945  -2.040  -3.862  0.00  0.00     0.006 A 
ATOM     41  H   LIG d   1       7.922  -0.308  -3.244  0.00  0.00     0.165 HD
ATOM     42  H   LIG d   1       7.758  -2.654  -4.221  0.00  0.00     0.081 H 
ATOM     43  C   LIG d   1       4.081   1.120  -2.187  0.00  0.00    -0.060 A 
ATOM     44  H   LIG d   1       6.141   1.682  -2.179  0.00  0.00     0.064 H 
ATOM     45  C   LIG d   1       3.147   0.139  -2.493  0.00  0.00    -0.061 A 
ATOM     46  H   LIG d   1       3.752   2.054  -1.754  0.00  0.00     0.062 H 
ATOM     47  H   LIG d   1       2.101   0.316  -2.296  0.00  0.00     0.062 H 
ATOM     48  H   LIG d   1       2.812  -1.806  -3.278  0.00  0.00     0.062 H 
ENDBRANCH  31  34
ENDBRANCH   1  31
BRANCH   1  49
ATOM     49  N   LIG d   1       4.008  -2.655  -6.274  0.00  0.00    -0.176 N 
ATOM     50  H   LIG d   1       3.097  -2.693  -5.945  0.00  0.00     0.149 HD
BRANCH  49  51
ATOM     51  S   LIG d   1       4.472  -1.433  -7.291  0.00  0.00     0.059 S 
ATOM     52  O   LIG d   1       4.241  -0.216  -6.595  0.00  0.00    -0.153 OA
ATOM     53  O   LIG d   1       5.751  -1.790  -7.798  0.00  0.00    -0.153 OA
BRANCH  51  54
ATOM     54  C   LIG d   1       3.365  -1.447  -8.662  0.00  0.00     0.105 A 
ATOM     55  C   LIG d   1       2.564  -0.350  -8.914  0.00  0.00    -0.035 A 
ATOM     56  C   LIG d   1       1.698  -0.358  -9.992  0.00  0.00    -0.057 A 
ATOM     57  H   LIG d   1       2.616   0.517  -8.271  0.00  0.00     0.064 H 
ATOM     58  C   LIG d   1       1.628  -1.469 -10.812  0.00  0.00    -0.050 A 
ATOM     59  H   LIG d   1       1.076   0.501 -10.192  0.00  0.00     0.062 H 
ATOM     60  C   LIG d   1       2.425  -2.568 -10.557  0.00  0.00    -0.057 A 
ATOM     61  C   LIG d   1       3.293  -2.558  -9.482  0.00  0.00    -0.035 A 
ATOM     62  H   LIG d   1       2.370  -3.436 -11.198  0.00  0.00     0.062 H 
ATOM     63  H   LIG d   1       3.917  -3.417  -9.282  0.00  0.00     0.064 H 
BRANCH  58  64
ATOM     64  C   LIG d   1       0.682  -1.480 -11.985  0.00  0.00    -0.040 C 
ATOM     65  H   LIG d   1       1.073  -0.837 -12.774  0.00  0.00     0.028 H 
ATOM     66  H   LIG d   1       0.583  -2.498 -12.363  0.00  0.00     0.028 H 
ATOM     67  H   LIG d   1      -0.294  -1.114 -11.669  0.00  0.00     0.028 H 
ENDBRANCH  58  64
ENDBRANCH  51  54
ENDBRANCH  49  51
ENDBRANCH   1  49
TORSDOF 12
ENDMDL
MODEL 4
REMARK VINA RESULT:      -7.4      6.353      8.906
REMARK  12 active torsions:
REMARK  status: ('A' for Active; 'I' for Inactive)
REMARK    1  A    between atoms: C_1  and  C_2 
REMARK    2  A    between atoms: C_2  and  C_3 
REMARK    3  A    between atoms: C_12  and  O_15 
REMARK    4  A    between atoms: C_13  and  C_14 
REMARK    5  A    between atoms: O_15  and  C_16 
REMARK    6  A    between atoms: C_16  and  C_18 
REMARK    7  A    between atoms: C_18  and  C_20 
REMARK    8  A    between atoms: C_18  and  N_31 
REMARK    9  A    between atoms: C_20  and  C_21 
REMARK   10  A    between atoms: N_31  and  S_32 
REMARK   11  A    between atoms: S_32  and  C_35 
REMARK   12  A    between atoms: C_38  and  C_41 
ROOT
ATOM      1  C   LIG d   1       7.029  -3.686  -5.635  0.00  0.00     0.130 C 
ATOM      2  H   LIG d   1       7.750  -2.869  -5.604  0.00  0.00     0.060 H 
ENDROOT
BRANCH   1   3
ATOM      3  C   LIG d   1       7.736  -4.990  -5.365  0.00  0.00     0.332 C 
ATOM      4  O   LIG d   1       8.619  -5.038  -4.540  0.00  0.00    -0.249 OA
BRANCH   3   5
ATOM      5  O   LIG d   1       7.386  -6.096  -6.038  0.00  0.00    -0.424 OA
BRANCH   5   6
ATOM      6  C   LIG d   1       7.028  -7.193  -5.322  0.00  0.00     0.138 A 
ATOM      7  C   LIG d   1       7.999  -7.914  -4.630  0.00  0.00    -0.018 A 
ATOM      8  C   LIG d   1       7.656  -9.018  -3.905  0.00  0.00    -0.047 A 
ATOM      9  H   LIG d   1       9.031  -7.596  -4.668  0.00  0.00     0.066 H 
ATOM     10  C   LIG d   1       6.319  -9.429  -3.856  0.00  0.00     0.021 A 
ATOM     11  H   LIG d   1       8.413  -9.573  -3.371  0.00  0.00     0.063 H 
ATOM     12  C   LIG d   1       5.922 -10.610  -3.086  0.00  0.00    -0.030 A 
ATOM     13  C   LIG d   1       5.334  -8.708  -4.556  0.00  0.00     0.146 A 
ATOM     14  C   LIG d   1       4.608 -10.954  -3.073  0.00  0.00     0.027 A 
ATOM     15  C   LIG d   1       3.673 -10.184  -3.795  0.00  0.00     0.338 A 
ATOM     16  H   LIG d   1       4.280 -11.817  -2.512  0.00  0.00     0.069 H 
ATOM     17  O   LIG d   1       2.498 -10.504  -3.774  0.00  0.00    -0.245 OA
ATOM     18  O   LIG d   1       4.045  -9.105  -4.502  0.00  0.00    -0.422 OA
ATOM     19  C   LIG d   1       5.702  -7.592  -5.293  0.00  0.00     0.035 A 
BRANCH  12  20
ATOM     20  C   LIG d   1       6.941 -11.417  -2.324  0.00  0.00    -0.030 C 
ATOM     21  H   LIG d   1       7.933 -10.994  -2.484  0.00  0.00     0.031 H 
ATOM     22  H   LIG d   1       6.925 -12.448  -2.676  0.00  0.00     0.031 H 
BRANCH  20  23
ATOM     23  C   LIG d   1       6.607 -11.382  -0.832  0.00  0.00    -0.061 C 
ATOM     24  H   LIG d   1       7.529 -11.413  -0.252  0.00  0.00     0.023 H 
ATOM     25  H   LIG d   1       6.062 -10.466  -0.602  0.00  0.00     0.023 H 
ATOM     26  H   LIG d   1       5.990 -12.245  -0.577  0.00  0.00     0.023 H 
ENDBRANCH  20  23
ENDBRANCH  12  20
BRANCH  19  27
ATOM     27  C   LIG d   1       4.659  -6.806  -6.044  0.00  0.00    -0.033 C 
ATOM     28  H   LIG d   1       3.858  -7.475  -6.361  0.00  0.00     0.028 H 
ATOM     29  H   LIG d   1       4.250  -6.032  -5.394  0.00  0.00     0.028 H 
ATOM     30  H   LIG d   1       5.113  -6.343  -6.920  0.00  0.00     0.028 H 
ENDBRANCH  19  27
ENDBRANCH   5   6
ENDBRANCH   3   5
ENDBRANCH   1   3
BRANCH   1  31
ATOM     31  C   LIG d   1       5.954  -3.459  -4.571  0.00  0.00     0.002 C 
ATOM     32  H   LIG d   1       4.969  -3.506  -5.034  0.00  0.00     0.034 H 
ATOM     33  H   LIG d   1       6.033  -4.230  -3.804  0.00  0.00     0.034 H 
BRANCH  31  34
ATOM     34  C   LIG d   1       6.148  -2.103  -3.942  0.00  0.00    -0.020 A 
ATOM     35  C   LIG d   1       5.098  -1.224  -3.424  0.00  0.00     0.003 A 
ATOM     36  C   LIG d   1       5.754  -0.080  -2.936  0.00  0.00     0.047 A 
ATOM     37  C   LIG d   1       3.708  -1.319  -3.338  0.00  0.00    -0.052 A 
ATOM     38  N   LIG d   1       7.101  -0.258  -3.157  0.00  0.00    -0.360 N 
ATOM     39  C   LIG d   1       5.004   0.947  -2.370  0.00  0.00    -0.038 A 
ATOM     40  C   LIG d   1       7.317  -1.469  -3.757  0.00  0.00     0.006 A 
ATOM     41  H   LIG d   1       7.794   0.378  -2.922  0.00  0.00     0.165 HD
ATOM     42  H   LIG d   1       8.284  -1.858  -4.039  0.00  0.00     0.081 H 
ATOM     43  C   LIG d   1       3.632   0.835  -2.303  0.00  0.00    -0.060 A 
ATOM     44  H   LIG d   1       5.495   1.834  -1.995  0.00  0.00     0.064 H 
ATOM     45  C   LIG d   1       2.990  -0.298  -2.783  0.00  0.00    -0.061 A 
ATOM     46  H   LIG d   1       3.052   1.635  -1.868  0.00  0.00     0.062 H 
ATOM     47  H   LIG d   1       1.914  -0.372  -2.716  0.00  0.00     0.062 H 
ATOM     48  H   LIG d   1       3.201  -2.198  -3.709  0.00  0.00     0.062 H 
ENDBRANCH  31  34
ENDBRANCH   1  31
BRANCH   1  49
ATOM     49  N   LIG d   1       6.403  -3.735  -6.959  0.00  0.00    -0.176 N 
ATOM     50  H   LIG d   1       5.694  -4.373  -7.137  0.00  0.00     0.149 HD
BRANCH  49  51
ATOM     51  S   LIG d   1       6.906  -2.702  -8.151  0.00  0.00     0.059 S 
ATOM     52  O   LIG d   1       8.130  -2.134  -7.705  0.00  0.00    -0.153 OA
ATOM     53  O   LIG d   1       6.798  -3.413  -9.377  0.00  0.00    -0.153 OA
BRANCH  51  54
ATOM     54  C   LIG d   1       5.738  -1.385  -8.227  0.00  0.00     0.105 A 
ATOM     55  C   LIG d   1       5.796  -0.470  -9.261  0.00  0.00    -0.035 A 
ATOM     56  C   LIG d   1       4.876   0.561  -9.324  0.00  0.00    -0.057 A 
ATOM     57  H   LIG d   1       6.556  -0.561 -10.022  0.00  0.00     0.064 H 
ATOM     58  C   LIG d   1       3.906   0.681  -8.346  0.00  0.00    -0.050 A 
ATOM     59  H   LIG d   1       4.918   1.274 -10.134  0.00  0.00     0.062 H 
ATOM     60  C   LIG d   1       3.851  -0.232  -7.310  0.00  0.00    -0.057 A 
ATOM     61  C   LIG d   1       4.767  -1.265  -7.250  0.00  0.00    -0.035 A 
ATOM     62  H   LIG d   1       3.093  -0.138  -6.548  0.00  0.00     0.062 H 
ATOM     63  H   LIG d   1       4.725  -1.978  -6.440  0.00  0.00     0.064 H 
BRANCH  58  64
ATOM     64  C   LIG d   1       2.906   1.806  -8.412  0.00  0.00    -0.040 C 
ATOM     65  H   LIG d   1       2.305   1.813  -7.502  0.00  0.00     0.028 H 
ATOM     66  H   LIG d   1       3.433   2.756  -8.506  0.00  0.00     0.028 H 
ATOM     67  H   LIG d   1       2.256   1.665  -9.275  0.00  0.00     0.028 H 
ENDBRANCH  58  64
ENDBRANCH  51  54
ENDBRANCH  49  51
ENDBRANCH   1  49
TORSDOF 12
ENDMDL
MODEL 5
REMARK VINA RESULT:      -7.3      6.414      9.944
REMARK  12 active torsions:
REMARK  status: ('A' for Active; 'I' for Inactive)
REMARK    1  A    between atoms: C_1  and  C_2 
REMARK    2  A    between atoms: C_2  and  C_3 
REMARK    3  A    between atoms: C_12  and  O_15 
REMARK    4  A    between atoms: C_13  and  C_14 
REMARK    5  A    between atoms: O_15  and  C_16 
REMARK    6  A    between atoms: C_16  and  C_18 
REMARK    7  A    between atoms: C_18  and  C_20 
REMARK    8  A    between atoms: C_18  and  N_31 
REMARK    9  A    between atoms: C_20  and  C_21 
REMARK   10  A    between atoms: N_31  and  S_32 
REMARK   11  A    between atoms: S_32  and  C_35 
REMARK   12  A    between atoms: C_38  and  C_41 
ROOT
ATOM      1  C   LIG d   1       4.977  -3.686  -5.911  0.00  0.00     0.130 C 
ATOM      2  H   LIG d   1       5.943  -3.503  -6.383  0.00  0.00     0.060 H 
ENDROOT
BRANCH   1   3
ATOM      3  C   LIG d   1       4.418  -4.996  -6.404  0.00  0.00     0.332 C 
ATOM      4  O   LIG d   1       3.245  -5.245  -6.254  0.00  0.00    -0.249 OA
BRANCH   3   5
ATOM      5  O   LIG d   1       5.221  -5.884  -7.009  0.00  0.00    -0.424 OA
BRANCH   5   6
ATOM      6  C   LIG d   1       5.333  -7.121  -6.459  0.00  0.00     0.138 A 
ATOM      7  C   LIG d   1       6.064  -7.292  -5.285  0.00  0.00    -0.018 A 
ATOM      8  C   LIG d   1       6.186  -8.528  -4.719  0.00  0.00    -0.047 A 
ATOM      9  H   LIG d   1       6.538  -6.440  -4.820  0.00  0.00     0.066 H 
ATOM     10  C   LIG d   1       5.571  -9.631  -5.322  0.00  0.00     0.021 A 
ATOM     11  H   LIG d   1       6.754  -8.654  -3.809  0.00  0.00     0.063 H 
ATOM     12  C   LIG d   1       5.684 -10.969  -4.737  0.00  0.00    -0.030 A 
ATOM     13  C   LIG d   1       4.835  -9.467  -6.510  0.00  0.00     0.146 A 
ATOM     14  C   LIG d   1       5.060 -11.999  -5.366  0.00  0.00     0.027 A 
ATOM     15  C   LIG d   1       4.336 -11.761  -6.552  0.00  0.00     0.338 A 
ATOM     16  H   LIG d   1       5.121 -12.998  -4.959  0.00  0.00     0.069 H 
ATOM     17  O   LIG d   1       3.781 -12.693  -7.105  0.00  0.00    -0.245 OA
ATOM     18  O   LIG d   1       4.240 -10.533  -7.086  0.00  0.00    -0.422 OA
ATOM     19  C   LIG d   1       4.727  -8.204  -7.074  0.00  0.00     0.035 A 
BRANCH  12  20
ATOM     20  C   LIG d   1       6.466 -11.197  -3.469  0.00  0.00    -0.030 C 
ATOM     21  H   LIG d   1       7.245 -10.439  -3.381  0.00  0.00     0.031 H 
ATOM     22  H   LIG d   1       6.923 -12.186  -3.496  0.00  0.00     0.031 H 
BRANCH  20  23
ATOM     23  C   LIG d   1       5.526 -11.103  -2.266  0.00  0.00    -0.061 C 
ATOM     24  H   LIG d   1       5.469 -12.073  -1.772  0.00  0.00     0.023 H 
ATOM     25  H   LIG d   1       5.905 -10.359  -1.566  0.00  0.00     0.023 H 
ATOM     26  H   LIG d   1       4.531 -10.810  -2.604  0.00  0.00     0.023 H 
ENDBRANCH  20  23
ENDBRANCH  12  20
BRANCH  19  27
ATOM     27  C   LIG d   1       3.938  -8.010  -8.343  0.00  0.00    -0.033 C 
ATOM     28  H   LIG d   1       3.427  -8.938  -8.599  0.00  0.00     0.028 H 
ATOM     29  H   LIG d   1       3.203  -7.219  -8.195  0.00  0.00     0.028 H 
ATOM     30  H   LIG d   1       4.614  -7.731  -9.152  0.00  0.00     0.028 H 
ENDBRANCH  19  27
ENDBRANCH   5   6
ENDBRANCH   3   5
ENDBRANCH   1   3
BRANCH   1  31
ATOM     31  C   LIG d   1       5.154  -3.746  -4.393  0.00  0.00     0.002 C 
ATOM     32  H   LIG d   1       4.191  -3.943  -3.923  0.00  0.00     0.034 H 
ATOM     33  H   LIG d   1       5.853  -4.543  -4.140  0.00  0.00     0.034 H 
BRANCH  31  34
ATOM     34  C   LIG d   1       5.693  -2.429  -3.897  0.00  0.00    -0.020 A 
ATOM     35  C   LIG d   1       4.916  -1.328  -3.325  0.00  0.00     0.003 A 
ATOM     36  C   LIG d   1       5.844  -0.320  -3.008  0.00  0.00     0.047 A 
ATOM     37  C   LIG d   1       3.558  -1.132  -3.064  0.00  0.00    -0.052 A 
ATOM     38  N   LIG d   1       7.088  -0.782  -3.375  0.00  0.00    -0.360 N 
ATOM     39  C   LIG d   1       5.393   0.865  -2.435  0.00  0.00    -0.038 A 
ATOM     40  C   LIG d   1       6.978  -2.040  -3.903  0.00  0.00     0.006 A 
ATOM     41  H   LIG d   1       7.918  -0.290  -3.275  0.00  0.00     0.165 HD
ATOM     42  H   LIG d   1       7.804  -2.632  -4.269  0.00  0.00     0.081 H 
ATOM     43  C   LIG d   1       4.048   1.041  -2.195  0.00  0.00    -0.060 A 
ATOM     44  H   LIG d   1       6.095   1.650  -2.190  0.00  0.00     0.064 H 
ATOM     45  C   LIG d   1       3.136   0.042  -2.506  0.00  0.00    -0.061 A 
ATOM     46  H   LIG d   1       3.699   1.964  -1.755  0.00  0.00     0.062 H 
ATOM     47  H   LIG d   1       2.086   0.193  -2.304  0.00  0.00     0.062 H 
ATOM     48  H   LIG d   1       2.844  -1.905  -3.304  0.00  0.00     0.062 H 
ENDBRANCH  31  34
ENDBRANCH   1  31
BRANCH   1  49
ATOM     49  N   LIG d   1       4.054  -2.600  -6.253  0.00  0.00    -0.176 N 
ATOM     50  H   LIG d   1       3.158  -2.591  -5.881  0.00  0.00     0.149 HD
BRANCH  49  51
ATOM     51  S   LIG d   1       4.540  -1.391  -7.274  0.00  0.00     0.059 S 
ATOM     52  O   LIG d   1       4.341  -0.168  -6.578  0.00  0.00    -0.153 OA
ATOM     53  O   LIG d   1       5.808  -1.778  -7.787  0.00  0.00    -0.153 OA
BRANCH  51  54
ATOM     54  C   LIG d   1       3.426  -1.381  -8.639  0.00  0.00     0.105 A 
ATOM     55  C   LIG d   1       3.374  -2.464  -9.495  0.00  0.00    -0.035 A 
ATOM     56  C   LIG d   1       2.496  -2.459 -10.564  0.00  0.00    -0.057 A 
ATOM     57  H   LIG d   1       4.015  -3.317  -9.328  0.00  0.00     0.064 H 
ATOM     58  C   LIG d   1       1.679  -1.365 -10.781  0.00  0.00    -0.050 A 
ATOM     59  H   LIG d   1       2.452  -3.307 -11.231  0.00  0.00     0.062 H 
ATOM     60  C   LIG d   1       1.735  -0.280  -9.927  0.00  0.00    -0.057 A 
ATOM     61  C   LIG d   1       2.609  -0.288  -8.856  0.00  0.00    -0.035 A 
ATOM     62  H   LIG d   1       1.096   0.574 -10.097  0.00  0.00     0.062 H 
ATOM     63  H   LIG d   1       2.653   0.561  -8.189  0.00  0.00     0.064 H 
BRANCH  58  64
ATOM     64  C   LIG d   1       0.725  -1.357 -11.947  0.00  0.00    -0.040 C 
ATOM     65  H   LIG d   1      -0.297  -1.250 -11.581  0.00  0.00     0.028 H 
ATOM     66  H   LIG d   1       0.963  -0.522 -12.606  0.00  0.00     0.028 H 
ATOM     67  H   LIG d   1       0.817  -2.293 -12.499  0.00  0.00     0.028 H 
ENDBRANCH  58  64
ENDBRANCH  51  54
ENDBRANCH  49  51
ENDBRANCH   1  49
TORSDOF 12
ENDMDL
MODEL 6
REMARK VINA RESULT:      -7.3      7.243      9.992
REMARK  12 active torsions:
REMARK  status: ('A' for Active; 'I' for Inactive)
REMARK    1  A    between atoms: C_1  and  C_2 
REMARK    2  A    between atoms: C_2  and  C_3 
REMARK    3  A    between atoms: C_12  and  O_15 
REMARK    4  A    between atoms: C_13  and  C_14 
REMARK    5  A    between atoms: O_15  and  C_16 
REMARK    6  A    between atoms: C_16  and  C_18 
REMARK    7  A    between atoms: C_18  and  C_20 
REMARK    8  A    between atoms: C_18  and  N_31 
REMARK    9  A    between atoms: C_20  and  C_21 
REMARK   10  A    between atoms: N_31  and  S_32 
REMARK   11  A    between atoms: S_32  and  C_35 
REMARK   12  A    between atoms: C_38  and  C_41 
ROOT
ATOM      1  C   LIG d   1       4.742  -5.100  -6.825  0.00  0.00     0.130 C 
ATOM      2  H   LIG d   1       5.632  -4.645  -7.259  0.00  0.00     0.060 H 
ENDROOT
BRANCH   1   3
ATOM      3  C   LIG d   1       4.726  -6.573  -7.142  0.00  0.00     0.332 C 
ATOM      4  O   LIG d   1       3.697  -7.104  -7.491  0.00  0.00    -0.249 OA
BRANCH   3   5
ATOM      5  O   LIG d   1       5.852  -7.295  -7.038  0.00  0.00    -0.424 OA
BRANCH   5   6
ATOM      6  C   LIG d   1       6.093  -7.936  -5.865  0.00  0.00     0.138 A 
ATOM      7  C   LIG d   1       5.184  -8.883  -5.396  0.00  0.00    -0.018 A 
ATOM      8  C   LIG d   1       5.411  -9.536  -4.219  0.00  0.00    -0.047 A 
ATOM      9  H   LIG d   1       4.293  -9.101  -5.967  0.00  0.00     0.066 H 
ATOM     10  C   LIG d   1       6.565  -9.254  -3.480  0.00  0.00     0.021 A 
ATOM     11  H   LIG d   1       4.704 -10.269  -3.861  0.00  0.00     0.063 H 
ATOM     12  C   LIG d   1       6.835  -9.939  -2.214  0.00  0.00    -0.030 A 
ATOM     13  C   LIG d   1       7.484  -8.295  -3.945  0.00  0.00     0.146 A 
ATOM     14  C   LIG d   1       7.975  -9.626  -1.545  0.00  0.00     0.027 A 
ATOM     15  C   LIG d   1       8.854  -8.657  -2.073  0.00  0.00     0.338 A 
ATOM     16  H   LIG d   1       8.206 -10.116  -0.610  0.00  0.00     0.069 H 
ATOM     17  O   LIG d   1       9.873  -8.386  -1.463  0.00  0.00    -0.245 OA
ATOM     18  O   LIG d   1       8.599  -8.029  -3.231  0.00  0.00    -0.422 OA
ATOM     19  C   LIG d   1       7.234  -7.637  -5.140  0.00  0.00     0.035 A 
BRANCH  12  20
ATOM     20  C   LIG d   1       5.878 -10.969  -1.671  0.00  0.00    -0.030 C 
ATOM     21  H   LIG d   1       5.415 -11.506  -2.499  0.00  0.00     0.031 H 
ATOM     22  H   LIG d   1       5.106 -10.474  -1.083  0.00  0.00     0.031 H 
BRANCH  20  23
ATOM     23  C   LIG d   1       6.640 -11.957  -0.785  0.00  0.00    -0.061 C 
ATOM     24  H   LIG d   1       6.991 -11.445   0.111  0.00  0.00     0.023 H 
ATOM     25  H   LIG d   1       5.978 -12.775  -0.501  0.00  0.00     0.023 H 
ATOM     26  H   LIG d   1       7.494 -12.354  -1.334  0.00  0.00     0.023 H 
ENDBRANCH  20  23
ENDBRANCH  12  20
BRANCH  19  27
ATOM     27  C   LIG d   1       8.211  -6.612  -5.656  0.00  0.00    -0.033 C 
ATOM     28  H   LIG d   1       8.207  -6.623  -6.746  0.00  0.00     0.028 H 
ATOM     29  H   LIG d   1       7.919  -5.623  -5.302  0.00  0.00     0.028 H 
ATOM     30  H   LIG d   1       9.211  -6.847  -5.293  0.00  0.00     0.028 H 
ENDBRANCH  19  27
ENDBRANCH   5   6
ENDBRANCH   3   5
ENDBRANCH   1   3
BRANCH   1  31
ATOM     31  C   LIG d   1       4.758  -4.906  -5.307  0.00  0.00     0.002 C 
ATOM     32  H   LIG d   1       3.735  -4.859  -4.937  0.00  0.00     0.034 H 
ATOM     33  H   LIG d   1       5.277  -5.742  -4.839  0.00  0.00     0.034 H 
BRANCH  31  34
ATOM     34  C   LIG d   1       5.471  -3.621  -4.972  0.00  0.00    -0.020 A 
ATOM     35  C   LIG d   1       5.084  -2.650  -3.948  0.00  0.00     0.003 A 
ATOM     36  C   LIG d   1       6.044  -1.624  -4.000  0.00  0.00     0.047 A 
ATOM     37  C   LIG d   1       4.039  -2.579  -3.024  0.00  0.00    -0.052 A 
ATOM     38  N   LIG d   1       6.937  -1.954  -4.995  0.00  0.00    -0.360 N 
ATOM     39  C   LIG d   1       5.940  -0.547  -3.126  0.00  0.00    -0.038 A 
ATOM     40  C   LIG d   1       6.580  -3.146  -5.563  0.00  0.00     0.006 A 
ATOM     41  H   LIG d   1       7.705  -1.421  -5.254  0.00  0.00     0.165 HD
ATOM     42  H   LIG d   1       7.112  -3.635  -6.366  0.00  0.00     0.081 H 
ATOM     43  C   LIG d   1       4.895  -0.493  -2.229  0.00  0.00    -0.060 A 
ATOM     44  H   LIG d   1       6.668   0.251  -3.159  0.00  0.00     0.064 H 
ATOM     45  C   LIG d   1       3.952  -1.510  -2.178  0.00  0.00    -0.061 A 
ATOM     46  H   LIG d   1       4.813   0.347  -1.554  0.00  0.00     0.062 H 
ATOM     47  H   LIG d   1       3.144  -1.455  -1.463  0.00  0.00     0.062 H 
ATOM     48  H   LIG d   1       3.301  -3.366  -2.979  0.00  0.00     0.062 H 
ENDBRANCH  31  34
ENDBRANCH   1  31
BRANCH   1  49
ATOM     49  N   LIG d   1       3.546  -4.466  -7.386  0.00  0.00    -0.176 N 
ATOM     50  H   LIG d   1       2.724  -4.441  -6.871  0.00  0.00     0.149 HD
BRANCH  49  51
ATOM     51  S   LIG d   1       3.599  -3.793  -8.898  0.00  0.00     0.059 S 
ATOM     52  O   LIG d   1       4.928  -3.964  -9.372  0.00  0.00    -0.153 OA
ATOM     53  O   LIG d   1       2.469  -4.291  -9.603  0.00  0.00    -0.153 OA
BRANCH  51  54
ATOM     54  C   LIG d   1       3.350  -2.060  -8.707  0.00  0.00     0.105 A 
ATOM     55  C   LIG d   1       2.584  -1.367  -9.625  0.00  0.00    -0.035 A 
ATOM     56  C   LIG d   1       2.383  -0.007  -9.473  0.00  0.00    -0.057 A 
ATOM     57  H   LIG d   1       2.136  -1.887 -10.459  0.00  0.00     0.064 H 
ATOM     58  C   LIG d   1       2.960   0.660  -8.408  0.00  0.00    -0.050 A 
ATOM     59  H   LIG d   1       1.781   0.534 -10.187  0.00  0.00     0.062 H 
ATOM     60  C   LIG d   1       3.730  -0.032  -7.493  0.00  0.00    -0.057 A 
ATOM     61  C   LIG d   1       3.925  -1.392  -7.643  0.00  0.00    -0.035 A 
ATOM     62  H   LIG d   1       4.179   0.490  -6.661  0.00  0.00     0.062 H 
ATOM     63  H   LIG d   1       4.528  -1.933  -6.928  0.00  0.00     0.064 H 
BRANCH  58  64
ATOM     64  C   LIG d   1       2.746   2.143  -8.244  0.00  0.00    -0.040 C 
ATOM     65  H   LIG d   1       1.951   2.317  -7.518  0.00  0.00     0.028 H 
ATOM     66  H   LIG d   1       3.667   2.607  -7.890  0.00  0.00     0.028 H 
ATOM     67  H   LIG d   1       2.464   2.578  -9.202  0.00  0.00     0.028 H 
ENDBRANCH  58  64
ENDBRANCH  51  54
ENDBRANCH  49  51
ENDBRANCH   1  49
TORSDOF 12
ENDMDL
MODEL 7
REMARK VINA RESULT:      -7.3      4.228      8.993
REMARK  12 active torsions:
REMARK  status: ('A' for Active; 'I' for Inactive)
REMARK    1  A    between atoms: C_1  and  C_2 
REMARK    2  A    between atoms: C_2  and  C_3 
REMARK    3  A    between atoms: C_12  and  O_15 
REMARK    4  A    between atoms: C_13  and  C_14 
REMARK    5  A    between atoms: O_15  and  C_16 
REMARK    6  A    between atoms: C_16  and  C_18 
REMARK    7  A    between atoms: C_18  and  C_20 
REMARK    8  A    between atoms: C_18  and  N_31 
REMARK    9  A    between atoms: C_20  and  C_21 
REMARK   10  A    between atoms: N_31  and  S_32 
REMARK   11  A    between atoms: S_32  and  C_35 
REMARK   12  A    between atoms: C_38  and  C_41 
ROOT
ATOM      1  C   LIG d   1       6.765   0.069  -7.007  0.00  0.00     0.130 C 
ATOM      2  H   LIG d   1       6.470   0.939  -6.420  0.00  0.00     0.060 H 
ENDROOT
BRANCH   1   3
ATOM      3  C   LIG d   1       8.039   0.376  -7.752  0.00  0.00     0.332 C 
ATOM      4  O   LIG d   1       8.070   0.285  -8.957  0.00  0.00    -0.249 OA
BRANCH   3   5
ATOM      5  O   LIG d   1       9.138   0.748  -7.079  0.00  0.00    -0.424 OA
BRANCH   5   6
ATOM      6  C   LIG d   1       9.301   2.067  -6.802  0.00  0.00     0.138 A 
ATOM      7  C   LIG d   1       9.453   2.978  -7.846  0.00  0.00    -0.018 A 
ATOM      8  C   LIG d   1       9.617   4.308  -7.585  0.00  0.00    -0.047 A 
ATOM      9  H   LIG d   1       9.442   2.630  -8.868  0.00  0.00     0.066 H 
ATOM     10  C   LIG d   1       9.632   4.760  -6.261  0.00  0.00     0.021 A 
ATOM     11  H   LIG d   1       9.735   5.009  -8.397  0.00  0.00     0.063 H 
ATOM     12  C   LIG d   1       9.806   6.180  -5.951  0.00  0.00    -0.030 A 
ATOM     13  C   LIG d   1       9.483   3.844  -5.202  0.00  0.00     0.146 A 
ATOM     14  C   LIG d   1       9.805   6.557  -4.646  0.00  0.00     0.027 A 
ATOM     15  C   LIG d   1       9.647   5.586  -3.635  0.00  0.00     0.338 A 
ATOM     16  H   LIG d   1       9.927   7.598  -4.383  0.00  0.00     0.069 H 
ATOM     17  O   LIG d   1       9.648   5.938  -2.469  0.00  0.00    -0.245 OA
ATOM     18  O   LIG d   1       9.492   4.285  -3.925  0.00  0.00    -0.422 OA
ATOM     19  C   LIG d   1       9.323   2.496  -5.485  0.00  0.00     0.035 A 
BRANCH  12  20
ATOM     20  C   LIG d   1       9.974   7.198  -7.050  0.00  0.00    -0.030 C 
ATOM     21  H   LIG d   1       9.549   6.808  -7.974  0.00  0.00     0.031 H 
ATOM     22  H   LIG d   1      11.035   7.402  -7.196  0.00  0.00     0.031 H 
BRANCH  20  23
ATOM     23  C   LIG d   1       9.254   8.491  -6.663  0.00  0.00    -0.061 C 
ATOM     24  H   LIG d   1       9.397   8.683  -5.600  0.00  0.00     0.023 H 
ATOM     25  H   LIG d   1       9.660   9.320  -7.241  0.00  0.00     0.023 H 
ATOM     26  H   LIG d   1       8.188   8.390  -6.873  0.00  0.00     0.023 H 
ENDBRANCH  20  23
ENDBRANCH  12  20
BRANCH  19  27
ATOM     27  C   LIG d   1       9.157   1.504  -4.364  0.00  0.00    -0.033 C 
ATOM     28  H   LIG d   1       8.278   0.887  -4.551  0.00  0.00     0.028 H 
ATOM     29  H   LIG d   1      10.041   0.868  -4.308  0.00  0.00     0.028 H 
ATOM     30  H   LIG d   1       9.033   2.037  -3.421  0.00  0.00     0.028 H 
ENDBRANCH  19  27
ENDBRANCH   5   6
ENDBRANCH   3   5
ENDBRANCH   1   3
BRANCH   1  31
ATOM     31  C   LIG d   1       6.993  -1.123  -6.076  0.00  0.00     0.002 C 
ATOM     32  H   LIG d   1       7.208  -2.010  -6.669  0.00  0.00     0.034 H 
ATOM     33  H   LIG d   1       7.834  -0.912  -5.416  0.00  0.00     0.034 H 
BRANCH  31  34
ATOM     34  C   LIG d   1       5.754  -1.359  -5.250  0.00  0.00    -0.020 A 
ATOM     35  C   LIG d   1       5.300  -0.560  -4.111  0.00  0.00     0.003 A 
ATOM     36  C   LIG d   1       4.105  -1.156  -3.668  0.00  0.00     0.047 A 
ATOM     37  C   LIG d   1       5.793   0.574  -3.462  0.00  0.00    -0.052 A 
ATOM     38  N   LIG d   1       3.869  -2.244  -4.480  0.00  0.00    -0.360 N 
ATOM     39  C   LIG d   1       3.429  -0.605  -2.585  0.00  0.00    -0.038 A 
ATOM     40  C   LIG d   1       4.862  -2.349  -5.416  0.00  0.00     0.006 A 
ATOM     41  H   LIG d   1       3.112  -2.845  -4.400  0.00  0.00     0.165 HD
ATOM     42  H   LIG d   1       4.918  -3.113  -6.176  0.00  0.00     0.081 H 
ATOM     43  C   LIG d   1       3.939   0.509  -1.954  0.00  0.00    -0.060 A 
ATOM     44  H   LIG d   1       2.512  -1.056  -2.231  0.00  0.00     0.064 H 
ATOM     45  C   LIG d   1       5.116   1.097  -2.397  0.00  0.00    -0.061 A 
ATOM     46  H   LIG d   1       3.415   0.932  -1.110  0.00  0.00     0.062 H 
ATOM     47  H   LIG d   1       5.498   1.974  -1.897  0.00  0.00     0.062 H 
ATOM     48  H   LIG d   1       6.709   1.036  -3.802  0.00  0.00     0.062 H 
ENDBRANCH  31  34
ENDBRANCH   1  31
BRANCH   1  49
ATOM     49  N   LIG d   1       5.705  -0.256  -7.966  0.00  0.00    -0.176 N 
ATOM     50  H   LIG d   1       5.746  -1.081  -8.473  0.00  0.00     0.149 HD
BRANCH  49  51
ATOM     51  S   LIG d   1       4.437   0.788  -8.182  0.00  0.00     0.059 S 
ATOM     52  O   LIG d   1       3.702   0.791  -6.966  0.00  0.00    -0.153 OA
ATOM     53  O   LIG d   1       4.980   1.974  -8.747  0.00  0.00    -0.153 OA
BRANCH  51  54
ATOM     54  C   LIG d   1       3.385   0.083  -9.406  0.00  0.00     0.105 A 
ATOM     55  C   LIG d   1       2.141  -0.404  -9.051  0.00  0.00    -0.035 A 
ATOM     56  C   LIG d   1       1.312  -0.953 -10.012  0.00  0.00    -0.057 A 
ATOM     57  H   LIG d   1       1.814  -0.351  -8.022  0.00  0.00     0.064 H 
ATOM     58  C   LIG d   1       1.733  -1.025 -11.327  0.00  0.00    -0.050 A 
ATOM     59  H   LIG d   1       0.339  -1.329  -9.735  0.00  0.00     0.062 H 
ATOM     60  C   LIG d   1       2.979  -0.543 -11.682  0.00  0.00    -0.057 A 
ATOM     61  C   LIG d   1       3.805   0.011 -10.721  0.00  0.00    -0.035 A 
ATOM     62  H   LIG d   1       3.306  -0.598 -12.709  0.00  0.00     0.062 H 
ATOM     63  H   LIG d   1       4.779   0.387 -10.998  0.00  0.00     0.064 H 
BRANCH  58  64
ATOM     64  C   LIG d   1       0.832  -1.627 -12.374  0.00  0.00    -0.040 C 
ATOM     65  H   LIG d   1       0.823  -0.987 -13.257  0.00  0.00     0.028 H 
ATOM     66  H   LIG d   1       1.201  -2.616 -12.646  0.00  0.00     0.028 H 
ATOM     67  H   LIG d   1      -0.179  -1.713 -11.978  0.00  0.00     0.028 H 
ENDBRANCH  58  64
ENDBRANCH  51  54
ENDBRANCH  49  51
ENDBRANCH   1  49
TORSDOF 12
ENDMDL
MODEL 8
REMARK VINA RESULT:      -7.3      6.622      9.948
REMARK  12 active torsions:
REMARK  status: ('A' for Active; 'I' for Inactive)
REMARK    1  A    between atoms: C_1  and  C_2 
REMARK    2  A    between atoms: C_2  and  C_3 
REMARK    3  A    between atoms: C_12  and  O_15 
REMARK    4  A    between atoms: C_13  and  C_14 
REMARK    5  A    between atoms: O_15  and  C_16 
REMARK    6  A    between atoms: C_16  and  C_18 
REMARK    7  A    between atoms: C_18  and  C_20 
REMARK    8  A    between atoms: C_18  and  N_31 
REMARK    9  A    between atoms: C_20  and  C_21 
REMARK   10  A    between atoms: N_31  and  S_32 
REMARK   11  A    between atoms: S_32  and  C_35 
REMARK   12  A    between atoms: C_38  and  C_41 
ROOT
ATOM      1  C   LIG d   1       8.002  -3.448  -4.928  0.00  0.00     0.130 C 
ATOM      2  H   LIG d   1       7.183  -3.884  -5.500  0.00  0.00     0.060 H 
ENDROOT
BRANCH   1   3
ATOM      3  C   LIG d   1       8.742  -2.455  -5.788  0.00  0.00     0.332 C 
ATOM      4  O   LIG d   1       9.667  -1.829  -5.326  0.00  0.00    -0.249 OA
BRANCH   3   5
ATOM      5  O   LIG d   1       8.374  -2.267  -7.064  0.00  0.00    -0.424 OA
BRANCH   5   6
ATOM      6  C   LIG d   1       7.128  -1.784  -7.304  0.00  0.00     0.138 A 
ATOM      7  C   LIG d   1       6.749  -0.552  -6.774  0.00  0.00    -0.018 A 
ATOM      8  C   LIG d   1       5.500  -0.053  -7.006  0.00  0.00    -0.047 A 
ATOM      9  H   LIG d   1       7.449   0.011  -6.174  0.00  0.00     0.066 H 
ATOM     10  C   LIG d   1       4.594  -0.783  -7.783  0.00  0.00     0.021 A 
ATOM     11  H   LIG d   1       5.213   0.902  -6.592  0.00  0.00     0.063 H 
ATOM     12  C   LIG d   1       3.247  -0.271  -8.049  0.00  0.00    -0.030 A 
ATOM     13  C   LIG d   1       4.968  -2.030  -8.317  0.00  0.00     0.146 A 
ATOM     14  C   LIG d   1       2.415  -1.024  -8.814  0.00  0.00     0.027 A 
ATOM     15  C   LIG d   1       2.858  -2.264  -9.322  0.00  0.00     0.338 A 
ATOM     16  H   LIG d   1       1.417  -0.675  -9.033  0.00  0.00     0.069 H 
ATOM     17  O   LIG d   1       2.101  -2.928 -10.007  0.00  0.00    -0.245 OA
ATOM     18  O   LIG d   1       4.092  -2.729  -9.070  0.00  0.00    -0.422 OA
ATOM     19  C   LIG d   1       6.239  -2.525  -8.066  0.00  0.00     0.035 A 
BRANCH  12  20
ATOM     20  C   LIG d   1       2.799   1.056  -7.493  0.00  0.00    -0.030 C 
ATOM     21  H   LIG d   1       3.445   1.338  -6.662  0.00  0.00     0.031 H 
ATOM     22  H   LIG d   1       1.770   0.974  -7.143  0.00  0.00     0.031 H 
BRANCH  20  23
ATOM     23  C   LIG d   1       2.882   2.121  -8.588  0.00  0.00    -0.061 C 
ATOM     24  H   LIG d   1       2.855   3.112  -8.135  0.00  0.00     0.023 H 
ATOM     25  H   LIG d   1       3.813   2.001  -9.143  0.00  0.00     0.023 H 
ATOM     26  H   LIG d   1       2.037   2.010  -9.269  0.00  0.00     0.023 H 
ENDBRANCH  20  23
ENDBRANCH  12  20
BRANCH  19  27
ATOM     27  C   LIG d   1       6.657  -3.856  -8.636  0.00  0.00    -0.033 C 
ATOM     28  H   LIG d   1       7.698  -3.804  -8.954  0.00  0.00     0.028 H 
ATOM     29  H   LIG d   1       6.548  -4.627  -7.873  0.00  0.00     0.028 H 
ATOM     30  H   LIG d   1       6.027  -4.099  -9.491  0.00  0.00     0.028 H 
ENDBRANCH  19  27
ENDBRANCH   5   6
ENDBRANCH   3   5
ENDBRANCH   1   3
BRANCH   1  31
ATOM     31  C   LIG d   1       7.443  -2.737  -3.694  0.00  0.00     0.002 C 
ATOM     32  H   LIG d   1       7.592  -3.364  -2.816  0.00  0.00     0.034 H 
ATOM     33  H   LIG d   1       7.961  -1.788  -3.556  0.00  0.00     0.034 H 
BRANCH  31  34
ATOM     34  C   LIG d   1       5.970  -2.483  -3.885  0.00  0.00    -0.020 A 
ATOM     35  C   LIG d   1       5.198  -1.369  -3.331  0.00  0.00     0.003 A 
ATOM     36  C   LIG d   1       3.877  -1.550  -3.779  0.00  0.00     0.047 A 
ATOM     37  C   LIG d   1       5.516  -0.275  -2.525  0.00  0.00    -0.052 A 
ATOM     38  N   LIG d   1       3.859  -2.698  -4.539  0.00  0.00    -0.360 N 
ATOM     39  C   LIG d   1       2.901  -0.630  -3.412  0.00  0.00    -0.038 A 
ATOM     40  C   LIG d   1       5.114  -3.240  -4.591  0.00  0.00     0.006 A 
ATOM     41  H   LIG d   1       3.074  -3.067  -4.973  0.00  0.00     0.165 HD
ATOM     42  H   LIG d   1       5.378  -4.143  -5.122  0.00  0.00     0.081 H 
ATOM     43  C   LIG d   1       3.235   0.438  -2.607  0.00  0.00    -0.060 A 
ATOM     44  H   LIG d   1       1.881  -0.759  -3.745  0.00  0.00     0.064 H 
ATOM     45  C   LIG d   1       4.541   0.615  -2.171  0.00  0.00    -0.061 A 
ATOM     46  H   LIG d   1       2.474   1.149  -2.319  0.00  0.00     0.062 H 
ATOM     47  H   LIG d   1       4.787   1.461  -1.548  0.00  0.00     0.062 H 
ATOM     48  H   LIG d   1       6.530  -0.131  -2.181  0.00  0.00     0.062 H 
ENDBRANCH  31  34
ENDBRANCH   1  31
BRANCH   1  49
ATOM     49  N   LIG d   1       8.921  -4.509  -4.506  0.00  0.00    -0.176 N 
ATOM     50  H   LIG d   1       9.541  -4.351  -3.777  0.00  0.00     0.149 HD
BRANCH  49  51
ATOM     51  S   LIG d   1       8.901  -5.976  -5.275  0.00  0.00     0.059 S 
ATOM     52  O   LIG d   1       7.772  -5.965  -6.138  0.00  0.00    -0.153 OA
ATOM     53  O   LIG d   1      10.221  -6.204  -5.749  0.00  0.00    -0.153 OA
BRANCH  51  54
ATOM     54  C   LIG d   1       8.587  -7.202  -4.050  0.00  0.00     0.105 A 
ATOM     55  C   LIG d   1       9.285  -7.182  -2.857  0.00  0.00    -0.035 A 
ATOM     56  C   LIG d   1       9.036  -8.142  -1.893  0.00  0.00    -0.057 A 
ATOM     57  H   LIG d   1      10.023  -6.414  -2.676  0.00  0.00     0.064 H 
ATOM     58  C   LIG d   1       8.094  -9.127  -2.128  0.00  0.00    -0.050 A 
ATOM     59  H   LIG d   1       9.578  -8.123  -0.960  0.00  0.00     0.062 H 
ATOM     60  C   LIG d   1       7.400  -9.150  -3.322  0.00  0.00    -0.057 A 
ATOM     61  C   LIG d   1       7.646  -8.188  -4.283  0.00  0.00    -0.035 A 
ATOM     62  H   LIG d   1       6.665  -9.919  -3.504  0.00  0.00     0.062 H 
ATOM     63  H   LIG d   1       7.103  -8.206  -5.217  0.00  0.00     0.064 H 
BRANCH  58  64
ATOM     64  C   LIG d   1       7.825 -10.175  -1.079  0.00  0.00    -0.040 C 
ATOM     65  H   LIG d   1       6.775 -10.135  -0.786  0.00  0.00     0.028 H 
ATOM     66  H   LIG d   1       8.050 -11.162  -1.485  0.00  0.00     0.028 H 
ATOM     67  H   LIG d   1       8.453  -9.989  -0.208  0.00  0.00     0.028 H 
ENDBRANCH  58  64
ENDBRANCH  51  54
ENDBRANCH  49  51
ENDBRANCH   1  49
TORSDOF 12
ENDMDL
MODEL 9
REMARK VINA RESULT:      -7.2      6.336      9.688
REMARK  12 active torsions:
REMARK  status: ('A' for Active; 'I' for Inactive)
REMARK    1  A    between atoms: C_1  and  C_2 
REMARK    2  A    between atoms: C_2  and  C_3 
REMARK    3  A    between atoms: C_12  and  O_15 
REMARK    4  A    between atoms: C_13  and  C_14 
REMARK    5  A    between atoms: O_15  and  C_16 
REMARK    6  A    between atoms: C_16  and  C_18 
REMARK    7  A    between atoms: C_18  and  C_20 
REMARK    8  A    between atoms: C_18  and  N_31 
REMARK    9  A    between atoms: C_20  and  C_21 
REMARK   10  A    between atoms: N_31  and  S_32 
REMARK   11  A    between atoms: S_32  and  C_35 
REMARK   12  A    between atoms: C_38  and  C_41 
ROOT
ATOM      1  C   LIG d   1       4.952  -3.460  -6.016  0.00  0.00     0.130 C 
ATOM      2  H   LIG d   1       5.919  -3.220  -6.457  0.00  0.00     0.060 H 
ENDROOT
BRANCH   1   3
ATOM      3  C   LIG d   1       4.448  -4.760  -6.589  0.00  0.00     0.332 C 
ATOM      4  O   LIG d   1       3.385  -5.208  -6.226  0.00  0.00    -0.249 OA
BRANCH   3   5
ATOM      5  O   LIG d   1       5.178  -5.420  -7.501  0.00  0.00    -0.424 OA
BRANCH   5   6
ATOM      6  C   LIG d   1       5.251  -4.904  -8.754  0.00  0.00     0.138 A 
ATOM      7  C   LIG d   1       6.212  -3.938  -9.049  0.00  0.00    -0.018 A 
ATOM      8  C   LIG d   1       6.300  -3.410 -10.304  0.00  0.00    -0.047 A 
ATOM      9  H   LIG d   1       6.892  -3.606  -8.278  0.00  0.00     0.066 H 
ATOM     10  C   LIG d   1       5.419  -3.841 -11.302  0.00  0.00     0.021 A 
ATOM     11  H   LIG d   1       7.046  -2.662 -10.526  0.00  0.00     0.063 H 
ATOM     12  C   LIG d   1       5.490  -3.292 -12.658  0.00  0.00    -0.030 A 
ATOM     13  C   LIG d   1       4.443  -4.812 -11.011  0.00  0.00     0.146 A 
ATOM     14  C   LIG d   1       4.611  -3.755 -13.585  0.00  0.00     0.027 A 
ATOM     15  C   LIG d   1       3.661  -4.733 -13.224  0.00  0.00     0.338 A 
ATOM     16  H   LIG d   1       4.638  -3.373 -14.595  0.00  0.00     0.069 H 
ATOM     17  O   LIG d   1       2.880  -5.140 -14.064  0.00  0.00    -0.245 OA
ATOM     18  O   LIG d   1       3.598  -5.229 -11.978  0.00  0.00    -0.422 OA
ATOM     19  C   LIG d   1       4.365  -5.334  -9.728  0.00  0.00     0.035 A 
BRANCH  12  20
ATOM     20  C   LIG d   1       6.513  -2.246 -13.018  0.00  0.00    -0.030 C 
ATOM     21  H   LIG d   1       7.342  -2.716 -13.547  0.00  0.00     0.031 H 
ATOM     22  H   LIG d   1       6.885  -1.773 -12.108  0.00  0.00     0.031 H 
BRANCH  20  23
ATOM     23  C   LIG d   1       5.869  -1.188 -13.916  0.00  0.00    -0.061 C 
ATOM     24  H   LIG d   1       4.910  -1.557 -14.280  0.00  0.00     0.023 H 
ATOM     25  H   LIG d   1       5.714  -0.273 -13.345  0.00  0.00     0.023 H 
ATOM     26  H   LIG d   1       6.524  -0.982 -14.763  0.00  0.00     0.023 H 
ENDBRANCH  20  23
ENDBRANCH  12  20
BRANCH  19  27
ATOM     27  C   LIG d   1       3.329  -6.379  -9.400  0.00  0.00    -0.033 C 
ATOM     28  H   LIG d   1       3.792  -7.181  -8.826  0.00  0.00     0.028 H 
ATOM     29  H   LIG d   1       2.531  -5.926  -8.813  0.00  0.00     0.028 H 
ATOM     30  H   LIG d   1       2.917  -6.785 -10.324  0.00  0.00     0.028 H 
ENDBRANCH  19  27
ENDBRANCH   5   6
ENDBRANCH   3   5
ENDBRANCH   1   3
BRANCH   1  31
ATOM     31  C   LIG d   1       5.101  -3.596  -4.499  0.00  0.00     0.002 C 
ATOM     32  H   LIG d   1       4.128  -3.803  -4.056  0.00  0.00     0.034 H 
ATOM     33  H   LIG d   1       5.786  -4.413  -4.273  0.00  0.00     0.034 H 
BRANCH  31  34
ATOM     34  C   LIG d   1       5.648  -2.311  -3.932  0.00  0.00    -0.020 A 
ATOM     35  C   LIG d   1       4.872  -1.219  -3.341  0.00  0.00     0.003 A 
ATOM     36  C   LIG d   1       5.807  -0.243  -2.951  0.00  0.00     0.047 A 
ATOM     37  C   LIG d   1       3.510  -1.006  -3.118  0.00  0.00    -0.052 A 
ATOM     38  N   LIG d   1       7.054  -0.715  -3.295  0.00  0.00    -0.360 N 
ATOM     39  C   LIG d   1       5.359   0.926  -2.346  0.00  0.00    -0.038 A 
ATOM     40  C   LIG d   1       6.939  -1.947  -3.878  0.00  0.00     0.006 A 
ATOM     41  H   LIG d   1       7.889  -0.244  -3.147  0.00  0.00     0.165 HD
ATOM     42  H   LIG d   1       7.766  -2.541  -4.241  0.00  0.00     0.081 H 
ATOM     43  C   LIG d   1       4.010   1.120  -2.144  0.00  0.00    -0.060 A 
ATOM     44  H   LIG d   1       6.066   1.687  -2.045  0.00  0.00     0.064 H 
ATOM     45  C   LIG d   1       3.091   0.152  -2.526  0.00  0.00    -0.061 A 
ATOM     46  H   LIG d   1       3.664   2.031  -1.678  0.00  0.00     0.062 H 
ATOM     47  H   LIG d   1       2.038   0.316  -2.354  0.00  0.00     0.062 H 
ATOM     48  H   LIG d   1       2.790  -1.755  -3.413  0.00  0.00     0.062 H 
ENDBRANCH  31  34
ENDBRANCH   1  31
BRANCH   1  49
ATOM     49  N   LIG d   1       3.998  -2.390  -6.319  0.00  0.00    -0.176 N 
ATOM     50  H   LIG d   1       3.075  -2.467  -6.030  0.00  0.00     0.149 HD
BRANCH  49  51
ATOM     51  S   LIG d   1       4.496  -1.050  -7.155  0.00  0.00     0.059 S 
ATOM     52  O   LIG d   1       3.900   0.071  -6.516  0.00  0.00    -0.153 OA
ATOM     53  O   LIG d   1       5.902  -1.174  -7.320  0.00  0.00    -0.153 OA
BRANCH  51  54
ATOM     54  C   LIG d   1       3.789  -1.147  -8.765  0.00  0.00     0.105 A 
ATOM     55  C   LIG d   1       2.773  -2.049  -9.020  0.00  0.00    -0.035 A 
ATOM     56  C   LIG d   1       2.214  -2.123 -10.283  0.00  0.00    -0.057 A 
ATOM     57  H   LIG d   1       2.412  -2.694  -8.232  0.00  0.00     0.064 H 
ATOM     58  C   LIG d   1       2.679  -1.301 -11.293  0.00  0.00    -0.050 A 
ATOM     59  H   LIG d   1       1.417  -2.824 -10.481  0.00  0.00     0.062 H 
ATOM     60  C   LIG d   1       3.698  -0.403 -11.039  0.00  0.00    -0.057 A 
ATOM     61  C   LIG d   1       4.253  -0.326  -9.776  0.00  0.00    -0.035 A 
ATOM     62  H   LIG d   1       4.060   0.239 -11.828  0.00  0.00     0.062 H 
ATOM     63  H   LIG d   1       5.050   0.376  -9.577  0.00  0.00     0.064 H 
BRANCH  58  64
ATOM     64  C   LIG d   1       2.073  -1.383 -12.670  0.00  0.00    -0.040 C 
ATOM     65  H   LIG d   1       2.639  -2.092 -13.275  0.00  0.00     0.028 H 
ATOM     66  H   LIG d   1       1.038  -1.719 -12.592  0.00  0.00     0.028 H 
ATOM     67  H   LIG d   1       2.102  -0.401 -13.140  0.00  0.00     0.028 H 
ENDBRANCH  58  64
ENDBRANCH  51  54
ENDBRANCH  49  51
ENDBRANCH   1  49
TORSDOF 12
ENDMDL
MODEL 10
REMARK VINA RESULT:      -7.1      5.961      8.811
REMARK  12 active torsions:
REMARK  status: ('A' for Active; 'I' for Inactive)
REMARK    1  A    between atoms: C_1  and  C_2 
REMARK    2  A    between atoms: C_2  and  C_3 
REMARK    3  A    between atoms: C_12  and  O_15 
REMARK    4  A    between atoms: C_13  and  C_14 
REMARK    5  A    between atoms: O_15  and  C_16 
REMARK    6  A    between atoms: C_16  and  C_18 
REMARK    7  A    between atoms: C_18  and  C_20 
REMARK    8  A    between atoms: C_18  and  N_31 
REMARK    9  A    between atoms: C_20  and  C_21 
REMARK   10  A    between atoms: N_31  and  S_32 
REMARK   11  A    between atoms: S_32  and  C_35 
REMARK   12  A    between atoms: C_38  and  C_41 
ROOT
ATOM      1  C   LIG d   1       4.915  -3.775  -5.897  0.00  0.00     0.130 C 
ATOM      2  H   LIG d   1       5.944  -3.606  -6.215  0.00  0.00     0.060 H 
ENDROOT
BRANCH   1   3
ATOM      3  C   LIG d   1       4.451  -5.121  -6.394  0.00  0.00     0.332 C 
ATOM      4  O   LIG d   1       3.274  -5.395  -6.383  0.00  0.00    -0.249 OA
BRANCH   3   5
ATOM      5  O   LIG d   1       5.344  -6.013  -6.849  0.00  0.00    -0.424 OA
BRANCH   5   6
ATOM      6  C   LIG d   1       5.812  -6.946  -5.981  0.00  0.00     0.138 A 
ATOM      7  C   LIG d   1       4.991  -8.005  -5.595  0.00  0.00    -0.018 A 
ATOM      8  C   LIG d   1       5.447  -8.952  -4.724  0.00  0.00    -0.047 A 
ATOM      9  H   LIG d   1       3.988  -8.076  -5.989  0.00  0.00     0.066 H 
ATOM     10  C   LIG d   1       6.747  -8.859  -4.215  0.00  0.00     0.021 A 
ATOM     11  H   LIG d   1       4.806  -9.769  -4.429  0.00  0.00     0.063 H 
ATOM     12  C   LIG d   1       7.262  -9.861  -3.279  0.00  0.00    -0.030 A 
ATOM     13  C   LIG d   1       7.579  -7.791  -4.596  0.00  0.00     0.146 A 
ATOM     14  C   LIG d   1       8.534  -9.719  -2.824  0.00  0.00     0.027 A 
ATOM     15  C   LIG d   1       9.315  -8.625  -3.252  0.00  0.00     0.338 A 
ATOM     16  H   LIG d   1       8.947 -10.442  -2.135  0.00  0.00     0.069 H 
ATOM     17  O   LIG d   1      10.453  -8.510  -2.836  0.00  0.00    -0.245 OA
ATOM     18  O   LIG d   1       8.834  -7.707  -4.106  0.00  0.00    -0.422 OA
ATOM     19  C   LIG d   1       7.098  -6.834  -5.478  0.00  0.00     0.035 A 
BRANCH  12  20
ATOM     20  C   LIG d   1       6.407 -11.020  -2.837  0.00  0.00    -0.030 C 
ATOM     21  H   LIG d   1       6.947 -11.953  -2.998  0.00  0.00     0.031 H 
ATOM     22  H   LIG d   1       5.483 -11.032  -3.414  0.00  0.00     0.031 H 
BRANCH  20  23
ATOM     23  C   LIG d   1       6.078 -10.873  -1.350  0.00  0.00    -0.061 C 
ATOM     24  H   LIG d   1       6.870 -11.327  -0.755  0.00  0.00     0.023 H 
ATOM     25  H   LIG d   1       5.994  -9.816  -1.099  0.00  0.00     0.023 H 
ATOM     26  H   LIG d   1       5.132 -11.373  -1.136  0.00  0.00     0.023 H 
ENDBRANCH  20  23
ENDBRANCH  12  20
BRANCH  19  27
ATOM     27  C   LIG d   1       7.978  -5.686  -5.901  0.00  0.00    -0.033 C 
ATOM     28  H   LIG d   1       8.211  -5.779  -6.961  0.00  0.00     0.028 H 
ATOM     29  H   LIG d   1       7.456  -4.745  -5.724  0.00  0.00     0.028 H 
ATOM     30  H   LIG d   1       8.902  -5.704  -5.323  0.00  0.00     0.028 H 
ENDBRANCH  19  27
ENDBRANCH   5   6
ENDBRANCH   3   5
ENDBRANCH   1   3
BRANCH   1  31
ATOM     31  C   LIG d   1       4.840  -3.743  -4.369  0.00  0.00     0.002 C 
ATOM     32  H   LIG d   1       3.797  -3.766  -4.057  0.00  0.00     0.034 H 
ATOM     33  H   LIG d   1       5.362  -4.609  -3.962  0.00  0.00     0.034 H 
BRANCH  31  34
ATOM     34  C   LIG d   1       5.487  -2.481  -3.861  0.00  0.00    -0.020 A 
ATOM     35  C   LIG d   1       4.801  -1.301  -3.332  0.00  0.00     0.003 A 
ATOM     36  C   LIG d   1       5.811  -0.386  -2.983  0.00  0.00     0.047 A 
ATOM     37  C   LIG d   1       3.460  -0.966  -3.133  0.00  0.00    -0.052 A 
ATOM     38  N   LIG d   1       7.017  -0.975  -3.292  0.00  0.00    -0.360 N 
ATOM     39  C   LIG d   1       5.459   0.845  -2.440  0.00  0.00    -0.038 A 
ATOM     40  C   LIG d   1       6.804  -2.222  -3.814  0.00  0.00     0.006 A 
ATOM     41  H   LIG d   1       7.887  -0.568  -3.159  0.00  0.00     0.165 HD
ATOM     42  H   LIG d   1       7.581  -2.899  -4.139  0.00  0.00     0.081 H 
ATOM     43  C   LIG d   1       4.129   1.158  -2.260  0.00  0.00    -0.060 A 
ATOM     44  H   LIG d   1       6.225   1.559  -2.171  0.00  0.00     0.064 H 
ATOM     45  C   LIG d   1       3.135   0.251  -2.602  0.00  0.00    -0.061 A 
ATOM     46  H   LIG d   1       3.857   2.116  -1.843  0.00  0.00     0.062 H 
ATOM     47  H   LIG d   1       2.098   0.509  -2.448  0.00  0.00     0.062 H 
ATOM     48  H   LIG d   1       2.682  -1.667  -3.397  0.00  0.00     0.062 H 
ENDBRANCH  31  34
ENDBRANCH   1  31
BRANCH   1  49
ATOM     49  N   LIG d   1       4.053  -2.727  -6.451  0.00  0.00    -0.176 N 
ATOM     50  H   LIG d   1       3.180  -2.562  -6.063  0.00  0.00     0.149 HD
BRANCH  49  51
ATOM     51  S   LIG d   1       4.572  -1.824  -7.739  0.00  0.00     0.059 S 
ATOM     52  O   LIG d   1       4.789  -2.734  -8.810  0.00  0.00    -0.153 OA
ATOM     53  O   LIG d   1       3.684  -0.720  -7.845  0.00  0.00    -0.153 OA
BRANCH  51  54
ATOM     54  C   LIG d   1       6.149  -1.165  -7.312  0.00  0.00     0.105 A 
ATOM     55  C   LIG d   1       6.239   0.079  -6.717  0.00  0.00    -0.035 A 
ATOM     56  C   LIG d   1       7.476   0.596  -6.377  0.00  0.00    -0.057 A 
ATOM     57  H   LIG d   1       5.343   0.648  -6.513  0.00  0.00     0.064 H 
ATOM     58  C   LIG d   1       8.623  -0.129  -6.642  0.00  0.00    -0.050 A 
ATOM     59  H   LIG d   1       7.546   1.566  -5.908  0.00  0.00     0.062 H 
ATOM     60  C   LIG d   1       8.534  -1.371  -7.241  0.00  0.00    -0.057 A 
ATOM     61  C   LIG d   1       7.297  -1.889  -7.577  0.00  0.00    -0.035 A 
ATOM     62  H   LIG d   1       9.430  -1.937  -7.448  0.00  0.00     0.062 H 
ATOM     63  H   LIG d   1       7.226  -2.860  -8.046  0.00  0.00     0.064 H 
BRANCH  58  64
ATOM     64  C   LIG d   1       9.972   0.435  -6.276  0.00  0.00    -0.040 C 
ATOM     65  H   LIG d   1      10.717   0.089  -6.992  0.00  0.00     0.028 H 
ATOM     66  H   LIG d   1       9.928   1.524  -6.295  0.00  0.00     0.028 H 
ATOM     67  H   LIG d   1      10.246   0.100  -5.276  0.00  0.00     0.028 H 
ENDBRANCH  58  64
ENDBRANCH  51  54
ENDBRANCH  49  51
ENDBRANCH   1  49
TORSDOF 12
ENDMDL
