MODEL 1
REMARK VINA RESULT:      -6.2      0.000      0.000
REMARK  13 active torsions:
REMARK  status: ('A' for Active; 'I' for Inactive)
REMARK    1  A    between atoms: C_1  and  C_2 
REMARK    2  A    between atoms: C_4  and  O_24 
REMARK    3  A    between atoms: C_5  and  C_23 
REMARK    4  A    between atoms: C_10  and  C_13 
REMARK    5  A    between atoms: C_13  and  C_15 
REMARK    6  A    between atoms: C_13  and  C_16 
REMARK       I    between atoms: C_16  and  N_18 
REMARK    7  A    between atoms: N_18  and  C_19 
REMARK    8  A    between atoms: C_19  and  C_20 
REMARK    9  A    between atoms: C_20  and  O_21 
REMARK   10  A    between atoms: O_21  and  C_22 
REMARK   11  A    between atoms: O_24  and  C_25 
REMARK   12  A    between atoms: C_25  and  C_26 
REMARK   13  A    between atoms: C_26  and  N_27 
ROOT
ATOM      1  C   LIG d   1       3.355   0.278  -8.268  0.00  0.00    -0.043 A 
ATOM      2  C   LIG d   1       4.407  -0.020  -7.427  0.00  0.00    -0.017 A 
ATOM      3  C   LIG d   1       4.875  -1.324  -7.345  0.00  0.00     0.124 A 
ATOM      4  C   LIG d   1       4.286  -2.312  -8.115  0.00  0.00    -0.005 A 
ATOM      5  C   LIG d   1       3.226  -2.011  -8.957  0.00  0.00    -0.037 A 
ATOM      6  C   LIG d   1       2.761  -0.717  -9.035  0.00  0.00    -0.041 A 
ATOM      7  C   LIG d   1       1.613  -0.320  -9.926  0.00  0.00    -0.027 C 
ATOM      8  C   LIG d   1       1.365  -1.387 -10.990  0.00  0.00    -0.045 C 
ATOM      9  C   LIG d   1       1.253  -2.749 -10.294  0.00  0.00    -0.026 C 
ATOM     10  H   LIG d   1       0.536  -2.693  -9.462  0.00  0.00     0.031 H 
ATOM     11  C   LIG d   1       2.634  -3.135  -9.767  0.00  0.00    -0.024 C 
ATOM     12  H   LIG d   1       4.865   0.759  -6.835  0.00  0.00     0.066 H 
ATOM     13  H   LIG d   1       0.702  -0.203  -9.320  0.00  0.00     0.031 H 
ATOM     14  H   LIG d   1       1.846   0.632 -10.424  0.00  0.00     0.031 H 
ATOM     15  H   LIG d   1       0.432  -1.160 -11.527  0.00  0.00     0.027 H 
ATOM     16  H   LIG d   1       2.204  -1.397 -11.702  0.00  0.00     0.027 H 
ATOM     17  H   LIG d   1       3.291  -3.358 -10.622  0.00  0.00     0.032 H 
ATOM     18  H   LIG d   1       2.537  -4.030  -9.136  0.00  0.00     0.032 H 
ENDROOT
BRANCH   9  19
ATOM     19  C   LIG d   1       0.769  -3.801 -11.294  0.00  0.00     0.036 C 
ATOM     20  H   LIG d   1       1.628  -4.359 -11.694  0.00  0.00     0.039 H 
BRANCH  19  21
ATOM     21  C   LIG d   1       0.017  -3.112 -12.435  0.00  0.00    -0.054 C 
ATOM     22  H   LIG d   1      -0.917  -3.654 -12.638  0.00  0.00     0.024 H 
ATOM     23  H   LIG d   1       0.645  -3.111 -13.339  0.00  0.00     0.024 H 
ATOM     24  H   LIG d   1      -0.214  -2.075 -12.148  0.00  0.00     0.024 H 
ENDBRANCH  19  21
BRANCH  19  25
ATOM     25  C   LIG d   1      -0.153  -4.768 -10.598  0.00  0.00     0.216 C 
ATOM     26  O   LIG d   1       0.284  -5.807 -10.150  0.00  0.00    -0.276 OA
ATOM     27  N   LIG d   1      -1.463  -4.480 -10.473  0.00  0.00    -0.313 N 
ATOM     28  H   LIG d   1      -1.860  -3.537 -10.879  0.00  0.00     0.149 HD
BRANCH  27  29
ATOM     29  C   LIG d   1      -2.359  -5.420  -9.796  0.00  0.00     0.035 C 
ATOM     30  H   LIG d   1      -2.145  -6.443 -10.141  0.00  0.00     0.048 H 
ATOM     31  H   LIG d   1      -2.203  -5.359  -8.709  0.00  0.00     0.048 H 
BRANCH  29  32
ATOM     32  C   LIG d   1      -3.811  -5.066 -10.123  0.00  0.00     0.063 C 
ATOM     33  H   LIG d   1      -3.845  -4.478 -11.053  0.00  0.00     0.058 H 
ATOM     34  H   LIG d   1      -4.394  -5.990 -10.253  0.00  0.00     0.058 H 
BRANCH  32  35
ATOM     35  O   LIG d   1      -4.368  -4.299  -9.054  0.00  0.00    -0.381 OA
BRANCH  35  36
ATOM     36  C   LIG d   1      -5.528  -3.549  -9.418  0.00  0.00     0.036 C 
ATOM     37  H   LIG d   1      -5.247  -2.764 -10.136  0.00  0.00     0.052 H 
ATOM     38  H   LIG d   1      -5.962  -3.085  -8.520  0.00  0.00     0.052 H 
ATOM     39  H   LIG d   1      -6.269  -4.219  -9.879  0.00  0.00     0.052 H 
ENDBRANCH  35  36
ENDBRANCH  32  35
ENDBRANCH  29  32
ENDBRANCH  27  29
ENDBRANCH  19  25
ENDBRANCH   9  19
BRANCH   4  40
ATOM     40  C   LIG d   1       4.797  -3.727  -8.031  0.00  0.00    -0.036 C 
ATOM     41  H   LIG d   1       4.034  -4.365  -7.560  0.00  0.00     0.028 H 
ATOM     42  H   LIG d   1       5.717  -3.750  -7.428  0.00  0.00     0.028 H 
ATOM     43  H   LIG d   1       5.012  -4.101  -9.043  0.00  0.00     0.028 H 
ENDBRANCH   4  40
BRANCH   1  44
ATOM     44  C   LIG d   1       2.846   1.693  -8.355  0.00  0.00    -0.039 C 
ATOM     45  H   LIG d   1       1.751   1.695  -8.261  0.00  0.00     0.028 H 
ATOM     46  H   LIG d   1       3.132   2.125  -9.325  0.00  0.00     0.028 H 
ATOM     47  H   LIG d   1       3.285   2.292  -7.543  0.00  0.00     0.028 H 
ENDBRANCH   1  44
BRANCH   3  48
ATOM     48  O   LIG d   1       5.910  -1.627  -6.518  0.00  0.00    -0.490 OA
BRANCH  48  49
ATOM     49  C   LIG d   1       6.135  -0.751  -5.412  0.00  0.00     0.102 C 
ATOM     50  H   LIG d   1       7.105  -0.245  -5.537  0.00  0.00     0.071 H 
ATOM     51  H   LIG d   1       5.333   0.000  -5.369  0.00  0.00     0.071 H 
BRANCH  49  52
ATOM     52  C   LIG d   1       6.146  -1.561  -4.114  0.00  0.00     0.033 C 
ATOM     53  H   LIG d   1       5.886  -2.608  -4.333  0.00  0.00     0.046 H 
ATOM     54  H   LIG d   1       7.148  -1.519  -3.664  0.00  0.00     0.046 H 
BRANCH  52  55
ATOM     55  N   LIG d   1       5.165  -0.999  -3.176  0.00  0.00    -0.295 N 
ATOM     56  C   LIG d   1       3.821  -0.973  -3.771  0.00  0.00     0.022 C 
ATOM     57  C   LIG d   1       2.823  -0.438  -2.742  0.00  0.00     0.060 C 
ATOM     58  H   LIG d   1       3.824  -0.320  -4.657  0.00  0.00     0.045 H 
ATOM     59  H   LIG d   1       3.533  -1.993  -4.069  0.00  0.00     0.045 H 
ATOM     60  O   LIG d   1       3.245   0.857  -2.304  0.00  0.00    -0.377 OA
ATOM     61  H   LIG d   1       2.780  -1.120  -1.880  0.00  0.00     0.057 H 
ATOM     62  H   LIG d   1       1.825  -0.363  -3.200  0.00  0.00     0.057 H 
ATOM     63  C   LIG d   1       4.549   0.869  -1.719  0.00  0.00     0.060 C 
ATOM     64  C   LIG d   1       5.566   0.347  -2.737  0.00  0.00     0.022 C 
ATOM     65  H   LIG d   1       4.559   0.225  -0.827  0.00  0.00     0.057 H 
ATOM     66  H   LIG d   1       4.814   1.897  -1.431  0.00  0.00     0.057 H 
ATOM     67  H   LIG d   1       6.562   0.298  -2.273  0.00  0.00     0.045 H 
ATOM     68  H   LIG d   1       5.599   1.021  -3.606  0.00  0.00     0.045 H 
ENDBRANCH  52  55
ENDBRANCH  49  52
ENDBRANCH  48  49
ENDBRANCH   3  48
TORSDOF 13
ENDMDL
MODEL 2
REMARK VINA RESULT:      -5.9      1.299      1.850
REMARK  13 active torsions:
REMARK  status: ('A' for Active; 'I' for Inactive)
REMARK    1  A    between atoms: C_1  and  C_2 
REMARK    2  A    between atoms: C_4  and  O_24 
REMARK    3  A    between atoms: C_5  and  C_23 
REMARK    4  A    between atoms: C_10  and  C_13 
REMARK    5  A    between atoms: C_13  and  C_15 
REMARK    6  A    between atoms: C_13  and  C_16 
REMARK       I    between atoms: C_16  and  N_18 
REMARK    7  A    between atoms: N_18  and  C_19 
REMARK    8  A    between atoms: C_19  and  C_20 
REMARK    9  A    between atoms: C_20  and  O_21 
REMARK   10  A    between atoms: O_21  and  C_22 
REMARK   11  A    between atoms: O_24  and  C_25 
REMARK   12  A    between atoms: C_25  and  C_26 
REMARK   13  A    between atoms: C_26  and  N_27 
ROOT
ATOM      1  C   LIG d   1       3.262  -0.181  -8.058  0.00  0.00    -0.043 A 
ATOM      2  C   LIG d   1       4.205  -0.667  -7.177  0.00  0.00    -0.017 A 
ATOM      3  C   LIG d   1       4.566  -2.005  -7.225  0.00  0.00     0.124 A 
ATOM      4  C   LIG d   1       3.981  -2.839  -8.164  0.00  0.00    -0.005 A 
ATOM      5  C   LIG d   1       3.031  -2.349  -9.047  0.00  0.00    -0.037 A 
ATOM      6  C   LIG d   1       2.671  -1.021  -8.995  0.00  0.00    -0.041 A 
ATOM      7  C   LIG d   1       1.644  -0.421  -9.921  0.00  0.00    -0.027 C 
ATOM      8  C   LIG d   1       1.420  -1.326 -11.132  0.00  0.00    -0.045 C 
ATOM      9  C   LIG d   1       1.144  -2.748 -10.629  0.00  0.00    -0.026 C 
ATOM     10  H   LIG d   1       0.358  -2.734  -9.860  0.00  0.00     0.031 H 
ATOM     11  C   LIG d   1       2.437  -3.311 -10.042  0.00  0.00    -0.024 C 
ATOM     12  H   LIG d   1       4.660  -0.007  -6.453  0.00  0.00     0.066 H 
ATOM     13  H   LIG d   1       0.691  -0.303  -9.384  0.00  0.00     0.031 H 
ATOM     14  H   LIG d   1       1.993   0.561 -10.270  0.00  0.00     0.031 H 
ATOM     15  H   LIG d   1       0.561  -0.957 -11.711  0.00  0.00     0.027 H 
ATOM     16  H   LIG d   1       2.320  -1.319 -11.765  0.00  0.00     0.027 H 
ATOM     17  H   LIG d   1       3.154  -3.482 -10.860  0.00  0.00     0.032 H 
ATOM     18  H   LIG d   1       2.215  -4.265  -9.542  0.00  0.00     0.032 H 
ENDROOT
BRANCH   9  19
ATOM     19  C   LIG d   1       0.681  -3.625 -11.794  0.00  0.00     0.036 C 
ATOM     20  H   LIG d   1       1.444  -4.385 -12.016  0.00  0.00     0.039 H 
BRANCH  19  21
ATOM     21  C   LIG d   1       0.441  -2.751 -13.027  0.00  0.00    -0.054 C 
ATOM     22  H   LIG d   1       0.247  -3.392 -13.898  0.00  0.00     0.024 H 
ATOM     23  H   LIG d   1       1.332  -2.133 -13.217  0.00  0.00     0.024 H 
ATOM     24  H   LIG d   1      -0.426  -2.098 -12.850  0.00  0.00     0.024 H 
ENDBRANCH  19  21
BRANCH  19  25
ATOM     25  C   LIG d   1      -0.600  -4.324 -11.418  0.00  0.00     0.216 C 
ATOM     26  O   LIG d   1      -1.398  -4.632 -12.278  0.00  0.00    -0.276 OA
ATOM     27  N   LIG d   1      -0.860  -4.605 -10.126  0.00  0.00    -0.313 N 
ATOM     28  H   LIG d   1      -0.136  -4.325  -9.346  0.00  0.00     0.149 HD
BRANCH  27  29
ATOM     29  C   LIG d   1      -2.104  -5.285  -9.760  0.00  0.00     0.035 C 
ATOM     30  H   LIG d   1      -2.608  -4.721  -8.960  0.00  0.00     0.048 H 
ATOM     31  H   LIG d   1      -2.763  -5.343 -10.639  0.00  0.00     0.048 H 
BRANCH  29  32
ATOM     32  C   LIG d   1      -1.788  -6.698  -9.265  0.00  0.00     0.063 C 
ATOM     33  H   LIG d   1      -2.075  -6.789  -8.206  0.00  0.00     0.058 H 
ATOM     34  H   LIG d   1      -2.352  -7.430  -9.862  0.00  0.00     0.058 H 
BRANCH  32  35
ATOM     35  O   LIG d   1      -0.389  -6.949  -9.402  0.00  0.00    -0.381 OA
BRANCH  35  36
ATOM     36  C   LIG d   1      -0.074  -8.018 -10.296  0.00  0.00     0.036 C 
ATOM     37  H   LIG d   1       0.614  -7.655 -11.075  0.00  0.00     0.052 H 
ATOM     38  H   LIG d   1      -0.997  -8.387 -10.767  0.00  0.00     0.052 H 
ATOM     39  H   LIG d   1       0.404  -8.835  -9.737  0.00  0.00     0.052 H 
ENDBRANCH  35  36
ENDBRANCH  32  35
ENDBRANCH  29  32
ENDBRANCH  27  29
ENDBRANCH  19  25
ENDBRANCH   9  19
BRANCH   4  40
ATOM     40  C   LIG d   1       4.377  -4.292  -8.221  0.00  0.00    -0.036 C 
ATOM     41  H   LIG d   1       4.255  -4.744  -7.226  0.00  0.00     0.028 H 
ATOM     42  H   LIG d   1       5.428  -4.373  -8.534  0.00  0.00     0.028 H 
ATOM     43  H   LIG d   1       3.737  -4.819  -8.944  0.00  0.00     0.028 H 
ENDBRANCH   4  40
BRANCH   1  44
ATOM     44  C   LIG d   1       2.868   1.272  -8.004  0.00  0.00    -0.039 C 
ATOM     45  H   LIG d   1       1.814   1.356  -7.703  0.00  0.00     0.028 H 
ATOM     46  H   LIG d   1       3.002   1.725  -8.997  0.00  0.00     0.028 H 
ATOM     47  H   LIG d   1       3.502   1.798  -7.274  0.00  0.00     0.028 H 
ENDBRANCH   1  44
BRANCH   3  48
ATOM     48  O   LIG d   1       5.493  -2.494  -6.361  0.00  0.00    -0.490 OA
BRANCH  48  49
ATOM     49  C   LIG d   1       5.046  -2.812  -5.041  0.00  0.00     0.102 C 
ATOM     50  H   LIG d   1       3.985  -2.539  -4.938  0.00  0.00     0.071 H 
ATOM     51  H   LIG d   1       5.165  -3.891  -4.864  0.00  0.00     0.071 H 
BRANCH  49  52
ATOM     52  C   LIG d   1       5.875  -2.032  -4.019  0.00  0.00     0.033 C 
ATOM     53  H   LIG d   1       6.502  -2.732  -3.445  0.00  0.00     0.046 H 
ATOM     54  H   LIG d   1       6.518  -1.310  -4.543  0.00  0.00     0.046 H 
BRANCH  52  55
ATOM     55  N   LIG d   1       4.978  -1.315  -3.104  0.00  0.00    -0.295 N 
ATOM     56  C   LIG d   1       3.628  -1.196  -3.673  0.00  0.00     0.022 C 
ATOM     57  C   LIG d   1       2.714  -0.497  -2.664  0.00  0.00     0.060 C 
ATOM     58  H   LIG d   1       3.672  -0.607  -4.601  0.00  0.00     0.045 H 
ATOM     59  H   LIG d   1       3.234  -2.200  -3.895  0.00  0.00     0.045 H 
ATOM     60  O   LIG d   1       3.272   0.775  -2.324  0.00  0.00    -0.377 OA
ATOM     61  H   LIG d   1       2.627  -1.113  -1.757  0.00  0.00     0.057 H 
ATOM     62  H   LIG d   1       1.717  -0.354  -3.107  0.00  0.00     0.057 H 
ATOM     63  C   LIG d   1       4.585   0.697  -1.767  0.00  0.00     0.060 C 
ATOM     64  C   LIG d   1       5.520   0.010  -2.765  0.00  0.00     0.022 C 
ATOM     65  H   LIG d   1       4.555   0.116  -0.833  0.00  0.00     0.057 H 
ATOM     66  H   LIG d   1       4.957   1.711  -1.555  0.00  0.00     0.057 H 
ATOM     67  H   LIG d   1       6.518  -0.106  -2.318  0.00  0.00     0.045 H 
ATOM     68  H   LIG d   1       5.596   0.619  -3.679  0.00  0.00     0.045 H 
ENDBRANCH  52  55
ENDBRANCH  49  52
ENDBRANCH  48  49
ENDBRANCH   3  48
TORSDOF 13
ENDMDL
MODEL 3
REMARK VINA RESULT:      -5.7      6.691     10.061
REMARK  13 active torsions:
REMARK  status: ('A' for Active; 'I' for Inactive)
REMARK    1  A    between atoms: C_1  and  C_2 
REMARK    2  A    between atoms: C_4  and  O_24 
REMARK    3  A    between atoms: C_5  and  C_23 
REMARK    4  A    between atoms: C_10  and  C_13 
REMARK    5  A    between atoms: C_13  and  C_15 
REMARK    6  A    between atoms: C_13  and  C_16 
REMARK       I    between atoms: C_16  and  N_18 
REMARK    7  A    between atoms: N_18  and  C_19 
REMARK    8  A    between atoms: C_19  and  C_20 
REMARK    9  A    between atoms: C_20  and  O_21 
REMARK   10  A    between atoms: O_21  and  C_22 
REMARK   11  A    between atoms: O_24  and  C_25 
REMARK   12  A    between atoms: C_25  and  C_26 
REMARK   13  A    between atoms: C_26  and  N_27 
ROOT
ATOM      1  C   LIG d   1       9.868   4.068  -6.950  0.00  0.00    -0.043 A 
ATOM      2  C   LIG d   1      10.533   5.173  -6.461  0.00  0.00    -0.017 A 
ATOM      3  C   LIG d   1      10.568   5.406  -5.094  0.00  0.00     0.124 A 
ATOM      4  C   LIG d   1       9.940   4.522  -4.232  0.00  0.00    -0.005 A 
ATOM      5  C   LIG d   1       9.270   3.413  -4.726  0.00  0.00    -0.037 A 
ATOM      6  C   LIG d   1       9.234   3.185  -6.084  0.00  0.00    -0.041 A 
ATOM      7  C   LIG d   1       8.522   2.003  -6.690  0.00  0.00    -0.027 C 
ATOM      8  C   LIG d   1       8.263   0.931  -5.632  0.00  0.00    -0.045 C 
ATOM      9  C   LIG d   1       7.587   1.595  -4.426  0.00  0.00    -0.026 C 
ATOM     10  H   LIG d   1       6.726   2.195  -4.755  0.00  0.00     0.031 H 
ATOM     11  C   LIG d   1       8.612   2.492  -3.732  0.00  0.00    -0.024 C 
ATOM     12  H   LIG d   1      11.025   5.853  -7.140  0.00  0.00     0.066 H 
ATOM     13  H   LIG d   1       7.559   2.330  -7.108  0.00  0.00     0.031 H 
ATOM     14  H   LIG d   1       9.141   1.571  -7.490  0.00  0.00     0.031 H 
ATOM     15  H   LIG d   1       7.609   0.153  -6.050  0.00  0.00     0.027 H 
ATOM     16  H   LIG d   1       9.220   0.481  -5.325  0.00  0.00     0.027 H 
ATOM     17  H   LIG d   1       9.376   1.858  -3.257  0.00  0.00     0.032 H 
ATOM     18  H   LIG d   1       8.100   3.088  -2.963  0.00  0.00     0.032 H 
ENDROOT
BRANCH   9  19
ATOM     19  C   LIG d   1       7.099   0.520  -3.453  0.00  0.00     0.036 C 
ATOM     20  H   LIG d   1       7.696   0.553  -2.530  0.00  0.00     0.039 H 
BRANCH  19  21
ATOM     21  C   LIG d   1       7.226  -0.856  -4.108  0.00  0.00    -0.054 C 
ATOM     22  H   LIG d   1       8.025  -0.830  -4.863  0.00  0.00     0.024 H 
ATOM     23  H   LIG d   1       6.273  -1.122  -4.591  0.00  0.00     0.024 H 
ATOM     24  H   LIG d   1       7.470  -1.606  -3.341  0.00  0.00     0.024 H 
ENDBRANCH  19  21
BRANCH  19  25
ATOM     25  C   LIG d   1       5.656   0.778  -3.103  0.00  0.00     0.216 C 
ATOM     26  O   LIG d   1       5.372   1.291  -2.042  0.00  0.00    -0.276 OA
ATOM     27  N   LIG d   1       4.681   0.439  -3.970  0.00  0.00    -0.313 N 
ATOM     28  H   LIG d   1       4.939  -0.027  -4.932  0.00  0.00     0.149 HD
BRANCH  27  29
ATOM     29  C   LIG d   1       3.279   0.689  -3.630  0.00  0.00     0.035 C 
ATOM     30  H   LIG d   1       2.981   0.036  -2.796  0.00  0.00     0.048 H 
ATOM     31  H   LIG d   1       3.155   1.741  -3.333  0.00  0.00     0.048 H 
BRANCH  29  32
ATOM     32  C   LIG d   1       2.399   0.396  -4.846  0.00  0.00     0.063 C 
ATOM     33  H   LIG d   1       2.294  -0.693  -4.970  0.00  0.00     0.058 H 
ATOM     34  H   LIG d   1       1.406   0.845  -4.697  0.00  0.00     0.058 H 
BRANCH  32  35
ATOM     35  O   LIG d   1       3.001   0.952  -6.016  0.00  0.00    -0.381 OA
BRANCH  35  36
ATOM     36  C   LIG d   1       2.918   0.113  -7.169  0.00  0.00     0.036 C 
ATOM     37  H   LIG d   1       3.886   0.109  -7.692  0.00  0.00     0.052 H 
ATOM     38  H   LIG d   1       2.138   0.494  -7.845  0.00  0.00     0.052 H 
ATOM     39  H   LIG d   1       2.664  -0.912  -6.859  0.00  0.00     0.052 H 
ENDBRANCH  35  36
ENDBRANCH  32  35
ENDBRANCH  29  32
ENDBRANCH  27  29
ENDBRANCH  19  25
ENDBRANCH   9  19
BRANCH   4  40
ATOM     40  C   LIG d   1       9.982   4.770  -2.747  0.00  0.00    -0.036 C 
ATOM     41  H   LIG d   1       9.271   5.569  -2.489  0.00  0.00     0.028 H 
ATOM     42  H   LIG d   1      10.998   5.076  -2.455  0.00  0.00     0.028 H 
ATOM     43  H   LIG d   1       9.708   3.849  -2.212  0.00  0.00     0.028 H 
ENDBRANCH   4  40
BRANCH   1  44
ATOM     44  C   LIG d   1       9.829   3.816  -8.435  0.00  0.00    -0.039 C 
ATOM     45  H   LIG d   1      10.569   4.458  -8.935  0.00  0.00     0.028 H 
ATOM     46  H   LIG d   1       8.825   4.047  -8.819  0.00  0.00     0.028 H 
ATOM     47  H   LIG d   1      10.064   2.760  -8.634  0.00  0.00     0.028 H 
ENDBRANCH   1  44
BRANCH   3  48
ATOM     48  O   LIG d   1      11.219   6.493  -4.603  0.00  0.00    -0.490 OA
BRANCH  48  49
ATOM     49  C   LIG d   1      10.668   7.775  -4.914  0.00  0.00     0.102 C 
ATOM     50  H   LIG d   1      10.949   8.054  -5.941  0.00  0.00     0.071 H 
ATOM     51  H   LIG d   1       9.572   7.733  -4.832  0.00  0.00     0.071 H 
BRANCH  49  52
ATOM     52  C   LIG d   1      11.215   8.815  -3.935  0.00  0.00     0.033 C 
ATOM     53  H   LIG d   1      12.285   8.628  -3.760  0.00  0.00     0.046 H 
ATOM     54  H   LIG d   1      11.083   9.821  -4.358  0.00  0.00     0.046 H 
BRANCH  52  55
ATOM     55  N   LIG d   1      10.487   8.721  -2.662  0.00  0.00    -0.295 N 
ATOM     56  C   LIG d   1       9.834   9.995  -2.331  0.00  0.00     0.022 C 
ATOM     57  C   LIG d   1       9.042   9.834  -1.032  0.00  0.00     0.060 C 
ATOM     58  H   LIG d   1      10.598  10.776  -2.203  0.00  0.00     0.045 H 
ATOM     59  H   LIG d   1       9.153  10.280  -3.146  0.00  0.00     0.045 H 
ATOM     60  O   LIG d   1       9.921   9.392   0.006  0.00  0.00    -0.377 OA
ATOM     61  H   LIG d   1       8.243   9.092  -1.176  0.00  0.00     0.057 H 
ATOM     62  H   LIG d   1       8.597  10.800  -0.748  0.00  0.00     0.057 H 
ATOM     63  C   LIG d   1      10.573   8.153  -0.283  0.00  0.00     0.060 C 
ATOM     64  C   LIG d   1      11.382   8.295  -1.574  0.00  0.00     0.022 C 
ATOM     65  H   LIG d   1       9.821   7.360  -0.406  0.00  0.00     0.057 H 
ATOM     66  H   LIG d   1      11.248   7.890   0.546  0.00  0.00     0.057 H 
ATOM     67  H   LIG d   1      11.839   7.328  -1.833  0.00  0.00     0.045 H 
ATOM     68  H   LIG d   1      12.172   9.048  -1.435  0.00  0.00     0.045 H 
ENDBRANCH  52  55
ENDBRANCH  49  52
ENDBRANCH  48  49
ENDBRANCH   3  48
TORSDOF 13
ENDMDL
MODEL 4
REMARK VINA RESULT:      -5.6      7.206     10.425
REMARK  13 active torsions:
REMARK  status: ('A' for Active; 'I' for Inactive)
REMARK    1  A    between atoms: C_1  and  C_2 
REMARK    2  A    between atoms: C_4  and  O_24 
REMARK    3  A    between atoms: C_5  and  C_23 
REMARK    4  A    between atoms: C_10  and  C_13 
REMARK    5  A    between atoms: C_13  and  C_15 
REMARK    6  A    between atoms: C_13  and  C_16 
REMARK       I    between atoms: C_16  and  N_18 
REMARK    7  A    between atoms: N_18  and  C_19 
REMARK    8  A    between atoms: C_19  and  C_20 
REMARK    9  A    between atoms: C_20  and  O_21 
REMARK   10  A    between atoms: O_21  and  C_22 
REMARK   11  A    between atoms: O_24  and  C_25 
REMARK   12  A    between atoms: C_25  and  C_26 
REMARK   13  A    between atoms: C_26  and  N_27 
ROOT
ATOM      1  C   LIG d   1       9.927   4.148  -6.882  0.00  0.00    -0.043 A 
ATOM      2  C   LIG d   1      10.606   5.232  -6.367  0.00  0.00    -0.017 A 
ATOM      3  C   LIG d   1      10.648   5.429  -4.994  0.00  0.00     0.124 A 
ATOM      4  C   LIG d   1      10.013   4.529  -4.154  0.00  0.00    -0.005 A 
ATOM      5  C   LIG d   1       9.329   3.441  -4.675  0.00  0.00    -0.037 A 
ATOM      6  C   LIG d   1       9.286   3.249  -6.038  0.00  0.00    -0.041 A 
ATOM      7  C   LIG d   1       8.558   2.092  -6.672  0.00  0.00    -0.027 C 
ATOM      8  C   LIG d   1       8.292   0.996  -5.641  0.00  0.00    -0.045 C 
ATOM      9  C   LIG d   1       7.627   1.635  -4.416  0.00  0.00    -0.026 C 
ATOM     10  H   LIG d   1       6.771   2.253  -4.726  0.00  0.00     0.031 H 
ATOM     11  C   LIG d   1       8.664   2.502  -3.703  0.00  0.00    -0.024 C 
ATOM     12  H   LIG d   1      11.103   5.924  -7.030  0.00  0.00     0.066 H 
ATOM     13  H   LIG d   1       7.597   2.441  -7.077  0.00  0.00     0.031 H 
ATOM     14  H   LIG d   1       9.170   1.674  -7.485  0.00  0.00     0.031 H 
ATOM     15  H   LIG d   1       7.627   0.236  -6.077  0.00  0.00     0.027 H 
ATOM     16  H   LIG d   1       9.244   0.526  -5.350  0.00  0.00     0.027 H 
ATOM     17  H   LIG d   1       9.423   1.846  -3.248  0.00  0.00     0.032 H 
ATOM     18  H   LIG d   1       8.162   3.083  -2.916  0.00  0.00     0.032 H 
ENDROOT
BRANCH   9  19
ATOM     19  C   LIG d   1       7.130   0.540  -3.470  0.00  0.00     0.036 C 
ATOM     20  H   LIG d   1       7.715   0.558  -2.538  0.00  0.00     0.039 H 
BRANCH  19  21
ATOM     21  C   LIG d   1       7.271  -0.823  -4.149  0.00  0.00    -0.054 C 
ATOM     22  H   LIG d   1       8.333  -1.021  -4.357  0.00  0.00     0.024 H 
ATOM     23  H   LIG d   1       6.706  -0.823  -5.093  0.00  0.00     0.024 H 
ATOM     24  H   LIG d   1       6.875  -1.606  -3.485  0.00  0.00     0.024 H 
ENDBRANCH  19  21
BRANCH  19  25
ATOM     25  C   LIG d   1       5.681   0.787  -3.134  0.00  0.00     0.216 C 
ATOM     26  O   LIG d   1       5.384   1.315  -2.084  0.00  0.00    -0.276 OA
ATOM     27  N   LIG d   1       4.717   0.419  -4.001  0.00  0.00    -0.313 N 
ATOM     28  H   LIG d   1       4.988  -0.061  -4.953  0.00  0.00     0.149 HD
BRANCH  27  29
ATOM     29  C   LIG d   1       3.310   0.658  -3.675  0.00  0.00     0.035 C 
ATOM     30  H   LIG d   1       2.980  -0.070  -2.919  0.00  0.00     0.048 H 
ATOM     31  H   LIG d   1       3.192   1.678  -3.279  0.00  0.00     0.048 H 
BRANCH  29  32
ATOM     32  C   LIG d   1       2.460   0.501  -4.938  0.00  0.00     0.063 C 
ATOM     33  H   LIG d   1       2.067  -0.526  -4.990  0.00  0.00     0.058 H 
ATOM     34  H   LIG d   1       1.622   1.213  -4.907  0.00  0.00     0.058 H 
BRANCH  32  35
ATOM     35  O   LIG d   1       3.264   0.763  -6.089  0.00  0.00    -0.381 OA
BRANCH  35  36
ATOM     36  C   LIG d   1       2.885   0.014  -7.246  0.00  0.00     0.036 C 
ATOM     37  H   LIG d   1       2.271   0.645  -7.906  0.00  0.00     0.052 H 
ATOM     38  H   LIG d   1       2.305  -0.868  -6.938  0.00  0.00     0.052 H 
ATOM     39  H   LIG d   1       3.788  -0.310  -7.784  0.00  0.00     0.052 H 
ENDBRANCH  35  36
ENDBRANCH  32  35
ENDBRANCH  29  32
ENDBRANCH  27  29
ENDBRANCH  19  25
ENDBRANCH   9  19
BRANCH   4  40
ATOM     40  C   LIG d   1      10.063   4.738  -2.663  0.00  0.00    -0.036 C 
ATOM     41  H   LIG d   1      11.096   4.960  -2.358  0.00  0.00     0.028 H 
ATOM     42  H   LIG d   1       9.718   3.826  -2.153  0.00  0.00     0.028 H 
ATOM     43  H   LIG d   1       9.412   5.580  -2.388  0.00  0.00     0.028 H 
ENDBRANCH   4  40
BRANCH   1  44
ATOM     44  C   LIG d   1       9.880   3.936  -8.373  0.00  0.00    -0.039 C 
ATOM     45  H   LIG d   1       9.841   4.910  -8.881  0.00  0.00     0.028 H 
ATOM     46  H   LIG d   1       8.984   3.352  -8.632  0.00  0.00     0.028 H 
ATOM     47  H   LIG d   1      10.779   3.389  -8.695  0.00  0.00     0.028 H 
ENDBRANCH   1  44
BRANCH   3  48
ATOM     48  O   LIG d   1      11.313   6.494  -4.478  0.00  0.00    -0.490 OA
BRANCH  48  49
ATOM     49  C   LIG d   1      10.870   7.793  -4.879  0.00  0.00     0.102 C 
ATOM     50  H   LIG d   1      11.685   8.310  -5.409  0.00  0.00     0.071 H 
ATOM     51  H   LIG d   1      10.003   7.694  -5.548  0.00  0.00     0.071 H 
BRANCH  49  52
ATOM     52  C   LIG d   1      10.472   8.601  -3.643  0.00  0.00     0.033 C 
ATOM     53  H   LIG d   1       9.847   7.979  -2.984  0.00  0.00     0.046 H 
ATOM     54  H   LIG d   1      11.377   8.912  -3.102  0.00  0.00     0.046 H 
BRANCH  52  55
ATOM     55  N   LIG d   1       9.716   9.790  -4.057  0.00  0.00    -0.295 N 
ATOM     56  C   LIG d   1      10.375  10.471  -5.180  0.00  0.00     0.022 C 
ATOM     57  C   LIG d   1       9.525  11.666  -5.616  0.00  0.00     0.060 C 
ATOM     58  H   LIG d   1      11.369  10.821  -4.865  0.00  0.00     0.045 H 
ATOM     59  H   LIG d   1      10.484   9.769  -6.021  0.00  0.00     0.045 H 
ATOM     60  O   LIG d   1       9.325  12.536  -4.499  0.00  0.00    -0.377 OA
ATOM     61  H   LIG d   1       8.550  11.311  -5.983  0.00  0.00     0.057 H 
ATOM     62  H   LIG d   1      10.041  12.213  -6.419  0.00  0.00     0.057 H 
ATOM     63  C   LIG d   1       8.684  11.906  -3.387  0.00  0.00     0.060 C 
ATOM     64  C   LIG d   1       9.525  10.713  -2.927  0.00  0.00     0.022 C 
ATOM     65  H   LIG d   1       7.685  11.557  -3.687  0.00  0.00     0.057 H 
ATOM     66  H   LIG d   1       8.587  12.626  -2.561  0.00  0.00     0.057 H 
ATOM     67  H   LIG d   1       9.008  10.189  -2.110  0.00  0.00     0.045 H 
ATOM     68  H   LIG d   1      10.505  11.066  -2.574  0.00  0.00     0.045 H 
ENDBRANCH  52  55
ENDBRANCH  49  52
ENDBRANCH  48  49
ENDBRANCH   3  48
TORSDOF 13
ENDMDL
MODEL 5
REMARK VINA RESULT:      -5.6      4.246      7.139
REMARK  13 active torsions:
REMARK  status: ('A' for Active; 'I' for Inactive)
REMARK    1  A    between atoms: C_1  and  C_2 
REMARK    2  A    between atoms: C_4  and  O_24 
REMARK    3  A    between atoms: C_5  and  C_23 
REMARK    4  A    between atoms: C_10  and  C_13 
REMARK    5  A    between atoms: C_13  and  C_15 
REMARK    6  A    between atoms: C_13  and  C_16 
REMARK       I    between atoms: C_16  and  N_18 
REMARK    7  A    between atoms: N_18  and  C_19 
REMARK    8  A    between atoms: C_19  and  C_20 
REMARK    9  A    between atoms: C_20  and  O_21 
REMARK   10  A    between atoms: O_21  and  C_22 
REMARK   11  A    between atoms: O_24  and  C_25 
REMARK   12  A    between atoms: C_25  and  C_26 
REMARK   13  A    between atoms: C_26  and  N_27 
ROOT
ATOM      1  C   LIG d   1       5.493   0.336  -2.854  0.00  0.00    -0.043 A 
ATOM      2  C   LIG d   1       6.395   1.322  -3.193  0.00  0.00    -0.017 A 
ATOM      3  C   LIG d   1       7.328   1.087  -4.193  0.00  0.00     0.124 A 
ATOM      4  C   LIG d   1       7.338  -0.135  -4.847  0.00  0.00    -0.005 A 
ATOM      5  C   LIG d   1       6.431  -1.126  -4.501  0.00  0.00    -0.037 A 
ATOM      6  C   LIG d   1       5.509  -0.892  -3.506  0.00  0.00    -0.041 A 
ATOM      7  C   LIG d   1       4.498  -1.923  -3.078  0.00  0.00    -0.027 C 
ATOM      8  C   LIG d   1       4.356  -3.011  -4.142  0.00  0.00    -0.045 C 
ATOM      9  C   LIG d   1       5.756  -3.528  -4.494  0.00  0.00    -0.026 C 
ATOM     10  H   LIG d   1       6.308  -3.789  -3.579  0.00  0.00     0.031 H 
ATOM     11  C   LIG d   1       6.498  -2.429  -5.254  0.00  0.00    -0.024 C 
ATOM     12  H   LIG d   1       6.375   2.273  -2.683  0.00  0.00     0.066 H 
ATOM     13  H   LIG d   1       4.824  -2.388  -2.135  0.00  0.00     0.031 H 
ATOM     14  H   LIG d   1       3.520  -1.441  -2.929  0.00  0.00     0.031 H 
ATOM     15  H   LIG d   1       3.740  -3.832  -3.747  0.00  0.00     0.027 H 
ATOM     16  H   LIG d   1       3.875  -2.588  -5.037  0.00  0.00     0.027 H 
ATOM     17  H   LIG d   1       6.033  -2.305  -6.244  0.00  0.00     0.032 H 
ATOM     18  H   LIG d   1       7.549  -2.728  -5.377  0.00  0.00     0.032 H 
ENDROOT
BRANCH   9  19
ATOM     19  C   LIG d   1       5.639  -4.774  -5.373  0.00  0.00     0.036 C 
ATOM     20  H   LIG d   1       5.417  -5.652  -4.749  0.00  0.00     0.039 H 
BRANCH  19  21
ATOM     21  C   LIG d   1       6.951  -4.990  -6.130  0.00  0.00    -0.054 C 
ATOM     22  H   LIG d   1       6.918  -4.445  -7.084  0.00  0.00     0.024 H 
ATOM     23  H   LIG d   1       7.089  -6.064  -6.326  0.00  0.00     0.024 H 
ATOM     24  H   LIG d   1       7.790  -4.617  -5.522  0.00  0.00     0.024 H 
ENDBRANCH  19  21
BRANCH  19  25
ATOM     25  C   LIG d   1       4.515  -4.589  -6.360  0.00  0.00     0.216 C 
ATOM     26  O   LIG d   1       3.460  -5.162  -6.192  0.00  0.00    -0.276 OA
ATOM     27  N   LIG d   1       4.684  -3.787  -7.430  0.00  0.00    -0.313 N 
ATOM     28  H   LIG d   1       5.642  -3.268  -7.583  0.00  0.00     0.149 HD
BRANCH  27  29
ATOM     29  C   LIG d   1       3.592  -3.607  -8.390  0.00  0.00     0.035 C 
ATOM     30  H   LIG d   1       3.699  -4.335  -9.208  0.00  0.00     0.048 H 
ATOM     31  H   LIG d   1       2.628  -3.763  -7.883  0.00  0.00     0.048 H 
BRANCH  29  32
ATOM     32  C   LIG d   1       3.644  -2.188  -8.960  0.00  0.00     0.063 C 
ATOM     33  H   LIG d   1       4.671  -1.959  -9.282  0.00  0.00     0.058 H 
ATOM     34  H   LIG d   1       2.964  -2.115  -9.822  0.00  0.00     0.058 H 
BRANCH  32  35
ATOM     35  O   LIG d   1       3.241  -1.255  -7.956  0.00  0.00    -0.381 OA
BRANCH  35  36
ATOM     36  C   LIG d   1       4.242  -0.294  -7.619  0.00  0.00     0.036 C 
ATOM     37  H   LIG d   1       3.975   0.198  -6.671  0.00  0.00     0.052 H 
ATOM     38  H   LIG d   1       4.310   0.460  -8.416  0.00  0.00     0.052 H 
ATOM     39  H   LIG d   1       5.213  -0.799  -7.509  0.00  0.00     0.052 H 
ENDBRANCH  35  36
ENDBRANCH  32  35
ENDBRANCH  29  32
ENDBRANCH  27  29
ENDBRANCH  19  25
ENDBRANCH   9  19
BRANCH   4  40
ATOM     40  C   LIG d   1       8.346  -0.390  -5.937  0.00  0.00    -0.036 C 
ATOM     41  H   LIG d   1       8.723   0.570  -6.319  0.00  0.00     0.028 H 
ATOM     42  H   LIG d   1       7.868  -0.947  -6.756  0.00  0.00     0.028 H 
ATOM     43  H   LIG d   1       9.183  -0.978  -5.533  0.00  0.00     0.028 H 
ENDBRANCH   4  40
BRANCH   1  44
ATOM     44  C   LIG d   1       4.482   0.591  -1.767  0.00  0.00    -0.039 C 
ATOM     45  H   LIG d   1       3.515   0.155  -2.055  0.00  0.00     0.028 H 
ATOM     46  H   LIG d   1       4.366   1.675  -1.621  0.00  0.00     0.028 H 
ATOM     47  H   LIG d   1       4.827   0.131  -0.829  0.00  0.00     0.028 H 
ENDBRANCH   1  44
BRANCH   3  48
ATOM     48  O   LIG d   1       8.221   2.051  -4.534  0.00  0.00    -0.490 OA
BRANCH  48  49
ATOM     49  C   LIG d   1       9.234   2.366  -3.575  0.00  0.00     0.102 C 
ATOM     50  H   LIG d   1       8.778   2.455  -2.577  0.00  0.00     0.071 H 
ATOM     51  H   LIG d   1       9.989   1.567  -3.564  0.00  0.00     0.071 H 
BRANCH  49  52
ATOM     52  C   LIG d   1       9.898   3.691  -3.952  0.00  0.00     0.033 C 
ATOM     53  H   LIG d   1      10.945   3.508  -4.239  0.00  0.00     0.046 H 
ATOM     54  H   LIG d   1       9.361   4.143  -4.798  0.00  0.00     0.046 H 
BRANCH  52  55
ATOM     55  N   LIG d   1       9.859   4.605  -2.802  0.00  0.00    -0.295 N 
ATOM     56  C   LIG d   1       9.598   5.985  -3.234  0.00  0.00     0.022 C 
ATOM     57  C   LIG d   1       9.506   6.890  -2.003  0.00  0.00     0.060 C 
ATOM     58  H   LIG d   1      10.418   6.328  -3.882  0.00  0.00     0.045 H 
ATOM     59  H   LIG d   1       8.650   6.022  -3.791  0.00  0.00     0.045 H 
ATOM     60  O   LIG d   1      10.713   6.779  -1.244  0.00  0.00    -0.377 OA
ATOM     61  H   LIG d   1       8.652   6.581  -1.381  0.00  0.00     0.057 H 
ATOM     62  H   LIG d   1       9.367   7.934  -2.321  0.00  0.00     0.057 H 
ATOM     63  C   LIG d   1      10.997   5.448  -0.807  0.00  0.00     0.060 C 
ATOM     64  C   LIG d   1      11.105   4.527  -2.025  0.00  0.00     0.022 C 
ATOM     65  H   LIG d   1      10.188   5.095  -0.150  0.00  0.00     0.057 H 
ATOM     66  H   LIG d   1      11.948   5.437  -0.254  0.00  0.00     0.057 H 
ATOM     67  H   LIG d   1      11.265   3.491  -1.692  0.00  0.00     0.045 H 
ATOM     68  H   LIG d   1      11.949   4.845  -2.654  0.00  0.00     0.045 H 
ENDBRANCH  52  55
ENDBRANCH  49  52
ENDBRANCH  48  49
ENDBRANCH   3  48
TORSDOF 13
ENDMDL
MODEL 6
REMARK VINA RESULT:      -5.3      2.688      8.536
REMARK  13 active torsions:
REMARK  status: ('A' for Active; 'I' for Inactive)
REMARK    1  A    between atoms: C_1  and  C_2 
REMARK    2  A    between atoms: C_4  and  O_24 
REMARK    3  A    between atoms: C_5  and  C_23 
REMARK    4  A    between atoms: C_10  and  C_13 
REMARK    5  A    between atoms: C_13  and  C_15 
REMARK    6  A    between atoms: C_13  and  C_16 
REMARK       I    between atoms: C_16  and  N_18 
REMARK    7  A    between atoms: N_18  and  C_19 
REMARK    8  A    between atoms: C_19  and  C_20 
REMARK    9  A    between atoms: C_20  and  O_21 
REMARK   10  A    between atoms: O_21  and  C_22 
REMARK   11  A    between atoms: O_24  and  C_25 
REMARK   12  A    between atoms: C_25  and  C_26 
REMARK   13  A    between atoms: C_26  and  N_27 
ROOT
ATOM      1  C   LIG d   1       3.754  -1.391 -13.460  0.00  0.00    -0.043 A 
ATOM      2  C   LIG d   1       3.064  -2.481 -13.947  0.00  0.00    -0.017 A 
ATOM      3  C   LIG d   1       2.057  -3.056 -13.184  0.00  0.00     0.124 A 
ATOM      4  C   LIG d   1       1.750  -2.523 -11.943  0.00  0.00    -0.005 A 
ATOM      5  C   LIG d   1       2.448  -1.428 -11.454  0.00  0.00    -0.037 A 
ATOM      6  C   LIG d   1       3.448  -0.861 -12.212  0.00  0.00    -0.041 A 
ATOM      7  C   LIG d   1       4.248   0.326 -11.742  0.00  0.00    -0.027 C 
ATOM      8  C   LIG d   1       3.531   1.038 -10.596  0.00  0.00    -0.045 C 
ATOM      9  C   LIG d   1       3.163  -0.005  -9.534  0.00  0.00    -0.026 C 
ATOM     10  H   LIG d   1       4.043  -0.612  -9.276  0.00  0.00     0.031 H 
ATOM     11  C   LIG d   1       2.060  -0.899 -10.098  0.00  0.00    -0.024 C 
ATOM     12  H   LIG d   1       3.306  -2.885 -14.919  0.00  0.00     0.066 H 
ATOM     13  H   LIG d   1       5.234  -0.012 -11.389  0.00  0.00     0.031 H 
ATOM     14  H   LIG d   1       4.380   1.033 -12.574  0.00  0.00     0.031 H 
ATOM     15  H   LIG d   1       4.196   1.799 -10.163  0.00  0.00     0.027 H 
ATOM     16  H   LIG d   1       2.620   1.522 -10.979  0.00  0.00     0.027 H 
ATOM     17  H   LIG d   1       1.134  -0.311 -10.184  0.00  0.00     0.032 H 
ATOM     18  H   LIG d   1       1.897  -1.741  -9.409  0.00  0.00     0.032 H 
ENDROOT
BRANCH   9  19
ATOM     19  C   LIG d   1       2.662   0.700  -8.272  0.00  0.00     0.036 C 
ATOM     20  H   LIG d   1       1.615   0.422  -8.080  0.00  0.00     0.039 H 
BRANCH  19  21
ATOM     21  C   LIG d   1       2.773   2.215  -8.456  0.00  0.00    -0.054 C 
ATOM     22  H   LIG d   1       1.768   2.659  -8.452  0.00  0.00     0.024 H 
ATOM     23  H   LIG d   1       3.267   2.433  -9.415  0.00  0.00     0.024 H 
ATOM     24  H   LIG d   1       3.367   2.641  -7.633  0.00  0.00     0.024 H 
ENDBRANCH  19  21
BRANCH  19  25
ATOM     25  C   LIG d   1       3.498   0.274  -7.093  0.00  0.00     0.216 C 
ATOM     26  O   LIG d   1       4.708   0.291  -7.170  0.00  0.00    -0.276 OA
ATOM     27  N   LIG d   1       2.901  -0.126  -5.953  0.00  0.00    -0.313 N 
ATOM     28  H   LIG d   1       1.803  -0.142  -5.883  0.00  0.00     0.149 HD
BRANCH  27  29
ATOM     29  C   LIG d   1       3.714  -0.540  -4.807  0.00  0.00     0.035 C 
ATOM     30  H   LIG d   1       3.541  -1.607  -4.601  0.00  0.00     0.048 H 
ATOM     31  H   LIG d   1       4.778  -0.378  -5.034  0.00  0.00     0.048 H 
BRANCH  29  32
ATOM     32  C   LIG d   1       3.323   0.286  -3.580  0.00  0.00     0.063 C 
ATOM     33  H   LIG d   1       2.296   0.663  -3.703  0.00  0.00     0.058 H 
ATOM     34  H   LIG d   1       3.376  -0.346  -2.681  0.00  0.00     0.058 H 
BRANCH  32  35
ATOM     35  O   LIG d   1       4.221   1.388  -3.440  0.00  0.00    -0.381 OA
BRANCH  35  36
ATOM     36  C   LIG d   1       5.447   1.061  -2.784  0.00  0.00     0.036 C 
ATOM     37  H   LIG d   1       5.641  -0.018  -2.884  0.00  0.00     0.052 H 
ATOM     38  H   LIG d   1       5.373   1.322  -1.718  0.00  0.00     0.052 H 
ATOM     39  H   LIG d   1       6.271   1.626  -3.243  0.00  0.00     0.052 H 
ENDBRANCH  35  36
ENDBRANCH  32  35
ENDBRANCH  29  32
ENDBRANCH  27  29
ENDBRANCH  19  25
ENDBRANCH   9  19
BRANCH   4  40
ATOM     40  C   LIG d   1       0.654  -3.142 -11.115  0.00  0.00    -0.036 C 
ATOM     41  H   LIG d   1       0.130  -3.902 -11.712  0.00  0.00     0.028 H 
ATOM     42  H   LIG d   1      -0.058  -2.361 -10.808  0.00  0.00     0.028 H 
ATOM     43  H   LIG d   1       1.089  -3.613 -10.222  0.00  0.00     0.028 H 
ENDBRANCH   4  40
BRANCH   1  44
ATOM     44  C   LIG d   1       4.848  -0.769 -14.288  0.00  0.00    -0.039 C 
ATOM     45  H   LIG d   1       5.047  -1.401 -15.166  0.00  0.00     0.028 H 
ATOM     46  H   LIG d   1       5.762  -0.684 -13.683  0.00  0.00     0.028 H 
ATOM     47  H   LIG d   1       4.533   0.232 -14.620  0.00  0.00     0.028 H 
ENDBRANCH   1  44
BRANCH   3  48
ATOM     48  O   LIG d   1       1.373  -4.131 -13.654  0.00  0.00    -0.490 OA
BRANCH  48  49
ATOM     49  C   LIG d   1       2.039  -5.394 -13.610  0.00  0.00     0.102 C 
ATOM     50  H   LIG d   1       2.729  -5.475 -14.464  0.00  0.00     0.071 H 
ATOM     51  H   LIG d   1       2.606  -5.477 -12.671  0.00  0.00     0.071 H 
BRANCH  49  52
ATOM     52  C   LIG d   1       1.004  -6.519 -13.682  0.00  0.00     0.033 C 
ATOM     53  H   LIG d   1       0.021  -6.097 -13.941  0.00  0.00     0.046 H 
ATOM     54  H   LIG d   1       1.305  -7.245 -14.451  0.00  0.00     0.046 H 
BRANCH  52  55
ATOM     55  N   LIG d   1       0.919  -7.192 -12.379  0.00  0.00    -0.295 N 
ATOM     56  C   LIG d   1      -0.317  -6.825 -11.675  0.00  0.00     0.022 C 
ATOM     57  C   LIG d   1      -0.393  -7.592 -10.353  0.00  0.00     0.060 C 
ATOM     58  H   LIG d   1      -0.316  -5.743 -11.473  0.00  0.00     0.045 H 
ATOM     59  H   LIG d   1      -1.185  -7.080 -12.300  0.00  0.00     0.045 H 
ATOM     60  O   LIG d   1       0.776  -7.313  -9.577  0.00  0.00    -0.377 OA
ATOM     61  H   LIG d   1      -0.448  -8.673 -10.556  0.00  0.00     0.057 H 
ATOM     62  H   LIG d   1      -1.287  -7.279  -9.795  0.00  0.00     0.057 H 
ATOM     63  C   LIG d   1       1.998  -7.660 -10.233  0.00  0.00     0.060 C 
ATOM     64  C   LIG d   1       2.099  -6.893 -11.554  0.00  0.00     0.022 C 
ATOM     65  H   LIG d   1       2.015  -8.741 -10.434  0.00  0.00     0.057 H 
ATOM     66  H   LIG d   1       2.850  -7.394  -9.589  0.00  0.00     0.057 H 
ATOM     67  H   LIG d   1       3.009  -7.200 -12.090  0.00  0.00     0.045 H 
ATOM     68  H   LIG d   1       2.140  -5.812 -11.352  0.00  0.00     0.045 H 
ENDBRANCH  52  55
ENDBRANCH  49  52
ENDBRANCH  48  49
ENDBRANCH   3  48
TORSDOF 13
ENDMDL
MODEL 7
REMARK VINA RESULT:      -5.3      4.585      8.564
REMARK  13 active torsions:
REMARK  status: ('A' for Active; 'I' for Inactive)
REMARK    1  A    between atoms: C_1  and  C_2 
REMARK    2  A    between atoms: C_4  and  O_24 
REMARK    3  A    between atoms: C_5  and  C_23 
REMARK    4  A    between atoms: C_10  and  C_13 
REMARK    5  A    between atoms: C_13  and  C_15 
REMARK    6  A    between atoms: C_13  and  C_16 
REMARK       I    between atoms: C_16  and  N_18 
REMARK    7  A    between atoms: N_18  and  C_19 
REMARK    8  A    between atoms: C_19  and  C_20 
REMARK    9  A    between atoms: C_20  and  O_21 
REMARK   10  A    between atoms: O_21  and  C_22 
REMARK   11  A    between atoms: O_24  and  C_25 
REMARK   12  A    between atoms: C_25  and  C_26 
REMARK   13  A    between atoms: C_26  and  N_27 
ROOT
ATOM      1  C   LIG d   1       8.083  -4.697  -4.549  0.00  0.00    -0.043 A 
ATOM      2  C   LIG d   1       7.590  -5.767  -5.266  0.00  0.00    -0.017 A 
ATOM      3  C   LIG d   1       6.298  -5.721  -5.769  0.00  0.00     0.124 A 
ATOM      4  C   LIG d   1       5.518  -4.598  -5.551  0.00  0.00    -0.005 A 
ATOM      5  C   LIG d   1       6.015  -3.525  -4.827  0.00  0.00    -0.037 A 
ATOM      6  C   LIG d   1       7.297  -3.573  -4.326  0.00  0.00    -0.041 A 
ATOM      7  C   LIG d   1       7.899  -2.446  -3.528  0.00  0.00    -0.027 C 
ATOM      8  C   LIG d   1       7.106  -1.156  -3.737  0.00  0.00    -0.045 C 
ATOM      9  C   LIG d   1       5.623  -1.455  -3.490  0.00  0.00    -0.026 C 
ATOM     10  H   LIG d   1       5.494  -1.974  -2.528  0.00  0.00     0.031 H 
ATOM     11  C   LIG d   1       5.112  -2.335  -4.630  0.00  0.00    -0.024 C 
ATOM     12  H   LIG d   1       8.209  -6.635  -5.437  0.00  0.00     0.066 H 
ATOM     13  H   LIG d   1       7.883  -2.704  -2.459  0.00  0.00     0.031 H 
ATOM     14  H   LIG d   1       8.938  -2.281  -3.850  0.00  0.00     0.031 H 
ATOM     15  H   LIG d   1       7.459  -0.391  -3.031  0.00  0.00     0.027 H 
ATOM     16  H   LIG d   1       7.251  -0.800  -4.768  0.00  0.00     0.027 H 
ATOM     17  H   LIG d   1       5.084  -1.738  -5.554  0.00  0.00     0.032 H 
ATOM     18  H   LIG d   1       4.097  -2.681  -4.385  0.00  0.00     0.032 H 
ENDROOT
BRANCH   9  19
ATOM     19  C   LIG d   1       4.833  -0.145  -3.454  0.00  0.00     0.036 C 
ATOM     20  H   LIG d   1       5.489   0.695  -3.723  0.00  0.00     0.039 H 
BRANCH  19  21
ATOM     21  C   LIG d   1       4.262   0.067  -2.051  0.00  0.00    -0.054 C 
ATOM     22  H   LIG d   1       4.511   1.080  -1.704  0.00  0.00     0.024 H 
ATOM     23  H   LIG d   1       4.696  -0.674  -1.362  0.00  0.00     0.024 H 
ATOM     24  H   LIG d   1       3.169  -0.053  -2.077  0.00  0.00     0.024 H 
ENDBRANCH  19  21
BRANCH  19  25
ATOM     25  C   LIG d   1       3.704  -0.213  -4.450  0.00  0.00     0.216 C 
ATOM     26  O   LIG d   1       2.614  -0.617  -4.105  0.00  0.00    -0.276 OA
ATOM     27  N   LIG d   1       3.906   0.175  -5.725  0.00  0.00    -0.313 N 
ATOM     28  H   LIG d   1       4.895   0.541  -6.038  0.00  0.00     0.149 HD
BRANCH  27  29
ATOM     29  C   LIG d   1       2.809   0.109  -6.693  0.00  0.00     0.035 C 
ATOM     30  H   LIG d   1       2.667  -0.933  -7.015  0.00  0.00     0.048 H 
ATOM     31  H   LIG d   1       1.885   0.479  -6.226  0.00  0.00     0.048 H 
BRANCH  29  32
ATOM     32  C   LIG d   1       3.149   0.976  -7.908  0.00  0.00     0.063 C 
ATOM     33  H   LIG d   1       2.939   2.031  -7.677  0.00  0.00     0.058 H 
ATOM     34  H   LIG d   1       4.215   0.860  -8.154  0.00  0.00     0.058 H 
BRANCH  32  35
ATOM     35  O   LIG d   1       2.356   0.566  -9.023  0.00  0.00    -0.381 OA
BRANCH  35  36
ATOM     36  C   LIG d   1       2.207  -0.850  -9.142  0.00  0.00     0.036 C 
ATOM     37  H   LIG d   1       1.322  -1.076  -9.756  0.00  0.00     0.052 H 
ATOM     38  H   LIG d   1       2.081  -1.291  -8.143  0.00  0.00     0.052 H 
ATOM     39  H   LIG d   1       3.102  -1.274  -9.620  0.00  0.00     0.052 H 
ENDBRANCH  35  36
ENDBRANCH  32  35
ENDBRANCH  29  32
ENDBRANCH  27  29
ENDBRANCH  19  25
ENDBRANCH   9  19
BRANCH   4  40
ATOM     40  C   LIG d   1       4.116  -4.545  -6.101  0.00  0.00    -0.036 C 
ATOM     41  H   LIG d   1       3.873  -3.510  -6.385  0.00  0.00     0.028 H 
ATOM     42  H   LIG d   1       3.408  -4.890  -5.333  0.00  0.00     0.028 H 
ATOM     43  H   LIG d   1       4.043  -5.194  -6.985  0.00  0.00     0.028 H 
ENDBRANCH   4  40
BRANCH   1  44
ATOM     44  C   LIG d   1       9.486  -4.748  -4.002  0.00  0.00    -0.039 C 
ATOM     45  H   LIG d   1       9.760  -5.791  -3.792  0.00  0.00     0.028 H 
ATOM     46  H   LIG d   1       9.538  -4.161  -3.073  0.00  0.00     0.028 H 
ATOM     47  H   LIG d   1      10.184  -4.326  -4.740  0.00  0.00     0.028 H 
ENDBRANCH   1  44
BRANCH   3  48
ATOM     48  O   LIG d   1       5.803  -6.770  -6.475  0.00  0.00    -0.490 OA
BRANCH  48  49
ATOM     49  C   LIG d   1       5.032  -7.733  -5.754  0.00  0.00     0.102 C 
ATOM     50  H   LIG d   1       4.545  -7.244  -4.896  0.00  0.00     0.071 H 
ATOM     51  H   LIG d   1       4.264  -8.159  -6.416  0.00  0.00     0.071 H 
BRANCH  49  52
ATOM     52  C   LIG d   1       5.950  -8.849  -5.252  0.00  0.00     0.033 C 
ATOM     53  H   LIG d   1       6.662  -9.123  -6.045  0.00  0.00     0.046 H 
ATOM     54  H   LIG d   1       6.502  -8.499  -4.368  0.00  0.00     0.046 H 
BRANCH  52  55
ATOM     55  N   LIG d   1       5.143 -10.024  -4.892  0.00  0.00    -0.295 N 
ATOM     56  C   LIG d   1       4.499 -10.604  -6.079  0.00  0.00     0.022 C 
ATOM     57  C   LIG d   1       3.720 -11.856  -5.669  0.00  0.00     0.060 C 
ATOM     58  H   LIG d   1       3.810  -9.869  -6.519  0.00  0.00     0.045 H 
ATOM     59  H   LIG d   1       5.268 -10.874  -6.818  0.00  0.00     0.045 H 
ATOM     60  O   LIG d   1       2.774 -11.512  -4.653  0.00  0.00    -0.377 OA
ATOM     61  H   LIG d   1       4.417 -12.613  -5.278  0.00  0.00     0.057 H 
ATOM     62  H   LIG d   1       3.189 -12.264  -6.542  0.00  0.00     0.057 H 
ATOM     63  C   LIG d   1       3.367 -10.944  -3.483  0.00  0.00     0.060 C 
ATOM     64  C   LIG d   1       4.142  -9.682  -3.870  0.00  0.00     0.022 C 
ATOM     65  H   LIG d   1       4.054 -11.672  -3.028  0.00  0.00     0.057 H 
ATOM     66  H   LIG d   1       2.579 -10.683  -2.761  0.00  0.00     0.057 H 
ATOM     67  H   LIG d   1       4.650  -9.274  -2.983  0.00  0.00     0.045 H 
ATOM     68  H   LIG d   1       3.448  -8.931  -4.274  0.00  0.00     0.045 H 
ENDBRANCH  52  55
ENDBRANCH  49  52
ENDBRANCH  48  49
ENDBRANCH   3  48
TORSDOF 13
ENDMDL
MODEL 8
REMARK VINA RESULT:      -5.3      7.709     12.892
REMARK  13 active torsions:
REMARK  status: ('A' for Active; 'I' for Inactive)
REMARK    1  A    between atoms: C_1  and  C_2 
REMARK    2  A    between atoms: C_4  and  O_24 
REMARK    3  A    between atoms: C_5  and  C_23 
REMARK    4  A    between atoms: C_10  and  C_13 
REMARK    5  A    between atoms: C_13  and  C_15 
REMARK    6  A    between atoms: C_13  and  C_16 
REMARK       I    between atoms: C_16  and  N_18 
REMARK    7  A    between atoms: N_18  and  C_19 
REMARK    8  A    between atoms: C_19  and  C_20 
REMARK    9  A    between atoms: C_20  and  O_21 
REMARK   10  A    between atoms: O_21  and  C_22 
REMARK   11  A    between atoms: O_24  and  C_25 
REMARK   12  A    between atoms: C_25  and  C_26 
REMARK   13  A    between atoms: C_26  and  N_27 
ROOT
ATOM      1  C   LIG d   1       9.805   4.522  -7.452  0.00  0.00    -0.043 A 
ATOM      2  C   LIG d   1       9.831   3.435  -6.602  0.00  0.00    -0.017 A 
ATOM      3  C   LIG d   1       9.741   3.631  -5.232  0.00  0.00     0.124 A 
ATOM      4  C   LIG d   1       9.619   4.916  -4.730  0.00  0.00    -0.005 A 
ATOM      5  C   LIG d   1       9.597   6.007  -5.586  0.00  0.00    -0.037 A 
ATOM      6  C   LIG d   1       9.689   5.811  -6.946  0.00  0.00    -0.041 A 
ATOM      7  C   LIG d   1       9.674   6.950  -7.933  0.00  0.00    -0.027 C 
ATOM      8  C   LIG d   1       9.120   8.216  -7.284  0.00  0.00    -0.045 C 
ATOM      9  C   LIG d   1       9.874   8.457  -5.971  0.00  0.00    -0.026 C 
ATOM     10  H   LIG d   1      10.960   8.414  -6.142  0.00  0.00     0.031 H 
ATOM     11  C   LIG d   1       9.460   7.376  -4.972  0.00  0.00    -0.024 C 
ATOM     12  H   LIG d   1       9.919   2.437  -7.003  0.00  0.00     0.066 H 
ATOM     13  H   LIG d   1      10.700   7.147  -8.280  0.00  0.00     0.031 H 
ATOM     14  H   LIG d   1       9.041   6.684  -8.792  0.00  0.00     0.031 H 
ATOM     15  H   LIG d   1       9.263   9.069  -7.962  0.00  0.00     0.027 H 
ATOM     16  H   LIG d   1       8.046   8.085  -7.082  0.00  0.00     0.027 H 
ATOM     17  H   LIG d   1       8.413   7.545  -4.680  0.00  0.00     0.032 H 
ATOM     18  H   LIG d   1      10.106   7.446  -4.084  0.00  0.00     0.032 H 
ENDROOT
BRANCH   9  19
ATOM     19  C   LIG d   1       9.515   9.837  -5.416  0.00  0.00     0.036 C 
ATOM     20  H   LIG d   1       8.423   9.965  -5.411  0.00  0.00     0.039 H 
BRANCH  19  21
ATOM     21  C   LIG d   1      10.164  10.919  -6.281  0.00  0.00    -0.054 C 
ATOM     22  H   LIG d   1      11.015  10.488  -6.829  0.00  0.00     0.024 H 
ATOM     23  H   LIG d   1      10.519  11.739  -5.638  0.00  0.00     0.024 H 
ATOM     24  H   LIG d   1       9.425  11.308  -6.997  0.00  0.00     0.024 H 
ENDBRANCH  19  21
BRANCH  19  25
ATOM     25  C   LIG d   1      10.020   9.956  -4.001  0.00  0.00     0.216 C 
ATOM     26  O   LIG d   1      11.207   9.855  -3.770  0.00  0.00    -0.276 OA
ATOM     27  N   LIG d   1       9.154  10.173  -2.992  0.00  0.00    -0.313 N 
ATOM     28  H   LIG d   1       8.077  10.264  -3.202  0.00  0.00     0.149 HD
BRANCH  27  29
ATOM     29  C   LIG d   1       9.644  10.289  -1.617  0.00  0.00     0.035 C 
ATOM     30  H   LIG d   1      10.652   9.852  -1.550  0.00  0.00     0.048 H 
ATOM     31  H   LIG d   1       9.684  11.350  -1.329  0.00  0.00     0.048 H 
BRANCH  29  32
ATOM     32  C   LIG d   1       8.701   9.539  -0.674  0.00  0.00     0.063 C 
ATOM     33  H   LIG d   1       8.928   9.814   0.367  0.00  0.00     0.058 H 
ATOM     34  H   LIG d   1       7.660   9.809  -0.906  0.00  0.00     0.058 H 
BRANCH  32  35
ATOM     35  O   LIG d   1       8.876   8.131  -0.844  0.00  0.00    -0.381 OA
BRANCH  35  36
ATOM     36  C   LIG d   1      10.198   7.671  -0.560  0.00  0.00     0.036 C 
ATOM     37  H   LIG d   1      10.475   6.883  -1.278  0.00  0.00     0.052 H 
ATOM     38  H   LIG d   1      10.234   7.264   0.461  0.00  0.00     0.052 H 
ATOM     39  H   LIG d   1      10.905   8.509  -0.645  0.00  0.00     0.052 H 
ENDBRANCH  35  36
ENDBRANCH  32  35
ENDBRANCH  29  32
ENDBRANCH  27  29
ENDBRANCH  19  25
ENDBRANCH   9  19
BRANCH   4  40
ATOM     40  C   LIG d   1       9.517   5.130  -3.242  0.00  0.00    -0.036 C 
ATOM     41  H   LIG d   1      10.417   4.733  -2.752  0.00  0.00     0.028 H 
ATOM     42  H   LIG d   1       8.628   4.607  -2.858  0.00  0.00     0.028 H 
ATOM     43  H   LIG d   1       9.429   6.206  -3.031  0.00  0.00     0.028 H 
ENDBRANCH   4  40
BRANCH   1  44
ATOM     44  C   LIG d   1       9.904   4.308  -8.940  0.00  0.00    -0.039 C 
ATOM     45  H   LIG d   1      10.620   5.026  -9.366  0.00  0.00     0.028 H 
ATOM     46  H   LIG d   1       8.916   4.462  -9.398  0.00  0.00     0.028 H 
ATOM     47  H   LIG d   1      10.246   3.283  -9.142  0.00  0.00     0.028 H 
ENDBRANCH   1  44
BRANCH   3  48
ATOM     48  O   LIG d   1       9.767   2.568  -4.387  0.00  0.00    -0.490 OA
BRANCH  48  49
ATOM     49  C   LIG d   1       8.506   2.026  -3.987  0.00  0.00     0.102 C 
ATOM     50  H   LIG d   1       8.471   1.954  -2.889  0.00  0.00     0.071 H 
ATOM     51  H   LIG d   1       7.697   2.682  -4.337  0.00  0.00     0.071 H 
BRANCH  49  52
ATOM     52  C   LIG d   1       8.334   0.633  -4.594  0.00  0.00     0.033 C 
ATOM     53  H   LIG d   1       8.406   0.699  -5.691  0.00  0.00     0.046 H 
ATOM     54  H   LIG d   1       9.122  -0.033  -4.215  0.00  0.00     0.046 H 
BRANCH  52  55
ATOM     55  N   LIG d   1       7.018   0.095  -4.223  0.00  0.00    -0.295 N 
ATOM     56  C   LIG d   1       6.334   0.984  -3.274  0.00  0.00     0.022 C 
ATOM     57  C   LIG d   1       4.946   0.417  -2.961  0.00  0.00     0.060 C 
ATOM     58  H   LIG d   1       6.921   1.053  -2.346  0.00  0.00     0.045 H 
ATOM     59  H   LIG d   1       6.231   1.986  -3.718  0.00  0.00     0.045 H 
ATOM     60  O   LIG d   1       5.083  -0.913  -2.455  0.00  0.00    -0.377 OA
ATOM     61  H   LIG d   1       4.340   0.399  -3.879  0.00  0.00     0.057 H 
ATOM     62  H   LIG d   1       4.451   1.048  -2.208  0.00  0.00     0.057 H 
ATOM     63  C   LIG d   1       5.745  -1.806  -3.354  0.00  0.00     0.060 C 
ATOM     64  C   LIG d   1       7.140  -1.263  -3.671  0.00  0.00     0.022 C 
ATOM     65  H   LIG d   1       5.164  -1.890  -4.284  0.00  0.00     0.057 H 
ATOM     66  H   LIG d   1       5.835  -2.798  -2.888  0.00  0.00     0.057 H 
ATOM     67  H   LIG d   1       7.632  -1.915  -4.408  0.00  0.00     0.045 H 
ATOM     68  H   LIG d   1       7.743  -1.231  -2.751  0.00  0.00     0.045 H 
ENDBRANCH  52  55
ENDBRANCH  49  52
ENDBRANCH  48  49
ENDBRANCH   3  48
TORSDOF 13
ENDMDL
MODEL 9
REMARK VINA RESULT:      -5.3      4.995      8.579
REMARK  13 active torsions:
REMARK  status: ('A' for Active; 'I' for Inactive)
REMARK    1  A    between atoms: C_1  and  C_2 
REMARK    2  A    between atoms: C_4  and  O_24 
REMARK    3  A    between atoms: C_5  and  C_23 
REMARK    4  A    between atoms: C_10  and  C_13 
REMARK    5  A    between atoms: C_13  and  C_15 
REMARK    6  A    between atoms: C_13  and  C_16 
REMARK       I    between atoms: C_16  and  N_18 
REMARK    7  A    between atoms: N_18  and  C_19 
REMARK    8  A    between atoms: C_19  and  C_20 
REMARK    9  A    between atoms: C_20  and  O_21 
REMARK   10  A    between atoms: O_21  and  C_22 
REMARK   11  A    between atoms: O_24  and  C_25 
REMARK   12  A    between atoms: C_25  and  C_26 
REMARK   13  A    between atoms: C_26  and  N_27 
ROOT
ATOM      1  C   LIG d   1       9.811  -1.092  -5.289  0.00  0.00    -0.043 A 
ATOM      2  C   LIG d   1      10.705  -0.051  -5.428  0.00  0.00    -0.017 A 
ATOM      3  C   LIG d   1      10.372   1.209  -4.952  0.00  0.00     0.124 A 
ATOM      4  C   LIG d   1       9.148   1.407  -4.334  0.00  0.00    -0.005 A 
ATOM      5  C   LIG d   1       8.250   0.359  -4.198  0.00  0.00    -0.037 A 
ATOM      6  C   LIG d   1       8.581  -0.890  -4.674  0.00  0.00    -0.041 A 
ATOM      7  C   LIG d   1       7.653  -2.072  -4.564  0.00  0.00    -0.027 C 
ATOM      8  C   LIG d   1       6.572  -1.810  -3.516  0.00  0.00    -0.045 C 
ATOM      9  C   LIG d   1       5.923  -0.455  -3.819  0.00  0.00    -0.026 C 
ATOM     10  H   LIG d   1       5.621  -0.405  -4.876  0.00  0.00     0.031 H 
ATOM     11  C   LIG d   1       6.939   0.645  -3.515  0.00  0.00    -0.024 C 
ATOM     12  H   LIG d   1      11.659  -0.217  -5.905  0.00  0.00     0.066 H 
ATOM     13  H   LIG d   1       7.170  -2.252  -5.536  0.00  0.00     0.031 H 
ATOM     14  H   LIG d   1       8.226  -2.963  -4.269  0.00  0.00     0.031 H 
ATOM     15  H   LIG d   1       5.817  -2.609  -3.561  0.00  0.00     0.027 H 
ATOM     16  H   LIG d   1       7.029  -1.793  -2.515  0.00  0.00     0.027 H 
ATOM     17  H   LIG d   1       7.095   0.694  -2.426  0.00  0.00     0.032 H 
ATOM     18  H   LIG d   1       6.541   1.606  -3.872  0.00  0.00     0.032 H 
ENDROOT
BRANCH   9  19
ATOM     19  C   LIG d   1       4.683  -0.270  -2.942  0.00  0.00     0.036 C 
ATOM     20  H   LIG d   1       4.779   0.651  -2.348  0.00  0.00     0.039 H 
BRANCH  19  21
ATOM     21  C   LIG d   1       4.532  -1.476  -2.012  0.00  0.00    -0.054 C 
ATOM     22  H   LIG d   1       3.527  -1.906  -2.132  0.00  0.00     0.024 H 
ATOM     23  H   LIG d   1       4.671  -1.154  -0.969  0.00  0.00     0.024 H 
ATOM     24  H   LIG d   1       5.289  -2.232  -2.267  0.00  0.00     0.024 H 
ENDBRANCH  19  21
BRANCH  19  25
ATOM     25  C   LIG d   1       3.461  -0.154  -3.817  0.00  0.00     0.216 C 
ATOM     26  O   LIG d   1       2.372  -0.460  -3.381  0.00  0.00    -0.276 OA
ATOM     27  N   LIG d   1       3.580   0.290  -5.084  0.00  0.00    -0.313 N 
ATOM     28  H   LIG d   1       4.569   0.567  -5.479  0.00  0.00     0.149 HD
BRANCH  27  29
ATOM     29  C   LIG d   1       2.393   0.403  -5.934  0.00  0.00     0.035 C 
ATOM     30  H   LIG d   1       1.677  -0.391  -5.671  0.00  0.00     0.048 H 
ATOM     31  H   LIG d   1       1.924   1.386  -5.782  0.00  0.00     0.048 H 
BRANCH  29  32
ATOM     32  C   LIG d   1       2.801   0.254  -7.401  0.00  0.00     0.063 C 
ATOM     33  H   LIG d   1       3.426  -0.644  -7.519  0.00  0.00     0.058 H 
ATOM     34  H   LIG d   1       1.899   0.158  -8.024  0.00  0.00     0.058 H 
BRANCH  32  35
ATOM     35  O   LIG d   1       3.540   1.406  -7.810  0.00  0.00    -0.381 OA
BRANCH  35  36
ATOM     36  C   LIG d   1       4.630   1.117  -8.687  0.00  0.00     0.036 C 
ATOM     37  H   LIG d   1       4.568   1.763  -9.576  0.00  0.00     0.052 H 
ATOM     38  H   LIG d   1       4.583   0.063  -8.996  0.00  0.00     0.052 H 
ATOM     39  H   LIG d   1       5.580   1.304  -8.165  0.00  0.00     0.052 H 
ENDBRANCH  35  36
ENDBRANCH  32  35
ENDBRANCH  29  32
ENDBRANCH  27  29
ENDBRANCH  19  25
ENDBRANCH   9  19
BRANCH   4  40
ATOM     40  C   LIG d   1       8.788   2.774  -3.812  0.00  0.00    -0.036 C 
ATOM     41  H   LIG d   1       9.122   3.539  -4.527  0.00  0.00     0.028 H 
ATOM     42  H   LIG d   1       9.283   2.937  -2.843  0.00  0.00     0.028 H 
ATOM     43  H   LIG d   1       7.699   2.843  -3.683  0.00  0.00     0.028 H 
ENDBRANCH   4  40
BRANCH   1  44
ATOM     44  C   LIG d   1      10.171  -2.460  -5.808  0.00  0.00    -0.039 C 
ATOM     45  H   LIG d   1      10.605  -2.368  -6.814  0.00  0.00     0.028 H 
ATOM     46  H   LIG d   1       9.267  -3.084  -5.854  0.00  0.00     0.028 H 
ATOM     47  H   LIG d   1      10.904  -2.927  -5.133  0.00  0.00     0.028 H 
ENDBRANCH   1  44
BRANCH   3  48
ATOM     48  O   LIG d   1      11.245   2.241  -5.085  0.00  0.00    -0.490 OA
BRANCH  48  49
ATOM     49  C   LIG d   1      11.574   2.646  -6.416  0.00  0.00     0.102 C 
ATOM     50  H   LIG d   1      12.668   2.702  -6.522  0.00  0.00     0.071 H 
ATOM     51  H   LIG d   1      11.173   1.913  -7.132  0.00  0.00     0.071 H 
BRANCH  49  52
ATOM     52  C   LIG d   1      10.963   4.020  -6.697  0.00  0.00     0.033 C 
ATOM     53  H   LIG d   1      10.322   4.316  -5.852  0.00  0.00     0.046 H 
ATOM     54  H   LIG d   1      11.767   4.759  -6.823  0.00  0.00     0.046 H 
BRANCH  52  55
ATOM     55  N   LIG d   1      10.158   3.957  -7.924  0.00  0.00    -0.295 N 
ATOM     56  C   LIG d   1       9.572   5.268  -8.238  0.00  0.00     0.022 C 
ATOM     57  C   LIG d   1       8.792   5.172  -9.551  0.00  0.00     0.060 C 
ATOM     58  H   LIG d   1       8.892   5.570  -7.427  0.00  0.00     0.045 H 
ATOM     59  H   LIG d   1      10.375   6.014  -8.339  0.00  0.00     0.045 H 
ATOM     60  O   LIG d   1       7.799   4.149  -9.437  0.00  0.00    -0.377 OA
ATOM     61  H   LIG d   1       9.482   4.923 -10.372  0.00  0.00     0.057 H 
ATOM     62  H   LIG d   1       8.304   6.135  -9.763  0.00  0.00     0.057 H 
ATOM     63  C   LIG d   1       8.335   2.859  -9.132  0.00  0.00     0.060 C 
ATOM     64  C   LIG d   1       9.110   2.931  -7.815  0.00  0.00     0.022 C 
ATOM     65  H   LIG d   1       9.012   2.541  -9.939  0.00  0.00     0.057 H 
ATOM     66  H   LIG d   1       7.514   2.133  -9.036  0.00  0.00     0.057 H 
ATOM     67  H   LIG d   1       9.574   1.955  -7.605  0.00  0.00     0.045 H 
ATOM     68  H   LIG d   1       8.424   3.194  -6.996  0.00  0.00     0.045 H 
ENDBRANCH  52  55
ENDBRANCH  49  52
ENDBRANCH  48  49
ENDBRANCH   3  48
TORSDOF 13
ENDMDL
