MODEL 1
REMARK VINA RESULT:      -4.9      0.000      0.000
REMARK  2 active torsions:
REMARK  status: ('A' for Active; 'I' for Inactive)
REMARK    1  A    between atoms: C_3  and  C_6 
REMARK       I    between atoms: C_6  and  N_8 
REMARK    2  A    between atoms: N_8  and  N_9 
ROOT
ATOM      1  C   LIG d   1       4.373   1.118  -1.722  0.00  0.00    -0.023 A 
ATOM      2  C   LIG d   1       4.570  -0.268  -1.822  0.00  0.00    -0.011 A 
ATOM      3  C   LIG d   1       3.987  -0.664  -2.992  0.00  0.00     0.190 A 
ATOM      4  O   LIG d   1       3.460   0.426  -3.586  0.00  0.00    -0.458 OA
ATOM      5  C   LIG d   1       3.686   1.502  -2.821  0.00  0.00     0.093 A 
ATOM      6  H   LIG d   1       4.707   1.758  -0.918  0.00  0.00     0.065 H 
ATOM      7  H   LIG d   1       5.085  -0.898  -1.112  0.00  0.00     0.066 H 
ATOM      8  H   LIG d   1       3.374   2.511  -3.047  0.00  0.00     0.103 H 
ENDROOT
BRANCH   3   9
ATOM      9  C   LIG d   1       3.946  -2.034  -3.514  0.00  0.00     0.293 C 
ATOM     10  O   LIG d   1       3.836  -2.973  -2.747  0.00  0.00    -0.266 OA
ATOM     11  N   LIG d   1       4.023  -2.251  -4.841  0.00  0.00    -0.247 N 
ATOM     12  H   LIG d   1       4.111  -1.503  -5.451  0.00  0.00     0.169 HD
BRANCH  11  13
ATOM     13  N   LIG d   1       3.979  -3.528  -5.328  0.00  0.00    -0.254 NA
ATOM     14  H   LIG d   1       3.514  -3.558  -6.223  0.00  0.00     0.141 HD
ATOM     15  H   LIG d   1       4.904  -3.924  -5.388  0.00  0.00     0.141 HD
ENDBRANCH  11  13
ENDBRANCH   3   9
TORSDOF 2
ENDMDL
MODEL 2
REMARK VINA RESULT:      -4.5      1.985      2.839
REMARK  2 active torsions:
REMARK  status: ('A' for Active; 'I' for Inactive)
REMARK    1  A    between atoms: C_3  and  C_6 
REMARK       I    between atoms: C_6  and  N_8 
REMARK    2  A    between atoms: N_8  and  N_9 
ROOT
ATOM      1  C   LIG d   1       4.298  -1.385  -1.968  0.00  0.00    -0.023 A 
ATOM      2  C   LIG d   1       3.714  -1.459  -3.242  0.00  0.00    -0.011 A 
ATOM      3  C   LIG d   1       3.596  -0.176  -3.695  0.00  0.00     0.190 A 
ATOM      4  O   LIG d   1       4.087   0.648  -2.747  0.00  0.00    -0.458 OA
ATOM      5  C   LIG d   1       4.508  -0.076  -1.702  0.00  0.00     0.093 A 
ATOM      6  H   LIG d   1       4.536  -2.217  -1.321  0.00  0.00     0.065 H 
ATOM      7  H   LIG d   1       3.417  -2.357  -3.763  0.00  0.00     0.066 H 
ATOM      8  H   LIG d   1       4.945   0.320  -0.797  0.00  0.00     0.103 H 
ENDROOT
BRANCH   3   9
ATOM      9  C   LIG d   1       3.037   0.234  -4.987  0.00  0.00     0.293 C 
ATOM     10  O   LIG d   1       2.548   1.341  -5.115  0.00  0.00    -0.266 OA
ATOM     11  N   LIG d   1       3.070  -0.614  -6.034  0.00  0.00    -0.247 N 
ATOM     12  H   LIG d   1       3.458  -1.496  -5.931  0.00  0.00     0.169 HD
BRANCH  11  13
ATOM     13  N   LIG d   1       2.554  -0.230  -7.240  0.00  0.00    -0.254 NA
ATOM     14  H   LIG d   1       1.574  -0.462  -7.304  0.00  0.00     0.141 HD
ATOM     15  H   LIG d   1       2.705   0.753  -7.402  0.00  0.00     0.141 HD
ENDBRANCH  11  13
ENDBRANCH   3   9
TORSDOF 2
ENDMDL
MODEL 3
REMARK VINA RESULT:      -4.4      2.961      3.994
REMARK  2 active torsions:
REMARK  status: ('A' for Active; 'I' for Inactive)
REMARK    1  A    between atoms: C_3  and  C_6 
REMARK       I    between atoms: C_6  and  N_8 
REMARK    2  A    between atoms: N_8  and  N_9 
ROOT
ATOM      1  C   LIG d   1       3.830  -1.924  -2.297  0.00  0.00    -0.023 A 
ATOM      2  C   LIG d   1       4.506  -0.711  -2.095  0.00  0.00    -0.011 A 
ATOM      3  C   LIG d   1       5.455  -0.622  -3.074  0.00  0.00     0.190 A 
ATOM      4  O   LIG d   1       5.364  -1.725  -3.844  0.00  0.00    -0.458 OA
ATOM      5  C   LIG d   1       4.389  -2.516  -3.376  0.00  0.00     0.093 A 
ATOM      6  H   LIG d   1       3.017  -2.312  -1.702  0.00  0.00     0.065 H 
ATOM      7  H   LIG d   1       4.313   0.013  -1.317  0.00  0.00     0.066 H 
ATOM      8  H   LIG d   1       4.094  -3.467  -3.794  0.00  0.00     0.103 H 
ENDROOT
BRANCH   3   9
ATOM      9  C   LIG d   1       6.402   0.482  -3.259  0.00  0.00     0.293 C 
ATOM     10  O   LIG d   1       6.035   1.631  -3.100  0.00  0.00    -0.266 OA
ATOM     11  N   LIG d   1       7.680   0.223  -3.598  0.00  0.00    -0.247 N 
ATOM     12  H   LIG d   1       7.972  -0.693  -3.725  0.00  0.00     0.169 HD
BRANCH  11  13
ATOM     13  N   LIG d   1       8.565   1.251  -3.764  0.00  0.00    -0.254 NA
ATOM     14  H   LIG d   1       9.015   1.199  -4.666  0.00  0.00     0.141 HD
ATOM     15  H   LIG d   1       8.111   2.143  -3.638  0.00  0.00     0.141 HD
ENDBRANCH  11  13
ENDBRANCH   3   9
TORSDOF 2
ENDMDL
MODEL 4
REMARK VINA RESULT:      -4.1      2.192      3.295
REMARK  2 active torsions:
REMARK  status: ('A' for Active; 'I' for Inactive)
REMARK    1  A    between atoms: C_3  and  C_6 
REMARK       I    between atoms: C_6  and  N_8 
REMARK    2  A    between atoms: N_8  and  N_9 
ROOT
ATOM      1  C   LIG d   1       3.829  -1.493  -2.169  0.00  0.00    -0.023 A 
ATOM      2  C   LIG d   1       3.241  -0.443  -2.891  0.00  0.00    -0.011 A 
ATOM      3  C   LIG d   1       3.473  -0.697  -4.213  0.00  0.00     0.190 A 
ATOM      4  O   LIG d   1       4.166  -1.851  -4.301  0.00  0.00    -0.458 OA
ATOM      5  C   LIG d   1       4.387  -2.332  -3.070  0.00  0.00     0.093 A 
ATOM      6  H   LIG d   1       3.834  -1.610  -1.095  0.00  0.00     0.065 H 
ATOM      7  H   LIG d   1       2.708   0.402  -2.481  0.00  0.00     0.066 H 
ATOM      8  H   LIG d   1       4.919  -3.242  -2.837  0.00  0.00     0.103 H 
ENDROOT
BRANCH   3   9
ATOM      9  C   LIG d   1       3.040   0.136  -5.340  0.00  0.00     0.293 C 
ATOM     10  O   LIG d   1       2.653   1.273  -5.142  0.00  0.00    -0.266 OA
ATOM     11  N   LIG d   1       3.076  -0.356  -6.593  0.00  0.00    -0.247 N 
ATOM     12  H   LIG d   1       3.384  -1.262  -6.750  0.00  0.00     0.169 HD
BRANCH  11  13
ATOM     13  N   LIG d   1       2.678   0.422  -7.644  0.00  0.00    -0.254 NA
ATOM     14  H   LIG d   1       2.236   1.269  -7.320  0.00  0.00     0.141 HD
ATOM     15  H   LIG d   1       3.452   0.628  -8.255  0.00  0.00     0.141 HD
ENDBRANCH  11  13
ENDBRANCH   3   9
TORSDOF 2
ENDMDL
MODEL 5
REMARK VINA RESULT:      -4.0      4.382      5.002
REMARK  2 active torsions:
REMARK  status: ('A' for Active; 'I' for Inactive)
REMARK    1  A    between atoms: C_3  and  C_6 
REMARK       I    between atoms: C_6  and  N_8 
REMARK    2  A    between atoms: N_8  and  N_9 
ROOT
ATOM      1  C   LIG d   1       2.519   0.692  -9.331  0.00  0.00    -0.023 A 
ATOM      2  C   LIG d   1       2.653  -0.241  -8.292  0.00  0.00    -0.011 A 
ATOM      3  C   LIG d   1       2.984   0.464  -7.170  0.00  0.00     0.190 A 
ATOM      4  O   LIG d   1       3.045   1.770  -7.502  0.00  0.00    -0.458 OA
ATOM      5  C   LIG d   1       2.770   1.912  -8.805  0.00  0.00     0.093 A 
ATOM      6  H   LIG d   1       2.262   0.477 -10.358  0.00  0.00     0.065 H 
ATOM      7  H   LIG d   1       2.521  -1.311  -8.365  0.00  0.00     0.066 H 
ATOM      8  H   LIG d   1       2.748   2.847  -9.345  0.00  0.00     0.103 H 
ENDROOT
BRANCH   3   9
ATOM      9  C   LIG d   1       3.225  -0.099  -5.838  0.00  0.00     0.293 C 
ATOM     10  O   LIG d   1       4.344  -0.461  -5.524  0.00  0.00    -0.266 OA
ATOM     11  N   LIG d   1       2.209  -0.210  -4.960  0.00  0.00    -0.247 N 
ATOM     12  H   LIG d   1       1.318   0.078  -5.211  0.00  0.00     0.169 HD
BRANCH  11  13
ATOM     13  N   LIG d   1       2.434  -0.729  -3.716  0.00  0.00    -0.254 NA
ATOM     14  H   LIG d   1       2.342  -1.734  -3.722  0.00  0.00     0.141 HD
ATOM     15  H   LIG d   1       3.338  -0.452  -3.366  0.00  0.00     0.141 HD
ENDBRANCH  11  13
ENDBRANCH   3   9
TORSDOF 2
ENDMDL
MODEL 6
REMARK VINA RESULT:      -3.8      9.237      9.595
REMARK  2 active torsions:
REMARK  status: ('A' for Active; 'I' for Inactive)
REMARK    1  A    between atoms: C_3  and  C_6 
REMARK       I    between atoms: C_6  and  N_8 
REMARK    2  A    between atoms: N_8  and  N_9 
ROOT
ATOM      1  C   LIG d   1       7.721  -9.735  -2.369  0.00  0.00    -0.023 A 
ATOM      2  C   LIG d   1       6.732  -9.558  -3.349  0.00  0.00    -0.011 A 
ATOM      3  C   LIG d   1       5.551  -9.960  -2.792  0.00  0.00     0.190 A 
ATOM      4  O   LIG d   1       5.800 -10.360  -1.529  0.00  0.00    -0.458 OA
ATOM      5  C   LIG d   1       7.108 -10.230  -1.271  0.00  0.00     0.093 A 
ATOM      6  H   LIG d   1       8.773  -9.515  -2.472  0.00  0.00     0.065 H 
ATOM      7  H   LIG d   1       6.877  -9.177  -4.349  0.00  0.00     0.066 H 
ATOM      8  H   LIG d   1       7.592 -10.478  -0.338  0.00  0.00     0.103 H 
ENDROOT
BRANCH   3   9
ATOM      9  C   LIG d   1       4.241  -9.952  -3.452  0.00  0.00     0.293 C 
ATOM     10  O   LIG d   1       4.072  -9.293  -4.461  0.00  0.00    -0.266 OA
ATOM     11  N   LIG d   1       3.227 -10.679  -2.943  0.00  0.00    -0.247 N 
ATOM     12  H   LIG d   1       3.362 -11.203  -2.139  0.00  0.00     0.169 HD
BRANCH  11  13
ATOM     13  N   LIG d   1       2.008 -10.676  -3.561  0.00  0.00    -0.254 NA
ATOM     14  H   LIG d   1       1.757 -11.603  -3.871  0.00  0.00     0.141 HD
ATOM     15  H   LIG d   1       1.297 -10.293  -2.956  0.00  0.00     0.141 HD
ENDBRANCH  11  13
ENDBRANCH   3   9
TORSDOF 2
ENDMDL
MODEL 7
REMARK VINA RESULT:      -3.7     10.592     11.746
REMARK  2 active torsions:
REMARK  status: ('A' for Active; 'I' for Inactive)
REMARK    1  A    between atoms: C_3  and  C_6 
REMARK       I    between atoms: C_6  and  N_8 
REMARK    2  A    between atoms: N_8  and  N_9 
ROOT
ATOM      1  C   LIG d   1      11.478   6.040   0.616  0.00  0.00    -0.023 A 
ATOM      2  C   LIG d   1      11.140   7.393   0.774  0.00  0.00    -0.011 A 
ATOM      3  C   LIG d   1      10.338   7.723  -0.281  0.00  0.00     0.190 A 
ATOM      4  O   LIG d   1      10.185   6.625  -1.049  0.00  0.00    -0.458 OA
ATOM      5  C   LIG d   1      10.875   5.608  -0.515  0.00  0.00     0.093 A 
ATOM      6  H   LIG d   1      12.102   5.453   1.274  0.00  0.00     0.065 H 
ATOM      7  H   LIG d   1      11.454   8.046   1.575  0.00  0.00     0.066 H 
ATOM      8  H   LIG d   1      10.936   4.609  -0.918  0.00  0.00     0.103 H 
ENDROOT
BRANCH   3   9
ATOM      9  C   LIG d   1       9.742   9.039  -0.532  0.00  0.00     0.293 C 
ATOM     10  O   LIG d   1      10.251  10.037  -0.056  0.00  0.00    -0.266 OA
ATOM     11  N   LIG d   1       8.636   9.144  -1.294  0.00  0.00    -0.247 N 
ATOM     12  H   LIG d   1       8.231   8.349  -1.672  0.00  0.00     0.169 HD
BRANCH  11  13
ATOM     13  N   LIG d   1       8.084  10.371  -1.532  0.00  0.00    -0.254 NA
ATOM     14  H   LIG d   1       7.201  10.283  -2.013  0.00  0.00     0.141 HD
ATOM     15  H   LIG d   1       7.980  10.893  -0.676  0.00  0.00     0.141 HD
ENDBRANCH  11  13
ENDBRANCH   3   9
TORSDOF 2
ENDMDL
MODEL 8
REMARK VINA RESULT:      -3.6     12.205     12.859
REMARK  2 active torsions:
REMARK  status: ('A' for Active; 'I' for Inactive)
REMARK    1  A    between atoms: C_3  and  C_6 
REMARK       I    between atoms: C_6  and  N_8 
REMARK    2  A    between atoms: N_8  and  N_9 
ROOT
ATOM      1  C   LIG d   1      11.066   9.055   0.835  0.00  0.00    -0.023 A 
ATOM      2  C   LIG d   1      10.471  10.115   0.133  0.00  0.00    -0.011 A 
ATOM      3  C   LIG d   1      10.169   9.641  -1.112  0.00  0.00     0.190 A 
ATOM      4  O   LIG d   1      10.556   8.350  -1.172  0.00  0.00    -0.458 OA
ATOM      5  C   LIG d   1      11.101   7.994  -0.002  0.00  0.00     0.093 A 
ATOM      6  H   LIG d   1      11.427   9.082   1.853  0.00  0.00     0.065 H 
ATOM      7  H   LIG d   1      10.286  11.112   0.506  0.00  0.00     0.066 H 
ATOM      8  H   LIG d   1      11.501   7.019   0.236  0.00  0.00     0.103 H 
ENDROOT
BRANCH   3   9
ATOM      9  C   LIG d   1       9.531  10.401  -2.192  0.00  0.00     0.293 C 
ATOM     10  O   LIG d   1      10.146  10.635  -3.216  0.00  0.00    -0.266 OA
ATOM     11  N   LIG d   1       8.264  10.835  -2.052  0.00  0.00    -0.247 N 
ATOM     12  H   LIG d   1       7.775  10.649  -1.236  0.00  0.00     0.169 HD
BRANCH  11  13
ATOM     13  N   LIG d   1       7.667  11.538  -3.061  0.00  0.00    -0.254 NA
ATOM     14  H   LIG d   1       6.729  11.809  -2.807  0.00  0.00     0.141 HD
ATOM     15  H   LIG d   1       8.219  12.342  -3.316  0.00  0.00     0.141 HD
ENDBRANCH  11  13
ENDBRANCH   3   9
TORSDOF 2
ENDMDL
MODEL 9
REMARK VINA RESULT:      -3.6     10.154     10.833
REMARK  2 active torsions:
REMARK  status: ('A' for Active; 'I' for Inactive)
REMARK    1  A    between atoms: C_3  and  C_6 
REMARK       I    between atoms: C_6  and  N_8 
REMARK    2  A    between atoms: N_8  and  N_9 
ROOT
ATOM      1  C   LIG d   1       9.968   9.968  -0.472  0.00  0.00    -0.023 A 
ATOM      2  C   LIG d   1      10.803   8.878  -0.182  0.00  0.00    -0.011 A 
ATOM      3  C   LIG d   1      10.064   7.749  -0.393  0.00  0.00     0.190 A 
ATOM      4  O   LIG d   1       8.834   8.126  -0.799  0.00  0.00    -0.458 OA
ATOM      5  C   LIG d   1       8.770   9.463  -0.843  0.00  0.00     0.093 A 
ATOM      6  H   LIG d   1      10.232  11.014  -0.412  0.00  0.00     0.065 H 
ATOM      7  H   LIG d   1      11.832   8.924   0.144  0.00  0.00     0.066 H 
ATOM      8  H   LIG d   1       7.905  10.042  -1.132  0.00  0.00     0.103 H 
ENDROOT
BRANCH   3   9
ATOM      9  C   LIG d   1      10.528   6.370  -0.215  0.00  0.00     0.293 C 
ATOM     10  O   LIG d   1      10.641   5.906   0.904  0.00  0.00    -0.266 OA
ATOM     11  N   LIG d   1      10.822   5.615  -1.291  0.00  0.00    -0.247 N 
ATOM     12  H   LIG d   1      10.733   5.984  -2.183  0.00  0.00     0.169 HD
BRANCH  11  13
ATOM     13  N   LIG d   1      11.250   4.327  -1.126  0.00  0.00    -0.254 NA
ATOM     14  H   LIG d   1      10.669   3.684  -1.643  0.00  0.00     0.141 HD
ATOM     15  H   LIG d   1      12.218   4.230  -1.388  0.00  0.00     0.141 HD
ENDBRANCH  11  13
ENDBRANCH   3   9
TORSDOF 2
ENDMDL
MODEL 10
REMARK VINA RESULT:      -3.5      2.899      3.199
REMARK  2 active torsions:
REMARK  status: ('A' for Active; 'I' for Inactive)
REMARK    1  A    between atoms: C_3  and  C_6 
REMARK       I    between atoms: C_6  and  N_8 
REMARK    2  A    between atoms: N_8  and  N_9 
ROOT
ATOM      1  C   LIG d   1       8.045   0.624  -4.325  0.00  0.00    -0.023 A 
ATOM      2  C   LIG d   1       7.192  -0.408  -3.906  0.00  0.00    -0.011 A 
ATOM      3  C   LIG d   1       6.176   0.181  -3.208  0.00  0.00     0.190 A 
ATOM      4  O   LIG d   1       6.391   1.512  -3.202  0.00  0.00    -0.458 OA
ATOM      5  C   LIG d   1       7.520   1.784  -3.870  0.00  0.00     0.093 A 
ATOM      6  H   LIG d   1       8.951   0.513  -4.903  0.00  0.00     0.065 H 
ATOM      7  H   LIG d   1       7.314  -1.464  -4.099  0.00  0.00     0.066 H 
ATOM      8  H   LIG d   1       7.939   2.767  -4.023  0.00  0.00     0.103 H 
ENDROOT
BRANCH   3   9
ATOM      9  C   LIG d   1       5.046  -0.513  -2.581  0.00  0.00     0.293 C 
ATOM     10  O   LIG d   1       4.407   0.037  -1.703  0.00  0.00    -0.266 OA
ATOM     11  N   LIG d   1       4.712  -1.755  -2.981  0.00  0.00    -0.247 N 
ATOM     12  H   LIG d   1       5.222  -2.192  -3.680  0.00  0.00     0.169 HD
BRANCH  11  13
ATOM     13  N   LIG d   1       3.656  -2.400  -2.401  0.00  0.00    -0.254 NA
ATOM     14  H   LIG d   1       2.974  -1.740  -2.059  0.00  0.00     0.141 HD
ATOM     15  H   LIG d   1       3.236  -3.055  -3.041  0.00  0.00     0.141 HD
ENDBRANCH  11  13
ENDBRANCH   3   9
TORSDOF 2
ENDMDL
