MODEL 1
REMARK VINA RESULT:      -7.3      0.000      0.000
REMARK  6 active torsions:
REMARK  status: ('A' for Active; 'I' for Inactive)
REMARK    1  A    between atoms: C_1  and  C_2 
REMARK    2  A    between atoms: C_5  and  N_20 
REMARK    3  A    between atoms: C_10  and  C_11 
REMARK    4  A    between atoms: C_11  and  C_13 
REMARK       I    between atoms: N_20  and  C_21 
REMARK    5  A    between atoms: C_21  and  C_23 
REMARK    6  A    between atoms: C_24  and  C_25 
ROOT
ATOM      1  C   LIG d   1       4.710  -9.685  -5.258  0.00  0.00     0.006 A 
ATOM      2  C   LIG d   1       5.229  -8.411  -5.752  0.00  0.00     0.025 A 
ATOM      3  C   LIG d   1       5.204  -7.099  -5.272  0.00  0.00    -0.029 A 
ATOM      4  C   LIG d   1       5.805  -6.094  -6.005  0.00  0.00     0.034 A 
ATOM      5  C   LIG d   1       6.440  -6.389  -7.211  0.00  0.00    -0.037 A 
ATOM      6  C   LIG d   1       6.473  -7.680  -7.690  0.00  0.00    -0.017 A 
ATOM      7  C   LIG d   1       5.871  -8.706  -6.969  0.00  0.00     0.136 A 
ATOM      8  O   LIG d   1       5.747 -10.032  -7.185  0.00  0.00    -0.451 OA
ATOM      9  C   LIG d   1       5.064 -10.620  -6.181  0.00  0.00     0.179 A 
ATOM     10  H   LIG d   1       4.716  -6.872  -4.336  0.00  0.00     0.064 H 
ATOM     11  H   LIG d   1       6.911  -5.598  -7.776  0.00  0.00     0.064 H 
ATOM     12  H   LIG d   1       6.967  -7.896  -8.625  0.00  0.00     0.066 H 
ENDROOT
BRANCH   4  13
ATOM     13  N   LIG d   1       5.782  -4.775  -5.534  0.00  0.00    -0.282 N 
ATOM     14  C   LIG d   1       4.687  -4.012  -5.722  0.00  0.00     0.241 C 
ATOM     15  O   LIG d   1       3.757  -4.434  -6.382  0.00  0.00    -0.271 OA
ATOM     16  H   LIG d   1       6.553  -4.412  -5.071  0.00  0.00     0.155 HD
BRANCH  14  17
ATOM     17  C   LIG d   1       4.618  -2.674  -5.131  0.00  0.00     0.001 C 
ATOM     18  C   LIG d   1       4.124  -2.511  -3.887  0.00  0.00    -0.050 C 
ATOM     19  H   LIG d   1       3.779  -3.367  -3.327  0.00  0.00     0.062 H 
ATOM     20  H   LIG d   1       4.963  -1.818  -5.691  0.00  0.00     0.067 H 
BRANCH  18  21
ATOM     21  C   LIG d   1       4.054  -1.166  -3.293  0.00  0.00    -0.025 A 
ATOM     22  C   LIG d   1       3.384  -0.137  -3.962  0.00  0.00    -0.055 A 
ATOM     23  C   LIG d   1       3.323   1.120  -3.399  0.00  0.00    -0.061 A 
ATOM     24  H   LIG d   1       2.917  -0.326  -4.917  0.00  0.00     0.062 H 
ATOM     25  C   LIG d   1       3.920   1.365  -2.176  0.00  0.00    -0.062 A 
ATOM     26  H   LIG d   1       2.805   1.916  -3.915  0.00  0.00     0.062 H 
ATOM     27  C   LIG d   1       4.586   0.352  -1.507  0.00  0.00    -0.061 A 
ATOM     28  H   LIG d   1       3.868   2.351  -1.739  0.00  0.00     0.062 H 
ATOM     29  C   LIG d   1       4.652  -0.913  -2.055  0.00  0.00    -0.055 A 
ATOM     30  H   LIG d   1       5.051   0.550  -0.553  0.00  0.00     0.062 H 
ATOM     31  H   LIG d   1       5.167  -1.703  -1.530  0.00  0.00     0.062 H 
ENDBRANCH  18  21
ENDBRANCH  14  17
ENDBRANCH   4  13
BRANCH   1  32
ATOM     32  C   LIG d   1       3.939  -9.916  -3.984  0.00  0.00    -0.035 C 
ATOM     33  H   LIG d   1       4.631  -9.952  -3.142  0.00  0.00     0.028 H 
ATOM     34  H   LIG d   1       3.230  -9.100  -3.837  0.00  0.00     0.028 H 
ATOM     35  H   LIG d   1       3.398 -10.859  -4.052  0.00  0.00     0.028 H 
ENDBRANCH   1  32
BRANCH   9  36
ATOM     36  C   LIG d   1       4.752 -12.051  -6.097  0.00  0.00     0.228 C 
ATOM     37  O   LIG d   1       5.483 -12.799  -5.474  0.00  0.00    -0.283 OA
BRANCH  36  38
ATOM     38  C   LIG d   1       3.549 -12.586  -6.769  0.00  0.00     0.025 A 
ATOM     39  C   LIG d   1       2.552 -13.219  -6.023  0.00  0.00    -0.049 A 
ATOM     40  C   LIG d   1       1.433 -13.717  -6.657  0.00  0.00    -0.043 A 
ATOM     41  H   LIG d   1       2.658 -13.319  -4.954  0.00  0.00     0.062 H 
ATOM     42  C   LIG d   1       1.297 -13.590  -8.030  0.00  0.00     0.041 A 
ATOM     43  H   LIG d   1       0.662 -14.207  -6.081  0.00  0.00     0.063 H 
ATOM     44  C   LIG d   1       2.281 -12.963  -8.774  0.00  0.00    -0.043 A 
ATOM     45 CL   LIG d   1      -0.115 -14.220  -8.820  0.00  0.00    -0.084 Cl
ATOM     46  C   LIG d   1       3.403 -12.456  -8.152  0.00  0.00    -0.049 A 
ATOM     47  H   LIG d   1       2.170 -12.867  -9.844  0.00  0.00     0.063 H 
ATOM     48  H   LIG d   1       4.168 -11.963  -8.734  0.00  0.00     0.062 H 
ENDBRANCH  36  38
ENDBRANCH   9  36
TORSDOF 6
ENDMDL
MODEL 2
REMARK VINA RESULT:      -7.0      8.835     11.200
REMARK  6 active torsions:
REMARK  status: ('A' for Active; 'I' for Inactive)
REMARK    1  A    between atoms: C_1  and  C_2 
REMARK    2  A    between atoms: C_5  and  N_20 
REMARK    3  A    between atoms: C_10  and  C_11 
REMARK    4  A    between atoms: C_11  and  C_13 
REMARK       I    between atoms: N_20  and  C_21 
REMARK    5  A    between atoms: C_21  and  C_23 
REMARK    6  A    between atoms: C_24  and  C_25 
ROOT
ATOM      1  C   LIG d   1       4.172  -1.237 -13.227  0.00  0.00     0.006 A 
ATOM      2  C   LIG d   1       3.362  -1.312 -12.012  0.00  0.00     0.025 A 
ATOM      3  C   LIG d   1       3.631  -1.136 -10.652  0.00  0.00    -0.029 A 
ATOM      4  C   LIG d   1       2.611  -1.285  -9.731  0.00  0.00     0.034 A 
ATOM      5  C   LIG d   1       1.322  -1.601 -10.158  0.00  0.00    -0.037 A 
ATOM      6  C   LIG d   1       1.047  -1.772 -11.497  0.00  0.00    -0.017 A 
ATOM      7  C   LIG d   1       2.060  -1.630 -12.440  0.00  0.00     0.136 A 
ATOM      8  O   LIG d   1       2.086  -1.736 -13.784  0.00  0.00    -0.451 OA
ATOM      9  C   LIG d   1       3.328  -1.505 -14.259  0.00  0.00     0.179 A 
ATOM     10  H   LIG d   1       4.629  -0.887 -10.322  0.00  0.00     0.064 H 
ATOM     11  H   LIG d   1       0.530  -1.711  -9.432  0.00  0.00     0.064 H 
ATOM     12  H   LIG d   1       0.045  -2.016 -11.815  0.00  0.00     0.066 H 
ENDROOT
BRANCH   4  13
ATOM     13  N   LIG d   1       2.872  -1.115  -8.366  0.00  0.00    -0.282 N 
ATOM     14  C   LIG d   1       2.782   0.110  -7.811  0.00  0.00     0.241 C 
ATOM     15  O   LIG d   1       2.565   1.081  -8.511  0.00  0.00    -0.271 OA
ATOM     16  H   LIG d   1       3.118  -1.878  -7.820  0.00  0.00     0.155 HD
BRANCH  14  17
ATOM     17  C   LIG d   1       2.943   0.271  -6.364  0.00  0.00     0.001 C 
ATOM     18  C   LIG d   1       3.847  -0.477  -5.699  0.00  0.00    -0.050 C 
ATOM     19  H   LIG d   1       4.450  -1.195  -6.233  0.00  0.00     0.062 H 
ATOM     20  H   LIG d   1       2.339   0.990  -5.831  0.00  0.00     0.067 H 
BRANCH  18  21
ATOM     21  C   LIG d   1       4.009  -0.315  -4.245  0.00  0.00    -0.025 A 
ATOM     22  C   LIG d   1       3.702   0.906  -3.636  0.00  0.00    -0.055 A 
ATOM     23  C   LIG d   1       3.857   1.050  -2.274  0.00  0.00    -0.061 A 
ATOM     24  H   LIG d   1       3.346   1.734  -4.232  0.00  0.00     0.062 H 
ATOM     25  C   LIG d   1       4.312  -0.009  -1.509  0.00  0.00    -0.062 A 
ATOM     26  H   LIG d   1       3.620   1.993  -1.802  0.00  0.00     0.062 H 
ATOM     27  C   LIG d   1       4.618  -1.221  -2.105  0.00  0.00    -0.061 A 
ATOM     28  H   LIG d   1       4.430   0.109  -0.442  0.00  0.00     0.062 H 
ATOM     29  C   LIG d   1       4.464  -1.383  -3.466  0.00  0.00    -0.055 A 
ATOM     30  H   LIG d   1       4.974  -2.043  -1.501  0.00  0.00     0.062 H 
ATOM     31  H   LIG d   1       4.698  -2.329  -3.928  0.00  0.00     0.062 H 
ENDBRANCH  18  21
ENDBRANCH  14  17
ENDBRANCH   4  13
BRANCH   1  32
ATOM     32  C   LIG d   1       5.643  -0.925 -13.316  0.00  0.00    -0.035 C 
ATOM     33  H   LIG d   1       6.074  -1.446 -14.171  0.00  0.00     0.028 H 
ATOM     34  H   LIG d   1       5.779   0.150 -13.440  0.00  0.00     0.028 H 
ATOM     35  H   LIG d   1       6.140  -1.251 -12.403  0.00  0.00     0.028 H 
ENDBRANCH   1  32
BRANCH   9  36
ATOM     36  C   LIG d   1       3.709  -1.539 -15.676  0.00  0.00     0.228 C 
ATOM     37  O   LIG d   1       4.183  -2.553 -16.155  0.00  0.00    -0.283 OA
BRANCH  36  38
ATOM     38  C   LIG d   1       3.518  -0.343 -16.523  0.00  0.00     0.025 A 
ATOM     39  C   LIG d   1       2.478  -0.301 -17.453  0.00  0.00    -0.049 A 
ATOM     40  C   LIG d   1       2.305   0.818 -18.240  0.00  0.00    -0.043 A 
ATOM     41  H   LIG d   1       1.810  -1.143 -17.556  0.00  0.00     0.062 H 
ATOM     42  C   LIG d   1       3.163   1.898 -18.110  0.00  0.00     0.041 A 
ATOM     43  H   LIG d   1       1.501   0.851 -18.960  0.00  0.00     0.063 H 
ATOM     44  C   LIG d   1       4.196   1.863 -17.189  0.00  0.00    -0.043 A 
ATOM     45 CL   LIG d   1       2.940   3.303 -19.106  0.00  0.00    -0.084 Cl
ATOM     46  C   LIG d   1       4.376   0.752 -16.392  0.00  0.00    -0.049 A 
ATOM     47  H   LIG d   1       4.862   2.708 -17.092  0.00  0.00     0.063 H 
ATOM     48  H   LIG d   1       5.180   0.728 -15.671  0.00  0.00     0.062 H 
ENDBRANCH  36  38
ENDBRANCH   9  36
TORSDOF 6
ENDMDL
MODEL 3
REMARK VINA RESULT:      -7.0     10.451     17.398
REMARK  6 active torsions:
REMARK  status: ('A' for Active; 'I' for Inactive)
REMARK    1  A    between atoms: C_1  and  C_2 
REMARK    2  A    between atoms: C_5  and  N_20 
REMARK    3  A    between atoms: C_10  and  C_11 
REMARK    4  A    between atoms: C_11  and  C_13 
REMARK       I    between atoms: N_20  and  C_21 
REMARK    5  A    between atoms: C_21  and  C_23 
REMARK    6  A    between atoms: C_24  and  C_25 
ROOT
ATOM      1  C   LIG d   1      10.164   7.415  -2.787  0.00  0.00     0.006 A 
ATOM      2  C   LIG d   1       9.961   6.298  -3.708  0.00  0.00     0.025 A 
ATOM      3  C   LIG d   1       9.183   5.138  -3.673  0.00  0.00    -0.029 A 
ATOM      4  C   LIG d   1       9.223   4.259  -4.739  0.00  0.00     0.034 A 
ATOM      5  C   LIG d   1      10.027   4.534  -5.845  0.00  0.00    -0.037 A 
ATOM      6  C   LIG d   1      10.793   5.678  -5.889  0.00  0.00    -0.017 A 
ATOM      7  C   LIG d   1      10.771   6.573  -4.825  0.00  0.00     0.136 A 
ATOM      8  O   LIG d   1      11.401   7.744  -4.596  0.00  0.00    -0.451 OA
ATOM      9  C   LIG d   1      11.049   8.250  -3.395  0.00  0.00     0.179 A 
ATOM     10  H   LIG d   1       8.558   4.928  -2.818  0.00  0.00     0.064 H 
ATOM     11  H   LIG d   1      10.049   3.844  -6.675  0.00  0.00     0.064 H 
ATOM     12  H   LIG d   1      11.412   5.879  -6.751  0.00  0.00     0.066 H 
ENDROOT
BRANCH   4  13
ATOM     13  N   LIG d   1       8.449   3.092  -4.711  0.00  0.00    -0.282 N 
ATOM     14  C   LIG d   1       8.807   2.066  -3.914  0.00  0.00     0.241 C 
ATOM     15  O   LIG d   1       9.850   2.115  -3.290  0.00  0.00    -0.271 OA
ATOM     16  H   LIG d   1       7.657   3.022  -5.266  0.00  0.00     0.155 HD
BRANCH  14  17
ATOM     17  C   LIG d   1       7.939   0.892  -3.799  0.00  0.00     0.001 C 
ATOM     18  C   LIG d   1       6.696   1.020  -3.291  0.00  0.00    -0.050 C 
ATOM     19  H   LIG d   1       6.342   1.988  -2.969  0.00  0.00     0.062 H 
ATOM     20  H   LIG d   1       8.294  -0.075  -4.121  0.00  0.00     0.067 H 
BRANCH  18  21
ATOM     21  C   LIG d   1       5.824  -0.160  -3.175  0.00  0.00    -0.025 A 
ATOM     22  C   LIG d   1       4.765  -0.163  -2.262  0.00  0.00    -0.055 A 
ATOM     23  C   LIG d   1       3.952  -1.272  -2.159  0.00  0.00    -0.061 A 
ATOM     24  H   LIG d   1       4.585   0.700  -1.638  0.00  0.00     0.062 H 
ATOM     25  C   LIG d   1       4.181  -2.379  -2.956  0.00  0.00    -0.062 A 
ATOM     26  H   LIG d   1       3.133  -1.276  -1.454  0.00  0.00     0.062 H 
ATOM     27  C   LIG d   1       5.228  -2.384  -3.862  0.00  0.00    -0.061 A 
ATOM     28  H   LIG d   1       3.541  -3.245  -2.872  0.00  0.00     0.062 H 
ATOM     29  C   LIG d   1       6.047  -1.280  -3.981  0.00  0.00    -0.055 A 
ATOM     30  H   LIG d   1       5.401  -3.252  -4.482  0.00  0.00     0.062 H 
ATOM     31  H   LIG d   1       6.860  -1.283  -4.691  0.00  0.00     0.062 H 
ENDBRANCH  18  21
ENDBRANCH  14  17
ENDBRANCH   4  13
BRANCH   1  32
ATOM     32  C   LIG d   1       9.521   7.603  -1.437  0.00  0.00    -0.035 C 
ATOM     33  H   LIG d   1       9.533   8.661  -1.173  0.00  0.00     0.028 H 
ATOM     34  H   LIG d   1       8.490   7.249  -1.474  0.00  0.00     0.028 H 
ATOM     35  H   LIG d   1      10.073   7.035  -0.689  0.00  0.00     0.028 H 
ENDBRANCH   1  32
BRANCH   9  36
ATOM     36  C   LIG d   1      11.546   9.511  -2.832  0.00  0.00     0.228 C 
ATOM     37  O   LIG d   1      12.659   9.561  -2.341  0.00  0.00    -0.283 OA
BRANCH  36  38
ATOM     38  C   LIG d   1      10.697  10.720  -2.861  0.00  0.00     0.025 A 
ATOM     39  C   LIG d   1      10.989  11.803  -2.030  0.00  0.00    -0.049 A 
ATOM     40  C   LIG d   1      10.192  12.928  -2.061  0.00  0.00    -0.043 A 
ATOM     41  H   LIG d   1      11.837  11.759  -1.363  0.00  0.00     0.062 H 
ATOM     42  C   LIG d   1       9.103  12.985  -2.916  0.00  0.00     0.041 A 
ATOM     43  H   LIG d   1      10.418  13.765  -1.418  0.00  0.00     0.063 H 
ATOM     44  C   LIG d   1       8.808  11.914  -3.743  0.00  0.00    -0.043 A 
ATOM     45 CL   LIG d   1       8.104  14.404  -2.950  0.00  0.00    -0.084 Cl
ATOM     46  C   LIG d   1       9.600  10.786  -3.725  0.00  0.00    -0.049 A 
ATOM     47  H   LIG d   1       7.958  11.964  -4.408  0.00  0.00     0.063 H 
ATOM     48  H   LIG d   1       9.372   9.954  -4.375  0.00  0.00     0.062 H 
ENDBRANCH  36  38
ENDBRANCH   9  36
TORSDOF 6
ENDMDL
MODEL 4
REMARK VINA RESULT:      -6.8      4.557      6.673
REMARK  6 active torsions:
REMARK  status: ('A' for Active; 'I' for Inactive)
REMARK    1  A    between atoms: C_1  and  C_2 
REMARK    2  A    between atoms: C_5  and  N_20 
REMARK    3  A    between atoms: C_10  and  C_11 
REMARK    4  A    between atoms: C_11  and  C_13 
REMARK       I    between atoms: N_20  and  C_21 
REMARK    5  A    between atoms: C_21  and  C_23 
REMARK    6  A    between atoms: C_24  and  C_25 
ROOT
ATOM      1  C   LIG d   1       6.808  -4.711  -5.419  0.00  0.00     0.006 A 
ATOM      2  C   LIG d   1       6.461  -3.458  -4.748  0.00  0.00     0.025 A 
ATOM      3  C   LIG d   1       7.183  -2.317  -4.388  0.00  0.00    -0.029 A 
ATOM      4  C   LIG d   1       6.536  -1.279  -3.743  0.00  0.00     0.034 A 
ATOM      5  C   LIG d   1       5.174  -1.368  -3.464  0.00  0.00    -0.037 A 
ATOM      6  C   LIG d   1       4.454  -2.487  -3.820  0.00  0.00    -0.017 A 
ATOM      7  C   LIG d   1       5.086  -3.544  -4.465  0.00  0.00     0.136 A 
ATOM      8  O   LIG d   1       4.648  -4.736  -4.922  0.00  0.00    -0.451 OA
ATOM      9  C   LIG d   1       5.657  -5.432  -5.487  0.00  0.00     0.179 A 
ATOM     10  H   LIG d   1       8.237  -2.247  -4.609  0.00  0.00     0.064 H 
ATOM     11  H   LIG d   1       4.676  -0.550  -2.963  0.00  0.00     0.064 H 
ATOM     12  H   LIG d   1       3.399  -2.543  -3.597  0.00  0.00     0.066 H 
ENDROOT
BRANCH   4  13
ATOM     13  N   LIG d   1       7.252  -0.133  -3.374  0.00  0.00    -0.282 N 
ATOM     14  C   LIG d   1       7.343   0.907  -4.226  0.00  0.00     0.241 C 
ATOM     15  O   LIG d   1       6.885   0.817  -5.349  0.00  0.00    -0.271 OA
ATOM     16  H   LIG d   1       7.682  -0.088  -2.506  0.00  0.00     0.155 HD
BRANCH  14  17
ATOM     17  C   LIG d   1       7.994   2.148  -3.798  0.00  0.00     0.001 C 
ATOM     18  C   LIG d   1       8.724   2.864  -4.677  0.00  0.00    -0.050 C 
ATOM     19  H   LIG d   1       8.829   2.522  -5.696  0.00  0.00     0.062 H 
ATOM     20  H   LIG d   1       7.888   2.489  -2.780  0.00  0.00     0.067 H 
BRANCH  18  21
ATOM     21  C   LIG d   1       9.377   4.110  -4.248  0.00  0.00    -0.025 A 
ATOM     22  C   LIG d   1       9.874   4.231  -2.946  0.00  0.00    -0.055 A 
ATOM     23  C   LIG d   1      10.486   5.402  -2.552  0.00  0.00    -0.061 A 
ATOM     24  H   LIG d   1       9.779   3.409  -2.252  0.00  0.00     0.062 H 
ATOM     25  C   LIG d   1      10.609   6.456  -3.439  0.00  0.00    -0.062 A 
ATOM     26  H   LIG d   1      10.870   5.496  -1.546  0.00  0.00     0.062 H 
ATOM     27  C   LIG d   1      10.119   6.345  -4.729  0.00  0.00    -0.061 A 
ATOM     28  H   LIG d   1      11.090   7.370  -3.125  0.00  0.00     0.062 H 
ATOM     29  C   LIG d   1       9.510   5.178  -5.141  0.00  0.00    -0.055 A 
ATOM     30  H   LIG d   1      10.219   7.172  -5.416  0.00  0.00     0.062 H 
ATOM     31  H   LIG d   1       9.133   5.091  -6.149  0.00  0.00     0.062 H 
ENDBRANCH  18  21
ENDBRANCH  14  17
ENDBRANCH   4  13
BRANCH   1  32
ATOM     32  C   LIG d   1       8.165  -5.118  -5.931  0.00  0.00    -0.035 C 
ATOM     33  H   LIG d   1       8.046  -5.782  -6.787  0.00  0.00     0.028 H 
ATOM     34  H   LIG d   1       8.720  -4.230  -6.234  0.00  0.00     0.028 H 
ATOM     35  H   LIG d   1       8.711  -5.636  -5.142  0.00  0.00     0.028 H 
ENDBRANCH   1  32
BRANCH   9  36
ATOM     36  C   LIG d   1       5.530  -6.766  -6.085  0.00  0.00     0.228 C 
ATOM     37  O   LIG d   1       5.265  -6.881  -7.268  0.00  0.00    -0.283 OA
BRANCH  36  38
ATOM     38  C   LIG d   1       5.725  -7.972  -5.253  0.00  0.00     0.025 A 
ATOM     39  C   LIG d   1       7.000  -8.311  -4.796  0.00  0.00    -0.049 A 
ATOM     40  C   LIG d   1       7.174  -9.438  -4.020  0.00  0.00    -0.043 A 
ATOM     41  H   LIG d   1       7.847  -7.692  -5.049  0.00  0.00     0.062 H 
ATOM     42  C   LIG d   1       6.087 -10.234  -3.696  0.00  0.00     0.041 A 
ATOM     43  H   LIG d   1       8.160  -9.701  -3.667  0.00  0.00     0.063 H 
ATOM     44  C   LIG d   1       4.820  -9.902  -4.145  0.00  0.00    -0.043 A 
ATOM     45 CL   LIG d   1       6.315 -11.651  -2.719  0.00  0.00    -0.084 Cl
ATOM     46  C   LIG d   1       4.631  -8.775  -4.917  0.00  0.00    -0.049 A 
ATOM     47  H   LIG d   1       3.976 -10.526  -3.889  0.00  0.00     0.063 H 
ATOM     48  H   LIG d   1       3.642  -8.516  -5.263  0.00  0.00     0.062 H 
ENDBRANCH  36  38
ENDBRANCH   9  36
TORSDOF 6
ENDMDL
MODEL 5
REMARK VINA RESULT:      -6.8      7.682     10.994
REMARK  6 active torsions:
REMARK  status: ('A' for Active; 'I' for Inactive)
REMARK    1  A    between atoms: C_1  and  C_2 
REMARK    2  A    between atoms: C_5  and  N_20 
REMARK    3  A    between atoms: C_10  and  C_11 
REMARK    4  A    between atoms: C_11  and  C_13 
REMARK       I    between atoms: N_20  and  C_21 
REMARK    5  A    between atoms: C_21  and  C_23 
REMARK    6  A    between atoms: C_24  and  C_25 
ROOT
ATOM      1  C   LIG d   1       6.467   0.332  -4.224  0.00  0.00     0.006 A 
ATOM      2  C   LIG d   1       7.682   1.136  -4.345  0.00  0.00     0.025 A 
ATOM      3  C   LIG d   1       8.250   2.160  -3.582  0.00  0.00    -0.029 A 
ATOM      4  C   LIG d   1       9.444   2.728  -3.987  0.00  0.00     0.034 A 
ATOM      5  C   LIG d   1      10.080   2.275  -5.141  0.00  0.00    -0.037 A 
ATOM      6  C   LIG d   1       9.529   1.263  -5.896  0.00  0.00    -0.017 A 
ATOM      7  C   LIG d   1       8.327   0.681  -5.510  0.00  0.00     0.136 A 
ATOM      8  O   LIG d   1       7.570  -0.303  -6.038  0.00  0.00    -0.451 OA
ATOM      9  C   LIG d   1       6.470  -0.517  -5.287  0.00  0.00     0.179 A 
ATOM     10  H   LIG d   1       7.759   2.507  -2.686  0.00  0.00     0.064 H 
ATOM     11  H   LIG d   1      11.015   2.722  -5.447  0.00  0.00     0.064 H 
ATOM     12  H   LIG d   1      10.032   0.921  -6.788  0.00  0.00     0.066 H 
ENDROOT
BRANCH   4  13
ATOM     13  N   LIG d   1      10.018   3.758  -3.231  0.00  0.00    -0.282 N 
ATOM     14  C   LIG d   1       9.751   5.043  -3.531  0.00  0.00     0.241 C 
ATOM     15  O   LIG d   1       9.087   5.314  -4.514  0.00  0.00    -0.271 OA
ATOM     16  H   LIG d   1      10.609   3.545  -2.491  0.00  0.00     0.155 HD
BRANCH  14  17
ATOM     17  C   LIG d   1      10.259   6.116  -2.673  0.00  0.00     0.001 C 
ATOM     18  C   LIG d   1       9.456   6.675  -1.745  0.00  0.00    -0.050 C 
ATOM     19  H   LIG d   1       8.438   6.332  -1.635  0.00  0.00     0.062 H 
ATOM     20  H   LIG d   1      11.276   6.459  -2.784  0.00  0.00     0.067 H 
BRANCH  18  21
ATOM     21  C   LIG d   1       9.966   7.753  -0.884  0.00  0.00    -0.025 A 
ATOM     22  C   LIG d   1      10.920   7.474   0.100  0.00  0.00    -0.055 A 
ATOM     23  C   LIG d   1      11.394   8.490   0.903  0.00  0.00    -0.061 A 
ATOM     24  H   LIG d   1      11.284   6.466   0.231  0.00  0.00     0.062 H 
ATOM     25  C   LIG d   1      10.929   9.783   0.738  0.00  0.00    -0.062 A 
ATOM     26  H   LIG d   1      12.131   8.276   1.664  0.00  0.00     0.062 H 
ATOM     27  C   LIG d   1       9.985  10.067  -0.234  0.00  0.00    -0.061 A 
ATOM     28  H   LIG d   1      11.305  10.574   1.369  0.00  0.00     0.062 H 
ATOM     29  C   LIG d   1       9.505   9.063  -1.049  0.00  0.00    -0.055 A 
ATOM     30  H   LIG d   1       9.627  11.078  -0.357  0.00  0.00     0.062 H 
ATOM     31  H   LIG d   1       8.772   9.287  -1.809  0.00  0.00     0.062 H 
ENDBRANCH  18  21
ENDBRANCH  14  17
ENDBRANCH   4  13
BRANCH   1  32
ATOM     32  C   LIG d   1       5.424   0.426  -3.141  0.00  0.00    -0.035 C 
ATOM     33  H   LIG d   1       5.496   1.396  -2.650  0.00  0.00     0.028 H 
ATOM     34  H   LIG d   1       4.433   0.314  -3.582  0.00  0.00     0.028 H 
ATOM     35  H   LIG d   1       5.587  -0.365  -2.409  0.00  0.00     0.028 H 
ENDBRANCH   1  32
BRANCH   9  36
ATOM     36  C   LIG d   1       5.434  -1.516  -5.573  0.00  0.00     0.228 C 
ATOM     37  O   LIG d   1       5.394  -2.552  -4.935  0.00  0.00    -0.283 OA
BRANCH  36  38
ATOM     38  C   LIG d   1       4.437  -1.265  -6.635  0.00  0.00     0.025 A 
ATOM     39  C   LIG d   1       3.595  -0.154  -6.559  0.00  0.00    -0.049 A 
ATOM     40  C   LIG d   1       2.667   0.074  -7.553  0.00  0.00    -0.043 A 
ATOM     41  H   LIG d   1       3.669   0.525  -5.723  0.00  0.00     0.062 H 
ATOM     42  C   LIG d   1       2.569  -0.798  -8.626  0.00  0.00     0.041 A 
ATOM     43  H   LIG d   1       2.015   0.932  -7.495  0.00  0.00     0.063 H 
ATOM     44  C   LIG d   1       3.402  -1.901  -8.707  0.00  0.00    -0.043 A 
ATOM     45 CL   LIG d   1       1.397  -0.505  -9.873  0.00  0.00    -0.084 Cl
ATOM     46  C   LIG d   1       4.338  -2.136  -7.723  0.00  0.00    -0.049 A 
ATOM     47  H   LIG d   1       3.322  -2.576  -9.546  0.00  0.00     0.063 H 
ATOM     48  H   LIG d   1       4.990  -2.995  -7.790  0.00  0.00     0.062 H 
ENDBRANCH  36  38
ENDBRANCH   9  36
TORSDOF 6
ENDMDL
MODEL 6
REMARK VINA RESULT:      -6.7      4.823      7.021
REMARK  6 active torsions:
REMARK  status: ('A' for Active; 'I' for Inactive)
REMARK    1  A    between atoms: C_1  and  C_2 
REMARK    2  A    between atoms: C_5  and  N_20 
REMARK    3  A    between atoms: C_10  and  C_11 
REMARK    4  A    between atoms: C_11  and  C_13 
REMARK       I    between atoms: N_20  and  C_21 
REMARK    5  A    between atoms: C_21  and  C_23 
REMARK    6  A    between atoms: C_24  and  C_25 
ROOT
ATOM      1  C   LIG d   1       6.233  -4.403  -5.451  0.00  0.00     0.006 A 
ATOM      2  C   LIG d   1       6.167  -3.175  -4.660  0.00  0.00     0.025 A 
ATOM      3  C   LIG d   1       7.066  -2.139  -4.396  0.00  0.00    -0.029 A 
ATOM      4  C   LIG d   1       6.679  -1.093  -3.579  0.00  0.00     0.034 A 
ATOM      5  C   LIG d   1       5.398  -1.069  -3.032  0.00  0.00    -0.037 A 
ATOM      6  C   LIG d   1       4.503  -2.084  -3.290  0.00  0.00    -0.017 A 
ATOM      7  C   LIG d   1       4.874  -3.147  -4.106  0.00  0.00     0.136 A 
ATOM      8  O   LIG d   1       4.226  -4.254  -4.524  0.00  0.00    -0.451 OA
ATOM      9  C   LIG d   1       5.019  -5.002  -5.320  0.00  0.00     0.179 A 
ATOM     10  H   LIG d   1       8.057  -2.157  -4.824  0.00  0.00     0.064 H 
ATOM     11  H   LIG d   1       5.102  -0.245  -2.398  0.00  0.00     0.064 H 
ATOM     12  H   LIG d   1       3.514  -2.053  -2.860  0.00  0.00     0.066 H 
ENDROOT
BRANCH   4  13
ATOM     13  N   LIG d   1       7.576  -0.052  -3.306  0.00  0.00    -0.282 N 
ATOM     14  C   LIG d   1       7.618   1.028  -4.109  0.00  0.00     0.241 C 
ATOM     15  O   LIG d   1       6.947   1.061  -5.123  0.00  0.00    -0.271 OA
ATOM     16  H   LIG d   1       8.166  -0.110  -2.538  0.00  0.00     0.155 HD
BRANCH  14  17
ATOM     17  C   LIG d   1       8.473   2.166  -3.761  0.00  0.00     0.001 C 
ATOM     18  C   LIG d   1       8.640   3.176  -4.638  0.00  0.00    -0.050 C 
ATOM     19  H   LIG d   1       8.145   3.146  -5.597  0.00  0.00     0.062 H 
ATOM     20  H   LIG d   1       8.967   2.195  -2.802  0.00  0.00     0.067 H 
BRANCH  18  21
ATOM     21  C   LIG d   1       9.499   4.319  -4.288  0.00  0.00    -0.025 A 
ATOM     22  C   LIG d   1      10.011   4.442  -2.993  0.00  0.00    -0.055 A 
ATOM     23  C   LIG d   1      10.815   5.516  -2.673  0.00  0.00    -0.061 A 
ATOM     24  H   LIG d   1       9.777   3.699  -2.245  0.00  0.00     0.062 H 
ATOM     25  C   LIG d   1      11.117   6.469  -3.629  0.00  0.00    -0.062 A 
ATOM     26  H   LIG d   1      11.212   5.612  -1.672  0.00  0.00     0.062 H 
ATOM     27  C   LIG d   1      10.614   6.354  -4.914  0.00  0.00    -0.061 A 
ATOM     28  H   LIG d   1      11.748   7.307  -3.374  0.00  0.00     0.062 H 
ATOM     29  C   LIG d   1       9.812   5.283  -5.251  0.00  0.00    -0.055 A 
ATOM     30  H   LIG d   1      10.853   7.102  -5.655  0.00  0.00     0.062 H 
ATOM     31  H   LIG d   1       9.424   5.192  -6.254  0.00  0.00     0.062 H 
ENDBRANCH  18  21
ENDBRANCH  14  17
ENDBRANCH   4  13
BRANCH   1  32
ATOM     32  C   LIG d   1       7.409  -4.902  -6.251  0.00  0.00    -0.035 C 
ATOM     33  H   LIG d   1       7.217  -4.750  -7.313  0.00  0.00     0.028 H 
ATOM     34  H   LIG d   1       8.304  -4.351  -5.961  0.00  0.00     0.028 H 
ATOM     35  H   LIG d   1       7.557  -5.964  -6.056  0.00  0.00     0.028 H 
ENDBRANCH   1  32
BRANCH   9  36
ATOM     36  C   LIG d   1       4.630  -6.270  -5.948  0.00  0.00     0.228 C 
ATOM     37  O   LIG d   1       4.680  -7.306  -5.310  0.00  0.00    -0.283 OA
BRANCH  36  38
ATOM     38  C   LIG d   1       4.176  -6.291  -7.354  0.00  0.00     0.025 A 
ATOM     39  C   LIG d   1       3.694  -5.126  -7.953  0.00  0.00    -0.049 A 
ATOM     40  C   LIG d   1       3.271  -5.153  -9.266  0.00  0.00    -0.043 A 
ATOM     41  H   LIG d   1       3.651  -4.206  -7.390  0.00  0.00     0.062 H 
ATOM     42  C   LIG d   1       3.324  -6.334  -9.989  0.00  0.00     0.041 A 
ATOM     43  H   LIG d   1       2.897  -4.253  -9.730  0.00  0.00     0.063 H 
ATOM     44  C   LIG d   1       3.803  -7.492  -9.400  0.00  0.00    -0.043 A 
ATOM     45 CL   LIG d   1       2.790  -6.361 -11.641  0.00  0.00    -0.084 Cl
ATOM     46  C   LIG d   1       4.234  -7.477  -8.091  0.00  0.00    -0.049 A 
ATOM     47  H   LIG d   1       3.843  -8.410  -9.969  0.00  0.00     0.063 H 
ATOM     48  H   LIG d   1       4.611  -8.381  -7.635  0.00  0.00     0.062 H 
ENDBRANCH  36  38
ENDBRANCH   9  36
TORSDOF 6
ENDMDL
MODEL 7
REMARK VINA RESULT:      -6.6      8.851     13.519
REMARK  6 active torsions:
REMARK  status: ('A' for Active; 'I' for Inactive)
REMARK    1  A    between atoms: C_1  and  C_2 
REMARK    2  A    between atoms: C_5  and  N_20 
REMARK    3  A    between atoms: C_10  and  C_11 
REMARK    4  A    between atoms: C_11  and  C_13 
REMARK       I    between atoms: N_20  and  C_21 
REMARK    5  A    between atoms: C_21  and  C_23 
REMARK    6  A    between atoms: C_24  and  C_25 
ROOT
ATOM      1  C   LIG d   1       8.721   1.405  -5.068  0.00  0.00     0.006 A 
ATOM      2  C   LIG d   1       7.411   0.757  -5.041  0.00  0.00     0.025 A 
ATOM      3  C   LIG d   1       6.683  -0.002  -5.962  0.00  0.00    -0.029 A 
ATOM      4  C   LIG d   1       5.433  -0.479  -5.613  0.00  0.00     0.034 A 
ATOM      5  C   LIG d   1       4.909  -0.214  -4.349  0.00  0.00    -0.037 A 
ATOM      6  C   LIG d   1       5.622   0.529  -3.434  0.00  0.00    -0.017 A 
ATOM      7  C   LIG d   1       6.879   1.023  -3.766  0.00  0.00     0.136 A 
ATOM      8  O   LIG d   1       7.784   1.762  -3.092  0.00  0.00    -0.451 OA
ATOM      9  C   LIG d   1       8.876   1.993  -3.851  0.00  0.00     0.179 A 
ATOM     10  H   LIG d   1       7.091  -0.210  -6.939  0.00  0.00     0.064 H 
ATOM     11  H   LIG d   1       3.934  -0.595  -4.084  0.00  0.00     0.064 H 
ATOM     12  H   LIG d   1       5.205   0.728  -2.459  0.00  0.00     0.066 H 
ENDROOT
BRANCH   4  13
ATOM     13  N   LIG d   1       4.695  -1.237  -6.531  0.00  0.00    -0.282 N 
ATOM     14  C   LIG d   1       3.830  -0.628  -7.365  0.00  0.00     0.241 C 
ATOM     15  O   LIG d   1       3.620   0.566  -7.260  0.00  0.00    -0.271 OA
ATOM     16  H   LIG d   1       4.806  -2.200  -6.565  0.00  0.00     0.155 HD
BRANCH  14  17
ATOM     17  C   LIG d   1       3.142  -1.403  -8.400  0.00  0.00     0.001 C 
ATOM     18  C   LIG d   1       2.359  -0.778  -9.302  0.00  0.00    -0.050 C 
ATOM     19  H   LIG d   1       2.238   0.294  -9.261  0.00  0.00     0.062 H 
ATOM     20  H   LIG d   1       3.263  -2.475  -8.440  0.00  0.00     0.067 H 
BRANCH  18  21
ATOM     21  C   LIG d   1       1.667  -1.557 -10.342  0.00  0.00    -0.025 A 
ATOM     22  C   LIG d   1       1.579  -2.949 -10.235  0.00  0.00    -0.055 A 
ATOM     23  C   LIG d   1       0.930  -3.672 -11.213  0.00  0.00    -0.061 A 
ATOM     24  H   LIG d   1       2.020  -3.456  -9.388  0.00  0.00     0.062 H 
ATOM     25  C   LIG d   1       0.365  -3.025 -12.297  0.00  0.00    -0.062 A 
ATOM     26  H   LIG d   1       0.861  -4.747 -11.131  0.00  0.00     0.062 H 
ATOM     27  C   LIG d   1       0.448  -1.648 -12.411  0.00  0.00    -0.061 A 
ATOM     28  H   LIG d   1      -0.143  -3.596 -13.060  0.00  0.00     0.062 H 
ATOM     29  C   LIG d   1       1.090  -0.909 -11.438  0.00  0.00    -0.055 A 
ATOM     30  H   LIG d   1       0.005  -1.149 -13.260  0.00  0.00     0.062 H 
ATOM     31  H   LIG d   1       1.150   0.165 -11.525  0.00  0.00     0.062 H 
ENDBRANCH  18  21
ENDBRANCH  14  17
ENDBRANCH   4  13
BRANCH   1  32
ATOM     32  C   LIG d   1       9.701   1.419  -6.213  0.00  0.00    -0.035 C 
ATOM     33  H   LIG d   1      10.327   0.528  -6.166  0.00  0.00     0.028 H 
ATOM     34  H   LIG d   1       9.156   1.431  -7.157  0.00  0.00     0.028 H 
ATOM     35  H   LIG d   1      10.327   2.308  -6.144  0.00  0.00     0.028 H 
ENDBRANCH   1  32
BRANCH   9  36
ATOM     36  C   LIG d   1      10.051   2.761  -3.427  0.00  0.00     0.228 C 
ATOM     37  O   LIG d   1      11.068   2.183  -3.089  0.00  0.00    -0.283 OA
BRANCH  36  38
ATOM     38  C   LIG d   1      10.004   4.239  -3.411  0.00  0.00     0.025 A 
ATOM     39  C   LIG d   1       9.548   4.938  -4.530  0.00  0.00    -0.049 A 
ATOM     40  C   LIG d   1       9.507   6.317  -4.509  0.00  0.00    -0.043 A 
ATOM     41  H   LIG d   1       9.230   4.401  -5.411  0.00  0.00     0.062 H 
ATOM     42  C   LIG d   1       9.917   7.007  -3.379  0.00  0.00     0.041 A 
ATOM     43  H   LIG d   1       9.156   6.858  -5.374  0.00  0.00     0.063 H 
ATOM     44  C   LIG d   1      10.369   6.318  -2.266  0.00  0.00    -0.043 A 
ATOM     45 CL   LIG d   1       9.863   8.742  -3.360  0.00  0.00    -0.084 Cl
ATOM     46  C   LIG d   1      10.410   4.940  -2.273  0.00  0.00    -0.049 A 
ATOM     47  H   LIG d   1      10.687   6.862  -1.388  0.00  0.00     0.063 H 
ATOM     48  H   LIG d   1      10.758   4.405  -1.402  0.00  0.00     0.062 H 
ENDBRANCH  36  38
ENDBRANCH   9  36
TORSDOF 6
ENDMDL
MODEL 8
REMARK VINA RESULT:      -6.5      1.874      2.612
REMARK  6 active torsions:
REMARK  status: ('A' for Active; 'I' for Inactive)
REMARK    1  A    between atoms: C_1  and  C_2 
REMARK    2  A    between atoms: C_5  and  N_20 
REMARK    3  A    between atoms: C_10  and  C_11 
REMARK    4  A    between atoms: C_11  and  C_13 
REMARK       I    between atoms: N_20  and  C_21 
REMARK    5  A    between atoms: C_21  and  C_23 
REMARK    6  A    between atoms: C_24  and  C_25 
ROOT
ATOM      1  C   LIG d   1       3.703  -8.306  -8.851  0.00  0.00     0.006 A 
ATOM      2  C   LIG d   1       4.256  -7.723  -7.629  0.00  0.00     0.025 A 
ATOM      3  C   LIG d   1       4.121  -6.484  -6.996  0.00  0.00    -0.029 A 
ATOM      4  C   LIG d   1       4.803  -6.245  -5.818  0.00  0.00     0.034 A 
ATOM      5  C   LIG d   1       5.610  -7.235  -5.262  0.00  0.00    -0.037 A 
ATOM      6  C   LIG d   1       5.745  -8.460  -5.877  0.00  0.00    -0.017 A 
ATOM      7  C   LIG d   1       5.072  -8.720  -7.065  0.00  0.00     0.136 A 
ATOM      8  O   LIG d   1       5.015  -9.800  -7.872  0.00  0.00    -0.451 OA
ATOM      9  C   LIG d   1       4.209  -9.566  -8.929  0.00  0.00     0.179 A 
ATOM     10  H   LIG d   1       3.491  -5.719  -7.426  0.00  0.00     0.064 H 
ATOM     11  H   LIG d   1       6.136  -7.040  -4.338  0.00  0.00     0.064 H 
ATOM     12  H   LIG d   1       6.374  -9.219  -5.436  0.00  0.00     0.066 H 
ENDROOT
BRANCH   4  13
ATOM     13  N   LIG d   1       4.677  -5.005  -5.178  0.00  0.00    -0.282 N 
ATOM     14  C   LIG d   1       5.562  -4.022  -5.435  0.00  0.00     0.241 C 
ATOM     15  O   LIG d   1       6.523  -4.239  -6.148  0.00  0.00    -0.271 OA
ATOM     16  H   LIG d   1       3.952  -4.854  -4.551  0.00  0.00     0.155 HD
BRANCH  14  17
ATOM     17  C   LIG d   1       5.366  -2.691  -4.855  0.00  0.00     0.001 C 
ATOM     18  C   LIG d   1       4.369  -2.481  -3.972  0.00  0.00    -0.050 C 
ATOM     19  H   LIG d   1       3.714  -3.293  -3.693  0.00  0.00     0.062 H 
ATOM     20  H   LIG d   1       6.021  -1.880  -5.134  0.00  0.00     0.067 H 
BRANCH  18  21
ATOM     21  C   LIG d   1       4.172  -1.144  -3.389  0.00  0.00    -0.025 A 
ATOM     22  C   LIG d   1       3.427  -0.181  -4.076  0.00  0.00    -0.055 A 
ATOM     23  C   LIG d   1       3.247   1.069  -3.523  0.00  0.00    -0.061 A 
ATOM     24  H   LIG d   1       2.994  -0.416  -5.037  0.00  0.00     0.062 H 
ATOM     25  C   LIG d   1       3.800   1.373  -2.292  0.00  0.00    -0.062 A 
ATOM     26  H   LIG d   1       2.671   1.815  -4.053  0.00  0.00     0.062 H 
ATOM     27  C   LIG d   1       4.540   0.425  -1.606  0.00  0.00    -0.061 A 
ATOM     28  H   LIG d   1       3.655   2.353  -1.863  0.00  0.00     0.062 H 
ATOM     29  C   LIG d   1       4.724  -0.833  -2.143  0.00  0.00    -0.055 A 
ATOM     30  H   LIG d   1       4.969   0.668  -0.645  0.00  0.00     0.062 H 
ATOM     31  H   LIG d   1       5.297  -1.572  -1.604  0.00  0.00     0.062 H 
ENDBRANCH  18  21
ENDBRANCH  14  17
ENDBRANCH   4  13
BRANCH   1  32
ATOM     32  C   LIG d   1       2.763  -7.644  -9.825  0.00  0.00    -0.035 C 
ATOM     33  H   LIG d   1       2.517  -6.643  -9.470  0.00  0.00     0.028 H 
ATOM     34  H   LIG d   1       3.243  -7.575 -10.802  0.00  0.00     0.028 H 
ATOM     35  H   LIG d   1       1.851  -8.235  -9.909  0.00  0.00     0.028 H 
ENDBRANCH   1  32
BRANCH   9  36
ATOM     36  C   LIG d   1       3.922 -10.527 -10.001  0.00  0.00     0.228 C 
ATOM     37  O   LIG d   1       4.674 -10.617 -10.954  0.00  0.00    -0.283 OA
BRANCH  36  38
ATOM     38  C   LIG d   1       2.722 -11.386  -9.923  0.00  0.00     0.025 A 
ATOM     39  C   LIG d   1       2.695 -12.475  -9.050  0.00  0.00    -0.049 A 
ATOM     40  C   LIG d   1       1.572 -13.274  -8.983  0.00  0.00    -0.043 A 
ATOM     41  H   LIG d   1       3.550 -12.693  -8.429  0.00  0.00     0.062 H 
ATOM     42  C   LIG d   1       0.473 -12.997  -9.781  0.00  0.00     0.041 A 
ATOM     43  H   LIG d   1       1.550 -14.116  -8.308  0.00  0.00     0.063 H 
ATOM     44  C   LIG d   1       0.495 -11.917 -10.648  0.00  0.00    -0.043 A 
ATOM     45 CL   LIG d   1      -0.936 -14.006  -9.692  0.00  0.00    -0.084 Cl
ATOM     46  C   LIG d   1       1.609 -11.108 -10.720  0.00  0.00    -0.049 A 
ATOM     47  H   LIG d   1      -0.365 -11.706 -11.267  0.00  0.00     0.063 H 
ATOM     48  H   LIG d   1       1.622 -10.264 -11.394  0.00  0.00     0.062 H 
ENDBRANCH  36  38
ENDBRANCH   9  36
TORSDOF 6
ENDMDL
MODEL 9
REMARK VINA RESULT:      -6.4      7.277      8.525
REMARK  6 active torsions:
REMARK  status: ('A' for Active; 'I' for Inactive)
REMARK    1  A    between atoms: C_1  and  C_2 
REMARK    2  A    between atoms: C_5  and  N_20 
REMARK    3  A    between atoms: C_10  and  C_11 
REMARK    4  A    between atoms: C_11  and  C_13 
REMARK       I    between atoms: N_20  and  C_21 
REMARK    5  A    between atoms: C_21  and  C_23 
REMARK    6  A    between atoms: C_24  and  C_25 
ROOT
ATOM      1  C   LIG d   1      10.516  -7.850  -2.118  0.00  0.00     0.006 A 
ATOM      2  C   LIG d   1      10.513  -6.447  -2.530  0.00  0.00     0.025 A 
ATOM      3  C   LIG d   1       9.543  -5.441  -2.546  0.00  0.00    -0.029 A 
ATOM      4  C   LIG d   1       9.874  -4.184  -3.014  0.00  0.00     0.034 A 
ATOM      5  C   LIG d   1      11.170  -3.919  -3.455  0.00  0.00    -0.037 A 
ATOM      6  C   LIG d   1      12.133  -4.904  -3.438  0.00  0.00    -0.017 A 
ATOM      7  C   LIG d   1      11.819  -6.177  -2.976  0.00  0.00     0.136 A 
ATOM      8  O   LIG d   1      12.538  -7.311  -2.846  0.00  0.00    -0.451 OA
ATOM      9  C   LIG d   1      11.778  -8.305  -2.340  0.00  0.00     0.179 A 
ATOM     10  H   LIG d   1       8.541  -5.646  -2.200  0.00  0.00     0.064 H 
ATOM     11  H   LIG d   1      11.421  -2.932  -3.815  0.00  0.00     0.064 H 
ATOM     12  H   LIG d   1      13.133  -4.686  -3.783  0.00  0.00     0.066 H 
ENDROOT
BRANCH   4  13
ATOM     13  N   LIG d   1       8.907  -3.170  -3.038  0.00  0.00    -0.282 N 
ATOM     14  C   LIG d   1       7.969  -3.158  -4.004  0.00  0.00     0.241 C 
ATOM     15  O   LIG d   1       8.015  -3.971  -4.909  0.00  0.00    -0.271 OA
ATOM     16  H   LIG d   1       8.914  -2.478  -2.359  0.00  0.00     0.155 HD
BRANCH  14  17
ATOM     17  C   LIG d   1       6.891  -2.167  -3.966  0.00  0.00     0.001 C 
ATOM     18  C   LIG d   1       6.288  -1.873  -2.796  0.00  0.00    -0.050 C 
ATOM     19  H   LIG d   1       6.598  -2.368  -1.889  0.00  0.00     0.062 H 
ATOM     20  H   LIG d   1       6.582  -1.672  -4.873  0.00  0.00     0.067 H 
BRANCH  18  21
ATOM     21  C   LIG d   1       5.205  -0.876  -2.758  0.00  0.00    -0.025 A 
ATOM     22  C   LIG d   1       5.507   0.488  -2.706  0.00  0.00    -0.055 A 
ATOM     23  C   LIG d   1       4.487   1.414  -2.670  0.00  0.00    -0.061 A 
ATOM     24  H   LIG d   1       6.537   0.814  -2.693  0.00  0.00     0.062 H 
ATOM     25  C   LIG d   1       3.168   0.999  -2.687  0.00  0.00    -0.062 A 
ATOM     26  H   LIG d   1       4.719   2.469  -2.630  0.00  0.00     0.062 H 
ATOM     27  C   LIG d   1       2.860  -0.350  -2.737  0.00  0.00    -0.061 A 
ATOM     28  H   LIG d   1       2.373   1.730  -2.660  0.00  0.00     0.062 H 
ATOM     29  C   LIG d   1       3.869  -1.290  -2.779  0.00  0.00    -0.055 A 
ATOM     30  H   LIG d   1       1.828  -0.667  -2.750  0.00  0.00     0.062 H 
ATOM     31  H   LIG d   1       3.628  -2.341  -2.823  0.00  0.00     0.062 H 
ENDBRANCH  18  21
ENDBRANCH  14  17
ENDBRANCH   4  13
BRANCH   1  32
ATOM     32  C   LIG d   1       9.355  -8.633  -1.562  0.00  0.00    -0.035 C 
ATOM     33  H   LIG d   1       9.590  -8.961  -0.549  0.00  0.00     0.028 H 
ATOM     34  H   LIG d   1       8.467  -8.000  -1.542  0.00  0.00     0.028 H 
ATOM     35  H   LIG d   1       9.167  -9.502  -2.192  0.00  0.00     0.028 H 
ENDBRANCH   1  32
BRANCH   9  36
ATOM     36  C   LIG d   1      12.245  -9.670  -2.070  0.00  0.00     0.228 C 
ATOM     37  O   LIG d   1      12.306 -10.482  -2.974  0.00  0.00    -0.283 OA
BRANCH  36  38
ATOM     38  C   LIG d   1      12.641 -10.059  -0.700  0.00  0.00     0.025 A 
ATOM     39  C   LIG d   1      12.476 -11.377  -0.270  0.00  0.00    -0.049 A 
ATOM     40  C   LIG d   1      12.848 -11.733   1.010  0.00  0.00    -0.043 A 
ATOM     41  H   LIG d   1      12.058 -12.115  -0.937  0.00  0.00     0.062 H 
ATOM     42  C   LIG d   1      13.383 -10.786   1.868  0.00  0.00     0.041 A 
ATOM     43  H   LIG d   1      12.720 -12.752   1.343  0.00  0.00     0.063 H 
ATOM     44  C   LIG d   1      13.550  -9.477   1.446  0.00  0.00    -0.043 A 
ATOM     45 CL   LIG d   1      13.847 -11.241   3.477  0.00  0.00    -0.084 Cl
ATOM     46  C   LIG d   1      13.187  -9.110   0.168  0.00  0.00    -0.049 A 
ATOM     47  H   LIG d   1      13.968  -8.743   2.119  0.00  0.00     0.063 H 
ATOM     48  H   LIG d   1      13.322  -8.090  -0.161  0.00  0.00     0.062 H 
ENDBRANCH  36  38
ENDBRANCH   9  36
TORSDOF 6
ENDMDL
