MODEL 1
REMARK VINA RESULT:      -6.0      0.000      0.000
REMARK  12 active torsions:
REMARK  status: ('A' for Active; 'I' for Inactive)
REMARK    1  A    between atoms: C_1  and  O_2 
REMARK    2  A    between atoms: O_2  and  C_3 
REMARK    3  A    between atoms: C_8  and  C_9 
REMARK    4  A    between atoms: C_9  and  C_11 
REMARK    5  A    between atoms: C_9  and  C_15 
REMARK    6  A    between atoms: C_11  and  C_12 
REMARK    7  A    between atoms: C_12  and  C_13 
REMARK    8  A    between atoms: C_13  and  O_14 
REMARK    9  A    between atoms: C_15  and  C_17 
REMARK   10  A    between atoms: C_15  and  O_25 
REMARK   11  A    between atoms: C_22  and  O_23 
REMARK   12  A    between atoms: O_23  and  C_24 
ROOT
ATOM      1  C   LIG d   1       5.421  -1.542  -5.824  0.00  0.00     0.018 C 
ATOM      2  H   LIG d   1       6.297  -0.941  -6.066  0.00  0.00     0.038 H 
ENDROOT
BRANCH   1   3
ATOM      3  C   LIG d   1       5.044  -1.324  -4.381  0.00  0.00     0.000 A 
ATOM      4  C   LIG d   1       5.414  -0.152  -3.737  0.00  0.00     0.124 A 
ATOM      5  C   LIG d   1       5.066   0.045  -2.408  0.00  0.00    -0.020 A 
ATOM      6  C   LIG d   1       4.347  -0.922  -1.733  0.00  0.00    -0.058 A 
ATOM      7  H   LIG d   1       5.352   0.956  -1.905  0.00  0.00     0.065 H 
ATOM      8  C   LIG d   1       3.985  -2.092  -2.376  0.00  0.00    -0.061 A 
ATOM      9  H   LIG d   1       4.071  -0.766  -0.700  0.00  0.00     0.062 H 
ATOM     10  C   LIG d   1       4.330  -2.291  -3.699  0.00  0.00    -0.055 A 
ATOM     11  H   LIG d   1       3.427  -2.848  -1.845  0.00  0.00     0.062 H 
ATOM     12  H   LIG d   1       4.041  -3.203  -4.201  0.00  0.00     0.062 H 
BRANCH   4  13
ATOM     13  O   LIG d   1       6.116   0.799  -4.405  0.00  0.00    -0.495 OA
BRANCH  13  14
ATOM     14  C   LIG d   1       7.364   1.203  -3.838  0.00  0.00     0.079 C 
ATOM     15  H   LIG d   1       7.306   1.142  -2.751  0.00  0.00     0.066 H 
ATOM     16  H   LIG d   1       8.155   0.545  -4.197  0.00  0.00     0.066 H 
ATOM     17  H   LIG d   1       7.582   2.229  -4.134  0.00  0.00     0.066 H 
ENDBRANCH  13  14
ENDBRANCH   4  13
ENDBRANCH   1   3
BRANCH   1  18
ATOM     18  C   LIG d   1       5.738  -3.022  -6.050  0.00  0.00    -0.041 C 
ATOM     19  H   LIG d   1       6.772  -3.125  -6.380  0.00  0.00     0.027 H 
ATOM     20  H   LIG d   1       5.596  -3.571  -5.120  0.00  0.00     0.027 H 
BRANCH  18  21
ATOM     21  C   LIG d   1       4.803  -3.585  -7.122  0.00  0.00    -0.029 C 
ATOM     22  H   LIG d   1       3.895  -2.984  -7.165  0.00  0.00     0.029 H 
ATOM     23  H   LIG d   1       5.303  -3.558  -8.091  0.00  0.00     0.029 H 
BRANCH  21  24
ATOM     24  C   LIG d   1       4.443  -5.031  -6.776  0.00  0.00     0.044 C 
ATOM     25  H   LIG d   1       4.443  -5.633  -7.685  0.00  0.00     0.056 H 
ATOM     26  H   LIG d   1       5.176  -5.430  -6.076  0.00  0.00     0.056 H 
BRANCH  24  27
ATOM     27  O   LIG d   1       3.145  -5.069  -6.180  0.00  0.00    -0.395 OA
ATOM     28  H   LIG d   1       2.420  -5.111  -6.820  0.00  0.00     0.209 HD
ENDBRANCH  24  27
ENDBRANCH  21  24
ENDBRANCH  18  21
ENDBRANCH   1  18
BRANCH   1  29
ATOM     29  C   LIG d   1       4.255  -1.128  -6.725  0.00  0.00     0.090 C 
ATOM     30  H   LIG d   1       3.952  -1.976  -7.339  0.00  0.00     0.065 H 
BRANCH  29  31
ATOM     31  C   LIG d   1       4.687   0.009  -7.614  0.00  0.00     0.023 A 
ATOM     32  C   LIG d   1       3.747   0.698  -8.367  0.00  0.00     0.126 A 
ATOM     33  C   LIG d   1       4.147   1.747  -9.180  0.00  0.00    -0.020 A 
ATOM     34  C   LIG d   1       5.481   2.099  -9.247  0.00  0.00    -0.058 A 
ATOM     35  H   LIG d   1       3.417   2.288  -9.764  0.00  0.00     0.065 H 
ATOM     36  C   LIG d   1       6.417   1.407  -8.499  0.00  0.00    -0.061 A 
ATOM     37  H   LIG d   1       5.794   2.913  -9.883  0.00  0.00     0.062 H 
ATOM     38  C   LIG d   1       6.020   0.364  -7.684  0.00  0.00    -0.053 A 
ATOM     39  H   LIG d   1       7.460   1.683  -8.552  0.00  0.00     0.062 H 
ATOM     40  H   LIG d   1       6.753  -0.174  -7.101  0.00  0.00     0.062 H 
BRANCH  32  41
ATOM     41  O   LIG d   1       2.436   0.347  -8.304  0.00  0.00    -0.495 OA
BRANCH  41  42
ATOM     42  C   LIG d   1       1.893  -0.340  -9.434  0.00  0.00     0.079 C 
ATOM     43  H   LIG d   1       2.702  -0.792 -10.007  0.00  0.00     0.066 H 
ATOM     44  H   LIG d   1       1.211  -1.118  -9.092  0.00  0.00     0.066 H 
ATOM     45  H   LIG d   1       1.352   0.366 -10.063  0.00  0.00     0.066 H 
ENDBRANCH  41  42
ENDBRANCH  32  41
ENDBRANCH  29  31
BRANCH  29  46
ATOM     46  O   LIG d   1       3.155  -0.709  -5.916  0.00  0.00    -0.387 OA
ATOM     47  H   LIG d   1       2.920  -1.333  -5.215  0.00  0.00     0.210 HD
ENDBRANCH  29  46
ENDBRANCH   1  29
TORSDOF 12
ENDMDL
MODEL 2
REMARK VINA RESULT:      -5.9      1.225      2.290
REMARK  12 active torsions:
REMARK  status: ('A' for Active; 'I' for Inactive)
REMARK    1  A    between atoms: C_1  and  O_2 
REMARK    2  A    between atoms: O_2  and  C_3 
REMARK    3  A    between atoms: C_8  and  C_9 
REMARK    4  A    between atoms: C_9  and  C_11 
REMARK    5  A    between atoms: C_9  and  C_15 
REMARK    6  A    between atoms: C_11  and  C_12 
REMARK    7  A    between atoms: C_12  and  C_13 
REMARK    8  A    between atoms: C_13  and  O_14 
REMARK    9  A    between atoms: C_15  and  C_17 
REMARK   10  A    between atoms: C_15  and  O_25 
REMARK   11  A    between atoms: C_22  and  O_23 
REMARK   12  A    between atoms: O_23  and  C_24 
ROOT
ATOM      1  C   LIG d   1       4.261  -0.577  -6.232  0.00  0.00     0.018 C 
ATOM      2  H   LIG d   1       5.114  -0.003  -6.595  0.00  0.00     0.038 H 
ENDROOT
BRANCH   1   3
ATOM      3  C   LIG d   1       4.253  -0.566  -4.725  0.00  0.00     0.000 A 
ATOM      4  C   LIG d   1       5.264   0.082  -4.030  0.00  0.00     0.124 A 
ATOM      5  C   LIG d   1       5.253   0.089  -2.642  0.00  0.00    -0.020 A 
ATOM      6  C   LIG d   1       4.234  -0.543  -1.957  0.00  0.00    -0.058 A 
ATOM      7  H   LIG d   1       6.039   0.593  -2.099  0.00  0.00     0.065 H 
ATOM      8  C   LIG d   1       3.231  -1.192  -2.653  0.00  0.00    -0.061 A 
ATOM      9  H   LIG d   1       4.223  -0.532  -0.877  0.00  0.00     0.062 H 
ATOM     10  C   LIG d   1       3.238  -1.201  -4.034  0.00  0.00    -0.055 A 
ATOM     11  H   LIG d   1       2.437  -1.689  -2.114  0.00  0.00     0.062 H 
ATOM     12  H   LIG d   1       2.451  -1.705  -4.576  0.00  0.00     0.062 H 
BRANCH   4  13
ATOM     13  O   LIG d   1       6.262   0.707  -4.706  0.00  0.00    -0.495 OA
BRANCH  13  14
ATOM     14  C   LIG d   1       7.379   1.163  -3.940  0.00  0.00     0.079 C 
ATOM     15  H   LIG d   1       7.978   0.307  -3.626  0.00  0.00     0.066 H 
ATOM     16  H   LIG d   1       7.989   1.830  -4.548  0.00  0.00     0.066 H 
ATOM     17  H   LIG d   1       7.021   1.698  -3.060  0.00  0.00     0.066 H 
ENDBRANCH  13  14
ENDBRANCH   4  13
ENDBRANCH   1   3
BRANCH   1  18
ATOM     18  C   LIG d   1       4.365  -2.019  -6.731  0.00  0.00    -0.041 C 
ATOM     19  H   LIG d   1       3.510  -2.591  -6.371  0.00  0.00     0.027 H 
ATOM     20  H   LIG d   1       4.376  -2.027  -7.821  0.00  0.00     0.027 H 
BRANCH  18  21
ATOM     21  C   LIG d   1       5.657  -2.649  -6.205  0.00  0.00    -0.029 C 
ATOM     22  H   LIG d   1       6.338  -2.829  -7.037  0.00  0.00     0.029 H 
ATOM     23  H   LIG d   1       6.127  -1.971  -5.491  0.00  0.00     0.029 H 
BRANCH  21  24
ATOM     24  C   LIG d   1       5.334  -3.974  -5.512  0.00  0.00     0.044 C 
ATOM     25  H   LIG d   1       5.939  -4.769  -5.948  0.00  0.00     0.056 H 
ATOM     26  H   LIG d   1       5.554  -3.890  -4.449  0.00  0.00     0.056 H 
BRANCH  24  27
ATOM     27  O   LIG d   1       3.949  -4.279  -5.690  0.00  0.00    -0.395 OA
ATOM     28  H   LIG d   1       3.492  -3.686  -6.303  0.00  0.00     0.209 HD
ENDBRANCH  24  27
ENDBRANCH  21  24
ENDBRANCH  18  21
ENDBRANCH   1  18
BRANCH   1  29
ATOM     29  C   LIG d   1       2.967   0.051  -6.754  0.00  0.00     0.090 C 
ATOM     30  H   LIG d   1       2.115  -0.534  -6.409  0.00  0.00     0.065 H 
BRANCH  29  31
ATOM     31  C   LIG d   1       2.989   0.067  -8.261  0.00  0.00     0.023 A 
ATOM     32  C   LIG d   1       3.937   0.825  -8.933  0.00  0.00     0.126 A 
ATOM     33  C   LIG d   1       3.957   0.834 -10.320  0.00  0.00    -0.020 A 
ATOM     34  C   LIG d   1       3.029   0.096 -11.028  0.00  0.00    -0.058 A 
ATOM     35  H   LIG d   1       4.697   1.419 -10.846  0.00  0.00     0.065 H 
ATOM     36  C   LIG d   1       2.082  -0.654 -10.356  0.00  0.00    -0.061 A 
ATOM     37  H   LIG d   1       3.042   0.106 -12.108  0.00  0.00     0.062 H 
ATOM     38  C   LIG d   1       2.062  -0.668  -8.973  0.00  0.00    -0.053 A 
ATOM     39  H   LIG d   1       1.357  -1.231 -10.911  0.00  0.00     0.062 H 
ATOM     40  H   LIG d   1       1.322  -1.256  -8.451  0.00  0.00     0.062 H 
BRANCH  32  41
ATOM     41  O   LIG d   1       4.845   1.554  -8.234  0.00  0.00    -0.495 OA
BRANCH  41  42
ATOM     42  C   LIG d   1       6.080   1.853  -8.889  0.00  0.00     0.079 C 
ATOM     43  H   LIG d   1       6.364   1.017  -9.528  0.00  0.00     0.066 H 
ATOM     44  H   LIG d   1       5.960   2.750  -9.497  0.00  0.00     0.066 H 
ATOM     45  H   LIG d   1       6.855   2.022  -8.143  0.00  0.00     0.066 H 
ENDBRANCH  41  42
ENDBRANCH  32  41
ENDBRANCH  29  31
BRANCH  29  46
ATOM     46  O   LIG d   1       2.856   1.389  -6.265  0.00  0.00    -0.387 OA
ATOM     47  H   LIG d   1       2.427   1.459  -5.400  0.00  0.00     0.210 HD
ENDBRANCH  29  46
ENDBRANCH   1  29
TORSDOF 12
ENDMDL
MODEL 3
REMARK VINA RESULT:      -5.7      1.889      3.056
REMARK  12 active torsions:
REMARK  status: ('A' for Active; 'I' for Inactive)
REMARK    1  A    between atoms: C_1  and  O_2 
REMARK    2  A    between atoms: O_2  and  C_3 
REMARK    3  A    between atoms: C_8  and  C_9 
REMARK    4  A    between atoms: C_9  and  C_11 
REMARK    5  A    between atoms: C_9  and  C_15 
REMARK    6  A    between atoms: C_11  and  C_12 
REMARK    7  A    between atoms: C_12  and  C_13 
REMARK    8  A    between atoms: C_13  and  O_14 
REMARK    9  A    between atoms: C_15  and  C_17 
REMARK   10  A    between atoms: C_15  and  O_25 
REMARK   11  A    between atoms: C_22  and  O_23 
REMARK   12  A    between atoms: O_23  and  C_24 
ROOT
ATOM      1  C   LIG d   1       4.693  -0.184  -6.011  0.00  0.00     0.018 C 
ATOM      2  H   LIG d   1       4.768   0.899  -5.910  0.00  0.00     0.038 H 
ENDROOT
BRANCH   1   3
ATOM      3  C   LIG d   1       4.512  -0.804  -4.649  0.00  0.00     0.000 A 
ATOM      4  C   LIG d   1       4.436   0.003  -3.523  0.00  0.00     0.124 A 
ATOM      5  C   LIG d   1       4.270  -0.573  -2.271  0.00  0.00    -0.020 A 
ATOM      6  C   LIG d   1       4.175  -1.945  -2.150  0.00  0.00    -0.058 A 
ATOM      7  H   LIG d   1       4.210   0.054  -1.394  0.00  0.00     0.065 H 
ATOM      8  C   LIG d   1       4.257  -2.747  -3.274  0.00  0.00    -0.061 A 
ATOM      9  H   LIG d   1       4.041  -2.392  -1.176  0.00  0.00     0.062 H 
ATOM     10  C   LIG d   1       4.422  -2.177  -4.522  0.00  0.00    -0.055 A 
ATOM     11  H   LIG d   1       4.186  -3.820  -3.176  0.00  0.00     0.062 H 
ATOM     12  H   LIG d   1       4.480  -2.806  -5.399  0.00  0.00     0.062 H 
BRANCH   4  13
ATOM     13  O   LIG d   1       4.524   1.352  -3.647  0.00  0.00    -0.495 OA
BRANCH  13  14
ATOM     14  C   LIG d   1       3.377   2.115  -3.265  0.00  0.00     0.079 C 
ATOM     15  H   LIG d   1       3.686   3.126  -2.996  0.00  0.00     0.066 H 
ATOM     16  H   LIG d   1       2.677   2.159  -4.099  0.00  0.00     0.066 H 
ATOM     17  H   LIG d   1       2.895   1.642  -2.410  0.00  0.00     0.066 H 
ENDBRANCH  13  14
ENDBRANCH   4  13
ENDBRANCH   1   3
BRANCH   1  18
ATOM     18  C   LIG d   1       5.970  -0.726  -6.654  0.00  0.00    -0.041 C 
ATOM     19  H   LIG d   1       6.375  -1.529  -6.037  0.00  0.00     0.027 H 
ATOM     20  H   LIG d   1       5.743  -1.111  -7.647  0.00  0.00     0.027 H 
BRANCH  18  21
ATOM     21  C   LIG d   1       7.001   0.399  -6.767  0.00  0.00    -0.029 C 
ATOM     22  H   LIG d   1       7.715   0.160  -7.556  0.00  0.00     0.029 H 
ATOM     23  H   LIG d   1       6.494   1.334  -7.007  0.00  0.00     0.029 H 
BRANCH  21  24
ATOM     24  C   LIG d   1       7.742   0.549  -5.436  0.00  0.00     0.044 C 
ATOM     25  H   LIG d   1       7.522  -0.308  -4.800  0.00  0.00     0.056 H 
ATOM     26  H   LIG d   1       8.814   0.598  -5.622  0.00  0.00     0.056 H 
BRANCH  24  27
ATOM     27  O   LIG d   1       7.316   1.747  -4.786  0.00  0.00    -0.395 OA
ATOM     28  H   LIG d   1       6.355   1.858  -4.757  0.00  0.00     0.209 HD
ENDBRANCH  24  27
ENDBRANCH  21  24
ENDBRANCH  18  21
ENDBRANCH   1  18
BRANCH   1  29
ATOM     29  C   LIG d   1       3.491  -0.531  -6.894  0.00  0.00     0.090 C 
ATOM     30  H   LIG d   1       3.488  -1.601  -7.098  0.00  0.00     0.065 H 
BRANCH  29  31
ATOM     31  C   LIG d   1       3.586   0.229  -8.192  0.00  0.00     0.023 A 
ATOM     32  C   LIG d   1       3.790  -0.454  -9.382  0.00  0.00     0.126 A 
ATOM     33  C   LIG d   1       3.872   0.247 -10.576  0.00  0.00    -0.020 A 
ATOM     34  C   LIG d   1       3.760   1.623 -10.577  0.00  0.00    -0.058 A 
ATOM     35  H   LIG d   1       4.026  -0.282 -11.504  0.00  0.00     0.065 H 
ATOM     36  C   LIG d   1       3.562   2.303  -9.388  0.00  0.00    -0.061 A 
ATOM     37  H   LIG d   1       3.828   2.171 -11.505  0.00  0.00     0.062 H 
ATOM     38  C   LIG d   1       3.476   1.605  -8.197  0.00  0.00    -0.053 A 
ATOM     39  H   LIG d   1       3.475   3.379  -9.390  0.00  0.00     0.062 H 
ATOM     40  H   LIG d   1       3.320   2.138  -7.271  0.00  0.00     0.062 H 
BRANCH  32  41
ATOM     41  O   LIG d   1       3.905  -1.808  -9.379  0.00  0.00    -0.495 OA
BRANCH  41  42
ATOM     42  C   LIG d   1       3.511  -2.496 -10.568  0.00  0.00     0.079 C 
ATOM     43  H   LIG d   1       2.647  -1.997 -11.006  0.00  0.00     0.066 H 
ATOM     44  H   LIG d   1       4.334  -2.490 -11.281  0.00  0.00     0.066 H 
ATOM     45  H   LIG d   1       3.251  -3.525 -10.323  0.00  0.00     0.066 H 
ENDBRANCH  41  42
ENDBRANCH  32  41
ENDBRANCH  29  31
BRANCH  29  46
ATOM     46  O   LIG d   1       2.285  -0.170  -6.218  0.00  0.00    -0.387 OA
ATOM     47  H   LIG d   1       1.949   0.706  -6.451  0.00  0.00     0.210 HD
ENDBRANCH  29  46
ENDBRANCH   1  29
TORSDOF 12
ENDMDL
MODEL 4
REMARK VINA RESULT:      -5.6      1.627      5.386
REMARK  12 active torsions:
REMARK  status: ('A' for Active; 'I' for Inactive)
REMARK    1  A    between atoms: C_1  and  O_2 
REMARK    2  A    between atoms: O_2  and  C_3 
REMARK    3  A    between atoms: C_8  and  C_9 
REMARK    4  A    between atoms: C_9  and  C_11 
REMARK    5  A    between atoms: C_9  and  C_15 
REMARK    6  A    between atoms: C_11  and  C_12 
REMARK    7  A    between atoms: C_12  and  C_13 
REMARK    8  A    between atoms: C_13  and  O_14 
REMARK    9  A    between atoms: C_15  and  C_17 
REMARK   10  A    between atoms: C_15  and  O_25 
REMARK   11  A    between atoms: C_22  and  O_23 
REMARK   12  A    between atoms: O_23  and  C_24 
ROOT
ATOM      1  C   LIG d   1       4.032  -0.891  -6.941  0.00  0.00     0.018 C 
ATOM      2  H   LIG d   1       3.134  -0.933  -6.324  0.00  0.00     0.038 H 
ENDROOT
BRANCH   1   3
ATOM      3  C   LIG d   1       3.893   0.214  -7.956  0.00  0.00     0.000 A 
ATOM      4  C   LIG d   1       4.701   0.226  -9.084  0.00  0.00     0.124 A 
ATOM      5  C   LIG d   1       4.570   1.246 -10.016  0.00  0.00    -0.020 A 
ATOM      6  C   LIG d   1       3.634   2.242  -9.822  0.00  0.00    -0.058 A 
ATOM      7  H   LIG d   1       5.198   1.257 -10.895  0.00  0.00     0.065 H 
ATOM      8  C   LIG d   1       2.834   2.230  -8.694  0.00  0.00    -0.061 A 
ATOM      9  H   LIG d   1       3.528   3.033 -10.550  0.00  0.00     0.062 H 
ATOM     10  C   LIG d   1       2.961   1.216  -7.764  0.00  0.00    -0.055 A 
ATOM     11  H   LIG d   1       2.105   3.012  -8.543  0.00  0.00     0.062 H 
ATOM     12  H   LIG d   1       2.332   1.206  -6.886  0.00  0.00     0.062 H 
BRANCH   4  13
ATOM     13  O   LIG d   1       5.618  -0.758  -9.275  0.00  0.00    -0.495 OA
BRANCH  13  14
ATOM     14  C   LIG d   1       6.797  -0.412 -10.005  0.00  0.00     0.079 C 
ATOM     15  H   LIG d   1       6.662  -0.668 -11.056  0.00  0.00     0.066 H 
ATOM     16  H   LIG d   1       6.982   0.657  -9.911  0.00  0.00     0.066 H 
ATOM     17  H   LIG d   1       7.646  -0.965  -9.603  0.00  0.00     0.066 H 
ENDBRANCH  13  14
ENDBRANCH   4  13
ENDBRANCH   1   3
BRANCH   1  18
ATOM     18  C   LIG d   1       4.220  -2.226  -7.662  0.00  0.00    -0.041 C 
ATOM     19  H   LIG d   1       3.279  -2.526  -8.123  0.00  0.00     0.027 H 
ATOM     20  H   LIG d   1       4.984  -2.120  -8.432  0.00  0.00     0.027 H 
BRANCH  18  21
ATOM     21  C   LIG d   1       4.656  -3.293  -6.655  0.00  0.00    -0.029 C 
ATOM     22  H   LIG d   1       5.744  -3.307  -6.589  0.00  0.00     0.029 H 
ATOM     23  H   LIG d   1       4.236  -3.061  -5.676  0.00  0.00     0.029 H 
BRANCH  21  24
ATOM     24  C   LIG d   1       4.154  -4.663  -7.113  0.00  0.00     0.044 C 
ATOM     25  H   LIG d   1       3.762  -4.586  -8.127  0.00  0.00     0.056 H 
ATOM     26  H   LIG d   1       4.978  -5.376  -7.095  0.00  0.00     0.056 H 
BRANCH  24  27
ATOM     27  O   LIG d   1       3.119  -5.109  -6.235  0.00  0.00    -0.395 OA
ATOM     28  H   LIG d   1       2.481  -4.422  -5.998  0.00  0.00     0.209 HD
ENDBRANCH  24  27
ENDBRANCH  21  24
ENDBRANCH  18  21
ENDBRANCH   1  18
BRANCH   1  29
ATOM     29  C   LIG d   1       5.247  -0.617  -6.051  0.00  0.00     0.090 C 
ATOM     30  H   LIG d   1       5.863  -1.515  -5.992  0.00  0.00     0.065 H 
BRANCH  29  31
ATOM     31  C   LIG d   1       4.782  -0.235  -4.669  0.00  0.00     0.023 A 
ATOM     32  C   LIG d   1       5.694   0.231  -3.733  0.00  0.00     0.126 A 
ATOM     33  C   LIG d   1       5.262   0.586  -2.465  0.00  0.00    -0.020 A 
ATOM     34  C   LIG d   1       3.927   0.467  -2.132  0.00  0.00    -0.058 A 
ATOM     35  H   LIG d   1       5.969   0.953  -1.736  0.00  0.00     0.065 H 
ATOM     36  C   LIG d   1       3.020  -0.003  -3.065  0.00  0.00    -0.061 A 
ATOM     37  H   LIG d   1       3.590   0.740  -1.143  0.00  0.00     0.062 H 
ATOM     38  C   LIG d   1       3.448  -0.353  -4.332  0.00  0.00    -0.053 A 
ATOM     39  H   LIG d   1       1.976  -0.095  -2.804  0.00  0.00     0.062 H 
ATOM     40  H   LIG d   1       2.737  -0.719  -5.059  0.00  0.00     0.062 H 
BRANCH  32  41
ATOM     41  O   LIG d   1       7.008   0.342  -4.061  0.00  0.00    -0.495 OA
BRANCH  41  42
ATOM     42  C   LIG d   1       7.638   1.598  -3.800  0.00  0.00     0.079 C 
ATOM     43  H   LIG d   1       6.877   2.370  -3.693  0.00  0.00     0.066 H 
ATOM     44  H   LIG d   1       8.217   1.529  -2.880  0.00  0.00     0.066 H 
ATOM     45  H   LIG d   1       8.300   1.851  -4.627  0.00  0.00     0.066 H 
ENDBRANCH  41  42
ENDBRANCH  32  41
ENDBRANCH  29  31
BRANCH  29  46
ATOM     46  O   LIG d   1       6.014   0.452  -6.608  0.00  0.00    -0.387 OA
ATOM     47  H   LIG d   1       6.362   0.269  -7.492  0.00  0.00     0.210 HD
ENDBRANCH  29  46
ENDBRANCH   1  29
TORSDOF 12
ENDMDL
MODEL 5
REMARK VINA RESULT:      -5.6      1.636      2.568
REMARK  12 active torsions:
REMARK  status: ('A' for Active; 'I' for Inactive)
REMARK    1  A    between atoms: C_1  and  O_2 
REMARK    2  A    between atoms: O_2  and  C_3 
REMARK    3  A    between atoms: C_8  and  C_9 
REMARK    4  A    between atoms: C_9  and  C_11 
REMARK    5  A    between atoms: C_9  and  C_15 
REMARK    6  A    between atoms: C_11  and  C_12 
REMARK    7  A    between atoms: C_12  and  C_13 
REMARK    8  A    between atoms: C_13  and  O_14 
REMARK    9  A    between atoms: C_15  and  C_17 
REMARK   10  A    between atoms: C_15  and  O_25 
REMARK   11  A    between atoms: C_22  and  O_23 
REMARK   12  A    between atoms: O_23  and  C_24 
ROOT
ATOM      1  C   LIG d   1       4.480  -0.720  -6.225  0.00  0.00     0.018 C 
ATOM      2  H   LIG d   1       5.293  -0.076  -6.560  0.00  0.00     0.038 H 
ENDROOT
BRANCH   1   3
ATOM      3  C   LIG d   1       4.493  -0.804  -4.721  0.00  0.00     0.000 A 
ATOM      4  C   LIG d   1       5.375  -0.023  -3.989  0.00  0.00     0.124 A 
ATOM      5  C   LIG d   1       5.385  -0.104  -2.604  0.00  0.00    -0.020 A 
ATOM      6  C   LIG d   1       4.512  -0.957  -1.957  0.00  0.00    -0.058 A 
ATOM      7  H   LIG d   1       6.070   0.504  -2.033  0.00  0.00     0.065 H 
ATOM      8  C   LIG d   1       3.638  -1.738  -2.690  0.00  0.00    -0.061 A 
ATOM      9  H   LIG d   1       4.516  -1.015  -0.879  0.00  0.00     0.062 H 
ATOM     10  C   LIG d   1       3.625  -1.660  -4.069  0.00  0.00    -0.055 A 
ATOM     11  H   LIG d   1       2.959  -2.407  -2.181  0.00  0.00     0.062 H 
ATOM     12  H   LIG d   1       2.938  -2.268  -4.639  0.00  0.00     0.062 H 
BRANCH   4  13
ATOM     13  O   LIG d   1       6.229   0.819  -4.628  0.00  0.00    -0.495 OA
BRANCH  13  14
ATOM     14  C   LIG d   1       7.620   0.684  -4.327  0.00  0.00     0.079 C 
ATOM     15  H   LIG d   1       8.076   1.672  -4.269  0.00  0.00     0.066 H 
ATOM     16  H   LIG d   1       7.737   0.172  -3.373  0.00  0.00     0.066 H 
ATOM     17  H   LIG d   1       8.106   0.105  -5.113  0.00  0.00     0.066 H 
ENDBRANCH  13  14
ENDBRANCH   4  13
ENDBRANCH   1   3
BRANCH   1  18
ATOM     18  C   LIG d   1       4.661  -2.119  -6.817  0.00  0.00    -0.041 C 
ATOM     19  H   LIG d   1       4.225  -2.858  -6.143  0.00  0.00     0.027 H 
ATOM     20  H   LIG d   1       4.164  -2.172  -7.785  0.00  0.00     0.027 H 
BRANCH  18  21
ATOM     21  C   LIG d   1       6.153  -2.409  -6.994  0.00  0.00    -0.029 C 
ATOM     22  H   LIG d   1       6.705  -2.007  -6.144  0.00  0.00     0.029 H 
ATOM     23  H   LIG d   1       6.310  -3.487  -7.052  0.00  0.00     0.029 H 
BRANCH  21  24
ATOM     24  C   LIG d   1       6.651  -1.752  -8.283  0.00  0.00     0.044 C 
ATOM     25  H   LIG d   1       6.629  -0.668  -8.170  0.00  0.00     0.056 H 
ATOM     26  H   LIG d   1       7.671  -2.077  -8.484  0.00  0.00     0.056 H 
BRANCH  24  27
ATOM     27  O   LIG d   1       5.806  -2.136  -9.370  0.00  0.00    -0.395 OA
ATOM     28  H   LIG d   1       4.901  -2.355  -9.105  0.00  0.00     0.209 HD
ENDBRANCH  24  27
ENDBRANCH  21  24
ENDBRANCH  18  21
ENDBRANCH   1  18
BRANCH   1  29
ATOM     29  C   LIG d   1       3.144  -0.138  -6.693  0.00  0.00     0.090 C 
ATOM     30  H   LIG d   1       2.330  -0.776  -6.348  0.00  0.00     0.065 H 
BRANCH  29  31
ATOM     31  C   LIG d   1       3.125  -0.069  -8.198  0.00  0.00     0.023 A 
ATOM     32  C   LIG d   1       4.013   0.762  -8.866  0.00  0.00     0.126 A 
ATOM     33  C   LIG d   1       3.996   0.819 -10.252  0.00  0.00    -0.020 A 
ATOM     34  C   LIG d   1       3.091   0.056 -10.963  0.00  0.00    -0.058 A 
ATOM     35  H   LIG d   1       4.689   1.461 -10.775  0.00  0.00     0.065 H 
ATOM     36  C   LIG d   1       2.204  -0.769 -10.295  0.00  0.00    -0.061 A 
ATOM     37  H   LIG d   1       3.075   0.102 -12.042  0.00  0.00     0.062 H 
ATOM     38  C   LIG d   1       2.221  -0.831  -8.914  0.00  0.00    -0.053 A 
ATOM     39  H   LIG d   1       1.497  -1.365 -10.852  0.00  0.00     0.062 H 
ATOM     40  H   LIG d   1       1.528  -1.476  -8.394  0.00  0.00     0.062 H 
BRANCH  32  41
ATOM     41  O   LIG d   1       4.898   1.516  -8.165  0.00  0.00    -0.495 OA
BRANCH  41  42
ATOM     42  C   LIG d   1       6.134   1.833  -8.809  0.00  0.00     0.079 C 
ATOM     43  H   LIG d   1       6.064   2.821  -9.263  0.00  0.00     0.066 H 
ATOM     44  H   LIG d   1       6.938   1.828  -8.073  0.00  0.00     0.066 H 
ATOM     45  H   LIG d   1       6.343   1.093  -9.580  0.00  0.00     0.066 H 
ENDBRANCH  41  42
ENDBRANCH  32  41
ENDBRANCH  29  31
BRANCH  29  46
ATOM     46  O   LIG d   1       2.983   1.175  -6.154  0.00  0.00    -0.387 OA
ATOM     47  H   LIG d   1       2.497   1.782  -6.730  0.00  0.00     0.210 HD
ENDBRANCH  29  46
ENDBRANCH   1  29
TORSDOF 12
ENDMDL
MODEL 6
REMARK VINA RESULT:      -5.4      1.170      5.102
REMARK  12 active torsions:
REMARK  status: ('A' for Active; 'I' for Inactive)
REMARK    1  A    between atoms: C_1  and  O_2 
REMARK    2  A    between atoms: O_2  and  C_3 
REMARK    3  A    between atoms: C_8  and  C_9 
REMARK    4  A    between atoms: C_9  and  C_11 
REMARK    5  A    between atoms: C_9  and  C_15 
REMARK    6  A    between atoms: C_11  and  C_12 
REMARK    7  A    between atoms: C_12  and  C_13 
REMARK    8  A    between atoms: C_13  and  O_14 
REMARK    9  A    between atoms: C_15  and  C_17 
REMARK   10  A    between atoms: C_15  and  O_25 
REMARK   11  A    between atoms: C_22  and  O_23 
REMARK   12  A    between atoms: O_23  and  C_24 
ROOT
ATOM      1  C   LIG d   1       4.347  -1.885  -6.716  0.00  0.00     0.018 C 
ATOM      2  H   LIG d   1       3.495  -2.111  -6.074  0.00  0.00     0.038 H 
ENDROOT
BRANCH   1   3
ATOM      3  C   LIG d   1       4.049  -0.652  -7.530  0.00  0.00     0.000 A 
ATOM      4  C   LIG d   1       3.109   0.265  -7.082  0.00  0.00     0.124 A 
ATOM      5  C   LIG d   1       2.837   1.399  -7.834  0.00  0.00    -0.020 A 
ATOM      6  C   LIG d   1       3.506   1.615  -9.022  0.00  0.00    -0.058 A 
ATOM      7  H   LIG d   1       2.106   2.113  -7.487  0.00  0.00     0.065 H 
ATOM      8  C   LIG d   1       4.439   0.697  -9.469  0.00  0.00    -0.061 A 
ATOM      9  H   LIG d   1       3.298   2.500  -9.605  0.00  0.00     0.062 H 
ATOM     10  C   LIG d   1       4.712  -0.433  -8.722  0.00  0.00    -0.055 A 
ATOM     11  H   LIG d   1       4.958   0.866 -10.400  0.00  0.00     0.062 H 
ATOM     12  H   LIG d   1       5.445  -1.147  -9.070  0.00  0.00     0.062 H 
BRANCH   4  13
ATOM     13  O   LIG d   1       2.456   0.052  -5.910  0.00  0.00    -0.495 OA
BRANCH  13  14
ATOM     14  C   LIG d   1       2.467   1.118  -4.958  0.00  0.00     0.079 C 
ATOM     15  H   LIG d   1       1.559   1.078  -4.356  0.00  0.00     0.066 H 
ATOM     16  H   LIG d   1       3.337   1.017  -4.310  0.00  0.00     0.066 H 
ATOM     17  H   LIG d   1       2.514   2.072  -5.482  0.00  0.00     0.066 H 
ENDBRANCH  13  14
ENDBRANCH   4  13
ENDBRANCH   1   3
BRANCH   1  18
ATOM     18  C   LIG d   1       4.606  -3.065  -7.655  0.00  0.00    -0.041 C 
ATOM     19  H   LIG d   1       3.662  -3.404  -8.082  0.00  0.00     0.027 H 
ATOM     20  H   LIG d   1       5.277  -2.753  -8.455  0.00  0.00     0.027 H 
BRANCH  18  21
ATOM     21  C   LIG d   1       5.249  -4.209  -6.868  0.00  0.00    -0.029 C 
ATOM     22  H   LIG d   1       6.201  -4.477  -7.328  0.00  0.00     0.029 H 
ATOM     23  H   LIG d   1       5.420  -3.892  -5.839  0.00  0.00     0.029 H 
BRANCH  21  24
ATOM     24  C   LIG d   1       4.318  -5.423  -6.879  0.00  0.00     0.044 C 
ATOM     25  H   LIG d   1       4.105  -5.708  -7.909  0.00  0.00     0.056 H 
ATOM     26  H   LIG d   1       4.800  -6.254  -6.364  0.00  0.00     0.056 H 
BRANCH  24  27
ATOM     27  O   LIG d   1       3.098  -5.093  -6.213  0.00  0.00    -0.395 OA
ATOM     28  H   LIG d   1       2.710  -5.828  -5.717  0.00  0.00     0.209 HD
ENDBRANCH  24  27
ENDBRANCH  21  24
ENDBRANCH  18  21
ENDBRANCH   1  18
BRANCH   1  29
ATOM     29  C   LIG d   1       5.586  -1.640  -5.851  0.00  0.00     0.090 C 
ATOM     30  H   LIG d   1       6.226  -2.522  -5.877  0.00  0.00     0.065 H 
BRANCH  29  31
ATOM     31  C   LIG d   1       5.161  -1.367  -4.432  0.00  0.00     0.023 A 
ATOM     32  C   LIG d   1       5.562  -0.199  -3.799  0.00  0.00     0.126 A 
ATOM     33  C   LIG d   1       5.166   0.052  -2.494  0.00  0.00    -0.020 A 
ATOM     34  C   LIG d   1       4.380  -0.865  -1.824  0.00  0.00    -0.058 A 
ATOM     35  H   LIG d   1       5.472   0.962  -2.001  0.00  0.00     0.065 H 
ATOM     36  C   LIG d   1       3.985  -2.032  -2.455  0.00  0.00    -0.061 A 
ATOM     37  H   LIG d   1       4.074  -0.673  -0.806  0.00  0.00     0.062 H 
ATOM     38  C   LIG d   1       4.376  -2.282  -3.757  0.00  0.00    -0.053 A 
ATOM     39  H   LIG d   1       3.371  -2.748  -1.929  0.00  0.00     0.062 H 
ATOM     40  H   LIG d   1       4.066  -3.192  -4.248  0.00  0.00     0.062 H 
BRANCH  32  41
ATOM     41  O   LIG d   1       6.339   0.699  -4.459  0.00  0.00    -0.495 OA
BRANCH  41  42
ATOM     42  C   LIG d   1       7.325   1.393  -3.690  0.00  0.00     0.079 C 
ATOM     43  H   LIG d   1       6.900   1.678  -2.728  0.00  0.00     0.066 H 
ATOM     44  H   LIG d   1       8.183   0.742  -3.529  0.00  0.00     0.066 H 
ATOM     45  H   LIG d   1       7.642   2.286  -4.227  0.00  0.00     0.066 H 
ENDBRANCH  41  42
ENDBRANCH  32  41
ENDBRANCH  29  31
BRANCH  29  46
ATOM     46  O   LIG d   1       6.304  -0.514  -6.359  0.00  0.00    -0.387 OA
ATOM     47  H   LIG d   1       6.675   0.059  -5.673  0.00  0.00     0.210 HD
ENDBRANCH  29  46
ENDBRANCH   1  29
TORSDOF 12
ENDMDL
MODEL 7
REMARK VINA RESULT:      -5.2      2.220      5.649
REMARK  12 active torsions:
REMARK  status: ('A' for Active; 'I' for Inactive)
REMARK    1  A    between atoms: C_1  and  O_2 
REMARK    2  A    between atoms: O_2  and  C_3 
REMARK    3  A    between atoms: C_8  and  C_9 
REMARK    4  A    between atoms: C_9  and  C_11 
REMARK    5  A    between atoms: C_9  and  C_15 
REMARK    6  A    between atoms: C_11  and  C_12 
REMARK    7  A    between atoms: C_12  and  C_13 
REMARK    8  A    between atoms: C_13  and  O_14 
REMARK    9  A    between atoms: C_15  and  C_17 
REMARK   10  A    between atoms: C_15  and  O_25 
REMARK   11  A    between atoms: C_22  and  O_23 
REMARK   12  A    between atoms: O_23  and  C_24 
ROOT
ATOM      1  C   LIG d   1       6.282  -2.567  -5.035  0.00  0.00     0.018 C 
ATOM      2  H   LIG d   1       7.072  -2.167  -5.671  0.00  0.00     0.038 H 
ENDROOT
BRANCH   1   3
ATOM      3  C   LIG d   1       6.137  -4.046  -5.283  0.00  0.00     0.000 A 
ATOM      4  C   LIG d   1       7.264  -4.828  -5.495  0.00  0.00     0.124 A 
ATOM      5  C   LIG d   1       7.126  -6.189  -5.724  0.00  0.00    -0.020 A 
ATOM      6  C   LIG d   1       5.870  -6.763  -5.734  0.00  0.00    -0.058 A 
ATOM      7  H   LIG d   1       8.002  -6.799  -5.889  0.00  0.00     0.065 H 
ATOM      8  C   LIG d   1       4.749  -5.981  -5.528  0.00  0.00    -0.061 A 
ATOM      9  H   LIG d   1       5.764  -7.825  -5.907  0.00  0.00     0.062 H 
ATOM     10  C   LIG d   1       4.883  -4.625  -5.299  0.00  0.00    -0.055 A 
ATOM     11  H   LIG d   1       3.768  -6.432  -5.540  0.00  0.00     0.062 H 
ATOM     12  H   LIG d   1       4.006  -4.016  -5.134  0.00  0.00     0.062 H 
BRANCH   4  13
ATOM     13  O   LIG d   1       8.498  -4.261  -5.479  0.00  0.00    -0.495 OA
BRANCH  13  14
ATOM     14  C   LIG d   1       9.559  -5.032  -4.910  0.00  0.00     0.079 C 
ATOM     15  H   LIG d   1      10.114  -4.417  -4.201  0.00  0.00     0.066 H 
ATOM     16  H   LIG d   1       9.143  -5.896  -4.394  0.00  0.00     0.066 H 
ATOM     17  H   LIG d   1      10.228  -5.368  -5.702  0.00  0.00     0.066 H 
ENDBRANCH  13  14
ENDBRANCH   4  13
ENDBRANCH   1   3
BRANCH   1  18
ATOM     18  C   LIG d   1       4.962  -1.863  -5.357  0.00  0.00    -0.041 C 
ATOM     19  H   LIG d   1       4.190  -2.609  -5.545  0.00  0.00     0.027 H 
ATOM     20  H   LIG d   1       4.668  -1.238  -4.515  0.00  0.00     0.027 H 
BRANCH  18  21
ATOM     21  C   LIG d   1       5.141  -0.990  -6.601  0.00  0.00    -0.029 C 
ATOM     22  H   LIG d   1       5.940  -0.270  -6.428  0.00  0.00     0.029 H 
ATOM     23  H   LIG d   1       5.397  -1.620  -7.454  0.00  0.00     0.029 H 
BRANCH  21  24
ATOM     24  C   LIG d   1       3.837  -0.245  -6.893  0.00  0.00     0.044 C 
ATOM     25  H   LIG d   1       3.157  -0.901  -7.437  0.00  0.00     0.056 H 
ATOM     26  H   LIG d   1       3.375   0.059  -5.954  0.00  0.00     0.056 H 
BRANCH  24  27
ATOM     27  O   LIG d   1       4.116   0.913  -7.682  0.00  0.00    -0.395 OA
ATOM     28  H   LIG d   1       4.315   0.718  -8.609  0.00  0.00     0.209 HD
ENDBRANCH  24  27
ENDBRANCH  21  24
ENDBRANCH  18  21
ENDBRANCH   1  18
BRANCH   1  29
ATOM     29  C   LIG d   1       6.641  -2.328  -3.566  0.00  0.00     0.090 C 
ATOM     30  H   LIG d   1       6.398  -3.217  -2.984  0.00  0.00     0.065 H 
BRANCH  29  31
ATOM     31  C   LIG d   1       5.857  -1.152  -3.042  0.00  0.00     0.023 A 
ATOM     32  C   LIG d   1       6.304   0.140  -3.275  0.00  0.00     0.126 A 
ATOM     33  C   LIG d   1       5.577   1.219  -2.796  0.00  0.00    -0.020 A 
ATOM     34  C   LIG d   1       4.416   1.006  -2.079  0.00  0.00    -0.058 A 
ATOM     35  H   LIG d   1       5.920   2.226  -2.980  0.00  0.00     0.065 H 
ATOM     36  C   LIG d   1       3.975  -0.284  -1.843  0.00  0.00    -0.061 A 
ATOM     37  H   LIG d   1       3.852   1.846  -1.702  0.00  0.00     0.062 H 
ATOM     38  C   LIG d   1       4.696  -1.362  -2.324  0.00  0.00    -0.053 A 
ATOM     39  H   LIG d   1       3.067  -0.450  -1.283  0.00  0.00     0.062 H 
ATOM     40  H   LIG d   1       4.349  -2.368  -2.139  0.00  0.00     0.062 H 
BRANCH  32  41
ATOM     41  O   LIG d   1       7.449   0.348  -3.976  0.00  0.00    -0.495 OA
BRANCH  41  42
ATOM     42  C   LIG d   1       8.006   1.664  -3.934  0.00  0.00     0.079 C 
ATOM     43  H   LIG d   1       9.015   1.618  -3.525  0.00  0.00     0.066 H 
ATOM     44  H   LIG d   1       8.041   2.075  -4.943  0.00  0.00     0.066 H 
ATOM     45  H   LIG d   1       7.386   2.301  -3.305  0.00  0.00     0.066 H 
ENDBRANCH  41  42
ENDBRANCH  32  41
ENDBRANCH  29  31
BRANCH  29  46
ATOM     46  O   LIG d   1       8.039  -2.055  -3.457  0.00  0.00    -0.387 OA
ATOM     47  H   LIG d   1       8.416  -1.611  -4.230  0.00  0.00     0.210 HD
ENDBRANCH  29  46
ENDBRANCH   1  29
TORSDOF 12
ENDMDL
MODEL 8
REMARK VINA RESULT:      -5.2      1.678      3.253
REMARK  12 active torsions:
REMARK  status: ('A' for Active; 'I' for Inactive)
REMARK    1  A    between atoms: C_1  and  O_2 
REMARK    2  A    between atoms: O_2  and  C_3 
REMARK    3  A    between atoms: C_8  and  C_9 
REMARK    4  A    between atoms: C_9  and  C_11 
REMARK    5  A    between atoms: C_9  and  C_15 
REMARK    6  A    between atoms: C_11  and  C_12 
REMARK    7  A    between atoms: C_12  and  C_13 
REMARK    8  A    between atoms: C_13  and  O_14 
REMARK    9  A    between atoms: C_15  and  C_17 
REMARK   10  A    between atoms: C_15  and  O_25 
REMARK   11  A    between atoms: C_22  and  O_23 
REMARK   12  A    between atoms: O_23  and  C_24 
ROOT
ATOM      1  C   LIG d   1       4.663  -0.020  -5.969  0.00  0.00     0.018 C 
ATOM      2  H   LIG d   1       4.681   1.069  -5.919  0.00  0.00     0.038 H 
ENDROOT
BRANCH   1   3
ATOM      3  C   LIG d   1       4.466  -0.584  -4.586  0.00  0.00     0.000 A 
ATOM      4  C   LIG d   1       4.442  -1.958  -4.393  0.00  0.00     0.124 A 
ATOM      5  C   LIG d   1       4.259  -2.473  -3.117  0.00  0.00    -0.020 A 
ATOM      6  C   LIG d   1       4.109  -1.618  -2.043  0.00  0.00    -0.058 A 
ATOM      7  H   LIG d   1       4.241  -3.542  -2.965  0.00  0.00     0.065 H 
ATOM      8  C   LIG d   1       4.127  -0.249  -2.240  0.00  0.00    -0.061 A 
ATOM      9  H   LIG d   1       3.972  -2.020  -1.050  0.00  0.00     0.062 H 
ATOM     10  C   LIG d   1       4.309   0.267  -3.508  0.00  0.00    -0.055 A 
ATOM     11  H   LIG d   1       4.006   0.417  -1.398  0.00  0.00     0.062 H 
ATOM     12  H   LIG d   1       4.329   1.337  -3.658  0.00  0.00     0.062 H 
BRANCH   4  13
ATOM     13  O   LIG d   1       4.596  -2.796  -5.450  0.00  0.00    -0.495 OA
BRANCH  13  14
ATOM     14  C   LIG d   1       5.065  -4.116  -5.169  0.00  0.00     0.079 C 
ATOM     15  H   LIG d   1       5.200  -4.232  -4.093  0.00  0.00     0.066 H 
ATOM     16  H   LIG d   1       4.337  -4.844  -5.525  0.00  0.00     0.066 H 
ATOM     17  H   LIG d   1       6.017  -4.278  -5.673  0.00  0.00     0.066 H 
ENDBRANCH  13  14
ENDBRANCH   4  13
ENDBRANCH   1   3
BRANCH   1  18
ATOM     18  C   LIG d   1       5.987  -0.526  -6.543  0.00  0.00    -0.041 C 
ATOM     19  H   LIG d   1       6.060  -1.603  -6.392  0.00  0.00     0.027 H 
ATOM     20  H   LIG d   1       6.030  -0.304  -7.609  0.00  0.00     0.027 H 
BRANCH  18  21
ATOM     21  C   LIG d   1       7.150   0.168  -5.831  0.00  0.00    -0.029 C 
ATOM     22  H   LIG d   1       7.756   0.704  -6.562  0.00  0.00     0.029 H 
ATOM     23  H   LIG d   1       6.758   0.873  -5.097  0.00  0.00     0.029 H 
BRANCH  21  24
ATOM     24  C   LIG d   1       8.012  -0.878  -5.121  0.00  0.00     0.044 C 
ATOM     25  H   LIG d   1       7.724  -1.874  -5.457  0.00  0.00     0.056 H 
ATOM     26  H   LIG d   1       9.061  -0.704  -5.358  0.00  0.00     0.056 H 
BRANCH  24  27
ATOM     27  O   LIG d   1       7.819  -0.776  -3.709  0.00  0.00    -0.395 OA
ATOM     28  H   LIG d   1       8.387  -0.121  -3.281  0.00  0.00     0.209 HD
ENDBRANCH  24  27
ENDBRANCH  21  24
ENDBRANCH  18  21
ENDBRANCH   1  18
BRANCH   1  29
ATOM     29  C   LIG d   1       3.511  -0.468  -6.872  0.00  0.00     0.090 C 
ATOM     30  H   LIG d   1       3.575  -1.544  -7.035  0.00  0.00     0.065 H 
BRANCH  29  31
ATOM     31  C   LIG d   1       3.603   0.247  -8.196  0.00  0.00     0.023 A 
ATOM     32  C   LIG d   1       3.865  -0.469  -9.355  0.00  0.00     0.126 A 
ATOM     33  C   LIG d   1       3.944   0.191 -10.572  0.00  0.00    -0.020 A 
ATOM     34  C   LIG d   1       3.771   1.560 -10.626  0.00  0.00    -0.058 A 
ATOM     35  H   LIG d   1       4.143  -0.364 -11.476  0.00  0.00     0.065 H 
ATOM     36  C   LIG d   1       3.516   2.272  -9.469  0.00  0.00    -0.061 A 
ATOM     37  H   LIG d   1       3.837   2.075 -11.573  0.00  0.00     0.062 H 
ATOM     38  C   LIG d   1       3.432   1.616  -8.255  0.00  0.00    -0.053 A 
ATOM     39  H   LIG d   1       3.381   3.343  -9.513  0.00  0.00     0.062 H 
ATOM     40  H   LIG d   1       3.231   2.175  -7.353  0.00  0.00     0.062 H 
BRANCH  32  41
ATOM     41  O   LIG d   1       4.040  -1.816  -9.298  0.00  0.00    -0.495 OA
BRANCH  41  42
ATOM     42  C   LIG d   1       5.279  -2.330  -9.791  0.00  0.00     0.079 C 
ATOM     43  H   LIG d   1       5.353  -3.390  -9.549  0.00  0.00     0.066 H 
ATOM     44  H   LIG d   1       5.321  -2.201 -10.872  0.00  0.00     0.066 H 
ATOM     45  H   LIG d   1       6.105  -1.792  -9.328  0.00  0.00     0.066 H 
ENDBRANCH  41  42
ENDBRANCH  32  41
ENDBRANCH  29  31
BRANCH  29  46
ATOM     46  O   LIG d   1       2.266  -0.154  -6.247  0.00  0.00    -0.387 OA
ATOM     47  H   LIG d   1       1.519  -0.100  -6.859  0.00  0.00     0.210 HD
ENDBRANCH  29  46
ENDBRANCH   1  29
TORSDOF 12
ENDMDL
MODEL 9
REMARK VINA RESULT:      -5.0      1.942      3.727
REMARK  12 active torsions:
REMARK  status: ('A' for Active; 'I' for Inactive)
REMARK    1  A    between atoms: C_1  and  O_2 
REMARK    2  A    between atoms: O_2  and  C_3 
REMARK    3  A    between atoms: C_8  and  C_9 
REMARK    4  A    between atoms: C_9  and  C_11 
REMARK    5  A    between atoms: C_9  and  C_15 
REMARK    6  A    between atoms: C_11  and  C_12 
REMARK    7  A    between atoms: C_12  and  C_13 
REMARK    8  A    between atoms: C_13  and  O_14 
REMARK    9  A    between atoms: C_15  and  C_17 
REMARK   10  A    between atoms: C_15  and  O_25 
REMARK   11  A    between atoms: C_22  and  O_23 
REMARK   12  A    between atoms: O_23  and  C_24 
ROOT
ATOM      1  C   LIG d   1       4.906  -0.532  -6.311  0.00  0.00     0.018 C 
ATOM      2  H   LIG d   1       4.318   0.332  -6.622  0.00  0.00     0.038 H 
ENDROOT
BRANCH   1   3
ATOM      3  C   LIG d   1       4.575  -0.877  -4.882  0.00  0.00     0.000 A 
ATOM      4  C   LIG d   1       3.361  -0.485  -4.336  0.00  0.00     0.124 A 
ATOM      5  C   LIG d   1       3.061  -0.804  -3.019  0.00  0.00    -0.020 A 
ATOM      6  C   LIG d   1       3.967  -1.516  -2.258  0.00  0.00    -0.058 A 
ATOM      7  H   LIG d   1       2.117  -0.500  -2.593  0.00  0.00     0.065 H 
ATOM      8  C   LIG d   1       5.178  -1.900  -2.804  0.00  0.00    -0.061 A 
ATOM      9  H   LIG d   1       3.730  -1.769  -1.235  0.00  0.00     0.062 H 
ATOM     10  C   LIG d   1       5.480  -1.585  -4.114  0.00  0.00    -0.055 A 
ATOM     11  H   LIG d   1       5.886  -2.454  -2.205  0.00  0.00     0.062 H 
ATOM     12  H   LIG d   1       6.425  -1.891  -4.540  0.00  0.00     0.062 H 
BRANCH   4  13
ATOM     13  O   LIG d   1       2.470   0.211  -5.089  0.00  0.00    -0.495 OA
BRANCH  13  14
ATOM     14  C   LIG d   1       2.378   1.617  -4.851  0.00  0.00     0.079 C 
ATOM     15  H   LIG d   1       1.423   1.843  -4.374  0.00  0.00     0.066 H 
ATOM     16  H   LIG d   1       3.193   1.929  -4.199  0.00  0.00     0.066 H 
ATOM     17  H   LIG d   1       2.446   2.150  -5.799  0.00  0.00     0.066 H 
ENDBRANCH  13  14
ENDBRANCH   4  13
ENDBRANCH   1   3
BRANCH   1  18
ATOM     18  C   LIG d   1       6.395  -0.202  -6.425  0.00  0.00    -0.041 C 
ATOM     19  H   LIG d   1       6.602   0.732  -5.903  0.00  0.00     0.027 H 
ATOM     20  H   LIG d   1       6.981  -1.006  -5.978  0.00  0.00     0.027 H 
BRANCH  18  21
ATOM     21  C   LIG d   1       6.773  -0.057  -7.900  0.00  0.00    -0.029 C 
ATOM     22  H   LIG d   1       7.810  -0.362  -8.042  0.00  0.00     0.029 H 
ATOM     23  H   LIG d   1       6.123  -0.688  -8.506  0.00  0.00     0.029 H 
BRANCH  21  24
ATOM     24  C   LIG d   1       6.608   1.403  -8.328  0.00  0.00     0.044 C 
ATOM     25  H   LIG d   1       5.870   1.888  -7.689  0.00  0.00     0.056 H 
ATOM     26  H   LIG d   1       7.564   1.918  -8.236  0.00  0.00     0.056 H 
BRANCH  24  27
ATOM     27  O   LIG d   1       6.168   1.454  -9.687  0.00  0.00    -0.395 OA
ATOM     28  H   LIG d   1       6.656   0.865 -10.280  0.00  0.00     0.209 HD
ENDBRANCH  24  27
ENDBRANCH  21  24
ENDBRANCH  18  21
ENDBRANCH   1  18
BRANCH   1  29
ATOM     29  C   LIG d   1       4.577  -1.723  -7.214  0.00  0.00     0.090 C 
ATOM     30  H   LIG d   1       5.475  -2.033  -7.747  0.00  0.00     0.065 H 
BRANCH  29  31
ATOM     31  C   LIG d   1       3.515  -1.324  -8.205  0.00  0.00     0.023 A 
ATOM     32  C   LIG d   1       2.907  -2.287  -8.997  0.00  0.00     0.126 A 
ATOM     33  C   LIG d   1       1.927  -1.917  -9.906  0.00  0.00    -0.020 A 
ATOM     34  C   LIG d   1       1.564  -0.589 -10.027  0.00  0.00    -0.058 A 
ATOM     35  H   LIG d   1       1.448  -2.664 -10.520  0.00  0.00     0.065 H 
ATOM     36  C   LIG d   1       2.175   0.370  -9.240  0.00  0.00    -0.061 A 
ATOM     37  H   LIG d   1       0.804  -0.300 -10.736  0.00  0.00     0.062 H 
ATOM     38  C   LIG d   1       3.150   0.003  -8.330  0.00  0.00    -0.053 A 
ATOM     39  H   LIG d   1       1.891   1.407  -9.335  0.00  0.00     0.062 H 
ATOM     40  H   LIG d   1       3.625   0.754  -7.716  0.00  0.00     0.062 H 
BRANCH  32  41
ATOM     41  O   LIG d   1       3.269  -3.591  -8.881  0.00  0.00    -0.495 OA
BRANCH  41  42
ATOM     42  C   LIG d   1       2.696  -4.510  -9.814  0.00  0.00     0.079 C 
ATOM     43  H   LIG d   1       2.715  -4.072 -10.812  0.00  0.00     0.066 H 
ATOM     44  H   LIG d   1       3.271  -5.435  -9.812  0.00  0.00     0.066 H 
ATOM     45  H   LIG d   1       1.666  -4.722  -9.529  0.00  0.00     0.066 H 
ENDBRANCH  41  42
ENDBRANCH  32  41
ENDBRANCH  29  31
BRANCH  29  46
ATOM     46  O   LIG d   1       4.099  -2.807  -6.415  0.00  0.00    -0.387 OA
ATOM     47  H   LIG d   1       4.793  -3.277  -5.932  0.00  0.00     0.210 HD
ENDBRANCH  29  46
ENDBRANCH   1  29
TORSDOF 12
ENDMDL
MODEL 10
REMARK VINA RESULT:      -5.0      1.974      5.619
REMARK  12 active torsions:
REMARK  status: ('A' for Active; 'I' for Inactive)
REMARK    1  A    between atoms: C_1  and  O_2 
REMARK    2  A    between atoms: O_2  and  C_3 
REMARK    3  A    between atoms: C_8  and  C_9 
REMARK    4  A    between atoms: C_9  and  C_11 
REMARK    5  A    between atoms: C_9  and  C_15 
REMARK    6  A    between atoms: C_11  and  C_12 
REMARK    7  A    between atoms: C_12  and  C_13 
REMARK    8  A    between atoms: C_13  and  O_14 
REMARK    9  A    between atoms: C_15  and  C_17 
REMARK   10  A    between atoms: C_15  and  O_25 
REMARK   11  A    between atoms: C_22  and  O_23 
REMARK   12  A    between atoms: O_23  and  C_24 
ROOT
ATOM      1  C   LIG d   1       4.201   0.039  -6.677  0.00  0.00     0.018 C 
ATOM      2  H   LIG d   1       4.148   1.093  -6.402  0.00  0.00     0.038 H 
ENDROOT
BRANCH   1   3
ATOM      3  C   LIG d   1       3.427  -0.187  -7.950  0.00  0.00     0.000 A 
ATOM      4  C   LIG d   1       3.043   0.893  -8.731  0.00  0.00     0.124 A 
ATOM      5  C   LIG d   1       2.329   0.680  -9.902  0.00  0.00    -0.020 A 
ATOM      6  C   LIG d   1       2.009  -0.606 -10.290  0.00  0.00    -0.058 A 
ATOM      7  H   LIG d   1       2.030   1.520 -10.512  0.00  0.00     0.065 H 
ATOM      8  C   LIG d   1       2.388  -1.680  -9.506  0.00  0.00    -0.061 A 
ATOM      9  H   LIG d   1       1.458  -0.772 -11.204  0.00  0.00     0.062 H 
ATOM     10  C   LIG d   1       3.099  -1.472  -8.340  0.00  0.00    -0.055 A 
ATOM     11  H   LIG d   1       2.132  -2.685  -9.810  0.00  0.00     0.062 H 
ATOM     12  H   LIG d   1       3.398  -2.313  -7.732  0.00  0.00     0.062 H 
BRANCH   4  13
ATOM     13  O   LIG d   1       3.365   2.156  -8.350  0.00  0.00    -0.495 OA
BRANCH  13  14
ATOM     14  C   LIG d   1       4.247   2.887  -9.205  0.00  0.00     0.079 C 
ATOM     15  H   LIG d   1       3.663   3.531  -9.864  0.00  0.00     0.066 H 
ATOM     16  H   LIG d   1       4.916   3.498  -8.600  0.00  0.00     0.066 H 
ATOM     17  H   LIG d   1       4.832   2.190  -9.803  0.00  0.00     0.066 H 
ENDBRANCH  13  14
ENDBRANCH   4  13
ENDBRANCH   1   3
BRANCH   1  18
ATOM     18  C   LIG d   1       3.601  -0.811  -5.556  0.00  0.00    -0.041 C 
ATOM     19  H   LIG d   1       2.899  -1.529  -5.981  0.00  0.00     0.027 H 
ATOM     20  H   LIG d   1       4.398  -1.345  -5.039  0.00  0.00     0.027 H 
BRANCH  18  21
ATOM     21  C   LIG d   1       2.868   0.095  -4.565  0.00  0.00    -0.029 C 
ATOM     22  H   LIG d   1       3.411   1.034  -4.461  0.00  0.00     0.029 H 
ATOM     23  H   LIG d   1       1.861   0.296  -4.933  0.00  0.00     0.029 H 
BRANCH  21  24
ATOM     24  C   LIG d   1       2.783  -0.599  -3.205  0.00  0.00     0.044 C 
ATOM     25  H   LIG d   1       3.414  -0.073  -2.488  0.00  0.00     0.056 H 
ATOM     26  H   LIG d   1       1.751  -0.590  -2.857  0.00  0.00     0.056 H 
BRANCH  24  27
ATOM     27  O   LIG d   1       3.231  -1.950  -3.331  0.00  0.00    -0.395 OA
ATOM     28  H   LIG d   1       2.520  -2.587  -3.486  0.00  0.00     0.209 HD
ENDBRANCH  24  27
ENDBRANCH  21  24
ENDBRANCH  18  21
ENDBRANCH   1  18
BRANCH   1  29
ATOM     29  C   LIG d   1       5.664  -0.358  -6.892  0.00  0.00     0.090 C 
ATOM     30  H   LIG d   1       5.737  -1.017  -7.757  0.00  0.00     0.065 H 
BRANCH  29  31
ATOM     31  C   LIG d   1       6.174  -1.074  -5.668  0.00  0.00     0.023 A 
ATOM     32  C   LIG d   1       6.573  -0.349  -4.555  0.00  0.00     0.126 A 
ATOM     33  C   LIG d   1       7.038  -1.011  -3.429  0.00  0.00    -0.020 A 
ATOM     34  C   LIG d   1       7.111  -2.390  -3.420  0.00  0.00    -0.058 A 
ATOM     35  H   LIG d   1       7.345  -0.450  -2.559  0.00  0.00     0.065 H 
ATOM     36  C   LIG d   1       6.717  -3.111  -4.534  0.00  0.00    -0.061 A 
ATOM     37  H   LIG d   1       7.476  -2.907  -2.545  0.00  0.00     0.062 H 
ATOM     38  C   LIG d   1       6.250  -2.453  -5.656  0.00  0.00    -0.053 A 
ATOM     39  H   LIG d   1       6.775  -4.190  -4.526  0.00  0.00     0.062 H 
ATOM     40  H   LIG d   1       5.942  -3.019  -6.523  0.00  0.00     0.062 H 
BRANCH  32  41
ATOM     41  O   LIG d   1       6.506   1.008  -4.567  0.00  0.00    -0.495 OA
BRANCH  41  42
ATOM     42  C   LIG d   1       7.542   1.716  -3.883  0.00  0.00     0.079 C 
ATOM     43  H   LIG d   1       7.354   1.686  -2.810  0.00  0.00     0.066 H 
ATOM     44  H   LIG d   1       8.503   1.248  -4.096  0.00  0.00     0.066 H 
ATOM     45  H   LIG d   1       7.560   2.751  -4.221  0.00  0.00     0.066 H 
ENDBRANCH  41  42
ENDBRANCH  32  41
ENDBRANCH  29  31
BRANCH  29  46
ATOM     46  O   LIG d   1       6.447   0.815  -7.118  0.00  0.00    -0.387 OA
ATOM     47  H   LIG d   1       7.322   0.792  -6.707  0.00  0.00     0.210 HD
ENDBRANCH  29  46
ENDBRANCH   1  29
TORSDOF 12
ENDMDL
