MODEL 1
REMARK VINA RESULT:      -6.9      0.000      0.000
REMARK  7 active torsions:
REMARK  status: ('A' for Active; 'I' for Inactive)
REMARK    1  A    between atoms: C_1  and  C_2 
REMARK    2  A    between atoms: C_5  and  C_8 
REMARK    3  A    between atoms: N_15  and  C_30 
REMARK    4  A    between atoms: C_18  and  C_29 
REMARK    5  A    between atoms: C_30  and  C_31 
REMARK    6  A    between atoms: C_31  and  O_32 
REMARK    7  A    between atoms: O_32  and  C_33 
ROOT
ATOM      1  C   LIG d   1       7.120  -0.655  -6.151  0.00  0.00     0.027 C 
ATOM      2  H   LIG d   1       7.857   0.028  -5.729  0.00  0.00     0.041 H 
ATOM      3  C   LIG d   1       7.836  -1.806  -6.869  0.00  0.00     0.027 C 
ATOM      4  N   LIG d   1       6.865  -2.888  -7.118  0.00  0.00    -0.280 N 
ATOM      5  C   LIG d   1       6.542  -3.199  -8.377  0.00  0.00     0.234 C 
ATOM      6  O   LIG d   1       7.179  -2.682  -9.270  0.00  0.00    -0.274 OA
ATOM      7  C   LIG d   1       5.448  -4.144  -8.754  0.00  0.00     0.091 C 
ATOM      8  N   LIG d   1       4.741  -4.657  -7.593  0.00  0.00    -0.288 N 
ATOM      9  C   LIG d   1       5.103  -4.404  -6.335  0.00  0.00     0.245 C 
ATOM     10  O   LIG d   1       4.437  -4.882  -5.442  0.00  0.00    -0.273 OA
ATOM     11  C   LIG d   1       6.280  -3.566  -5.961  0.00  0.00     0.151 C 
ATOM     12  C   LIG d   1       5.883  -2.513  -4.953  0.00  0.00     0.054 A 
ATOM     13  C   LIG d   1       6.265  -1.220  -5.046  0.00  0.00    -0.008 A 
ATOM     14  C   LIG d   1       5.697  -0.529  -3.907  0.00  0.00     0.004 A 
ATOM     15  C   LIG d   1       5.755   0.801  -3.479  0.00  0.00    -0.052 A 
ATOM     16  C   LIG d   1       5.079   1.113  -2.326  0.00  0.00    -0.061 A 
ATOM     17  C   LIG d   1       4.370   0.163  -1.609  0.00  0.00    -0.060 A 
ATOM     18  C   LIG d   1       4.297  -1.162  -2.007  0.00  0.00    -0.038 A 
ATOM     19  C   LIG d   1       4.974  -1.507  -3.175  0.00  0.00     0.047 A 
ATOM     20  N   LIG d   1       5.112  -2.693  -3.837  0.00  0.00    -0.356 N 
ATOM     21  H   LIG d   1       4.720  -3.535  -3.558  0.00  0.00     0.166 HD
ATOM     22  H   LIG d   1       8.237  -1.450  -7.818  0.00  0.00     0.047 H 
ATOM     23  H   LIG d   1       8.647  -2.179  -6.244  0.00  0.00     0.047 H 
ATOM     24  H   LIG d   1       5.877  -4.981  -9.305  0.00  0.00     0.056 H 
ATOM     25  H   LIG d   1       4.739  -3.623  -9.398  0.00  0.00     0.056 H 
ATOM     26  H   LIG d   1       6.306   1.549  -4.031  0.00  0.00     0.062 H 
ATOM     27  H   LIG d   1       5.100   2.130  -1.966  0.00  0.00     0.062 H 
ATOM     28  H   LIG d   1       3.856   0.465  -0.709  0.00  0.00     0.062 H 
ATOM     29  H   LIG d   1       3.741  -1.892  -1.440  0.00  0.00     0.064 H 
ENDROOT
BRANCH   1  30
ATOM     30  C   LIG d   1       6.249   0.087  -7.132  0.00  0.00    -0.038 A 
ATOM     31  C   LIG d   1       6.808   1.018  -7.987  0.00  0.00    -0.058 A 
ATOM     32  C   LIG d   1       6.008   1.703  -8.882  0.00  0.00    -0.059 A 
ATOM     33  H   LIG d   1       7.870   1.213  -7.953  0.00  0.00     0.062 H 
ATOM     34  C   LIG d   1       4.650   1.449  -8.930  0.00  0.00    -0.050 A 
ATOM     35  H   LIG d   1       6.445   2.433  -9.547  0.00  0.00     0.062 H 
ATOM     36  C   LIG d   1       4.092   0.515  -8.078  0.00  0.00    -0.059 A 
ATOM     37  C   LIG d   1       4.891  -0.167  -7.180  0.00  0.00    -0.058 A 
ATOM     38  H   LIG d   1       3.031   0.315  -8.116  0.00  0.00     0.062 H 
ATOM     39  H   LIG d   1       4.455  -0.897  -6.514  0.00  0.00     0.062 H 
BRANCH  34  40
ATOM     40  C   LIG d   1       3.779   2.191  -9.910  0.00  0.00    -0.040 C 
ATOM     41  H   LIG d   1       2.733   1.940  -9.728  0.00  0.00     0.028 H 
ATOM     42  H   LIG d   1       3.922   3.264  -9.784  0.00  0.00     0.028 H 
ATOM     43  H   LIG d   1       4.050   1.906 -10.926  0.00  0.00     0.028 H 
ENDBRANCH  34  40
ENDBRANCH   1  30
BRANCH  11  44
ATOM     44  C   LIG d   1       7.351  -4.466  -5.341  0.00  0.00    -0.029 C 
ATOM     45  H   LIG d   1       8.305  -4.291  -5.840  0.00  0.00     0.026 H 
ATOM     46  H   LIG d   1       7.449  -4.236  -4.280  0.00  0.00     0.026 H 
ATOM     47  H   LIG d   1       7.063  -5.510  -5.462  0.00  0.00     0.026 H 
ENDBRANCH  11  44
BRANCH   8  48
ATOM     48  C   LIG d   1       3.564  -5.501  -7.816  0.00  0.00     0.039 C 
ATOM     49  H   LIG d   1       3.140  -5.794  -6.855  0.00  0.00     0.049 H 
ATOM     50  H   LIG d   1       2.821  -4.944  -8.387  0.00  0.00     0.049 H 
BRANCH  48  51
ATOM     51  C   LIG d   1       3.974  -6.752  -8.595  0.00  0.00     0.063 C 
ATOM     52  H   LIG d   1       3.426  -6.790  -9.537  0.00  0.00     0.058 H 
ATOM     53  H   LIG d   1       5.045  -6.718  -8.800  0.00  0.00     0.058 H 
BRANCH  51  54
ATOM     54  O   LIG d   1       3.673  -7.915  -7.822  0.00  0.00    -0.381 OA
BRANCH  54  55
ATOM     55  C   LIG d   1       4.650  -8.218  -6.824  0.00  0.00     0.036 C 
ATOM     56  H   LIG d   1       4.247  -7.984  -5.839  0.00  0.00     0.052 H 
ATOM     57  H   LIG d   1       4.902  -9.277  -6.872  0.00  0.00     0.052 H 
ATOM     58  H   LIG d   1       5.547  -7.624  -7.002  0.00  0.00     0.052 H 
ENDBRANCH  54  55
ENDBRANCH  51  54
ENDBRANCH  48  51
ENDBRANCH   8  48
TORSDOF 7
ENDMDL
MODEL 2
REMARK VINA RESULT:      -6.7      1.638      1.979
REMARK  7 active torsions:
REMARK  status: ('A' for Active; 'I' for Inactive)
REMARK    1  A    between atoms: C_1  and  C_2 
REMARK    2  A    between atoms: C_5  and  C_8 
REMARK    3  A    between atoms: N_15  and  C_30 
REMARK    4  A    between atoms: C_18  and  C_29 
REMARK    5  A    between atoms: C_30  and  C_31 
REMARK    6  A    between atoms: C_31  and  O_32 
REMARK    7  A    between atoms: O_32  and  C_33 
ROOT
ATOM      1  C   LIG d   1       6.672  -1.188  -6.578  0.00  0.00     0.027 C 
ATOM      2  H   LIG d   1       7.480  -0.673  -6.060  0.00  0.00     0.041 H 
ATOM      3  C   LIG d   1       7.256  -2.269  -7.496  0.00  0.00     0.027 C 
ATOM      4  N   LIG d   1       6.171  -3.179  -7.908  0.00  0.00    -0.280 N 
ATOM      5  C   LIG d   1       5.816  -3.233  -9.195  0.00  0.00     0.234 C 
ATOM      6  O   LIG d   1       6.506  -2.643  -9.998  0.00  0.00    -0.274 OA
ATOM      7  C   LIG d   1       4.624  -3.974  -9.707  0.00  0.00     0.091 C 
ATOM      8  N   LIG d   1       3.864  -4.598  -8.638  0.00  0.00    -0.288 N 
ATOM      9  C   LIG d   1       4.251  -4.606  -7.362  0.00  0.00     0.245 C 
ATOM     10  O   LIG d   1       3.536  -5.155  -6.552  0.00  0.00    -0.273 OA
ATOM     11  C   LIG d   1       5.514  -3.979  -6.873  0.00  0.00     0.151 C 
ATOM     12  C   LIG d   1       5.236  -3.078  -5.693  0.00  0.00     0.054 A 
ATOM     13  C   LIG d   1       5.759  -1.837  -5.570  0.00  0.00    -0.008 A 
ATOM     14  C   LIG d   1       5.271  -1.295  -4.319  0.00  0.00     0.004 A 
ATOM     15  C   LIG d   1       5.476  -0.073  -3.672  0.00  0.00    -0.052 A 
ATOM     16  C   LIG d   1       4.838   0.108  -2.470  0.00  0.00    -0.061 A 
ATOM     17  C   LIG d   1       4.028  -0.867  -1.913  0.00  0.00    -0.060 A 
ATOM     18  C   LIG d   1       3.809  -2.088  -2.530  0.00  0.00    -0.038 A 
ATOM     19  C   LIG d   1       4.444  -2.299  -3.752  0.00  0.00     0.047 A 
ATOM     20  N   LIG d   1       4.449  -3.361  -4.609  0.00  0.00    -0.356 N 
ATOM     21  H   LIG d   1       3.966  -4.191  -4.471  0.00  0.00     0.166 HD
ATOM     22  H   LIG d   1       7.695  -1.802  -8.377  0.00  0.00     0.047 H 
ATOM     23  H   LIG d   1       8.020  -2.830  -6.959  0.00  0.00     0.047 H 
ATOM     24  H   LIG d   1       4.957  -4.745 -10.401  0.00  0.00     0.056 H 
ATOM     25  H   LIG d   1       3.977  -3.275 -10.240  0.00  0.00     0.056 H 
ATOM     26  H   LIG d   1       6.106   0.694  -4.098  0.00  0.00     0.062 H 
ATOM     27  H   LIG d   1       4.972   1.040  -1.941  0.00  0.00     0.062 H 
ATOM     28  H   LIG d   1       3.550  -0.670  -0.965  0.00  0.00     0.062 H 
ATOM     29  H   LIG d   1       3.175  -2.840  -2.085  0.00  0.00     0.064 H 
ENDROOT
BRANCH   1  30
ATOM     30  C   LIG d   1       5.889  -0.198  -7.401  0.00  0.00    -0.038 A 
ATOM     31  C   LIG d   1       6.552   0.751  -8.156  0.00  0.00    -0.058 A 
ATOM     32  C   LIG d   1       5.834   1.664  -8.906  0.00  0.00    -0.059 A 
ATOM     33  H   LIG d   1       7.632   0.784  -8.157  0.00  0.00     0.062 H 
ATOM     34  C   LIG d   1       4.452   1.620  -8.910  0.00  0.00    -0.050 A 
ATOM     35  H   LIG d   1       6.351   2.408  -9.493  0.00  0.00     0.062 H 
ATOM     36  C   LIG d   1       3.789   0.668  -8.159  0.00  0.00    -0.059 A 
ATOM     37  C   LIG d   1       4.507  -0.242  -7.406  0.00  0.00    -0.058 A 
ATOM     38  H   LIG d   1       2.709   0.632  -8.163  0.00  0.00     0.062 H 
ATOM     39  H   LIG d   1       3.989  -0.986  -6.819  0.00  0.00     0.062 H 
BRANCH  34  40
ATOM     40  C   LIG d   1       3.668   2.610  -9.732  0.00  0.00    -0.040 C 
ATOM     41  H   LIG d   1       2.862   2.092 -10.253  0.00  0.00     0.028 H 
ATOM     42  H   LIG d   1       3.247   3.374  -9.078  0.00  0.00     0.028 H 
ATOM     43  H   LIG d   1       4.328   3.081 -10.461  0.00  0.00     0.028 H 
ENDBRANCH  34  40
ENDBRANCH   1  30
BRANCH  11  44
ATOM     44  C   LIG d   1       6.479  -5.083  -6.436  0.00  0.00    -0.029 C 
ATOM     45  H   LIG d   1       7.214  -4.670  -5.745  0.00  0.00     0.026 H 
ATOM     46  H   LIG d   1       5.920  -5.878  -5.942  0.00  0.00     0.026 H 
ATOM     47  H   LIG d   1       6.988  -5.487  -7.311  0.00  0.00     0.026 H 
ENDBRANCH  11  44
BRANCH   8  48
ATOM     48  C   LIG d   1       2.601  -5.257  -8.980  0.00  0.00     0.039 C 
ATOM     49  H   LIG d   1       2.705  -6.334  -8.845  0.00  0.00     0.049 H 
ATOM     50  H   LIG d   1       1.809  -4.884  -8.330  0.00  0.00     0.049 H 
BRANCH  48  51
ATOM     51  C   LIG d   1       2.248  -4.958 -10.438  0.00  0.00     0.063 C 
ATOM     52  H   LIG d   1       3.035  -4.350 -10.885  0.00  0.00     0.058 H 
ATOM     53  H   LIG d   1       2.155  -5.894 -10.989  0.00  0.00     0.058 H 
BRANCH  51  54
ATOM     54  O   LIG d   1       1.010  -4.247 -10.493  0.00  0.00    -0.381 OA
BRANCH  54  55
ATOM     55  C   LIG d   1       1.148  -2.829 -10.375  0.00  0.00     0.036 C 
ATOM     56  H   LIG d   1       2.092  -2.518 -10.821  0.00  0.00     0.052 H 
ATOM     57  H   LIG d   1       0.322  -2.340 -10.891  0.00  0.00     0.052 H 
ATOM     58  H   LIG d   1       1.134  -2.550  -9.321  0.00  0.00     0.052 H 
ENDBRANCH  54  55
ENDBRANCH  51  54
ENDBRANCH  48  51
ENDBRANCH   8  48
TORSDOF 7
ENDMDL
MODEL 3
REMARK VINA RESULT:      -6.6      4.086      7.428
REMARK  7 active torsions:
REMARK  status: ('A' for Active; 'I' for Inactive)
REMARK    1  A    between atoms: C_1  and  C_2 
REMARK    2  A    between atoms: C_5  and  C_8 
REMARK    3  A    between atoms: N_15  and  C_30 
REMARK    4  A    between atoms: C_18  and  C_29 
REMARK    5  A    between atoms: C_30  and  C_31 
REMARK    6  A    between atoms: C_31  and  O_32 
REMARK    7  A    between atoms: O_32  and  C_33 
ROOT
ATOM      1  C   LIG d   1       7.466  -2.845  -5.340  0.00  0.00     0.027 C 
ATOM      2  H   LIG d   1       6.550  -3.319  -5.690  0.00  0.00     0.041 H 
ATOM      3  C   LIG d   1       8.359  -2.499  -6.538  0.00  0.00     0.027 C 
ATOM      4  N   LIG d   1       9.404  -1.557  -6.096  0.00  0.00    -0.280 N 
ATOM      5  C   LIG d   1      10.683  -1.943  -6.117  0.00  0.00     0.234 C 
ATOM      6  O   LIG d   1      10.946  -3.003  -6.644  0.00  0.00    -0.274 OA
ATOM      7  C   LIG d   1      11.808  -1.154  -5.531  0.00  0.00     0.091 C 
ATOM      8  N   LIG d   1      11.348   0.069  -4.895  0.00  0.00    -0.288 N 
ATOM      9  C   LIG d   1      10.085   0.493  -4.933  0.00  0.00     0.245 C 
ATOM     10  O   LIG d   1       9.812   1.527  -4.363  0.00  0.00    -0.273 OA
ATOM     11  C   LIG d   1       8.985  -0.233  -5.635  0.00  0.00     0.151 C 
ATOM     12  C   LIG d   1       7.798  -0.411  -4.719  0.00  0.00     0.054 A 
ATOM     13  C   LIG d   1       7.127  -1.578  -4.597  0.00  0.00    -0.008 A 
ATOM     14  C   LIG d   1       6.063  -1.355  -3.639  0.00  0.00     0.004 A 
ATOM     15  C   LIG d   1       5.061  -2.184  -3.126  0.00  0.00    -0.052 A 
ATOM     16  C   LIG d   1       4.203  -1.628  -2.210  0.00  0.00    -0.061 A 
ATOM     17  C   LIG d   1       4.314  -0.308  -1.806  0.00  0.00    -0.060 A 
ATOM     18  C   LIG d   1       5.294   0.537  -2.299  0.00  0.00    -0.038 A 
ATOM     19  C   LIG d   1       6.179  -0.002  -3.231  0.00  0.00     0.047 A 
ATOM     20  N   LIG d   1       7.237   0.537  -3.906  0.00  0.00    -0.356 N 
ATOM     21  H   LIG d   1       7.545   1.452  -3.821  0.00  0.00     0.166 HD
ATOM     22  H   LIG d   1       8.824  -3.408  -6.920  0.00  0.00     0.047 H 
ATOM     23  H   LIG d   1       7.756  -2.037  -7.320  0.00  0.00     0.047 H 
ATOM     24  H   LIG d   1      12.511  -0.899  -6.323  0.00  0.00     0.056 H 
ATOM     25  H   LIG d   1      12.320  -1.768  -4.789  0.00  0.00     0.056 H 
ATOM     26  H   LIG d   1       4.966  -3.215  -3.435  0.00  0.00     0.062 H 
ATOM     27  H   LIG d   1       3.417  -2.239  -1.791  0.00  0.00     0.062 H 
ATOM     28  H   LIG d   1       3.611   0.076  -1.081  0.00  0.00     0.062 H 
ATOM     29  H   LIG d   1       5.369   1.564  -1.977  0.00  0.00     0.064 H 
ENDROOT
BRANCH   1  30
ATOM     30  C   LIG d   1       8.201  -3.786  -4.420  0.00  0.00    -0.038 A 
ATOM     31  C   LIG d   1       8.349  -5.116  -4.766  0.00  0.00    -0.058 A 
ATOM     32  C   LIG d   1       9.017  -5.980  -3.919  0.00  0.00    -0.059 A 
ATOM     33  H   LIG d   1       7.939  -5.481  -5.696  0.00  0.00     0.062 H 
ATOM     34  C   LIG d   1       9.547  -5.513  -2.731  0.00  0.00    -0.050 A 
ATOM     35  H   LIG d   1       9.130  -7.020  -4.188  0.00  0.00     0.062 H 
ATOM     36  C   LIG d   1       9.402  -4.182  -2.387  0.00  0.00    -0.059 A 
ATOM     37  C   LIG d   1       8.730  -3.318  -3.231  0.00  0.00    -0.058 A 
ATOM     38  H   LIG d   1       9.816  -3.816  -1.459  0.00  0.00     0.062 H 
ATOM     39  H   LIG d   1       8.617  -2.278  -2.963  0.00  0.00     0.062 H 
BRANCH  34  40
ATOM     40  C   LIG d   1      10.280  -6.453  -1.810  0.00  0.00    -0.040 C 
ATOM     41  H   LIG d   1      11.339  -6.196  -1.798  0.00  0.00     0.028 H 
ATOM     42  H   LIG d   1       9.873  -6.367  -0.802  0.00  0.00     0.028 H 
ATOM     43  H   LIG d   1      10.158  -7.477  -2.164  0.00  0.00     0.028 H 
ENDBRANCH  34  40
ENDBRANCH   1  30
BRANCH  11  44
ATOM     44  C   LIG d   1       8.552   0.584  -6.854  0.00  0.00    -0.029 C 
ATOM     45  H   LIG d   1       7.833   0.010  -7.438  0.00  0.00     0.026 H 
ATOM     46  H   LIG d   1       8.091   1.515  -6.522  0.00  0.00     0.026 H 
ATOM     47  H   LIG d   1       9.424   0.809  -7.468  0.00  0.00     0.026 H 
ENDBRANCH  11  44
BRANCH   8  48
ATOM     48  C   LIG d   1      12.328   0.883  -4.172  0.00  0.00     0.039 C 
ATOM     49  H   LIG d   1      12.725   1.650  -4.838  0.00  0.00     0.049 H 
ATOM     50  H   LIG d   1      11.846   1.358  -3.317  0.00  0.00     0.049 H 
BRANCH  48  51
ATOM     51  C   LIG d   1      13.471  -0.008  -3.684  0.00  0.00     0.063 C 
ATOM     52  H   LIG d   1      13.092  -0.713  -2.944  0.00  0.00     0.058 H 
ATOM     53  H   LIG d   1      13.890  -0.558  -4.528  0.00  0.00     0.058 H 
BRANCH  51  54
ATOM     54  O   LIG d   1      14.488   0.802  -3.091  0.00  0.00    -0.381 OA
BRANCH  54  55
ATOM     55  C   LIG d   1      15.298   0.112  -2.137  0.00  0.00     0.036 C 
ATOM     56  H   LIG d   1      15.208   0.598  -1.166  0.00  0.00     0.052 H 
ATOM     57  H   LIG d   1      14.966  -0.923  -2.059  0.00  0.00     0.052 H 
ATOM     58  H   LIG d   1      16.339   0.136  -2.461  0.00  0.00     0.052 H 
ENDBRANCH  54  55
ENDBRANCH  51  54
ENDBRANCH  48  51
ENDBRANCH   8  48
TORSDOF 7
ENDMDL
MODEL 4
REMARK VINA RESULT:      -6.5      2.198      5.579
REMARK  7 active torsions:
REMARK  status: ('A' for Active; 'I' for Inactive)
REMARK    1  A    between atoms: C_1  and  C_2 
REMARK    2  A    between atoms: C_5  and  C_8 
REMARK    3  A    between atoms: N_15  and  C_30 
REMARK    4  A    between atoms: C_18  and  C_29 
REMARK    5  A    between atoms: C_30  and  C_31 
REMARK    6  A    between atoms: C_31  and  O_32 
REMARK    7  A    between atoms: O_32  and  C_33 
ROOT
ATOM      1  C   LIG d   1       4.719  -3.458  -5.561  0.00  0.00     0.027 C 
ATOM      2  H   LIG d   1       4.042  -4.032  -4.928  0.00  0.00     0.041 H 
ATOM      3  C   LIG d   1       4.336  -3.651  -7.033  0.00  0.00     0.027 C 
ATOM      4  N   LIG d   1       5.009  -2.614  -7.838  0.00  0.00    -0.280 N 
ATOM      5  C   LIG d   1       5.933  -2.978  -8.731  0.00  0.00     0.234 C 
ATOM      6  O   LIG d   1       6.072  -4.162  -8.954  0.00  0.00    -0.274 OA
ATOM      7  C   LIG d   1       6.807  -2.020  -9.474  0.00  0.00     0.091 C 
ATOM      8  N   LIG d   1       6.567  -0.641  -9.082  0.00  0.00    -0.288 N 
ATOM      9  C   LIG d   1       5.600  -0.267  -8.244  0.00  0.00     0.245 C 
ATOM     10  O   LIG d   1       5.494   0.911  -7.984  0.00  0.00    -0.273 OA
ATOM     11  C   LIG d   1       4.641  -1.217  -7.606  0.00  0.00     0.151 C 
ATOM     12  C   LIG d   1       4.584  -0.990  -6.114  0.00  0.00     0.054 A 
ATOM     13  C   LIG d   1       4.617  -1.996  -5.211  0.00  0.00    -0.008 A 
ATOM     14  C   LIG d   1       4.539  -1.388  -3.899  0.00  0.00     0.004 A 
ATOM     15  C   LIG d   1       4.527  -1.922  -2.607  0.00  0.00    -0.052 A 
ATOM     16  C   LIG d   1       4.444  -1.030  -1.567  0.00  0.00    -0.061 A 
ATOM     17  C   LIG d   1       4.373   0.337  -1.774  0.00  0.00    -0.060 A 
ATOM     18  C   LIG d   1       4.381   0.894  -3.043  0.00  0.00    -0.038 A 
ATOM     19  C   LIG d   1       4.464   0.011  -4.118  0.00  0.00     0.047 A 
ATOM     20  N   LIG d   1       4.492   0.214  -5.467  0.00  0.00    -0.356 N 
ATOM     21  H   LIG d   1       4.454   1.079  -5.903  0.00  0.00     0.166 HD
ATOM     22  H   LIG d   1       4.656  -4.637  -7.367  0.00  0.00     0.047 H 
ATOM     23  H   LIG d   1       3.256  -3.557  -7.145  0.00  0.00     0.047 H 
ATOM     24  H   LIG d   1       6.617  -2.122 -10.542  0.00  0.00     0.056 H 
ATOM     25  H   LIG d   1       7.850  -2.268  -9.275  0.00  0.00     0.056 H 
ATOM     26  H   LIG d   1       4.581  -2.988  -2.434  0.00  0.00     0.062 H 
ATOM     27  H   LIG d   1       4.433  -1.406  -0.554  0.00  0.00     0.062 H 
ATOM     28  H   LIG d   1       4.311   0.992  -0.918  0.00  0.00     0.062 H 
ATOM     29  H   LIG d   1       4.325   1.962  -3.191  0.00  0.00     0.064 H 
ENDROOT
BRANCH   1  30
ATOM     30  C   LIG d   1       6.133  -3.930  -5.342  0.00  0.00    -0.038 A 
ATOM     31  C   LIG d   1       6.463  -5.254  -5.563  0.00  0.00    -0.058 A 
ATOM     32  C   LIG d   1       7.759  -5.688  -5.356  0.00  0.00    -0.059 A 
ATOM     33  H   LIG d   1       5.706  -5.951  -5.892  0.00  0.00     0.062 H 
ATOM     34  C   LIG d   1       8.729  -4.795  -4.940  0.00  0.00    -0.050 A 
ATOM     35  H   LIG d   1       8.016  -6.723  -5.525  0.00  0.00     0.062 H 
ATOM     36  C   LIG d   1       8.400  -3.470  -4.724  0.00  0.00    -0.059 A 
ATOM     37  C   LIG d   1       7.103  -3.037  -4.926  0.00  0.00    -0.058 A 
ATOM     38  H   LIG d   1       9.158  -2.772  -4.399  0.00  0.00     0.062 H 
ATOM     39  H   LIG d   1       6.847  -2.002  -4.757  0.00  0.00     0.062 H 
BRANCH  34  40
ATOM     40  C   LIG d   1      10.143  -5.266  -4.720  0.00  0.00    -0.040 C 
ATOM     41  H   LIG d   1      10.835  -4.457  -4.955  0.00  0.00     0.028 H 
ATOM     42  H   LIG d   1      10.271  -5.563  -3.679  0.00  0.00     0.028 H 
ATOM     43  H   LIG d   1      10.347  -6.119  -5.368  0.00  0.00     0.028 H 
ENDBRANCH  34  40
ENDBRANCH   1  30
BRANCH  11  44
ATOM     44  C   LIG d   1       3.248  -0.984  -8.195  0.00  0.00    -0.029 C 
ATOM     45  H   LIG d   1       3.203  -1.409  -9.198  0.00  0.00     0.026 H 
ATOM     46  H   LIG d   1       2.501  -1.464  -7.563  0.00  0.00     0.026 H 
ATOM     47  H   LIG d   1       3.049   0.086  -8.244  0.00  0.00     0.026 H 
ENDBRANCH  11  44
BRANCH   8  48
ATOM     48  C   LIG d   1       7.436   0.398  -9.640  0.00  0.00     0.039 C 
ATOM     49  H   LIG d   1       7.402   0.355 -10.729  0.00  0.00     0.049 H 
ATOM     50  H   LIG d   1       7.094   1.377  -9.304  0.00  0.00     0.049 H 
BRANCH  48  51
ATOM     51  C   LIG d   1       8.873   0.169  -9.166  0.00  0.00     0.063 C 
ATOM     52  H   LIG d   1       9.115  -0.892  -9.239  0.00  0.00     0.058 H 
ATOM     53  H   LIG d   1       9.558   0.742  -9.793  0.00  0.00     0.058 H 
BRANCH  51  54
ATOM     54  O   LIG d   1       9.001   0.594  -7.809  0.00  0.00    -0.381 OA
BRANCH  54  55
ATOM     55  C   LIG d   1       8.856   2.004  -7.625  0.00  0.00     0.036 C 
ATOM     56  H   LIG d   1       9.728   2.515  -8.033  0.00  0.00     0.052 H 
ATOM     57  H   LIG d   1       7.959   2.348  -8.140  0.00  0.00     0.052 H 
ATOM     58  H   LIG d   1       8.771   2.224  -6.561  0.00  0.00     0.052 H 
ENDBRANCH  54  55
ENDBRANCH  51  54
ENDBRANCH  48  51
ENDBRANCH   8  48
TORSDOF 7
ENDMDL
MODEL 5
REMARK VINA RESULT:      -6.5      2.368      4.359
REMARK  7 active torsions:
REMARK  status: ('A' for Active; 'I' for Inactive)
REMARK    1  A    between atoms: C_1  and  C_2 
REMARK    2  A    between atoms: C_5  and  C_8 
REMARK    3  A    between atoms: N_15  and  C_30 
REMARK    4  A    between atoms: C_18  and  C_29 
REMARK    5  A    between atoms: C_30  and  C_31 
REMARK    6  A    between atoms: C_31  and  O_32 
REMARK    7  A    between atoms: O_32  and  C_33 
ROOT
ATOM      1  C   LIG d   1       7.211  -1.540  -5.236  0.00  0.00     0.027 C 
ATOM      2  H   LIG d   1       7.607  -1.886  -4.282  0.00  0.00     0.041 H 
ATOM      3  C   LIG d   1       7.265  -2.681  -6.260  0.00  0.00     0.027 C 
ATOM      4  N   LIG d   1       6.416  -2.326  -7.413  0.00  0.00    -0.280 N 
ATOM      5  C   LIG d   1       6.984  -2.132  -8.607  0.00  0.00     0.234 C 
ATOM      6  O   LIG d   1       8.159  -2.408  -8.727  0.00  0.00    -0.274 OA
ATOM      7  C   LIG d   1       6.264  -1.597  -9.802  0.00  0.00     0.091 C 
ATOM      8  N   LIG d   1       4.880  -1.270  -9.508  0.00  0.00    -0.288 N 
ATOM      9  C   LIG d   1       4.291  -1.525  -8.340  0.00  0.00     0.245 C 
ATOM     10  O   LIG d   1       3.130  -1.205  -8.203  0.00  0.00    -0.273 OA
ATOM     11  C   LIG d   1       4.977  -2.183  -7.189  0.00  0.00     0.151 C 
ATOM     12  C   LIG d   1       4.778  -1.383  -5.924  0.00  0.00     0.054 A 
ATOM     13  C   LIG d   1       5.779  -1.104  -5.060  0.00  0.00    -0.008 A 
ATOM     14  C   LIG d   1       5.202  -0.329  -3.981  0.00  0.00     0.004 A 
ATOM     15  C   LIG d   1       5.745   0.228  -2.819  0.00  0.00    -0.052 A 
ATOM     16  C   LIG d   1       4.885   0.918  -2.001  0.00  0.00    -0.061 A 
ATOM     17  C   LIG d   1       3.540   1.062  -2.301  0.00  0.00    -0.060 A 
ATOM     18  C   LIG d   1       2.975   0.519  -3.443  0.00  0.00    -0.038 A 
ATOM     19  C   LIG d   1       3.825  -0.188  -4.291  0.00  0.00     0.047 A 
ATOM     20  N   LIG d   1       3.606  -0.839  -5.471  0.00  0.00    -0.356 N 
ATOM     21  H   LIG d   1       2.749  -0.904  -5.921  0.00  0.00     0.166 HD
ATOM     22  H   LIG d   1       8.293  -2.824  -6.593  0.00  0.00     0.047 H 
ATOM     23  H   LIG d   1       6.896  -3.599  -5.803  0.00  0.00     0.047 H 
ATOM     24  H   LIG d   1       6.290  -2.345 -10.594  0.00  0.00     0.056 H 
ATOM     25  H   LIG d   1       6.775  -0.698 -10.148  0.00  0.00     0.056 H 
ATOM     26  H   LIG d   1       6.792   0.121  -2.576  0.00  0.00     0.062 H 
ATOM     27  H   LIG d   1       5.268   1.364  -1.095  0.00  0.00     0.062 H 
ATOM     28  H   LIG d   1       2.911   1.616  -1.621  0.00  0.00     0.062 H 
ATOM     29  H   LIG d   1       1.926   0.638  -3.665  0.00  0.00     0.064 H 
ENDROOT
BRANCH   1  30
ATOM     30  C   LIG d   1       8.033  -0.379  -5.732  0.00  0.00    -0.038 A 
ATOM     31  C   LIG d   1       7.413   0.703  -6.329  0.00  0.00    -0.058 A 
ATOM     32  C   LIG d   1       8.167   1.765  -6.790  0.00  0.00    -0.059 A 
ATOM     33  H   LIG d   1       6.338   0.716  -6.440  0.00  0.00     0.062 H 
ATOM     34  C   LIG d   1       9.542   1.751  -6.643  0.00  0.00    -0.050 A 
ATOM     35  H   LIG d   1       7.683   2.608  -7.259  0.00  0.00     0.062 H 
ATOM     36  C   LIG d   1      10.162   0.672  -6.042  0.00  0.00    -0.059 A 
ATOM     37  C   LIG d   1       9.408  -0.392  -5.586  0.00  0.00    -0.058 A 
ATOM     38  H   LIG d   1      11.236   0.661  -5.927  0.00  0.00     0.062 H 
ATOM     39  H   LIG d   1       9.892  -1.236  -5.116  0.00  0.00     0.062 H 
BRANCH  34  40
ATOM     40  C   LIG d   1      10.365   2.912  -7.140  0.00  0.00    -0.040 C 
ATOM     41  H   LIG d   1      11.227   2.536  -7.691  0.00  0.00     0.028 H 
ATOM     42  H   LIG d   1       9.757   3.535  -7.796  0.00  0.00     0.028 H 
ATOM     43  H   LIG d   1      10.707   3.504  -6.291  0.00  0.00     0.028 H 
ENDBRANCH  34  40
ENDBRANCH   1  30
BRANCH  11  44
ATOM     44  C   LIG d   1       4.383  -3.579  -6.990  0.00  0.00    -0.029 C 
ATOM     45  H   LIG d   1       3.296  -3.509  -6.950  0.00  0.00     0.026 H 
ATOM     46  H   LIG d   1       4.676  -4.220  -7.822  0.00  0.00     0.026 H 
ATOM     47  H   LIG d   1       4.755  -4.003  -6.057  0.00  0.00     0.026 H 
ENDBRANCH  11  44
BRANCH   8  48
ATOM     48  C   LIG d   1       4.085  -0.622 -10.554  0.00  0.00     0.039 C 
ATOM     49  H   LIG d   1       4.147  -1.207 -11.472  0.00  0.00     0.049 H 
ATOM     50  H   LIG d   1       3.045  -0.558 -10.234  0.00  0.00     0.049 H 
BRANCH  48  51
ATOM     51  C   LIG d   1       4.627   0.786 -10.809  0.00  0.00     0.063 C 
ATOM     52  H   LIG d   1       5.535   0.937 -10.224  0.00  0.00     0.058 H 
ATOM     53  H   LIG d   1       4.854   0.902 -11.869  0.00  0.00     0.058 H 
BRANCH  51  54
ATOM     54  O   LIG d   1       3.647   1.751 -10.423  0.00  0.00    -0.381 OA
BRANCH  54  55
ATOM     55  C   LIG d   1       4.052   2.590  -9.339  0.00  0.00     0.036 C 
ATOM     56  H   LIG d   1       3.802   3.625  -9.568  0.00  0.00     0.052 H 
ATOM     57  H   LIG d   1       3.535   2.283  -8.430  0.00  0.00     0.052 H 
ATOM     58  H   LIG d   1       5.128   2.499  -9.193  0.00  0.00     0.052 H 
ENDBRANCH  54  55
ENDBRANCH  51  54
ENDBRANCH  48  51
ENDBRANCH   8  48
TORSDOF 7
ENDMDL
MODEL 6
REMARK VINA RESULT:      -6.3      3.218      7.130
REMARK  7 active torsions:
REMARK  status: ('A' for Active; 'I' for Inactive)
REMARK    1  A    between atoms: C_1  and  C_2 
REMARK    2  A    between atoms: C_5  and  C_8 
REMARK    3  A    between atoms: N_15  and  C_30 
REMARK    4  A    between atoms: C_18  and  C_29 
REMARK    5  A    between atoms: C_30  and  C_31 
REMARK    6  A    between atoms: C_31  and  O_32 
REMARK    7  A    between atoms: O_32  and  C_33 
ROOT
ATOM      1  C   LIG d   1       6.077  -1.661  -7.481  0.00  0.00     0.027 C 
ATOM      2  H   LIG d   1       5.532  -2.348  -8.126  0.00  0.00     0.041 H 
ATOM      3  C   LIG d   1       7.568  -2.023  -7.485  0.00  0.00     0.027 C 
ATOM      4  N   LIG d   1       8.331  -0.897  -6.913  0.00  0.00    -0.280 N 
ATOM      5  C   LIG d   1       8.985  -1.070  -5.761  0.00  0.00     0.234 C 
ATOM      6  O   LIG d   1       9.050  -2.194  -5.309  0.00  0.00    -0.274 OA
ATOM      7  C   LIG d   1       9.640   0.031  -4.993  0.00  0.00     0.091 C 
ATOM      8  N   LIG d   1       9.449   1.327  -5.622  0.00  0.00    -0.288 N 
ATOM      9  C   LIG d   1       8.859   1.496  -6.805  0.00  0.00     0.245 C 
ATOM     10  O   LIG d   1       8.750   2.625  -7.234  0.00  0.00    -0.273 OA
ATOM     11  C   LIG d   1       8.323   0.376  -7.634  0.00  0.00     0.151 C 
ATOM     12  C   LIG d   1       6.903   0.663  -8.059  0.00  0.00     0.054 A 
ATOM     13  C   LIG d   1       5.910  -0.252  -7.989  0.00  0.00    -0.008 A 
ATOM     14  C   LIG d   1       4.709   0.389  -8.484  0.00  0.00     0.004 A 
ATOM     15  C   LIG d   1       3.395  -0.059  -8.649  0.00  0.00    -0.052 A 
ATOM     16  C   LIG d   1       2.491   0.840  -9.156  0.00  0.00    -0.061 A 
ATOM     17  C   LIG d   1       2.851   2.135  -9.493  0.00  0.00    -0.060 A 
ATOM     18  C   LIG d   1       4.145   2.605  -9.343  0.00  0.00    -0.038 A 
ATOM     19  C   LIG d   1       5.084   1.712  -8.831  0.00  0.00     0.047 A 
ATOM     20  N   LIG d   1       6.417   1.841  -8.562  0.00  0.00    -0.356 N 
ATOM     21  H   LIG d   1       6.940   2.645  -8.705  0.00  0.00     0.166 HD
ATOM     22  H   LIG d   1       7.728  -2.916  -6.883  0.00  0.00     0.047 H 
ATOM     23  H   LIG d   1       7.896  -2.205  -8.508  0.00  0.00     0.047 H 
ATOM     24  H   LIG d   1      10.708  -0.173  -4.921  0.00  0.00     0.056 H 
ATOM     25  H   LIG d   1       9.217   0.060  -3.988  0.00  0.00     0.056 H 
ATOM     26  H   LIG d   1       3.105  -1.067  -8.389  0.00  0.00     0.062 H 
ATOM     27  H   LIG d   1       1.466   0.530  -9.296  0.00  0.00     0.062 H 
ATOM     28  H   LIG d   1       2.097   2.800  -9.887  0.00  0.00     0.062 H 
ATOM     29  H   LIG d   1       4.413   3.616  -9.610  0.00  0.00     0.064 H 
ENDROOT
BRANCH   1  30
ATOM     30  C   LIG d   1       5.540  -1.755  -6.076  0.00  0.00    -0.038 A 
ATOM     31  C   LIG d   1       5.260  -0.604  -5.364  0.00  0.00    -0.058 A 
ATOM     32  C   LIG d   1       4.773  -0.691  -4.073  0.00  0.00    -0.059 A 
ATOM     33  H   LIG d   1       5.426   0.363  -5.814  0.00  0.00     0.062 H 
ATOM     34  C   LIG d   1       4.555  -1.929  -3.498  0.00  0.00    -0.050 A 
ATOM     35  H   LIG d   1       4.558   0.208  -3.515  0.00  0.00     0.062 H 
ATOM     36  C   LIG d   1       4.830  -3.080  -4.212  0.00  0.00    -0.059 A 
ATOM     37  C   LIG d   1       5.322  -2.993  -5.501  0.00  0.00    -0.058 A 
ATOM     38  H   LIG d   1       4.659  -4.048  -3.764  0.00  0.00     0.062 H 
ATOM     39  H   LIG d   1       5.537  -3.893  -6.059  0.00  0.00     0.062 H 
BRANCH  34  40
ATOM     40  C   LIG d   1       4.019  -2.025  -2.094  0.00  0.00    -0.040 C 
ATOM     41  H   LIG d   1       4.370  -1.172  -1.512  0.00  0.00     0.028 H 
ATOM     42  H   LIG d   1       2.929  -2.023  -2.119  0.00  0.00     0.028 H 
ATOM     43  H   LIG d   1       4.369  -2.948  -1.632  0.00  0.00     0.028 H 
ENDBRANCH  34  40
ENDBRANCH   1  30
BRANCH  11  44
ATOM     44  C   LIG d   1       9.193   0.224  -8.883  0.00  0.00    -0.029 C 
ATOM     45  H   LIG d   1      10.068  -0.380  -8.645  0.00  0.00     0.026 H 
ATOM     46  H   LIG d   1       8.617  -0.264  -9.670  0.00  0.00     0.026 H 
ATOM     47  H   LIG d   1       9.512   1.209  -9.225  0.00  0.00     0.026 H 
ENDBRANCH  11  44
BRANCH   8  48
ATOM     48  C   LIG d   1       9.934   2.517  -4.917  0.00  0.00     0.039 C 
ATOM     49  H   LIG d   1      11.020   2.567  -4.994  0.00  0.00     0.049 H 
ATOM     50  H   LIG d   1       9.495   3.409  -5.365  0.00  0.00     0.049 H 
BRANCH  48  51
ATOM     51  C   LIG d   1       9.531   2.435  -3.443  0.00  0.00     0.063 C 
ATOM     52  H   LIG d   1       8.537   1.993  -3.362  0.00  0.00     0.058 H 
ATOM     53  H   LIG d   1      10.249   1.817  -2.903  0.00  0.00     0.058 H 
BRANCH  51  54
ATOM     54  O   LIG d   1       9.515   3.748  -2.880  0.00  0.00    -0.381 OA
BRANCH  54  55
ATOM     55  C   LIG d   1      10.757   4.146  -2.297  0.00  0.00     0.036 C 
ATOM     56  H   LIG d   1      10.960   3.532  -1.420  0.00  0.00     0.052 H 
ATOM     57  H   LIG d   1      11.558   4.016  -3.025  0.00  0.00     0.052 H 
ATOM     58  H   LIG d   1      10.701   5.194  -2.003  0.00  0.00     0.052 H 
ENDBRANCH  54  55
ENDBRANCH  51  54
ENDBRANCH  48  51
ENDBRANCH   8  48
TORSDOF 7
ENDMDL
MODEL 7
REMARK VINA RESULT:      -6.1      3.090      6.736
REMARK  7 active torsions:
REMARK  status: ('A' for Active; 'I' for Inactive)
REMARK    1  A    between atoms: C_1  and  C_2 
REMARK    2  A    between atoms: C_5  and  C_8 
REMARK    3  A    between atoms: N_15  and  C_30 
REMARK    4  A    between atoms: C_18  and  C_29 
REMARK    5  A    between atoms: C_30  and  C_31 
REMARK    6  A    between atoms: C_31  and  O_32 
REMARK    7  A    between atoms: O_32  and  C_33 
ROOT
ATOM      1  C   LIG d   1       6.604  -2.630  -5.665  0.00  0.00     0.027 C 
ATOM      2  H   LIG d   1       5.632  -3.118  -5.732  0.00  0.00     0.041 H 
ATOM      3  C   LIG d   1       7.162  -2.399  -7.075  0.00  0.00     0.027 C 
ATOM      4  N   LIG d   1       8.279  -1.438  -6.992  0.00  0.00    -0.280 N 
ATOM      5  C   LIG d   1       9.514  -1.843  -7.301  0.00  0.00     0.234 C 
ATOM      6  O   LIG d   1       9.643  -2.947  -7.787  0.00  0.00    -0.274 OA
ATOM      7  C   LIG d   1      10.745  -1.024  -7.087  0.00  0.00     0.091 C 
ATOM      8  N   LIG d   1      10.451   0.254  -6.461  0.00  0.00    -0.288 N 
ATOM      9  C   LIG d   1       9.217   0.692  -6.215  0.00  0.00     0.245 C 
ATOM     10  O   LIG d   1       9.089   1.774  -5.684  0.00  0.00    -0.273 OA
ATOM     11  C   LIG d   1       7.981  -0.074  -6.553  0.00  0.00     0.151 C 
ATOM     12  C   LIG d   1       7.064  -0.158  -5.356  0.00  0.00     0.054 A 
ATOM     13  C   LIG d   1       6.454  -1.301  -4.971  0.00  0.00    -0.008 A 
ATOM     14  C   LIG d   1       5.665  -0.983  -3.798  0.00  0.00     0.004 A 
ATOM     15  C   LIG d   1       4.831  -1.752  -2.981  0.00  0.00    -0.052 A 
ATOM     16  C   LIG d   1       4.227  -1.109  -1.929  0.00  0.00    -0.061 A 
ATOM     17  C   LIG d   1       4.427   0.238  -1.678  0.00  0.00    -0.060 A 
ATOM     18  C   LIG d   1       5.245   1.025  -2.472  0.00  0.00    -0.038 A 
ATOM     19  C   LIG d   1       5.870   0.398  -3.548  0.00  0.00     0.047 A 
ATOM     20  N   LIG d   1       6.720   0.863  -4.511  0.00  0.00    -0.356 N 
ATOM     21  H   LIG d   1       7.033   1.778  -4.584  0.00  0.00     0.166 HD
ATOM     22  H   LIG d   1       7.522  -3.342  -7.484  0.00  0.00     0.047 H 
ATOM     23  H   LIG d   1       6.379  -1.995  -7.716  0.00  0.00     0.047 H 
ATOM     24  H   LIG d   1      11.223  -0.845  -8.049  0.00  0.00     0.056 H 
ATOM     25  H   LIG d   1      11.432  -1.581  -6.449  0.00  0.00     0.056 H 
ATOM     26  H   LIG d   1       4.668  -2.804  -3.168  0.00  0.00     0.062 H 
ATOM     27  H   LIG d   1       3.577  -1.671  -1.275  0.00  0.00     0.062 H 
ATOM     28  H   LIG d   1       3.927   0.692  -0.835  0.00  0.00     0.062 H 
ATOM     29  H   LIG d   1       5.392   2.074  -2.267  0.00  0.00     0.064 H 
ENDROOT
BRANCH   1  30
ATOM     30  C   LIG d   1       7.553  -3.501  -4.884  0.00  0.00    -0.038 A 
ATOM     31  C   LIG d   1       7.731  -4.824  -5.243  0.00  0.00    -0.058 A 
ATOM     32  C   LIG d   1       8.597  -5.625  -4.522  0.00  0.00    -0.059 A 
ATOM     33  H   LIG d   1       7.190  -5.234  -6.083  0.00  0.00     0.062 H 
ATOM     34  C   LIG d   1       9.294  -5.101  -3.450  0.00  0.00    -0.050 A 
ATOM     35  H   LIG d   1       8.733  -6.660  -4.800  0.00  0.00     0.062 H 
ATOM     36  C   LIG d   1       9.119  -3.777  -3.094  0.00  0.00    -0.059 A 
ATOM     37  C   LIG d   1       8.250  -2.977  -3.812  0.00  0.00    -0.058 A 
ATOM     38  H   LIG d   1       9.664  -3.366  -2.257  0.00  0.00     0.062 H 
ATOM     39  H   LIG d   1       8.114  -1.942  -3.534  0.00  0.00     0.062 H 
BRANCH  34  40
ATOM     40  C   LIG d   1      10.242  -5.972  -2.668  0.00  0.00    -0.040 C 
ATOM     41  H   LIG d   1      11.267  -5.643  -2.845  0.00  0.00     0.028 H 
ATOM     42  H   LIG d   1      10.015  -5.895  -1.604  0.00  0.00     0.028 H 
ATOM     43  H   LIG d   1      10.132  -7.008  -2.988  0.00  0.00     0.028 H 
ENDBRANCH  34  40
ENDBRANCH   1  30
BRANCH  11  44
ATOM     44  C   LIG d   1       7.248   0.645  -7.688  0.00  0.00    -0.029 C 
ATOM     45  H   LIG d   1       6.409   0.035  -8.022  0.00  0.00     0.026 H 
ATOM     46  H   LIG d   1       6.880   1.606  -7.330  0.00  0.00     0.026 H 
ATOM     47  H   LIG d   1       7.935   0.805  -8.519  0.00  0.00     0.026 H 
ENDBRANCH  11  44
BRANCH   8  48
ATOM     48  C   LIG d   1      11.576   1.112  -6.080  0.00  0.00     0.039 C 
ATOM     49  H   LIG d   1      11.198   2.015  -5.599  0.00  0.00     0.049 H 
ATOM     50  H   LIG d   1      12.224   0.575  -5.387  0.00  0.00     0.049 H 
BRANCH  48  51
ATOM     51  C   LIG d   1      12.372   1.495  -7.329  0.00  0.00     0.063 C 
ATOM     52  H   LIG d   1      13.306   1.973  -7.033  0.00  0.00     0.058 H 
ATOM     53  H   LIG d   1      12.591   0.598  -7.910  0.00  0.00     0.058 H 
BRANCH  51  54
ATOM     54  O   LIG d   1      11.605   2.401  -8.123  0.00  0.00    -0.381 OA
BRANCH  54  55
ATOM     55  C   LIG d   1      11.497   2.023  -9.497  0.00  0.00     0.036 C 
ATOM     56  H   LIG d   1      12.488   2.015  -9.950  0.00  0.00     0.052 H 
ATOM     57  H   LIG d   1      11.058   1.028  -9.566  0.00  0.00     0.052 H 
ATOM     58  H   LIG d   1      10.863   2.738 -10.021  0.00  0.00     0.052 H 
ENDBRANCH  54  55
ENDBRANCH  51  54
ENDBRANCH  48  51
ENDBRANCH   8  48
TORSDOF 7
ENDMDL
MODEL 8
REMARK VINA RESULT:      -5.9      2.642      6.400
REMARK  7 active torsions:
REMARK  status: ('A' for Active; 'I' for Inactive)
REMARK    1  A    between atoms: C_1  and  C_2 
REMARK    2  A    between atoms: C_5  and  C_8 
REMARK    3  A    between atoms: N_15  and  C_30 
REMARK    4  A    between atoms: C_18  and  C_29 
REMARK    5  A    between atoms: C_30  and  C_31 
REMARK    6  A    between atoms: C_31  and  O_32 
REMARK    7  A    between atoms: O_32  and  C_33 
ROOT
ATOM      1  C   LIG d   1       6.055  -2.876  -5.784  0.00  0.00     0.027 C 
ATOM      2  H   LIG d   1       5.092  -3.370  -5.654  0.00  0.00     0.041 H 
ATOM      3  C   LIG d   1       6.376  -2.758  -7.279  0.00  0.00     0.027 C 
ATOM      4  N   LIG d   1       7.477  -1.792  -7.453  0.00  0.00    -0.280 N 
ATOM      5  C   LIG d   1       8.652  -2.219  -7.924  0.00  0.00     0.234 C 
ATOM      6  O   LIG d   1       8.719  -3.357  -8.336  0.00  0.00    -0.274 OA
ATOM      7  C   LIG d   1       9.890  -1.383  -7.977  0.00  0.00     0.091 C 
ATOM      8  N   LIG d   1       9.682  -0.059  -7.415  0.00  0.00    -0.288 N 
ATOM      9  C   LIG d   1       8.497   0.395  -7.008  0.00  0.00     0.245 C 
ATOM     10  O   LIG d   1       8.440   1.516  -6.552  0.00  0.00    -0.273 OA
ATOM     11  C   LIG d   1       7.234  -0.398  -7.081  0.00  0.00     0.151 C 
ATOM     12  C   LIG d   1       6.522  -0.387  -5.749  0.00  0.00     0.054 A 
ATOM     13  C   LIG d   1       5.999  -1.496  -5.181  0.00  0.00    -0.008 A 
ATOM     14  C   LIG d   1       5.404  -1.086  -3.926  0.00  0.00     0.004 A 
ATOM     15  C   LIG d   1       4.723  -1.789  -2.927  0.00  0.00    -0.052 A 
ATOM     16  C   LIG d   1       4.287  -1.064  -1.845  0.00  0.00    -0.061 A 
ATOM     17  C   LIG d   1       4.505   0.300  -1.738  0.00  0.00    -0.060 A 
ATOM     18  C   LIG d   1       5.173   1.021  -2.713  0.00  0.00    -0.038 A 
ATOM     19  C   LIG d   1       5.626   0.311  -3.822  0.00  0.00     0.047 A 
ATOM     20  N   LIG d   1       6.303   0.698  -4.943  0.00  0.00    -0.356 N 
ATOM     21  H   LIG d   1       6.587   1.605  -5.138  0.00  0.00     0.166 HD
ATOM     22  H   LIG d   1       6.680  -3.731  -7.665  0.00  0.00     0.047 H 
ATOM     23  H   LIG d   1       5.495  -2.408  -7.815  0.00  0.00     0.047 H 
ATOM     24  H   LIG d   1      10.205  -1.282  -9.015  0.00  0.00     0.056 H 
ATOM     25  H   LIG d   1      10.679  -1.886  -7.416  0.00  0.00     0.056 H 
ATOM     26  H   LIG d   1       4.548  -2.852  -3.001  0.00  0.00     0.062 H 
ATOM     27  H   LIG d   1       3.759  -1.573  -1.053  0.00  0.00     0.062 H 
ATOM     28  H   LIG d   1       4.140   0.819  -0.864  0.00  0.00     0.062 H 
ATOM     29  H   LIG d   1       5.336   2.084  -2.617  0.00  0.00     0.064 H 
ENDROOT
BRANCH   1  30
ATOM     30  C   LIG d   1       7.130  -3.680  -5.099  0.00  0.00    -0.038 A 
ATOM     31  C   LIG d   1       7.868  -3.118  -4.075  0.00  0.00    -0.058 A 
ATOM     32  C   LIG d   1       8.858  -3.854  -3.451  0.00  0.00    -0.059 A 
ATOM     33  H   LIG d   1       7.674  -2.102  -3.764  0.00  0.00     0.062 H 
ATOM     34  C   LIG d   1       9.103  -5.156  -3.844  0.00  0.00    -0.050 A 
ATOM     35  H   LIG d   1       9.437  -3.413  -2.653  0.00  0.00     0.062 H 
ATOM     36  C   LIG d   1       8.362  -5.720  -4.866  0.00  0.00    -0.059 A 
ATOM     37  C   LIG d   1       7.375  -4.983  -5.493  0.00  0.00    -0.058 A 
ATOM     38  H   LIG d   1       8.552  -6.738  -5.173  0.00  0.00     0.062 H 
ATOM     39  H   LIG d   1       6.796  -5.423  -6.291  0.00  0.00     0.062 H 
BRANCH  34  40
ATOM     40  C   LIG d   1      10.178  -5.961  -3.161  0.00  0.00    -0.040 C 
ATOM     41  H   LIG d   1      11.121  -5.832  -3.694  0.00  0.00     0.028 H 
ATOM     42  H   LIG d   1      10.292  -5.618  -2.133  0.00  0.00     0.028 H 
ATOM     43  H   LIG d   1       9.901  -7.015  -3.164  0.00  0.00     0.028 H 
ENDBRANCH  34  40
ENDBRANCH   1  30
BRANCH  11  44
ATOM     44  C   LIG d   1       6.318   0.226  -8.137  0.00  0.00    -0.029 C 
ATOM     45  H   LIG d   1       5.383   0.533  -7.669  0.00  0.00     0.026 H 
ATOM     46  H   LIG d   1       6.809   1.096  -8.575  0.00  0.00     0.026 H 
ATOM     47  H   LIG d   1       6.112  -0.506  -8.917  0.00  0.00     0.026 H 
ENDBRANCH  11  44
BRANCH   8  48
ATOM     48  C   LIG d   1      10.841   0.829  -7.289  0.00  0.00     0.039 C 
ATOM     49  H   LIG d   1      10.568   1.701  -6.694  0.00  0.00     0.049 H 
ATOM     50  H   LIG d   1      11.656   0.295  -6.800  0.00  0.00     0.049 H 
BRANCH  48  51
ATOM     51  C   LIG d   1      11.290   1.281  -8.680  0.00  0.00     0.063 C 
ATOM     52  H   LIG d   1      12.373   1.181  -8.763  0.00  0.00     0.058 H 
ATOM     53  H   LIG d   1      10.809   0.660  -9.437  0.00  0.00     0.058 H 
BRANCH  51  54
ATOM     54  O   LIG d   1      10.922   2.647  -8.879  0.00  0.00    -0.381 OA
BRANCH  54  55
ATOM     55  C   LIG d   1       9.739   2.822  -9.661  0.00  0.00     0.036 C 
ATOM     56  H   LIG d   1       8.863   2.723  -9.021  0.00  0.00     0.052 H 
ATOM     57  H   LIG d   1       9.747   3.812 -10.116  0.00  0.00     0.052 H 
ATOM     58  H   LIG d   1       9.706   2.063 -10.443  0.00  0.00     0.052 H 
ENDBRANCH  54  55
ENDBRANCH  51  54
ENDBRANCH  48  51
ENDBRANCH   8  48
TORSDOF 7
ENDMDL
MODEL 9
REMARK VINA RESULT:      -5.9      2.329      5.157
REMARK  7 active torsions:
REMARK  status: ('A' for Active; 'I' for Inactive)
REMARK    1  A    between atoms: C_1  and  C_2 
REMARK    2  A    between atoms: C_5  and  C_8 
REMARK    3  A    between atoms: N_15  and  C_30 
REMARK    4  A    between atoms: C_18  and  C_29 
REMARK    5  A    between atoms: C_30  and  C_31 
REMARK    6  A    between atoms: C_31  and  O_32 
REMARK    7  A    between atoms: O_32  and  C_33 
ROOT
ATOM      1  C   LIG d   1       4.548  -1.464  -6.893  0.00  0.00     0.027 C 
ATOM      2  H   LIG d   1       3.506  -1.174  -7.025  0.00  0.00     0.041 H 
ATOM      3  C   LIG d   1       5.328  -1.187  -8.184  0.00  0.00     0.027 C 
ATOM      4  N   LIG d   1       6.772  -1.241  -7.887  0.00  0.00    -0.280 N 
ATOM      5  C   LIG d   1       7.518  -2.201  -8.442  0.00  0.00     0.234 C 
ATOM      6  O   LIG d   1       7.004  -2.899  -9.290  0.00  0.00    -0.274 OA
ATOM      7  C   LIG d   1       8.943  -2.470  -8.083  0.00  0.00     0.091 C 
ATOM      8  N   LIG d   1       9.419  -1.593  -7.027  0.00  0.00    -0.288 N 
ATOM      9  C   LIG d   1       8.702  -0.589  -6.520  0.00  0.00     0.245 C 
ATOM     10  O   LIG d   1       9.198   0.077  -5.638  0.00  0.00    -0.273 OA
ATOM     11  C   LIG d   1       7.325  -0.239  -6.975  0.00  0.00     0.151 C 
ATOM     12  C   LIG d   1       6.391  -0.116  -5.795  0.00  0.00     0.054 A 
ATOM     13  C   LIG d   1       5.155  -0.664  -5.769  0.00  0.00    -0.008 A 
ATOM     14  C   LIG d   1       4.572  -0.330  -4.486  0.00  0.00     0.004 A 
ATOM     15  C   LIG d   1       3.333  -0.616  -3.905  0.00  0.00    -0.052 A 
ATOM     16  C   LIG d   1       3.113  -0.132  -2.640  0.00  0.00    -0.061 A 
ATOM     17  C   LIG d   1       4.066   0.608  -1.960  0.00  0.00    -0.060 A 
ATOM     18  C   LIG d   1       5.301   0.909  -2.511  0.00  0.00    -0.038 A 
ATOM     19  C   LIG d   1       5.551   0.430  -3.795  0.00  0.00     0.047 A 
ATOM     20  N   LIG d   1       6.635   0.540  -4.618  0.00  0.00    -0.356 N 
ATOM     21  H   LIG d   1       7.454   1.011  -4.401  0.00  0.00     0.166 HD
ATOM     22  H   LIG d   1       5.080  -1.943  -8.929  0.00  0.00     0.047 H 
ATOM     23  H   LIG d   1       5.069  -0.198  -8.562  0.00  0.00     0.047 H 
ATOM     24  H   LIG d   1       9.564  -2.328  -8.968  0.00  0.00     0.056 H 
ATOM     25  H   LIG d   1       9.034  -3.505  -7.751  0.00  0.00     0.056 H 
ATOM     26  H   LIG d   1       2.583  -1.192  -4.428  0.00  0.00     0.062 H 
ATOM     27  H   LIG d   1       2.168  -0.334  -2.158  0.00  0.00     0.062 H 
ATOM     28  H   LIG d   1       3.839   0.964  -0.965  0.00  0.00     0.062 H 
ATOM     29  H   LIG d   1       6.035   1.487  -1.971  0.00  0.00     0.064 H 
ENDROOT
BRANCH   1  30
ATOM     30  C   LIG d   1       4.625  -2.932  -6.563  0.00  0.00    -0.038 A 
ATOM     31  C   LIG d   1       5.282  -3.351  -5.421  0.00  0.00    -0.058 A 
ATOM     32  C   LIG d   1       5.357  -4.698  -5.122  0.00  0.00    -0.059 A 
ATOM     33  H   LIG d   1       5.741  -2.626  -4.766  0.00  0.00     0.062 H 
ATOM     34  C   LIG d   1       4.765  -5.627  -5.958  0.00  0.00    -0.050 A 
ATOM     35  H   LIG d   1       5.875  -5.026  -4.233  0.00  0.00     0.062 H 
ATOM     36  C   LIG d   1       4.104  -5.207  -7.097  0.00  0.00    -0.059 A 
ATOM     37  C   LIG d   1       4.032  -3.860  -7.399  0.00  0.00    -0.058 A 
ATOM     38  H   LIG d   1       3.640  -5.932  -7.750  0.00  0.00     0.062 H 
ATOM     39  H   LIG d   1       3.515  -3.532  -8.289  0.00  0.00     0.062 H 
BRANCH  34  40
ATOM     40  C   LIG d   1       4.842  -7.095  -5.630  0.00  0.00    -0.040 C 
ATOM     41  H   LIG d   1       5.525  -7.244  -4.793  0.00  0.00     0.028 H 
ATOM     42  H   LIG d   1       3.851  -7.460  -5.360  0.00  0.00     0.028 H 
ATOM     43  H   LIG d   1       5.206  -7.644  -6.498  0.00  0.00     0.028 H 
ENDBRANCH  34  40
ENDBRANCH   1  30
BRANCH  11  44
ATOM     44  C   LIG d   1       7.372   1.103  -7.710  0.00  0.00    -0.029 C 
ATOM     45  H   LIG d   1       8.236   1.673  -7.368  0.00  0.00     0.026 H 
ATOM     46  H   LIG d   1       7.454   0.926  -8.783  0.00  0.00     0.026 H 
ATOM     47  H   LIG d   1       6.461   1.663  -7.503  0.00  0.00     0.026 H 
ENDBRANCH  11  44
BRANCH   8  48
ATOM     48  C   LIG d   1      10.762  -1.823  -6.489  0.00  0.00     0.039 C 
ATOM     49  H   LIG d   1      11.505  -1.479  -7.208  0.00  0.00     0.049 H 
ATOM     50  H   LIG d   1      10.878  -1.273  -5.555  0.00  0.00     0.049 H 
BRANCH  48  51
ATOM     51  C   LIG d   1      10.958  -3.318  -6.229  0.00  0.00     0.063 C 
ATOM     52  H   LIG d   1      10.070  -3.863  -6.552  0.00  0.00     0.058 H 
ATOM     53  H   LIG d   1      11.826  -3.673  -6.786  0.00  0.00     0.058 H 
BRANCH  51  54
ATOM     54  O   LIG d   1      11.166  -3.535  -4.832  0.00  0.00    -0.381 OA
BRANCH  54  55
ATOM     55  C   LIG d   1       9.963  -3.554  -4.061  0.00  0.00     0.036 C 
ATOM     56  H   LIG d   1       9.601  -4.578  -3.979  0.00  0.00     0.052 H 
ATOM     57  H   LIG d   1      10.163  -3.158  -3.066  0.00  0.00     0.052 H 
ATOM     58  H   LIG d   1       9.208  -2.940  -4.552  0.00  0.00     0.052 H 
ENDBRANCH  54  55
ENDBRANCH  51  54
ENDBRANCH  48  51
ENDBRANCH   8  48
TORSDOF 7
ENDMDL
MODEL 10
REMARK VINA RESULT:      -5.8      2.275      4.547
REMARK  7 active torsions:
REMARK  status: ('A' for Active; 'I' for Inactive)
REMARK    1  A    between atoms: C_1  and  C_2 
REMARK    2  A    between atoms: C_5  and  C_8 
REMARK    3  A    between atoms: N_15  and  C_30 
REMARK    4  A    between atoms: C_18  and  C_29 
REMARK    5  A    between atoms: C_30  and  C_31 
REMARK    6  A    between atoms: C_31  and  O_32 
REMARK    7  A    between atoms: O_32  and  C_33 
ROOT
ATOM      1  C   LIG d   1       8.483  -1.724  -5.093  0.00  0.00     0.027 C 
ATOM      2  H   LIG d   1       9.454  -1.388  -4.729  0.00  0.00     0.041 H 
ATOM      3  C   LIG d   1       8.281  -1.246  -6.536  0.00  0.00     0.027 C 
ATOM      4  N   LIG d   1       7.154  -1.991  -7.129  0.00  0.00    -0.280 N 
ATOM      5  C   LIG d   1       6.043  -1.332  -7.470  0.00  0.00     0.234 C 
ATOM      6  O   LIG d   1       6.065  -0.120  -7.420  0.00  0.00    -0.274 OA
ATOM      7  C   LIG d   1       4.776  -1.991  -7.909  0.00  0.00     0.091 C 
ATOM      8  N   LIG d   1       4.875  -3.441  -7.883  0.00  0.00    -0.288 N 
ATOM      9  C   LIG d   1       6.000  -4.101  -7.611  0.00  0.00     0.245 C 
ATOM     10  O   LIG d   1       5.966  -5.313  -7.613  0.00  0.00    -0.273 OA
ATOM     11  C   LIG d   1       7.300  -3.436  -7.303  0.00  0.00     0.151 C 
ATOM     12  C   LIG d   1       7.898  -4.001  -6.036  0.00  0.00     0.054 A 
ATOM     13  C   LIG d   1       8.424  -3.229  -5.059  0.00  0.00    -0.008 A 
ATOM     14  C   LIG d   1       8.894  -4.124  -4.021  0.00  0.00     0.004 A 
ATOM     15  C   LIG d   1       9.522  -3.903  -2.792  0.00  0.00    -0.052 A 
ATOM     16  C   LIG d   1       9.833  -5.011  -2.044  0.00  0.00    -0.061 A 
ATOM     17  C   LIG d   1       9.543  -6.295  -2.477  0.00  0.00    -0.060 A 
ATOM     18  C   LIG d   1       8.925  -6.544  -3.691  0.00  0.00    -0.038 A 
ATOM     19  C   LIG d   1       8.598  -5.437  -4.470  0.00  0.00     0.047 A 
ATOM     20  N   LIG d   1       7.999  -5.322  -5.692  0.00  0.00    -0.356 N 
ATOM     21  H   LIG d   1       7.690  -6.065  -6.233  0.00  0.00     0.166 HD
ATOM     22  H   LIG d   1       8.056  -0.180  -6.539  0.00  0.00     0.047 H 
ATOM     23  H   LIG d   1       9.187  -1.433  -7.113  0.00  0.00     0.047 H 
ATOM     24  H   LIG d   1       4.543  -1.671  -8.924  0.00  0.00     0.056 H 
ATOM     25  H   LIG d   1       3.968  -1.679  -7.247  0.00  0.00     0.056 H 
ATOM     26  H   LIG d   1       9.752  -2.905  -2.446  0.00  0.00     0.062 H 
ATOM     27  H   LIG d   1      10.317  -4.879  -1.088  0.00  0.00     0.062 H 
ATOM     28  H   LIG d   1       9.810  -7.130  -1.846  0.00  0.00     0.062 H 
ATOM     29  H   LIG d   1       8.705  -7.549  -4.016  0.00  0.00     0.064 H 
ENDROOT
BRANCH   1  30
ATOM     30  C   LIG d   1       7.394  -1.158  -4.218  0.00  0.00    -0.038 A 
ATOM     31  C   LIG d   1       7.316   0.205  -4.005  0.00  0.00    -0.058 A 
ATOM     32  C   LIG d   1       6.321   0.723  -3.198  0.00  0.00    -0.059 A 
ATOM     33  H   LIG d   1       8.035   0.866  -4.467  0.00  0.00     0.062 H 
ATOM     34  C   LIG d   1       5.397  -0.121  -2.611  0.00  0.00    -0.050 A 
ATOM     35  H   LIG d   1       6.262   1.789  -3.028  0.00  0.00     0.062 H 
ATOM     36  C   LIG d   1       5.472  -1.484  -2.828  0.00  0.00    -0.059 A 
ATOM     37  C   LIG d   1       6.470  -2.003  -3.631  0.00  0.00    -0.058 A 
ATOM     38  H   LIG d   1       4.749  -2.144  -2.370  0.00  0.00     0.062 H 
ATOM     39  H   LIG d   1       6.528  -3.068  -3.801  0.00  0.00     0.062 H 
BRANCH  34  40
ATOM     40  C   LIG d   1       4.309   0.444  -1.736  0.00  0.00    -0.040 C 
ATOM     41  H   LIG d   1       4.396   0.025  -0.733  0.00  0.00     0.028 H 
ATOM     42  H   LIG d   1       4.406   1.528  -1.686  0.00  0.00     0.028 H 
ATOM     43  H   LIG d   1       3.335   0.186  -2.154  0.00  0.00     0.028 H 
ENDBRANCH  34  40
ENDBRANCH   1  30
BRANCH  11  44
ATOM     44  C   LIG d   1       8.270  -3.684  -8.460  0.00  0.00    -0.029 C 
ATOM     45  H   LIG d   1       9.000  -2.876  -8.501  0.00  0.00     0.026 H 
ATOM     46  H   LIG d   1       8.784  -4.633  -8.306  0.00  0.00     0.026 H 
ATOM     47  H   LIG d   1       7.714  -3.720  -9.397  0.00  0.00     0.026 H 
ENDBRANCH  11  44
BRANCH   8  48
ATOM     48  C   LIG d   1       3.669  -4.221  -8.172  0.00  0.00     0.039 C 
ATOM     49  H   LIG d   1       3.922  -5.281  -8.206  0.00  0.00     0.049 H 
ATOM     50  H   LIG d   1       2.928  -4.049  -7.392  0.00  0.00     0.049 H 
BRANCH  48  51
ATOM     51  C   LIG d   1       3.095  -3.791  -9.524  0.00  0.00     0.063 C 
ATOM     52  H   LIG d   1       2.089  -4.195  -9.637  0.00  0.00     0.058 H 
ATOM     53  H   LIG d   1       3.058  -2.702  -9.573  0.00  0.00     0.058 H 
BRANCH  51  54
ATOM     54  O   LIG d   1       3.927  -4.287 -10.574  0.00  0.00    -0.381 OA
BRANCH  54  55
ATOM     55  C   LIG d   1       4.014  -5.713 -10.623  0.00  0.00     0.036 C 
ATOM     56  H   LIG d   1       3.027  -6.143 -10.452  0.00  0.00     0.052 H 
ATOM     57  H   LIG d   1       4.380  -6.021 -11.602  0.00  0.00     0.052 H 
ATOM     58  H   LIG d   1       4.701  -6.061  -9.851  0.00  0.00     0.052 H 
ENDBRANCH  54  55
ENDBRANCH  51  54
ENDBRANCH  48  51
ENDBRANCH   8  48
TORSDOF 7
ENDMDL
