MODEL 1
REMARK VINA RESULT:      -4.3      0.000      0.000
REMARK  4 active torsions:
REMARK  status: ('A' for Active; 'I' for Inactive)
REMARK    1  A    between atoms: C_2  and  N_23 
REMARK    2  A    between atoms: C_4  and  C_9 
REMARK    3  A    between atoms: C_9  and  C_10 
REMARK    4  A    between atoms: C_10  and  N_21 
ROOT
ATOM      1  C   LIG d   1       2.799  -1.024  -2.956  0.00  0.00     0.091 C 
ATOM      2  C   LIG d   1       3.347   0.402  -2.720  0.00  0.00     0.024 C 
ATOM      3  H   LIG d   1       2.826   0.886  -1.895  0.00  0.00     0.089 H 
ATOM      4  C   LIG d   1       4.823   0.126  -2.353  0.00  0.00     0.150 C 
ATOM      5  H   LIG d   1       4.935   0.029  -1.273  0.00  0.00     0.079 H 
ATOM      6  O   LIG d   1       5.135  -1.137  -3.013  0.00  0.00    -0.455 OA
ATOM      7  C   LIG d   1       4.029  -1.894  -3.093  0.00  0.00     0.313 C 
ATOM      8  O   LIG d   1       4.020  -3.092  -3.250  0.00  0.00    -0.251 OA
ATOM      9  H   LIG d   1       2.200  -1.346  -2.104  0.00  0.00     0.043 H 
ATOM     10  H   LIG d   1       2.206  -1.055  -3.870  0.00  0.00     0.043 H 
ENDROOT
BRANCH   4  11
ATOM     11  C   LIG d   1       5.723   1.243  -2.884  0.00  0.00     0.030 C 
ATOM     12  H   LIG d   1       6.100   1.834  -2.049  0.00  0.00     0.035 H 
ATOM     13  H   LIG d   1       5.150   1.886  -3.553  0.00  0.00     0.035 H 
BRANCH  11  14
ATOM     14  C   LIG d   1       6.899   0.631  -3.649  0.00  0.00    -0.032 C 
ATOM     15  H   LIG d   1       7.773   1.273  -3.544  0.00  0.00     0.081 H 
ATOM     16  H   LIG d   1       7.120  -0.357  -3.244  0.00  0.00     0.081 H 
BRANCH  14  17
ATOM     17  N   LIG d   1       6.546   0.535  -5.076  0.00  0.00     0.219 N 
ATOM     18  H   LIG d   1       7.192  -0.090  -5.554  0.00  0.00     0.199 HD
ATOM     19  H   LIG d   1       5.596   0.183  -5.177  0.00  0.00     0.199 HD
ATOM     20  H   LIG d   1       6.604   1.467  -5.502  0.00  0.00     0.199 HD
ENDBRANCH  14  17
ENDBRANCH  11  14
ENDBRANCH   4  11
BRANCH   2  21
ATOM     21  N   LIG d   1       3.264   1.196  -3.958  0.00  0.00     0.224 N 
ATOM     22  H   LIG d   1       3.903   1.988  -3.908  0.00  0.00     0.200 HD
ATOM     23  H   LIG d   1       3.502   0.617  -4.762  0.00  0.00     0.200 HD
ATOM     24  H   LIG d   1       2.306   1.547  -4.071  0.00  0.00     0.200 HD
ENDBRANCH   2  21
TORSDOF 4
ENDMDL
MODEL 2
REMARK VINA RESULT:      -4.2      2.243      3.310
REMARK  4 active torsions:
REMARK  status: ('A' for Active; 'I' for Inactive)
REMARK    1  A    between atoms: C_2  and  N_23 
REMARK    2  A    between atoms: C_4  and  C_9 
REMARK    3  A    between atoms: C_9  and  C_10 
REMARK    4  A    between atoms: C_10  and  N_21 
ROOT
ATOM      1  C   LIG d   1       4.484  -0.596  -2.006  0.00  0.00     0.091 C 
ATOM      2  C   LIG d   1       3.213  -1.053  -2.758  0.00  0.00     0.024 C 
ATOM      3  H   LIG d   1       2.445  -1.380  -2.058  0.00  0.00     0.089 H 
ATOM      4  C   LIG d   1       2.781   0.243  -3.481  0.00  0.00     0.150 C 
ATOM      5  H   LIG d   1       2.077   0.806  -2.868  0.00  0.00     0.079 H 
ATOM      6  O   LIG d   1       4.018   0.996  -3.655  0.00  0.00    -0.455 OA
ATOM      7  C   LIG d   1       4.865   0.718  -2.651  0.00  0.00     0.313 C 
ATOM      8  O   LIG d   1       5.792   1.415  -2.314  0.00  0.00    -0.251 OA
ATOM      9  H   LIG d   1       4.267  -0.451  -0.948  0.00  0.00     0.043 H 
ATOM     10  H   LIG d   1       5.282  -1.329  -2.132  0.00  0.00     0.043 H 
ENDROOT
BRANCH   4  11
ATOM     11  C   LIG d   1       2.160  -0.085  -4.840  0.00  0.00     0.030 C 
ATOM     12  H   LIG d   1       1.087   0.100  -4.804  0.00  0.00     0.035 H 
ATOM     13  H   LIG d   1       2.339  -1.134  -5.078  0.00  0.00     0.035 H 
BRANCH  11  14
ATOM     14  C   LIG d   1       2.794   0.798  -5.918  0.00  0.00    -0.032 C 
ATOM     15  H   LIG d   1       2.087   0.934  -6.736  0.00  0.00     0.081 H 
ATOM     16  H   LIG d   1       3.048   1.768  -5.490  0.00  0.00     0.081 H 
BRANCH  14  17
ATOM     17  N   LIG d   1       4.002   0.131  -6.435  0.00  0.00     0.219 N 
ATOM     18  H   LIG d   1       3.824  -0.863  -6.563  0.00  0.00     0.199 HD
ATOM     19  H   LIG d   1       4.274   0.544  -7.325  0.00  0.00     0.199 HD
ATOM     20  H   LIG d   1       4.768   0.251  -5.762  0.00  0.00     0.199 HD
ENDBRANCH  14  17
ENDBRANCH  11  14
ENDBRANCH   4  11
BRANCH   2  21
ATOM     21  N   LIG d   1       3.543  -2.103  -3.737  0.00  0.00     0.224 N 
ATOM     22  H   LIG d   1       3.714  -2.985  -3.258  0.00  0.00     0.200 HD
ATOM     23  H   LIG d   1       2.776  -2.218  -4.398  0.00  0.00     0.200 HD
ATOM     24  H   LIG d   1       4.389  -1.831  -4.251  0.00  0.00     0.200 HD
ENDBRANCH   2  21
TORSDOF 4
ENDMDL
MODEL 3
REMARK VINA RESULT:      -4.1      2.450      3.305
REMARK  4 active torsions:
REMARK  status: ('A' for Active; 'I' for Inactive)
REMARK    1  A    between atoms: C_2  and  N_23 
REMARK    2  A    between atoms: C_4  and  C_9 
REMARK    3  A    between atoms: C_9  and  C_10 
REMARK    4  A    between atoms: C_10  and  N_21 
ROOT
ATOM      1  C   LIG d   1       3.205   1.409  -3.378  0.00  0.00     0.091 C 
ATOM      2  C   LIG d   1       3.481   0.344  -2.292  0.00  0.00     0.024 C 
ATOM      3  H   LIG d   1       2.863   0.518  -1.412  0.00  0.00     0.089 H 
ATOM      4  C   LIG d   1       3.065  -0.962  -3.007  0.00  0.00     0.150 C 
ATOM      5  H   LIG d   1       2.019  -1.192  -2.803  0.00  0.00     0.079 H 
ATOM      6  O   LIG d   1       3.257  -0.682  -4.425  0.00  0.00    -0.455 OA
ATOM      7  C   LIG d   1       3.056   0.624  -4.662  0.00  0.00     0.313 C 
ATOM      8  O   LIG d   1       2.793   1.100  -5.741  0.00  0.00    -0.251 OA
ATOM      9  H   LIG d   1       2.286   1.950  -3.154  0.00  0.00     0.043 H 
ATOM     10  H   LIG d   1       4.045   2.102  -3.449  0.00  0.00     0.043 H 
ENDROOT
BRANCH   4  11
ATOM     11  C   LIG d   1       3.960  -2.122  -2.565  0.00  0.00     0.030 C 
ATOM     12  H   LIG d   1       3.340  -2.975  -2.289  0.00  0.00     0.035 H 
ATOM     13  H   LIG d   1       4.556  -1.814  -1.706  0.00  0.00     0.035 H 
BRANCH  11  14
ATOM     14  C   LIG d   1       4.889  -2.516  -3.715  0.00  0.00    -0.032 C 
ATOM     15  H   LIG d   1       5.205  -1.621  -4.249  0.00  0.00     0.081 H 
ATOM     16  H   LIG d   1       5.763  -3.031  -3.316  0.00  0.00     0.081 H 
BRANCH  14  17
ATOM     17  N   LIG d   1       4.156  -3.393  -4.645  0.00  0.00     0.219 N 
ATOM     18  H   LIG d   1       3.928  -4.274  -4.187  0.00  0.00     0.199 HD
ATOM     19  H   LIG d   1       3.298  -2.938  -4.951  0.00  0.00     0.199 HD
ATOM     20  H   LIG d   1       4.743  -3.584  -5.464  0.00  0.00     0.199 HD
ENDBRANCH  14  17
ENDBRANCH  11  14
ENDBRANCH   4  11
BRANCH   2  21
ATOM     21  N   LIG d   1       4.914   0.311  -1.955  0.00  0.00     0.224 N 
ATOM     22  H   LIG d   1       5.459   0.743  -2.699  0.00  0.00     0.200 HD
ATOM     23  H   LIG d   1       5.079   0.808  -1.081  0.00  0.00     0.200 HD
ATOM     24  H   LIG d   1       5.212  -0.666  -1.845  0.00  0.00     0.200 HD
ENDBRANCH   2  21
TORSDOF 4
ENDMDL
MODEL 4
REMARK VINA RESULT:      -4.0      1.878      3.822
REMARK  4 active torsions:
REMARK  status: ('A' for Active; 'I' for Inactive)
REMARK    1  A    between atoms: C_2  and  N_23 
REMARK    2  A    between atoms: C_4  and  C_9 
REMARK    3  A    between atoms: C_9  and  C_10 
REMARK    4  A    between atoms: C_10  and  N_21 
ROOT
ATOM      1  C   LIG d   1       6.999  -0.662  -3.596  0.00  0.00     0.091 C 
ATOM      2  C   LIG d   1       6.072  -1.847  -3.244  0.00  0.00     0.024 C 
ATOM      3  H   LIG d   1       6.605  -2.597  -2.660  0.00  0.00     0.089 H 
ATOM      4  C   LIG d   1       4.979  -1.162  -2.391  0.00  0.00     0.150 C 
ATOM      5  H   LIG d   1       5.240  -1.202  -1.334  0.00  0.00     0.079 H 
ATOM      6  O   LIG d   1       4.961   0.219  -2.859  0.00  0.00    -0.455 OA
ATOM      7  C   LIG d   1       6.186   0.574  -3.278  0.00  0.00     0.313 C 
ATOM      8  O   LIG d   1       6.580   1.711  -3.384  0.00  0.00    -0.251 OA
ATOM      9  H   LIG d   1       7.900  -0.691  -2.984  0.00  0.00     0.043 H 
ATOM     10  H   LIG d   1       7.258  -0.686  -4.655  0.00  0.00     0.043 H 
ENDROOT
BRANCH   4  11
ATOM     11  C   LIG d   1       3.621  -1.825  -2.630  0.00  0.00     0.030 C 
ATOM     12  H   LIG d   1       3.311  -2.353  -1.728  0.00  0.00     0.035 H 
ATOM     13  H   LIG d   1       3.702  -2.533  -3.456  0.00  0.00     0.035 H 
BRANCH  11  14
ATOM     14  C   LIG d   1       2.584  -0.755  -2.977  0.00  0.00    -0.032 C 
ATOM     15  H   LIG d   1       1.608  -1.062  -2.603  0.00  0.00     0.081 H 
ATOM     16  H   LIG d   1       2.871   0.191  -2.516  0.00  0.00     0.081 H 
BRANCH  14  17
ATOM     17  N   LIG d   1       2.513  -0.612  -4.441  0.00  0.00     0.219 N 
ATOM     18  H   LIG d   1       2.014  -1.403  -4.845  0.00  0.00     0.199 HD
ATOM     19  H   LIG d   1       2.032   0.252  -4.685  0.00  0.00     0.199 HD
ATOM     20  H   LIG d   1       3.464  -0.585  -4.825  0.00  0.00     0.199 HD
ENDBRANCH  14  17
ENDBRANCH  11  14
ENDBRANCH   4  11
BRANCH   2  21
ATOM     21  N   LIG d   1       5.485  -2.423  -4.466  0.00  0.00     0.224 N 
ATOM     22  H   LIG d   1       6.040  -2.157  -5.278  0.00  0.00     0.200 HD
ATOM     23  H   LIG d   1       5.452  -3.438  -4.394  0.00  0.00     0.200 HD
ATOM     24  H   LIG d   1       4.529  -2.065  -4.582  0.00  0.00     0.200 HD
ENDBRANCH   2  21
TORSDOF 4
ENDMDL
MODEL 5
REMARK VINA RESULT:      -4.0      2.268      2.806
REMARK  4 active torsions:
REMARK  status: ('A' for Active; 'I' for Inactive)
REMARK    1  A    between atoms: C_2  and  N_23 
REMARK    2  A    between atoms: C_4  and  C_9 
REMARK    3  A    between atoms: C_9  and  C_10 
REMARK    4  A    between atoms: C_10  and  N_21 
ROOT
ATOM      1  C   LIG d   1       2.639  -0.575  -3.155  0.00  0.00     0.091 C 
ATOM      2  C   LIG d   1       3.591  -1.756  -2.861  0.00  0.00     0.024 C 
ATOM      3  H   LIG d   1       3.031  -2.680  -2.721  0.00  0.00     0.089 H 
ATOM      4  C   LIG d   1       4.441  -1.818  -4.150  0.00  0.00     0.150 C 
ATOM      5  H   LIG d   1       3.995  -2.506  -4.868  0.00  0.00     0.079 H 
ATOM      6  O   LIG d   1       4.417  -0.455  -4.671  0.00  0.00    -0.455 OA
ATOM      7  C   LIG d   1       3.262   0.141  -4.334  0.00  0.00     0.313 C 
ATOM      8  O   LIG d   1       2.792   1.105  -4.890  0.00  0.00    -0.251 OA
ATOM      9  H   LIG d   1       1.647  -0.943  -3.416  0.00  0.00     0.043 H 
ATOM     10  H   LIG d   1       2.582   0.090  -2.292  0.00  0.00     0.043 H 
ENDROOT
BRANCH   4  11
ATOM     11  C   LIG d   1       5.875  -2.241  -3.826  0.00  0.00     0.030 C 
ATOM     12  H   LIG d   1       6.055  -3.242  -4.217  0.00  0.00     0.035 H 
ATOM     13  H   LIG d   1       6.018  -2.242  -2.745  0.00  0.00     0.035 H 
BRANCH  11  14
ATOM     14  C   LIG d   1       6.855  -1.258  -4.470  0.00  0.00    -0.032 C 
ATOM     15  H   LIG d   1       7.710  -1.805  -4.865  0.00  0.00     0.081 H 
ATOM     16  H   LIG d   1       6.356  -0.726  -5.280  0.00  0.00     0.081 H 
BRANCH  14  17
ATOM     17  N   LIG d   1       7.326  -0.310  -3.445  0.00  0.00     0.219 N 
ATOM     18  H   LIG d   1       8.286  -0.031  -3.643  0.00  0.00     0.199 HD
ATOM     19  H   LIG d   1       6.729   0.515  -3.432  0.00  0.00     0.199 HD
ATOM     20  H   LIG d   1       7.291  -0.762  -2.525  0.00  0.00     0.199 HD
ENDBRANCH  14  17
ENDBRANCH  11  14
ENDBRANCH   4  11
BRANCH   2  21
ATOM     21  N   LIG d   1       4.443  -1.453  -1.698  0.00  0.00     0.224 N 
ATOM     22  H   LIG d   1       4.175  -2.037  -0.907  0.00  0.00     0.200 HD
ATOM     23  H   LIG d   1       5.421  -1.619  -1.928  0.00  0.00     0.200 HD
ATOM     24  H   LIG d   1       4.324  -0.466  -1.440  0.00  0.00     0.200 HD
ENDBRANCH   2  21
TORSDOF 4
ENDMDL
MODEL 6
REMARK VINA RESULT:      -3.9      2.132      2.776
REMARK  4 active torsions:
REMARK  status: ('A' for Active; 'I' for Inactive)
REMARK    1  A    between atoms: C_2  and  N_23 
REMARK    2  A    between atoms: C_4  and  C_9 
REMARK    3  A    between atoms: C_9  and  C_10 
REMARK    4  A    between atoms: C_10  and  N_21 
ROOT
ATOM      1  C   LIG d   1       3.378   0.401  -2.863  0.00  0.00     0.091 C 
ATOM      2  C   LIG d   1       3.729  -0.543  -4.035  0.00  0.00     0.024 C 
ATOM      3  H   LIG d   1       3.312  -0.172  -4.971  0.00  0.00     0.089 H 
ATOM      4  C   LIG d   1       5.273  -0.474  -4.057  0.00  0.00     0.150 C 
ATOM      5  H   LIG d   1       5.610   0.308  -4.738  0.00  0.00     0.079 H 
ATOM      6  O   LIG d   1       5.645  -0.149  -2.684  0.00  0.00    -0.455 OA
ATOM      7  C   LIG d   1       4.679   0.588  -2.114  0.00  0.00     0.313 C 
ATOM      8  O   LIG d   1       4.829   1.296  -1.146  0.00  0.00    -0.251 OA
ATOM      9  H   LIG d   1       3.018   1.357  -3.241  0.00  0.00     0.043 H 
ATOM     10  H   LIG d   1       2.629  -0.059  -2.218  0.00  0.00     0.043 H 
ENDROOT
BRANCH   4  11
ATOM     11  C   LIG d   1       5.863  -1.825  -4.465  0.00  0.00     0.030 C 
ATOM     12  H   LIG d   1       6.090  -1.816  -5.531  0.00  0.00     0.035 H 
ATOM     13  H   LIG d   1       5.142  -2.615  -4.254  0.00  0.00     0.035 H 
BRANCH  11  14
ATOM     14  C   LIG d   1       7.147  -2.082  -3.672  0.00  0.00    -0.032 C 
ATOM     15  H   LIG d   1       6.929  -2.035  -2.605  0.00  0.00     0.081 H 
ATOM     16  H   LIG d   1       7.536  -3.070  -3.922  0.00  0.00     0.081 H 
BRANCH  14  17
ATOM     17  N   LIG d   1       8.134  -1.041  -4.006  0.00  0.00     0.219 N 
ATOM     18  H   LIG d   1       8.531  -1.219  -4.927  0.00  0.00     0.199 HD
ATOM     19  H   LIG d   1       7.690  -0.124  -4.000  0.00  0.00     0.199 HD
ATOM     20  H   LIG d   1       8.886  -1.052  -3.308  0.00  0.00     0.199 HD
ENDBRANCH  14  17
ENDBRANCH  11  14
ENDBRANCH   4  11
BRANCH   2  21
ATOM     21  N   LIG d   1       3.280  -1.915  -3.744  0.00  0.00     0.224 N 
ATOM     22  H   LIG d   1       3.664  -2.227  -2.853  0.00  0.00     0.200 HD
ATOM     23  H   LIG d   1       2.262  -1.950  -3.706  0.00  0.00     0.200 HD
ATOM     24  H   LIG d   1       3.608  -2.543  -4.487  0.00  0.00     0.200 HD
ENDBRANCH   2  21
TORSDOF 4
ENDMDL
MODEL 7
REMARK VINA RESULT:      -3.8      2.098      2.179
REMARK  4 active torsions:
REMARK  status: ('A' for Active; 'I' for Inactive)
REMARK    1  A    between atoms: C_2  and  N_23 
REMARK    2  A    between atoms: C_4  and  C_9 
REMARK    3  A    between atoms: C_9  and  C_10 
REMARK    4  A    between atoms: C_10  and  N_21 
ROOT
ATOM      1  C   LIG d   1       2.632   0.367  -4.833  0.00  0.00     0.091 C 
ATOM      2  C   LIG d   1       3.331   0.704  -3.496  0.00  0.00     0.024 C 
ATOM      3  H   LIG d   1       2.773   0.299  -2.653  0.00  0.00     0.089 H 
ATOM      4  C   LIG d   1       4.691  -0.015  -3.651  0.00  0.00     0.150 C 
ATOM      5  H   LIG d   1       4.639  -1.022  -3.237  0.00  0.00     0.079 H 
ATOM      6  O   LIG d   1       4.917  -0.068  -5.091  0.00  0.00    -0.455 OA
ATOM      7  C   LIG d   1       3.740  -0.135  -5.734  0.00  0.00     0.313 C 
ATOM      8  O   LIG d   1       3.589  -0.537  -6.863  0.00  0.00    -0.251 OA
ATOM      9  H   LIG d   1       1.883  -0.411  -4.684  0.00  0.00     0.043 H 
ATOM     10  H   LIG d   1       2.173   1.261  -5.256  0.00  0.00     0.043 H 
ENDROOT
BRANCH   4  11
ATOM     11  C   LIG d   1       5.800   0.786  -2.965  0.00  0.00     0.030 C 
ATOM     12  H   LIG d   1       5.949   0.408  -1.954  0.00  0.00     0.035 H 
ATOM     13  H   LIG d   1       5.515   1.837  -2.921  0.00  0.00     0.035 H 
BRANCH  11  14
ATOM     14  C   LIG d   1       7.099   0.643  -3.761  0.00  0.00    -0.032 C 
ATOM     15  H   LIG d   1       7.937   0.545  -3.072  0.00  0.00     0.081 H 
ATOM     16  H   LIG d   1       7.042  -0.242  -4.395  0.00  0.00     0.081 H 
BRANCH  14  17
ATOM     17  N   LIG d   1       7.295   1.851  -4.581  0.00  0.00     0.219 N 
ATOM     18  H   LIG d   1       7.959   1.662  -5.329  0.00  0.00     0.199 HD
ATOM     19  H   LIG d   1       6.407   2.148  -4.983  0.00  0.00     0.199 HD
ATOM     20  H   LIG d   1       7.662   2.606  -3.990  0.00  0.00     0.199 HD
ENDBRANCH  14  17
ENDBRANCH  11  14
ENDBRANCH   4  11
BRANCH   2  21
ATOM     21  N   LIG d   1       3.530   2.158  -3.371  0.00  0.00     0.224 N 
ATOM     22  H   LIG d   1       2.770   2.569  -2.831  0.00  0.00     0.200 HD
ATOM     23  H   LIG d   1       4.418   2.352  -2.912  0.00  0.00     0.200 HD
ATOM     24  H   LIG d   1       3.540   2.579  -4.308  0.00  0.00     0.200 HD
ENDBRANCH   2  21
TORSDOF 4
ENDMDL
MODEL 8
REMARK VINA RESULT:      -3.8      2.490      2.966
REMARK  4 active torsions:
REMARK  status: ('A' for Active; 'I' for Inactive)
REMARK    1  A    between atoms: C_2  and  N_23 
REMARK    2  A    between atoms: C_4  and  C_9 
REMARK    3  A    between atoms: C_9  and  C_10 
REMARK    4  A    between atoms: C_10  and  N_21 
ROOT
ATOM      1  C   LIG d   1       3.000   0.002  -6.204  0.00  0.00     0.091 C 
ATOM      2  C   LIG d   1       2.456   0.617  -4.894  0.00  0.00     0.024 C 
ATOM      3  H   LIG d   1       1.493   0.182  -4.631  0.00  0.00     0.089 H 
ATOM      4  C   LIG d   1       3.541   0.211  -3.870  0.00  0.00     0.150 C 
ATOM      5  H   LIG d   1       3.283  -0.736  -3.397  0.00  0.00     0.079 H 
ATOM      6  O   LIG d   1       4.758   0.070  -4.662  0.00  0.00    -0.455 OA
ATOM      7  C   LIG d   1       4.448  -0.323  -5.908  0.00  0.00     0.313 C 
ATOM      8  O   LIG d   1       5.211  -0.858  -6.676  0.00  0.00    -0.251 OA
ATOM      9  H   LIG d   1       2.450  -0.905  -6.454  0.00  0.00     0.043 H 
ATOM     10  H   LIG d   1       2.930   0.725  -7.018  0.00  0.00     0.043 H 
ENDROOT
BRANCH   4  11
ATOM     11  C   LIG d   1       3.715   1.304  -2.814  0.00  0.00     0.030 C 
ATOM     12  H   LIG d   1       2.737   1.607  -2.440  0.00  0.00     0.035 H 
ATOM     13  H   LIG d   1       4.215   2.164  -3.260  0.00  0.00     0.035 H 
BRANCH  11  14
ATOM     14  C   LIG d   1       4.560   0.766  -1.657  0.00  0.00    -0.032 C 
ATOM     15  H   LIG d   1       5.600   1.059  -1.801  0.00  0.00     0.081 H 
ATOM     16  H   LIG d   1       4.192   1.178  -0.717  0.00  0.00     0.081 H 
BRANCH  14  17
ATOM     17  N   LIG d   1       4.474  -0.704  -1.643  0.00  0.00     0.219 N 
ATOM     18  H   LIG d   1       3.525  -0.996  -1.417  0.00  0.00     0.199 HD
ATOM     19  H   LIG d   1       4.735  -1.078  -2.554  0.00  0.00     0.199 HD
ATOM     20  H   LIG d   1       5.117  -1.074  -0.933  0.00  0.00     0.199 HD
ENDBRANCH  14  17
ENDBRANCH  11  14
ENDBRANCH   4  11
BRANCH   2  21
ATOM     21  N   LIG d   1       2.379   2.084  -5.007  0.00  0.00     0.224 N 
ATOM     22  H   LIG d   1       2.608   2.516  -4.113  0.00  0.00     0.200 HD
ATOM     23  H   LIG d   1       3.027   2.415  -5.720  0.00  0.00     0.200 HD
ATOM     24  H   LIG d   1       1.424   2.352  -5.273  0.00  0.00     0.200 HD
ENDBRANCH   2  21
TORSDOF 4
ENDMDL
MODEL 9
REMARK VINA RESULT:      -3.7      2.163      3.945
REMARK  4 active torsions:
REMARK  status: ('A' for Active; 'I' for Inactive)
REMARK    1  A    between atoms: C_2  and  N_23 
REMARK    2  A    between atoms: C_4  and  C_9 
REMARK    3  A    between atoms: C_9  and  C_10 
REMARK    4  A    between atoms: C_10  and  N_21 
ROOT
ATOM      1  C   LIG d   1       7.439   0.436  -4.778  0.00  0.00     0.091 C 
ATOM      2  C   LIG d   1       6.208  -0.460  -4.511  0.00  0.00     0.024 C 
ATOM      3  H   LIG d   1       6.474  -1.514  -4.572  0.00  0.00     0.089 H 
ATOM      4  C   LIG d   1       5.831  -0.071  -3.064  0.00  0.00     0.150 C 
ATOM      5  H   LIG d   1       6.323  -0.733  -2.351  0.00  0.00     0.079 H 
ATOM      6  O   LIG d   1       6.321   1.295  -2.911  0.00  0.00    -0.455 OA
ATOM      7  C   LIG d   1       7.405   1.478  -3.682  0.00  0.00     0.313 C 
ATOM      8  O   LIG d   1       8.231   2.345  -3.522  0.00  0.00    -0.251 OA
ATOM      9  H   LIG d   1       8.355  -0.151  -4.716  0.00  0.00     0.043 H 
ATOM     10  H   LIG d   1       7.357   0.909  -5.757  0.00  0.00     0.043 H 
ENDROOT
BRANCH   4  11
ATOM     11  C   LIG d   1       4.314  -0.118  -2.875  0.00  0.00     0.030 C 
ATOM     12  H   LIG d   1       4.057  -0.936  -2.202  0.00  0.00     0.035 H 
ATOM     13  H   LIG d   1       3.832  -0.277  -3.840  0.00  0.00     0.035 H 
BRANCH  11  14
ATOM     14  C   LIG d   1       3.832   1.206  -2.277  0.00  0.00    -0.032 C 
ATOM     15  H   LIG d   1       2.903   1.041  -1.733  0.00  0.00     0.081 H 
ATOM     16  H   LIG d   1       4.590   1.594  -1.596  0.00  0.00     0.081 H 
BRANCH  14  17
ATOM     17  N   LIG d   1       3.583   2.163  -3.369  0.00  0.00     0.219 N 
ATOM     18  H   LIG d   1       3.883   3.096  -3.091  0.00  0.00     0.199 HD
ATOM     19  H   LIG d   1       4.091   1.879  -4.205  0.00  0.00     0.199 HD
ATOM     20  H   LIG d   1       2.579   2.183  -3.579  0.00  0.00     0.199 HD
ENDBRANCH  14  17
ENDBRANCH  11  14
ENDBRANCH   4  11
BRANCH   2  21
ATOM     21  N   LIG d   1       5.113  -0.119  -5.437  0.00  0.00     0.224 N 
ATOM     22  H   LIG d   1       5.355  -0.405  -6.384  0.00  0.00     0.200 HD
ATOM     23  H   LIG d   1       4.255  -0.586  -5.149  0.00  0.00     0.200 HD
ATOM     24  H   LIG d   1       4.962   0.896  -5.421  0.00  0.00     0.200 HD
ENDBRANCH   2  21
TORSDOF 4
ENDMDL
