MODEL 1
REMARK VINA RESULT:      -7.3      0.000      0.000
REMARK  7 active torsions:
REMARK  status: ('A' for Active; 'I' for Inactive)
REMARK    1  A    between atoms: C_1  and  C_2 
REMARK    2  A    between atoms: C_2  and  C_3 
REMARK    3  A    between atoms: C_8  and  C_9 
REMARK    4  A    between atoms: C_8  and  C_10 
REMARK    5  A    between atoms: N_14  and  C_15 
REMARK    6  A    between atoms: C_15  and  C_16 
REMARK    7  A    between atoms: C_15  and  C_22 
ROOT
ATOM      1  C   LIG d   1       4.574  -1.419  -6.048  0.00  0.00     0.036 C 
ATOM      2  N   LIG d   1       3.613  -1.563  -7.002  0.00  0.00    -0.276 NA
ENDROOT
BRANCH   2   3
ATOM      3  C   LIG d   1       3.973  -1.495  -8.421  0.00  0.00     0.101 C 
ATOM      4  H   LIG d   1       5.030  -1.783  -8.517  0.00  0.00     0.064 H 
BRANCH   3   5
ATOM      5  C   LIG d   1       3.101  -2.441  -9.207  0.00  0.00    -0.019 A 
ATOM      6  C   LIG d   1       3.455  -3.772  -9.323  0.00  0.00    -0.056 A 
ATOM      7  C   LIG d   1       2.656  -4.639 -10.042  0.00  0.00    -0.061 A 
ATOM      8  H   LIG d   1       4.356  -4.134  -8.851  0.00  0.00     0.062 H 
ATOM      9  C   LIG d   1       1.502  -4.175 -10.648  0.00  0.00    -0.062 A 
ATOM     10  H   LIG d   1       2.932  -5.679 -10.133  0.00  0.00     0.062 H 
ATOM     11  C   LIG d   1       1.149  -2.844 -10.532  0.00  0.00    -0.061 A 
ATOM     12  H   LIG d   1       0.878  -4.852 -11.212  0.00  0.00     0.062 H 
ATOM     13  C   LIG d   1       1.946  -1.978  -9.807  0.00  0.00    -0.056 A 
ATOM     14  H   LIG d   1       0.248  -2.481 -11.005  0.00  0.00     0.062 H 
ATOM     15  H   LIG d   1       1.666  -0.938  -9.712  0.00  0.00     0.062 H 
ENDBRANCH   3   5
BRANCH   3  16
ATOM     16  C   LIG d   1       3.769  -0.089  -8.924  0.00  0.00    -0.019 A 
ATOM     17  C   LIG d   1       3.091   0.832  -8.147  0.00  0.00    -0.056 A 
ATOM     18  C   LIG d   1       2.903   2.122  -8.608  0.00  0.00    -0.061 A 
ATOM     19  H   LIG d   1       2.707   0.543  -7.180  0.00  0.00     0.062 H 
ATOM     20  C   LIG d   1       3.394   2.491  -9.847  0.00  0.00    -0.062 A 
ATOM     21  H   LIG d   1       2.374   2.840  -8.001  0.00  0.00     0.062 H 
ATOM     22  C   LIG d   1       4.072   1.570 -10.624  0.00  0.00    -0.061 A 
ATOM     23  H   LIG d   1       3.247   3.497 -10.207  0.00  0.00     0.062 H 
ATOM     24  C   LIG d   1       4.264   0.282 -10.160  0.00  0.00    -0.056 A 
ATOM     25  H   LIG d   1       4.454   1.859 -11.592  0.00  0.00     0.062 H 
ATOM     26  H   LIG d   1       4.797  -0.436 -10.766  0.00  0.00     0.062 H 
ENDBRANCH   3  16
ENDBRANCH   2   3
BRANCH   1  27
ATOM     27  C   LIG d   1       6.009  -1.190  -6.451  0.00  0.00    -0.022 C 
ATOM     28  H   LIG d   1       6.630  -2.020  -6.081  0.00  0.00     0.029 H 
ATOM     29  H   LIG d   1       6.364  -0.244  -6.019  0.00  0.00     0.029 H 
ATOM     30  H   LIG d   1       6.077  -1.142  -7.548  0.00  0.00     0.029 H 
ENDBRANCH   1  27
BRANCH   1  31
ATOM     31  C   LIG d   1       4.242  -1.483  -4.735  0.00  0.00    -0.035 A 
ATOM     32  C   LIG d   1       4.533  -2.555  -3.891  0.00  0.00    -0.127 A 
ATOM     33  C   LIG d   1       4.015  -2.282  -2.504  0.00  0.00    -0.038 A 
ATOM     34  O   LIG d   1       5.121  -3.564  -4.226  0.00  0.00    -0.876 OA
ATOM     35  C   LIG d   1       3.349  -0.899  -2.536  0.00  0.00    -0.025 A 
ATOM     36  H   LIG d   1       4.840  -2.275  -1.775  0.00  0.00     0.030 H 
ATOM     37  H   LIG d   1       3.273  -3.040  -2.210  0.00  0.00     0.030 H 
ATOM     38  C   LIG d   1       3.505  -0.408  -3.982  0.00  0.00    -0.006 A 
ATOM     39  H   LIG d   1       2.588  -1.054  -1.756  0.00  0.00     0.032 H 
ATOM     40  C   LIG d   1       4.222   0.337  -2.855  0.00  0.00    -0.024 A 
ATOM     41  H   LIG d   1       2.905  -0.029  -4.823  0.00  0.00     0.036 H 
BRANCH  40  42
ATOM     42  C   LIG d   1       5.739   0.171  -2.753  0.00  0.00    -0.059 C 
ATOM     43  H   LIG d   1       6.235   0.983  -3.306  0.00  0.00     0.024 H 
ATOM     44  H   LIG d   1       6.032  -0.798  -3.185  0.00  0.00     0.024 H 
ATOM     45  H   LIG d   1       6.043   0.208  -1.697  0.00  0.00     0.024 H 
ENDBRANCH  40  42
BRANCH  40  46
ATOM     46  C   LIG d   1       3.681   1.714  -2.462  0.00  0.00    -0.059 C 
ATOM     47  H   LIG d   1       4.116   2.480  -3.119  0.00  0.00     0.024 H 
ATOM     48  H   LIG d   1       3.951   1.930  -1.418  0.00  0.00     0.024 H 
ATOM     49  H   LIG d   1       2.585   1.720  -2.566  0.00  0.00     0.024 H 
ENDBRANCH  40  46
ENDBRANCH   1  31
TORSDOF 7
ENDMDL
MODEL 2
REMARK VINA RESULT:      -6.9      2.305      7.184
REMARK  7 active torsions:
REMARK  status: ('A' for Active; 'I' for Inactive)
REMARK    1  A    between atoms: C_1  and  C_2 
REMARK    2  A    between atoms: C_2  and  C_3 
REMARK    3  A    between atoms: C_8  and  C_9 
REMARK    4  A    between atoms: C_8  and  C_10 
REMARK    5  A    between atoms: N_14  and  C_15 
REMARK    6  A    between atoms: C_15  and  C_16 
REMARK    7  A    between atoms: C_15  and  C_22 
ROOT
ATOM      1  C   LIG d   1       5.074  -0.520  -7.454  0.00  0.00     0.036 C 
ATOM      2  N   LIG d   1       5.049  -1.314  -6.348  0.00  0.00    -0.276 NA
ENDROOT
BRANCH   2   3
ATOM      3  C   LIG d   1       6.120  -1.220  -5.354  0.00  0.00     0.101 C 
ATOM      4  H   LIG d   1       6.867  -0.504  -5.726  0.00  0.00     0.064 H 
BRANCH   3   5
ATOM      5  C   LIG d   1       5.549  -0.741  -4.043  0.00  0.00    -0.019 A 
ATOM      6  C   LIG d   1       4.770  -1.589  -3.278  0.00  0.00    -0.056 A 
ATOM      7  C   LIG d   1       4.247  -1.151  -2.076  0.00  0.00    -0.061 A 
ATOM      8  H   LIG d   1       4.570  -2.593  -3.620  0.00  0.00     0.062 H 
ATOM      9  C   LIG d   1       4.503   0.137  -1.640  0.00  0.00    -0.062 A 
ATOM     10  H   LIG d   1       3.639  -1.812  -1.478  0.00  0.00     0.062 H 
ATOM     11  C   LIG d   1       5.282   0.984  -2.405  0.00  0.00    -0.061 A 
ATOM     12  H   LIG d   1       4.093   0.480  -0.701  0.00  0.00     0.062 H 
ATOM     13  C   LIG d   1       5.809   0.543  -3.604  0.00  0.00    -0.056 A 
ATOM     14  H   LIG d   1       5.482   1.989  -2.064  0.00  0.00     0.062 H 
ATOM     15  H   LIG d   1       6.423   1.204  -4.200  0.00  0.00     0.062 H 
ENDBRANCH   3   5
BRANCH   3  16
ATOM     16  C   LIG d   1       6.748  -2.576  -5.162  0.00  0.00    -0.019 A 
ATOM     17  C   LIG d   1       6.224  -3.679  -5.810  0.00  0.00    -0.056 A 
ATOM     18  C   LIG d   1       6.800  -4.924  -5.634  0.00  0.00    -0.061 A 
ATOM     19  H   LIG d   1       5.363  -3.568  -6.453  0.00  0.00     0.062 H 
ATOM     20  C   LIG d   1       7.901  -5.065  -4.810  0.00  0.00    -0.062 A 
ATOM     21  H   LIG d   1       6.390  -5.784  -6.141  0.00  0.00     0.062 H 
ATOM     22  C   LIG d   1       8.425  -3.962  -4.162  0.00  0.00    -0.061 A 
ATOM     23  H   LIG d   1       8.350  -6.036  -4.672  0.00  0.00     0.062 H 
ATOM     24  C   LIG d   1       7.852  -2.718  -4.342  0.00  0.00    -0.056 A 
ATOM     25  H   LIG d   1       9.285  -4.074  -3.518  0.00  0.00     0.062 H 
ATOM     26  H   LIG d   1       8.265  -1.856  -3.838  0.00  0.00     0.062 H 
ENDBRANCH   3  16
ENDBRANCH   2   3
BRANCH   1  27
ATOM     27  C   LIG d   1       6.205   0.456  -7.656  0.00  0.00    -0.022 C 
ATOM     28  H   LIG d   1       5.932   1.174  -8.443  0.00  0.00     0.029 H 
ATOM     29  H   LIG d   1       7.111  -0.090  -7.955  0.00  0.00     0.029 H 
ATOM     30  H   LIG d   1       6.394   0.996  -6.716  0.00  0.00     0.029 H 
ENDBRANCH   1  27
BRANCH   1  31
ATOM     31  C   LIG d   1       4.082  -0.607  -8.375  0.00  0.00    -0.035 A 
ATOM     32  C   LIG d   1       2.741  -0.307  -8.131  0.00  0.00    -0.127 A 
ATOM     33  C   LIG d   1       1.925  -0.516  -9.379  0.00  0.00    -0.038 A 
ATOM     34  O   LIG d   1       2.296   0.070  -7.066  0.00  0.00    -0.876 OA
ATOM     35  C   LIG d   1       2.890  -0.988 -10.475  0.00  0.00    -0.025 A 
ATOM     36  H   LIG d   1       1.446   0.424  -9.693  0.00  0.00     0.030 H 
ATOM     37  H   LIG d   1       1.153  -1.283  -9.214  0.00  0.00     0.030 H 
ATOM     38  C   LIG d   1       4.270  -1.043  -9.804  0.00  0.00    -0.006 A 
ATOM     39  H   LIG d   1       2.196  -1.605 -11.066  0.00  0.00     0.032 H 
ATOM     40  C   LIG d   1       4.021  -0.036 -10.928  0.00  0.00    -0.024 A 
ATOM     41  H   LIG d   1       5.109  -1.734  -9.634  0.00  0.00     0.036 H 
BRANCH  40  42
ATOM     42  C   LIG d   1       3.896   1.439 -10.540  0.00  0.00    -0.059 C 
ATOM     43  H   LIG d   1       4.723   2.008 -10.989  0.00  0.00     0.024 H 
ATOM     44  H   LIG d   1       3.938   1.534  -9.445  0.00  0.00     0.024 H 
ATOM     45  H   LIG d   1       2.937   1.835 -10.906  0.00  0.00     0.024 H 
ENDBRANCH  40  42
BRANCH  40  46
ATOM     46  C   LIG d   1       4.686  -0.309 -12.279  0.00  0.00    -0.059 C 
ATOM     47  H   LIG d   1       5.138   0.619 -12.660  0.00  0.00     0.024 H 
ATOM     48  H   LIG d   1       3.930  -0.667 -12.994  0.00  0.00     0.024 H 
ATOM     49  H   LIG d   1       5.467  -1.074 -12.156  0.00  0.00     0.024 H 
ENDBRANCH  40  46
ENDBRANCH   1  31
TORSDOF 7
ENDMDL
MODEL 3
REMARK VINA RESULT:      -6.9      2.743      7.383
REMARK  7 active torsions:
REMARK  status: ('A' for Active; 'I' for Inactive)
REMARK    1  A    between atoms: C_1  and  C_2 
REMARK    2  A    between atoms: C_2  and  C_3 
REMARK    3  A    between atoms: C_8  and  C_9 
REMARK    4  A    between atoms: C_8  and  C_10 
REMARK    5  A    between atoms: N_14  and  C_15 
REMARK    6  A    between atoms: C_15  and  C_16 
REMARK    7  A    between atoms: C_15  and  C_22 
ROOT
ATOM      1  C   LIG d   1       5.195  -0.106  -7.637  0.00  0.00     0.036 C 
ATOM      2  N   LIG d   1       5.486   0.334  -6.381  0.00  0.00    -0.276 NA
ENDROOT
BRANCH   2   3
ATOM      3  C   LIG d   1       6.323  -0.479  -5.495  0.00  0.00     0.101 C 
ATOM      4  H   LIG d   1       6.386  -1.490  -5.922  0.00  0.00     0.064 H 
BRANCH   3   5
ATOM      5  C   LIG d   1       7.697   0.133  -5.399  0.00  0.00    -0.019 A 
ATOM      6  C   LIG d   1       7.866   1.488  -5.611  0.00  0.00    -0.056 A 
ATOM      7  C   LIG d   1       9.126   2.049  -5.522  0.00  0.00    -0.061 A 
ATOM      8  H   LIG d   1       7.014   2.108  -5.845  0.00  0.00     0.062 H 
ATOM      9  C   LIG d   1      10.217   1.255  -5.222  0.00  0.00    -0.062 A 
ATOM     10  H   LIG d   1       9.259   3.108  -5.687  0.00  0.00     0.062 H 
ATOM     11  C   LIG d   1      10.047  -0.101  -5.011  0.00  0.00    -0.061 A 
ATOM     12  H   LIG d   1      11.202   1.693  -5.154  0.00  0.00     0.062 H 
ATOM     13  C   LIG d   1       8.786  -0.661  -5.094  0.00  0.00    -0.056 A 
ATOM     14  H   LIG d   1      10.900  -0.722  -4.777  0.00  0.00     0.062 H 
ATOM     15  H   LIG d   1       8.653  -1.720  -4.924  0.00  0.00     0.062 H 
ENDBRANCH   3   5
BRANCH   3  16
ATOM     16  C   LIG d   1       5.699  -0.531  -4.124  0.00  0.00    -0.019 A 
ATOM     17  C   LIG d   1       5.586   0.624  -3.372  0.00  0.00    -0.056 A 
ATOM     18  C   LIG d   1       5.014   0.577  -2.114  0.00  0.00    -0.061 A 
ATOM     19  H   LIG d   1       5.945   1.563  -3.767  0.00  0.00     0.062 H 
ATOM     20  C   LIG d   1       4.556  -0.625  -1.608  0.00  0.00    -0.062 A 
ATOM     21  H   LIG d   1       4.926   1.478  -1.527  0.00  0.00     0.062 H 
ATOM     22  C   LIG d   1       4.669  -1.780  -2.360  0.00  0.00    -0.061 A 
ATOM     23  H   LIG d   1       4.110  -0.662  -0.626  0.00  0.00     0.062 H 
ATOM     24  C   LIG d   1       5.236  -1.731  -3.619  0.00  0.00    -0.056 A 
ATOM     25  H   LIG d   1       4.312  -2.719  -1.964  0.00  0.00     0.062 H 
ATOM     26  H   LIG d   1       5.321  -2.633  -4.208  0.00  0.00     0.062 H 
ENDBRANCH   3  16
ENDBRANCH   2   3
BRANCH   1  27
ATOM     27  C   LIG d   1       5.732  -1.430  -8.115  0.00  0.00    -0.022 C 
ATOM     28  H   LIG d   1       5.155  -2.247  -7.657  0.00  0.00     0.029 H 
ATOM     29  H   LIG d   1       6.789  -1.522  -7.827  0.00  0.00     0.029 H 
ATOM     30  H   LIG d   1       5.643  -1.487  -9.210  0.00  0.00     0.029 H 
ENDBRANCH   1  27
BRANCH   1  31
ATOM     31  C   LIG d   1       4.421   0.647  -8.457  0.00  0.00    -0.035 A 
ATOM     32  C   LIG d   1       4.858   1.780  -9.146  0.00  0.00    -0.127 A 
ATOM     33  C   LIG d   1       3.732   2.362  -9.959  0.00  0.00    -0.038 A 
ATOM     34  O   LIG d   1       5.984   2.232  -9.097  0.00  0.00    -0.876 OA
ATOM     35  C   LIG d   1       2.502   1.474  -9.726  0.00  0.00    -0.025 A 
ATOM     36  H   LIG d   1       3.986   2.361 -11.030  0.00  0.00     0.030 H 
ATOM     37  H   LIG d   1       3.510   3.389  -9.636  0.00  0.00     0.030 H 
ATOM     38  C   LIG d   1       2.969   0.382  -8.753  0.00  0.00    -0.006 A 
ATOM     39  H   LIG d   1       1.713   2.231  -9.855  0.00  0.00     0.032 H 
ATOM     40  C   LIG d   1       2.558  -0.005 -10.175  0.00  0.00    -0.024 A 
ATOM     41  H   LIG d   1       2.705  -0.068  -7.784  0.00  0.00     0.036 H 
BRANCH  40  42
ATOM     42  C   LIG d   1       3.669  -0.402 -11.148  0.00  0.00    -0.059 C 
ATOM     43  H   LIG d   1       4.482   0.338 -11.098  0.00  0.00     0.024 H 
ATOM     44  H   LIG d   1       3.266  -0.435 -12.171  0.00  0.00     0.024 H 
ATOM     45  H   LIG d   1       4.059  -1.393 -10.876  0.00  0.00     0.024 H 
ENDBRANCH  40  42
BRANCH  40  46
ATOM     46  C   LIG d   1       1.231  -0.749 -10.349  0.00  0.00    -0.059 C 
ATOM     47  H   LIG d   1       0.669  -0.720  -9.404  0.00  0.00     0.024 H 
ATOM     48  H   LIG d   1       1.431  -1.794 -10.625  0.00  0.00     0.024 H 
ATOM     49  H   LIG d   1       0.641  -0.265 -11.142  0.00  0.00     0.024 H 
ENDBRANCH  40  46
ENDBRANCH   1  31
TORSDOF 7
ENDMDL
MODEL 4
REMARK VINA RESULT:      -6.6      2.381      7.051
REMARK  7 active torsions:
REMARK  status: ('A' for Active; 'I' for Inactive)
REMARK    1  A    between atoms: C_1  and  C_2 
REMARK    2  A    between atoms: C_2  and  C_3 
REMARK    3  A    between atoms: C_8  and  C_9 
REMARK    4  A    between atoms: C_8  and  C_10 
REMARK    5  A    between atoms: N_14  and  C_15 
REMARK    6  A    between atoms: C_15  and  C_16 
REMARK    7  A    between atoms: C_15  and  C_22 
ROOT
ATOM      1  C   LIG d   1       5.372   0.314  -7.479  0.00  0.00     0.036 C 
ATOM      2  N   LIG d   1       4.872  -0.275  -6.357  0.00  0.00    -0.276 NA
ENDROOT
BRANCH   2   3
ATOM      3  C   LIG d   1       5.779  -0.891  -5.386  0.00  0.00     0.101 C 
ATOM      4  H   LIG d   1       6.789  -0.496  -5.566  0.00  0.00     0.064 H 
BRANCH   3   5
ATOM      5  C   LIG d   1       5.328  -0.550  -3.989  0.00  0.00    -0.019 A 
ATOM      6  C   LIG d   1       5.525   0.725  -3.491  0.00  0.00    -0.056 A 
ATOM      7  C   LIG d   1       5.110   1.039  -2.211  0.00  0.00    -0.061 A 
ATOM      8  H   LIG d   1       6.001   1.476  -4.104  0.00  0.00     0.062 H 
ATOM      9  C   LIG d   1       4.501   0.077  -1.426  0.00  0.00    -0.062 A 
ATOM     10  H   LIG d   1       5.263   2.035  -1.822  0.00  0.00     0.062 H 
ATOM     11  C   LIG d   1       4.305  -1.198  -1.924  0.00  0.00    -0.061 A 
ATOM     12  H   LIG d   1       4.178   0.321  -0.425  0.00  0.00     0.062 H 
ATOM     13  C   LIG d   1       4.714  -1.510  -3.207  0.00  0.00    -0.056 A 
ATOM     14  H   LIG d   1       3.829  -1.950  -1.311  0.00  0.00     0.062 H 
ATOM     15  H   LIG d   1       4.556  -2.505  -3.597  0.00  0.00     0.062 H 
ENDBRANCH   3   5
BRANCH   3  16
ATOM     16  C   LIG d   1       5.766  -2.388  -5.566  0.00  0.00    -0.019 A 
ATOM     17  C   LIG d   1       6.840  -3.145  -5.139  0.00  0.00    -0.056 A 
ATOM     18  C   LIG d   1       6.828  -4.518  -5.304  0.00  0.00    -0.061 A 
ATOM     19  H   LIG d   1       7.690  -2.664  -4.676  0.00  0.00     0.062 H 
ATOM     20  C   LIG d   1       5.741  -5.133  -5.896  0.00  0.00    -0.062 A 
ATOM     21  H   LIG d   1       7.667  -5.109  -4.970  0.00  0.00     0.062 H 
ATOM     22  C   LIG d   1       4.667  -4.375  -6.323  0.00  0.00    -0.061 A 
ATOM     23  H   LIG d   1       5.732  -6.204  -6.026  0.00  0.00     0.062 H 
ATOM     24  C   LIG d   1       4.676  -3.004  -6.154  0.00  0.00    -0.056 A 
ATOM     25  H   LIG d   1       3.818  -4.856  -6.787  0.00  0.00     0.062 H 
ATOM     26  H   LIG d   1       3.835  -2.413  -6.484  0.00  0.00     0.062 H 
ENDBRANCH   3  16
ENDBRANCH   2   3
BRANCH   1  27
ATOM     27  C   LIG d   1       6.860   0.331  -7.722  0.00  0.00    -0.022 C 
ATOM     28  H   LIG d   1       7.361  -0.290  -6.964  0.00  0.00     0.029 H 
ATOM     29  H   LIG d   1       7.230   1.363  -7.654  0.00  0.00     0.029 H 
ATOM     30  H   LIG d   1       7.071  -0.071  -8.724  0.00  0.00     0.029 H 
ENDBRANCH   1  27
BRANCH   1  31
ATOM     31  C   LIG d   1       4.533   0.885  -8.377  0.00  0.00    -0.035 A 
ATOM     32  C   LIG d   1       4.867   1.951  -9.214  0.00  0.00    -0.127 A 
ATOM     33  C   LIG d   1       3.692   2.324 -10.078  0.00  0.00    -0.038 A 
ATOM     34  O   LIG d   1       5.951   2.499  -9.242  0.00  0.00    -0.876 OA
ATOM     35  C   LIG d   1       2.544   1.373  -9.712  0.00  0.00    -0.025 A 
ATOM     36  H   LIG d   1       3.940   2.206 -11.144  0.00  0.00     0.030 H 
ATOM     37  H   LIG d   1       3.384   3.363  -9.887  0.00  0.00     0.030 H 
ATOM     38  C   LIG d   1       3.108   0.461  -8.614  0.00  0.00    -0.006 A 
ATOM     39  H   LIG d   1       1.692   2.037  -9.926  0.00  0.00     0.032 H 
ATOM     40  C   LIG d   1       2.725  -0.141  -9.967  0.00  0.00    -0.024 A 
ATOM     41  H   LIG d   1       2.888   0.121  -7.591  0.00  0.00     0.036 H 
BRANCH  40  42
ATOM     42  C   LIG d   1       3.862  -0.566 -10.897  0.00  0.00    -0.059 C 
ATOM     43  H   LIG d   1       3.573  -1.482 -11.435  0.00  0.00     0.024 H 
ATOM     44  H   LIG d   1       4.768  -0.760 -10.304  0.00  0.00     0.024 H 
ATOM     45  H   LIG d   1       4.063   0.236 -11.622  0.00  0.00     0.024 H 
ENDBRANCH  40  42
BRANCH  40  46
ATOM     46  C   LIG d   1       1.467  -1.011 -10.021  0.00  0.00    -0.059 C 
ATOM     47  H   LIG d   1       1.149  -1.131 -11.068  0.00  0.00     0.024 H 
ATOM     48  H   LIG d   1       0.662  -0.529  -9.447  0.00  0.00     0.024 H 
ATOM     49  H   LIG d   1       1.685  -1.999  -9.589  0.00  0.00     0.024 H 
ENDBRANCH  40  46
ENDBRANCH   1  31
TORSDOF 7
ENDMDL
MODEL 5
REMARK VINA RESULT:      -6.6      3.317      5.667
REMARK  7 active torsions:
REMARK  status: ('A' for Active; 'I' for Inactive)
REMARK    1  A    between atoms: C_1  and  C_2 
REMARK    2  A    between atoms: C_2  and  C_3 
REMARK    3  A    between atoms: C_8  and  C_9 
REMARK    4  A    between atoms: C_8  and  C_10 
REMARK    5  A    between atoms: N_14  and  C_15 
REMARK    6  A    between atoms: C_15  and  C_16 
REMARK    7  A    between atoms: C_15  and  C_22 
ROOT
ATOM      1  C   LIG d   1       7.316   0.366  -5.930  0.00  0.00     0.036 C 
ATOM      2  N   LIG d   1       5.975   0.441  -6.160  0.00  0.00    -0.276 NA
ENDROOT
BRANCH   2   3
ATOM      3  C   LIG d   1       5.186  -0.786  -6.301  0.00  0.00     0.101 C 
ATOM      4  H   LIG d   1       5.873  -1.601  -6.572  0.00  0.00     0.064 H 
BRANCH   3   5
ATOM      5  C   LIG d   1       4.500  -1.096  -4.995  0.00  0.00    -0.019 A 
ATOM      6  C   LIG d   1       4.833  -2.239  -4.294  0.00  0.00    -0.056 A 
ATOM      7  C   LIG d   1       4.205  -2.523  -3.096  0.00  0.00    -0.061 A 
ATOM      8  H   LIG d   1       5.584  -2.911  -4.682  0.00  0.00     0.062 H 
ATOM      9  C   LIG d   1       3.242  -1.662  -2.600  0.00  0.00    -0.062 A 
ATOM     10  H   LIG d   1       4.465  -3.416  -2.548  0.00  0.00     0.062 H 
ATOM     11  C   LIG d   1       2.910  -0.519  -3.302  0.00  0.00    -0.061 A 
ATOM     12  H   LIG d   1       2.750  -1.884  -1.664  0.00  0.00     0.062 H 
ATOM     13  C   LIG d   1       3.542  -0.233  -4.497  0.00  0.00    -0.056 A 
ATOM     14  H   LIG d   1       2.158   0.153  -2.914  0.00  0.00     0.062 H 
ATOM     15  H   LIG d   1       3.286   0.664  -5.043  0.00  0.00     0.062 H 
ENDBRANCH   3   5
BRANCH   3  16
ATOM     16  C   LIG d   1       4.151  -0.596  -7.380  0.00  0.00    -0.019 A 
ATOM     17  C   LIG d   1       3.732   0.677  -7.720  0.00  0.00    -0.056 A 
ATOM     18  C   LIG d   1       2.782   0.852  -8.709  0.00  0.00    -0.061 A 
ATOM     19  H   LIG d   1       4.148   1.535  -7.212  0.00  0.00     0.062 H 
ATOM     20  C   LIG d   1       2.250  -0.247  -9.357  0.00  0.00    -0.062 A 
ATOM     21  H   LIG d   1       2.456   1.846  -8.974  0.00  0.00     0.062 H 
ATOM     22  C   LIG d   1       2.669  -1.520  -9.017  0.00  0.00    -0.061 A 
ATOM     23  H   LIG d   1       1.508  -0.111 -10.129  0.00  0.00     0.062 H 
ATOM     24  C   LIG d   1       3.622  -1.694  -8.032  0.00  0.00    -0.056 A 
ATOM     25  H   LIG d   1       2.252  -2.378  -9.524  0.00  0.00     0.062 H 
ATOM     26  H   LIG d   1       3.952  -2.689  -7.770  0.00  0.00     0.062 H 
ENDBRANCH   3  16
ENDBRANCH   2   3
BRANCH   1  27
ATOM     27  C   LIG d   1       7.988  -0.978  -5.821  0.00  0.00    -0.022 C 
ATOM     28  H   LIG d   1       7.276  -1.768  -6.102  0.00  0.00     0.029 H 
ATOM     29  H   LIG d   1       8.323  -1.137  -4.786  0.00  0.00     0.029 H 
ATOM     30  H   LIG d   1       8.856  -1.009  -6.496  0.00  0.00     0.029 H 
ENDBRANCH   1  27
BRANCH   1  31
ATOM     31  C   LIG d   1       8.046   1.501  -5.800  0.00  0.00    -0.035 A 
ATOM     32  C   LIG d   1       8.213   2.208  -4.607  0.00  0.00    -0.127 A 
ATOM     33  C   LIG d   1       9.084   3.415  -4.834  0.00  0.00    -0.038 A 
ATOM     34  O   LIG d   1       7.726   1.894  -3.539  0.00  0.00    -0.876 OA
ATOM     35  C   LIG d   1       9.472   3.417  -6.319  0.00  0.00    -0.025 A 
ATOM     36  H   LIG d   1       9.994   3.359  -4.217  0.00  0.00     0.030 H 
ATOM     37  H   LIG d   1       8.536   4.339  -4.597  0.00  0.00     0.030 H 
ATOM     38  C   LIG d   1       8.790   2.179  -6.919  0.00  0.00    -0.006 A 
ATOM     39  H   LIG d   1       9.574   4.502  -6.472  0.00  0.00     0.032 H 
ATOM     40  C   LIG d   1      10.317   2.243  -6.867  0.00  0.00    -0.024 A 
ATOM     41  H   LIG d   1       8.112   1.891  -7.737  0.00  0.00     0.036 H 
BRANCH  40  42
ATOM     42  C   LIG d   1      11.026   1.351  -5.846  0.00  0.00    -0.059 C 
ATOM     43  H   LIG d   1      10.691   0.311  -5.972  0.00  0.00     0.024 H 
ATOM     44  H   LIG d   1      10.783   1.694  -4.829  0.00  0.00     0.024 H 
ATOM     45  H   LIG d   1      12.113   1.407  -6.001  0.00  0.00     0.024 H 
ENDBRANCH  40  42
BRANCH  40  46
ATOM     46  C   LIG d   1      11.060   2.453  -8.188  0.00  0.00    -0.059 C 
ATOM     47  H   LIG d   1      11.010   3.515  -8.472  0.00  0.00     0.024 H 
ATOM     48  H   LIG d   1      10.593   1.841  -8.973  0.00  0.00     0.024 H 
ATOM     49  H   LIG d   1      12.113   2.155  -8.068  0.00  0.00     0.024 H 
ENDBRANCH  40  46
ENDBRANCH   1  31
TORSDOF 7
ENDMDL
MODEL 6
REMARK VINA RESULT:      -6.6      2.520      7.077
REMARK  7 active torsions:
REMARK  status: ('A' for Active; 'I' for Inactive)
REMARK    1  A    between atoms: C_1  and  C_2 
REMARK    2  A    between atoms: C_2  and  C_3 
REMARK    3  A    between atoms: C_8  and  C_9 
REMARK    4  A    between atoms: C_8  and  C_10 
REMARK    5  A    between atoms: N_14  and  C_15 
REMARK    6  A    between atoms: C_15  and  C_16 
REMARK    7  A    between atoms: C_15  and  C_22 
ROOT
ATOM      1  C   LIG d   1       6.637  -0.149  -7.194  0.00  0.00     0.036 C 
ATOM      2  N   LIG d   1       6.146  -0.945  -6.205  0.00  0.00    -0.276 NA
ENDROOT
BRANCH   2   3
ATOM      3  C   LIG d   1       6.888  -1.099  -4.951  0.00  0.00     0.101 C 
ATOM      4  H   LIG d   1       7.756  -0.425  -4.986  0.00  0.00     0.064 H 
BRANCH   3   5
ATOM      5  C   LIG d   1       5.995  -0.738  -3.791  0.00  0.00    -0.019 A 
ATOM      6  C   LIG d   1       5.212  -1.708  -3.194  0.00  0.00    -0.056 A 
ATOM      7  C   LIG d   1       4.395  -1.377  -2.130  0.00  0.00    -0.061 A 
ATOM      8  H   LIG d   1       5.240  -2.724  -3.559  0.00  0.00     0.062 H 
ATOM      9  C   LIG d   1       4.359  -0.076  -1.663  0.00  0.00    -0.062 A 
ATOM     10  H   LIG d   1       3.783  -2.135  -1.663  0.00  0.00     0.062 H 
ATOM     11  C   LIG d   1       5.143   0.894  -2.261  0.00  0.00    -0.061 A 
ATOM     12  H   LIG d   1       3.720   0.183  -0.833  0.00  0.00     0.062 H 
ATOM     13  C   LIG d   1       5.965   0.562  -3.322  0.00  0.00    -0.056 A 
ATOM     14  H   LIG d   1       5.115   1.910  -1.897  0.00  0.00     0.062 H 
ATOM     15  H   LIG d   1       6.581   1.319  -3.785  0.00  0.00     0.062 H 
ENDBRANCH   3   5
BRANCH   3  16
ATOM     16  C   LIG d   1       7.343  -2.529  -4.809  0.00  0.00    -0.019 A 
ATOM     17  C   LIG d   1       8.336  -2.851  -3.904  0.00  0.00    -0.056 A 
ATOM     18  C   LIG d   1       8.754  -4.163  -3.773  0.00  0.00    -0.061 A 
ATOM     19  H   LIG d   1       8.787  -2.078  -3.299  0.00  0.00     0.062 H 
ATOM     20  C   LIG d   1       8.177  -5.152  -4.548  0.00  0.00    -0.062 A 
ATOM     21  H   LIG d   1       9.529  -4.414  -3.066  0.00  0.00     0.062 H 
ATOM     22  C   LIG d   1       7.184  -4.829  -5.453  0.00  0.00    -0.061 A 
ATOM     23  H   LIG d   1       8.504  -6.175  -4.446  0.00  0.00     0.062 H 
ATOM     24  C   LIG d   1       6.763  -3.519  -5.580  0.00  0.00    -0.056 A 
ATOM     25  H   LIG d   1       6.735  -5.602  -6.059  0.00  0.00     0.062 H 
ATOM     26  H   LIG d   1       5.984  -3.268  -6.285  0.00  0.00     0.062 H 
ENDBRANCH   3  16
ENDBRANCH   2   3
BRANCH   1  27
ATOM     27  C   LIG d   1       7.945   0.575  -7.000  0.00  0.00    -0.022 C 
ATOM     28  H   LIG d   1       8.206   1.113  -7.923  0.00  0.00     0.029 H 
ATOM     29  H   LIG d   1       8.734  -0.152  -6.762  0.00  0.00     0.029 H 
ATOM     30  H   LIG d   1       7.846   1.293  -6.172  0.00  0.00     0.029 H 
ENDBRANCH   1  27
BRANCH   1  31
ATOM     31  C   LIG d   1       5.950  -0.006  -8.355  0.00  0.00    -0.035 A 
ATOM     32  C   LIG d   1       5.936  -0.940  -9.392  0.00  0.00    -0.127 A 
ATOM     33  C   LIG d   1       5.069  -0.452 -10.522  0.00  0.00    -0.038 A 
ATOM     34  O   LIG d   1       6.536  -1.996  -9.384  0.00  0.00    -0.876 OA
ATOM     35  C   LIG d   1       4.512   0.916 -10.103  0.00  0.00    -0.025 A 
ATOM     36  H   LIG d   1       4.235  -1.148 -10.702  0.00  0.00     0.030 H 
ATOM     37  H   LIG d   1       5.659  -0.341 -11.444  0.00  0.00     0.030 H 
ATOM     38  C   LIG d   1       5.096   1.182  -8.709  0.00  0.00    -0.006 A 
ATOM     39  H   LIG d   1       4.415   1.377 -11.098  0.00  0.00     0.032 H 
ATOM     40  C   LIG d   1       3.586   0.993  -8.867  0.00  0.00    -0.024 A 
ATOM     41  H   LIG d   1       5.669   1.940  -8.154  0.00  0.00     0.036 H 
BRANCH  40  42
ATOM     42  C   LIG d   1       2.982  -0.317  -8.359  0.00  0.00    -0.059 C 
ATOM     43  H   LIG d   1       2.206  -0.097  -7.610  0.00  0.00     0.024 H 
ATOM     44  H   LIG d   1       3.771  -0.930  -7.899  0.00  0.00     0.024 H 
ATOM     45  H   LIG d   1       2.535  -0.866  -9.200  0.00  0.00     0.024 H 
ENDBRANCH  40  42
BRANCH  40  46
ATOM     46  C   LIG d   1       2.700   2.232  -8.715  0.00  0.00    -0.059 C 
ATOM     47  H   LIG d   1       1.679   1.995  -9.046  0.00  0.00     0.024 H 
ATOM     48  H   LIG d   1       3.104   3.049  -9.329  0.00  0.00     0.024 H 
ATOM     49  H   LIG d   1       2.681   2.541  -7.659  0.00  0.00     0.024 H 
ENDBRANCH  40  46
ENDBRANCH   1  31
TORSDOF 7
ENDMDL
MODEL 7
REMARK VINA RESULT:      -6.4      2.905      5.699
REMARK  7 active torsions:
REMARK  status: ('A' for Active; 'I' for Inactive)
REMARK    1  A    between atoms: C_1  and  C_2 
REMARK    2  A    between atoms: C_2  and  C_3 
REMARK    3  A    between atoms: C_8  and  C_9 
REMARK    4  A    between atoms: C_8  and  C_10 
REMARK    5  A    between atoms: N_14  and  C_15 
REMARK    6  A    between atoms: C_15  and  C_16 
REMARK    7  A    between atoms: C_15  and  C_22 
ROOT
ATOM      1  C   LIG d   1       5.928  -3.287  -5.668  0.00  0.00     0.036 C 
ATOM      2  N   LIG d   1       5.848  -1.930  -5.742  0.00  0.00    -0.276 NA
ENDROOT
BRANCH   2   3
ATOM      3  C   LIG d   1       4.547  -1.265  -5.636  0.00  0.00     0.101 C 
ATOM      4  H   LIG d   1       3.767  -2.040  -5.667  0.00  0.00     0.064 H 
BRANCH   3   5
ATOM      5  C   LIG d   1       4.475  -0.505  -4.337  0.00  0.00    -0.019 A 
ATOM      6  C   LIG d   1       3.296  -0.480  -3.615  0.00  0.00    -0.056 A 
ATOM      7  C   LIG d   1       3.231   0.216  -2.423  0.00  0.00    -0.061 A 
ATOM      8  H   LIG d   1       2.428  -1.006  -3.982  0.00  0.00     0.062 H 
ATOM      9  C   LIG d   1       4.343   0.890  -1.954  0.00  0.00    -0.062 A 
ATOM     10  H   LIG d   1       2.310   0.235  -1.859  0.00  0.00     0.062 H 
ATOM     11  C   LIG d   1       5.521   0.865  -2.676  0.00  0.00    -0.061 A 
ATOM     12  H   LIG d   1       4.292   1.436  -1.023  0.00  0.00     0.062 H 
ATOM     13  C   LIG d   1       5.589   0.164  -3.865  0.00  0.00    -0.056 A 
ATOM     14  H   LIG d   1       6.391   1.392  -2.310  0.00  0.00     0.062 H 
ATOM     15  H   LIG d   1       6.512   0.141  -4.427  0.00  0.00     0.062 H 
ENDBRANCH   3   5
BRANCH   3  16
ATOM     16  C   LIG d   1       4.377  -0.308  -6.788  0.00  0.00    -0.019 A 
ATOM     17  C   LIG d   1       3.139   0.252  -7.044  0.00  0.00    -0.056 A 
ATOM     18  C   LIG d   1       2.982   1.130  -8.101  0.00  0.00    -0.061 A 
ATOM     19  H   LIG d   1       2.294   0.004  -6.419  0.00  0.00     0.062 H 
ATOM     20  C   LIG d   1       4.064   1.447  -8.902  0.00  0.00    -0.062 A 
ATOM     21  H   LIG d   1       2.016   1.567  -8.300  0.00  0.00     0.062 H 
ATOM     22  C   LIG d   1       5.301   0.887  -8.646  0.00  0.00    -0.061 A 
ATOM     23  H   LIG d   1       3.941   2.132  -9.727  0.00  0.00     0.062 H 
ATOM     24  C   LIG d   1       5.459   0.013  -7.586  0.00  0.00    -0.056 A 
ATOM     25  H   LIG d   1       6.145   1.134  -9.272  0.00  0.00     0.062 H 
ATOM     26  H   LIG d   1       6.427  -0.421  -7.384  0.00  0.00     0.062 H 
ENDBRANCH   3  16
ENDBRANCH   2   3
BRANCH   1  27
ATOM     27  C   LIG d   1       4.678  -4.107  -5.478  0.00  0.00    -0.022 C 
ATOM     28  H   LIG d   1       4.917  -5.010  -4.896  0.00  0.00     0.029 H 
ATOM     29  H   LIG d   1       4.277  -4.397  -6.459  0.00  0.00     0.029 H 
ATOM     30  H   LIG d   1       3.928  -3.510  -4.937  0.00  0.00     0.029 H 
ENDBRANCH   1  27
BRANCH   1  31
ATOM     31  C   LIG d   1       7.133  -3.902  -5.766  0.00  0.00    -0.035 A 
ATOM     32  C   LIG d   1       7.839  -4.086  -6.956  0.00  0.00    -0.127 A 
ATOM     33  C   LIG d   1       9.134  -4.805  -6.688  0.00  0.00    -0.038 A 
ATOM     34  O   LIG d   1       7.464  -3.718  -8.051  0.00  0.00    -0.876 OA
ATOM     35  C   LIG d   1       9.197  -5.071  -5.177  0.00  0.00    -0.025 A 
ATOM     36  H   LIG d   1       9.993  -4.185  -6.987  0.00  0.00     0.030 H 
ATOM     37  H   LIG d   1       9.167  -5.762  -7.231  0.00  0.00     0.030 H 
ATOM     38  C   LIG d   1       7.898  -4.485  -4.608  0.00  0.00    -0.006 A 
ATOM     39  H   LIG d   1       9.791  -5.998  -5.187  0.00  0.00     0.032 H 
ATOM     40  C   LIG d   1       9.238  -3.863  -4.212  0.00  0.00    -0.024 A 
ATOM     41  H   LIG d   1       7.031  -4.770  -3.993  0.00  0.00     0.036 H 
BRANCH  40  42
ATOM     42  C   LIG d   1       9.587  -2.499  -4.809  0.00  0.00    -0.059 C 
ATOM     43  H   LIG d   1       8.697  -1.851  -4.789  0.00  0.00     0.024 H 
ATOM     44  H   LIG d   1       9.921  -2.629  -5.849  0.00  0.00     0.024 H 
ATOM     45  H   LIG d   1      10.391  -2.035  -4.221  0.00  0.00     0.024 H 
ENDBRANCH  40  42
BRANCH  40  46
ATOM     46  C   LIG d   1       9.735  -4.106  -2.785  0.00  0.00    -0.059 C 
ATOM     47  H   LIG d   1      10.004  -5.166  -2.666  0.00  0.00     0.024 H 
ATOM     48  H   LIG d   1       8.940  -3.848  -2.071  0.00  0.00     0.024 H 
ATOM     49  H   LIG d   1      10.619  -3.479  -2.593  0.00  0.00     0.024 H 
ENDBRANCH  40  46
ENDBRANCH   1  31
TORSDOF 7
ENDMDL
MODEL 8
REMARK VINA RESULT:      -6.4      4.603      7.018
REMARK  7 active torsions:
REMARK  status: ('A' for Active; 'I' for Inactive)
REMARK    1  A    between atoms: C_1  and  C_2 
REMARK    2  A    between atoms: C_2  and  C_3 
REMARK    3  A    between atoms: C_8  and  C_9 
REMARK    4  A    between atoms: C_8  and  C_10 
REMARK    5  A    between atoms: N_14  and  C_15 
REMARK    6  A    between atoms: C_15  and  C_16 
REMARK    7  A    between atoms: C_15  and  C_22 
ROOT
ATOM      1  C   LIG d   1       8.496   1.601  -4.872  0.00  0.00     0.036 C 
ATOM      2  N   LIG d   1       7.766   0.718  -4.136  0.00  0.00    -0.276 NA
ENDROOT
BRANCH   2   3
ATOM      3  C   LIG d   1       6.719  -0.082  -4.777  0.00  0.00     0.101 C 
ATOM      4  H   LIG d   1       6.548   0.327  -5.783  0.00  0.00     0.064 H 
BRANCH   3   5
ATOM      5  C   LIG d   1       7.168  -1.518  -4.868  0.00  0.00    -0.019 A 
ATOM      6  C   LIG d   1       7.643  -2.166  -3.744  0.00  0.00    -0.056 A 
ATOM      7  C   LIG d   1       8.053  -3.483  -3.827  0.00  0.00    -0.061 A 
ATOM      8  H   LIG d   1       7.692  -1.644  -2.800  0.00  0.00     0.062 H 
ATOM      9  C   LIG d   1       7.991  -4.152  -5.036  0.00  0.00    -0.062 A 
ATOM     10  H   LIG d   1       8.424  -3.990  -2.949  0.00  0.00     0.062 H 
ATOM     11  C   LIG d   1       7.517  -3.502  -6.161  0.00  0.00    -0.061 A 
ATOM     12  H   LIG d   1       8.314  -5.180  -5.102  0.00  0.00     0.062 H 
ATOM     13  C   LIG d   1       7.101  -2.187  -6.076  0.00  0.00    -0.056 A 
ATOM     14  H   LIG d   1       7.468  -4.024  -7.105  0.00  0.00     0.062 H 
ATOM     15  H   LIG d   1       6.725  -1.682  -6.954  0.00  0.00     0.062 H 
ENDBRANCH   3   5
BRANCH   3  16
ATOM     16  C   LIG d   1       5.455  -0.002  -3.960  0.00  0.00    -0.019 A 
ATOM     17  C   LIG d   1       4.313  -0.653  -4.388  0.00  0.00    -0.056 A 
ATOM     18  C   LIG d   1       3.153  -0.580  -3.639  0.00  0.00    -0.061 A 
ATOM     19  H   LIG d   1       4.327  -1.218  -5.309  0.00  0.00     0.062 H 
ATOM     20  C   LIG d   1       3.136   0.144  -2.462  0.00  0.00    -0.062 A 
ATOM     21  H   LIG d   1       2.262  -1.089  -3.974  0.00  0.00     0.062 H 
ATOM     22  C   LIG d   1       4.277   0.795  -2.034  0.00  0.00    -0.061 A 
ATOM     23  H   LIG d   1       2.230   0.201  -1.878  0.00  0.00     0.062 H 
ATOM     24  C   LIG d   1       5.438   0.718  -2.780  0.00  0.00    -0.056 A 
ATOM     25  H   LIG d   1       4.263   1.361  -1.114  0.00  0.00     0.062 H 
ATOM     26  H   LIG d   1       6.331   1.223  -2.443  0.00  0.00     0.062 H 
ENDBRANCH   3  16
ENDBRANCH   2   3
BRANCH   1  27
ATOM     27  C   LIG d   1       8.227   1.756  -6.347  0.00  0.00    -0.022 C 
ATOM     28  H   LIG d   1       8.599   2.735  -6.686  0.00  0.00     0.029 H 
ATOM     29  H   LIG d   1       7.146   1.690  -6.531  0.00  0.00     0.029 H 
ATOM     30  H   LIG d   1       8.744   0.956  -6.899  0.00  0.00     0.029 H 
ENDBRANCH   1  27
BRANCH   1  31
ATOM     31  C   LIG d   1       9.465   2.341  -4.278  0.00  0.00    -0.035 A 
ATOM     32  C   LIG d   1      10.789   1.932  -4.112  0.00  0.00    -0.127 A 
ATOM     33  C   LIG d   1      11.582   3.005  -3.414  0.00  0.00    -0.038 A 
ATOM     34  O   LIG d   1      11.238   0.864  -4.477  0.00  0.00    -0.876 OA
ATOM     35  C   LIG d   1      10.621   4.171  -3.144  0.00  0.00    -0.025 A 
ATOM     36  H   LIG d   1      12.410   3.353  -4.051  0.00  0.00     0.030 H 
ATOM     37  H   LIG d   1      11.985   2.632  -2.461  0.00  0.00     0.030 H 
ATOM     38  C   LIG d   1       9.266   3.718  -3.705  0.00  0.00    -0.006 A 
ATOM     39  H   LIG d   1      11.084   4.570  -2.228  0.00  0.00     0.032 H 
ATOM     40  C   LIG d   1       9.986   4.904  -4.348  0.00  0.00    -0.024 A 
ATOM     41  H   LIG d   1       8.215   3.597  -3.402  0.00  0.00     0.036 H 
BRANCH  40  42
ATOM     42  C   LIG d   1      10.624   4.682  -5.721  0.00  0.00    -0.059 C 
ATOM     43  H   LIG d   1      11.718   4.766  -5.635  0.00  0.00     0.024 H 
ATOM     44  H   LIG d   1      10.253   5.442  -6.425  0.00  0.00     0.024 H 
ATOM     45  H   LIG d   1      10.360   3.681  -6.091  0.00  0.00     0.024 H 
ENDBRANCH  40  42
BRANCH  40  46
ATOM     46  C   LIG d   1       9.403   6.299  -4.109  0.00  0.00    -0.059 C 
ATOM     47  H   LIG d   1       8.544   6.225  -3.427  0.00  0.00     0.024 H 
ATOM     48  H   LIG d   1       9.075   6.728  -5.067  0.00  0.00     0.024 H 
ATOM     49  H   LIG d   1      10.172   6.946  -3.661  0.00  0.00     0.024 H 
ENDBRANCH  40  46
ENDBRANCH   1  31
TORSDOF 7
ENDMDL
MODEL 9
REMARK VINA RESULT:      -6.2      4.288      6.638
REMARK  7 active torsions:
REMARK  status: ('A' for Active; 'I' for Inactive)
REMARK    1  A    between atoms: C_1  and  C_2 
REMARK    2  A    between atoms: C_2  and  C_3 
REMARK    3  A    between atoms: C_8  and  C_9 
REMARK    4  A    between atoms: C_8  and  C_10 
REMARK    5  A    between atoms: N_14  and  C_15 
REMARK    6  A    between atoms: C_15  and  C_16 
REMARK    7  A    between atoms: C_15  and  C_22 
ROOT
ATOM      1  C   LIG d   1       8.064  -3.215  -5.007  0.00  0.00     0.036 C 
ATOM      2  N   LIG d   1       7.317  -2.334  -4.284  0.00  0.00    -0.276 NA
ENDROOT
BRANCH   2   3
ATOM      3  C   LIG d   1       6.479  -1.348  -4.972  0.00  0.00     0.101 C 
ATOM      4  H   LIG d   1       6.317  -1.699  -6.001  0.00  0.00     0.064 H 
BRANCH   3   5
ATOM      5  C   LIG d   1       5.160  -1.220  -4.252  0.00  0.00    -0.019 A 
ATOM      6  C   LIG d   1       4.923  -1.958  -3.108  0.00  0.00    -0.056 A 
ATOM      7  C   LIG d   1       3.715  -1.839  -2.448  0.00  0.00    -0.061 A 
ATOM      8  H   LIG d   1       5.682  -2.627  -2.730  0.00  0.00     0.062 H 
ATOM      9  C   LIG d   1       2.743  -0.983  -2.933  0.00  0.00    -0.062 A 
ATOM     10  H   LIG d   1       3.529  -2.416  -1.553  0.00  0.00     0.062 H 
ATOM     11  C   LIG d   1       2.981  -0.245  -4.077  0.00  0.00    -0.061 A 
ATOM     12  H   LIG d   1       1.798  -0.891  -2.418  0.00  0.00     0.062 H 
ATOM     13  C   LIG d   1       4.192  -0.360  -4.734  0.00  0.00    -0.056 A 
ATOM     14  H   LIG d   1       2.222   0.423  -4.456  0.00  0.00     0.062 H 
ATOM     15  H   LIG d   1       4.379   0.221  -5.626  0.00  0.00     0.062 H 
ENDBRANCH   3   5
BRANCH   3  16
ATOM     16  C   LIG d   1       7.179  -0.013  -4.980  0.00  0.00    -0.019 A 
ATOM     17  C   LIG d   1       7.551   0.565  -6.179  0.00  0.00    -0.056 A 
ATOM     18  C   LIG d   1       8.192   1.790  -6.187  0.00  0.00    -0.061 A 
ATOM     19  H   LIG d   1       7.340   0.059  -7.110  0.00  0.00     0.062 H 
ATOM     20  C   LIG d   1       8.463   2.435  -4.995  0.00  0.00    -0.062 A 
ATOM     21  H   LIG d   1       8.483   2.240  -7.124  0.00  0.00     0.062 H 
ATOM     22  C   LIG d   1       8.091   1.857  -3.796  0.00  0.00    -0.061 A 
ATOM     23  H   LIG d   1       8.964   3.391  -5.001  0.00  0.00     0.062 H 
ATOM     24  C   LIG d   1       7.444   0.636  -3.789  0.00  0.00    -0.056 A 
ATOM     25  H   LIG d   1       8.303   2.362  -2.865  0.00  0.00     0.062 H 
ATOM     26  H   LIG d   1       7.150   0.186  -2.851  0.00  0.00     0.062 H 
ENDBRANCH   3  16
ENDBRANCH   2   3
BRANCH   1  27
ATOM     27  C   LIG d   1       8.030  -3.175  -6.513  0.00  0.00    -0.022 C 
ATOM     28  H   LIG d   1       7.094  -3.630  -6.869  0.00  0.00     0.029 H 
ATOM     29  H   LIG d   1       8.886  -3.735  -6.914  0.00  0.00     0.029 H 
ATOM     30  H   LIG d   1       8.082  -2.130  -6.852  0.00  0.00     0.029 H 
ENDBRANCH   1  27
BRANCH   1  31
ATOM     31  C   LIG d   1       8.839  -4.128  -4.371  0.00  0.00    -0.035 A 
ATOM     32  C   LIG d   1       8.608  -5.504  -4.367  0.00  0.00    -0.127 A 
ATOM     33  C   LIG d   1       9.668  -6.209  -3.562  0.00  0.00    -0.038 A 
ATOM     34  O   LIG d   1       7.685  -6.056  -4.933  0.00  0.00    -0.876 OA
ATOM     35  C   LIG d   1      10.626  -5.130  -3.037  0.00  0.00    -0.025 A 
ATOM     36  H   LIG d   1      10.225  -6.920  -4.190  0.00  0.00     0.030 H 
ATOM     37  H   LIG d   1       9.218  -6.744  -2.713  0.00  0.00     0.030 H 
ATOM     38  C   LIG d   1      10.070  -3.801  -3.567  0.00  0.00    -0.006 A 
ATOM     39  H   LIG d   1      10.945  -5.619  -2.104  0.00  0.00     0.032 H 
ATOM     40  C   LIG d   1      11.432  -4.294  -4.059  0.00  0.00    -0.024 A 
ATOM     41  H   LIG d   1       9.752  -2.808  -3.215  0.00  0.00     0.036 H 
BRANCH  40  42
ATOM     42  C   LIG d   1      11.516  -4.825  -5.491  0.00  0.00    -0.059 C 
ATOM     43  H   LIG d   1      11.264  -4.019  -6.196  0.00  0.00     0.024 H 
ATOM     44  H   LIG d   1      10.807  -5.656  -5.615  0.00  0.00     0.024 H 
ATOM     45  H   LIG d   1      12.537  -5.181  -5.691  0.00  0.00     0.024 H 
ENDBRANCH  40  42
BRANCH  40  46
ATOM     46  C   LIG d   1      12.674  -3.555  -3.554  0.00  0.00    -0.059 C 
ATOM     47  H   LIG d   1      12.521  -3.253  -2.508  0.00  0.00     0.024 H 
ATOM     48  H   LIG d   1      12.845  -2.662  -4.172  0.00  0.00     0.024 H 
ATOM     49  H   LIG d   1      13.548  -4.220  -3.621  0.00  0.00     0.024 H 
ENDBRANCH  40  46
ENDBRANCH   1  31
TORSDOF 7
ENDMDL
MODEL 10
REMARK VINA RESULT:      -6.2      2.610      6.778
REMARK  7 active torsions:
REMARK  status: ('A' for Active; 'I' for Inactive)
REMARK    1  A    between atoms: C_1  and  C_2 
REMARK    2  A    between atoms: C_2  and  C_3 
REMARK    3  A    between atoms: C_8  and  C_9 
REMARK    4  A    between atoms: C_8  and  C_10 
REMARK    5  A    between atoms: N_14  and  C_15 
REMARK    6  A    between atoms: C_15  and  C_16 
REMARK    7  A    between atoms: C_15  and  C_22 
ROOT
ATOM      1  C   LIG d   1       5.123  -1.774  -7.545  0.00  0.00     0.036 C 
ATOM      2  N   LIG d   1       5.888  -1.641  -6.427  0.00  0.00    -0.276 NA
ENDROOT
BRANCH   2   3
ATOM      3  C   LIG d   1       5.776  -2.620  -5.342  0.00  0.00     0.101 C 
ATOM      4  H   LIG d   1       5.073  -3.403  -5.663  0.00  0.00     0.064 H 
BRANCH   3   5
ATOM      5  C   LIG d   1       7.131  -3.218  -5.062  0.00  0.00    -0.019 A 
ATOM      6  C   LIG d   1       7.281  -4.591  -5.003  0.00  0.00    -0.056 A 
ATOM      7  C   LIG d   1       8.523  -5.139  -4.747  0.00  0.00    -0.061 A 
ATOM      8  H   LIG d   1       6.428  -5.235  -5.157  0.00  0.00     0.062 H 
ATOM      9  C   LIG d   1       9.616  -4.315  -4.549  0.00  0.00    -0.062 A 
ATOM     10  H   LIG d   1       8.642  -6.212  -4.701  0.00  0.00     0.062 H 
ATOM     11  C   LIG d   1       9.464  -2.942  -4.608  0.00  0.00    -0.061 A 
ATOM     12  H   LIG d   1      10.586  -4.743  -4.348  0.00  0.00     0.062 H 
ATOM     13  C   LIG d   1       8.223  -2.394  -4.869  0.00  0.00    -0.056 A 
ATOM     14  H   LIG d   1      10.318  -2.298  -4.453  0.00  0.00     0.062 H 
ATOM     15  H   LIG d   1       8.106  -1.321  -4.920  0.00  0.00     0.062 H 
ENDBRANCH   3   5
BRANCH   3  16
ATOM     16  C   LIG d   1       5.262  -1.937  -4.100  0.00  0.00    -0.019 A 
ATOM     17  C   LIG d   1       5.663  -0.647  -3.805  0.00  0.00    -0.056 A 
ATOM     18  C   LIG d   1       5.193  -0.020  -2.666  0.00  0.00    -0.061 A 
ATOM     19  H   LIG d   1       6.345  -0.130  -4.464  0.00  0.00     0.062 H 
ATOM     20  C   LIG d   1       4.321  -0.684  -1.823  0.00  0.00    -0.062 A 
ATOM     21  H   LIG d   1       5.506   0.987  -2.436  0.00  0.00     0.062 H 
ATOM     22  C   LIG d   1       3.920  -1.973  -2.118  0.00  0.00    -0.061 A 
ATOM     23  H   LIG d   1       3.954  -0.194  -0.933  0.00  0.00     0.062 H 
ATOM     24  C   LIG d   1       4.387  -2.598  -3.259  0.00  0.00    -0.056 A 
ATOM     25  H   LIG d   1       3.240  -2.491  -1.458  0.00  0.00     0.062 H 
ATOM     26  H   LIG d   1       4.070  -3.604  -3.492  0.00  0.00     0.062 H 
ENDBRANCH   3  16
ENDBRANCH   2   3
BRANCH   1  27
ATOM     27  C   LIG d   1       4.160  -2.927  -7.669  0.00  0.00    -0.022 C 
ATOM     28  H   LIG d   1       3.796  -3.208  -6.669  0.00  0.00     0.029 H 
ATOM     29  H   LIG d   1       4.673  -3.785  -8.127  0.00  0.00     0.029 H 
ATOM     30  H   LIG d   1       3.310  -2.628  -8.299  0.00  0.00     0.029 H 
ENDBRANCH   1  27
BRANCH   1  31
ATOM     31  C   LIG d   1       5.227  -0.869  -8.550  0.00  0.00    -0.035 A 
ATOM     32  C   LIG d   1       5.765  -1.135  -9.810  0.00  0.00    -0.127 A 
ATOM     33  C   LIG d   1       5.720   0.101 -10.668  0.00  0.00    -0.038 A 
ATOM     34  O   LIG d   1       6.206  -2.210 -10.164  0.00  0.00    -0.876 OA
ATOM     35  C   LIG d   1       5.084   1.213  -9.823  0.00  0.00    -0.025 A 
ATOM     36  H   LIG d   1       5.107  -0.072 -11.566  0.00  0.00     0.030 H 
ATOM     37  H   LIG d   1       6.734   0.402 -10.969  0.00  0.00     0.030 H 
ATOM     38  C   LIG d   1       4.780   0.566  -8.464  0.00  0.00    -0.006 A 
ATOM     39  H   LIG d   1       5.592   2.083 -10.267  0.00  0.00     0.032 H 
ATOM     40  C   LIG d   1       3.623   1.040  -9.345  0.00  0.00    -0.024 A 
ATOM     41  H   LIG d   1       4.968   0.711  -7.389  0.00  0.00     0.036 H 
BRANCH  40  42
ATOM     42  C   LIG d   1       2.780  -0.031 -10.039  0.00  0.00    -0.059 C 
ATOM     43  H   LIG d   1       2.808  -0.959  -9.449  0.00  0.00     0.024 H 
ATOM     44  H   LIG d   1       3.186  -0.224 -11.043  0.00  0.00     0.024 H 
ATOM     45  H   LIG d   1       1.741   0.318 -10.125  0.00  0.00     0.024 H 
ENDBRANCH  40  42
BRANCH  40  46
ATOM     46  C   LIG d   1       2.864   2.293  -8.901  0.00  0.00    -0.059 C 
ATOM     47  H   LIG d   1       2.844   3.021  -9.725  0.00  0.00     0.024 H 
ATOM     48  H   LIG d   1       3.369   2.737  -8.031  0.00  0.00     0.024 H 
ATOM     49  H   LIG d   1       1.834   2.019  -8.628  0.00  0.00     0.024 H 
ENDBRANCH  40  46
ENDBRANCH   1  31
TORSDOF 7
ENDMDL
