MODEL 1
REMARK VINA RESULT:      -5.5      0.000      0.000
REMARK  6 active torsions:
REMARK  status: ('A' for Active; 'I' for Inactive)
REMARK    1  A    between atoms: C_1  and  C_2 
REMARK    2  A    between atoms: C_2  and  C_4 
REMARK    3  A    between atoms: C_2  and  O_18 
REMARK    4  A    between atoms: C_4  and  C_6 
REMARK    5  A    between atoms: C_6  and  C_7 
REMARK    6  A    between atoms: C_13  and  O_17 
ROOT
ATOM      1  C   LIG d   1       3.776  -0.426  -5.795  0.00  0.00     0.091 C 
ATOM      2  H   LIG d   1       3.750  -1.499  -5.556  0.00  0.00     0.065 H 
ATOM      3  C   LIG d   1       3.534  -0.154  -7.262  0.00  0.00    -0.010 A 
ATOM      4  C   LIG d   1       2.388  -0.122  -8.030  0.00  0.00    -0.056 A 
ATOM      5  C   LIG d   1       2.469   0.152  -9.383  0.00  0.00    -0.058 A 
ATOM      6  C   LIG d   1       3.698   0.389  -9.970  0.00  0.00    -0.020 A 
ATOM      7  C   LIG d   1       4.853   0.352  -9.201  0.00  0.00     0.123 A 
ATOM      8  C   LIG d   1       4.768   0.077  -7.846  0.00  0.00     0.025 A 
ATOM      9  C   LIG d   1       5.809  -0.034  -6.757  0.00  0.00     0.077 C 
ATOM     10  O   LIG d   1       5.094   0.080  -5.512  0.00  0.00    -0.367 OA
ATOM     11  H   LIG d   1       1.427  -0.307  -7.573  0.00  0.00     0.062 H 
ATOM     12  H   LIG d   1       1.571   0.180  -9.983  0.00  0.00     0.062 H 
ATOM     13  H   LIG d   1       3.760   0.603 -11.027  0.00  0.00     0.065 H 
ATOM     14  H   LIG d   1       6.318  -1.006  -6.835  0.00  0.00     0.061 H 
ATOM     15  H   LIG d   1       6.545   0.775  -6.869  0.00  0.00     0.061 H 
ENDROOT
BRANCH   1  16
ATOM     16  C   LIG d   1       2.736   0.311  -4.948  0.00  0.00     0.039 C 
ATOM     17  H   LIG d   1       1.728  -0.027  -5.228  0.00  0.00     0.037 H 
ATOM     18  H   LIG d   1       2.821   1.394  -5.123  0.00  0.00     0.037 H 
BRANCH  16  19
ATOM     19  C   LIG d   1       2.978   0.018  -3.489  0.00  0.00     0.164 C 
ATOM     20  O   LIG d   1       2.750  -1.083  -3.050  0.00  0.00    -0.295 OA
BRANCH  19  21
ATOM     21  C   LIG d   1       3.504   1.098  -2.581  0.00  0.00     0.110 C 
ATOM     22  H   LIG d   1       2.685   1.539  -1.993  0.00  0.00     0.067 H 
BRANCH  21  23
ATOM     23  C   LIG d   1       4.597   0.520  -1.680  0.00  0.00    -0.032 C 
ATOM     24  H   LIG d   1       4.489  -0.574  -1.629  0.00  0.00     0.026 H 
ATOM     25  H   LIG d   1       4.503   0.945  -0.670  0.00  0.00     0.026 H 
ATOM     26  H   LIG d   1       5.585   0.772  -2.094  0.00  0.00     0.026 H 
ENDBRANCH  21  23
BRANCH  21  27
ATOM     27  O   LIG d   1       4.047   2.160  -3.367  0.00  0.00    -0.385 OA
ATOM     28  H   LIG d   1       4.886   2.758  -2.979  0.00  0.00     0.210 HD
ENDBRANCH  21  27
ENDBRANCH  19  21
ENDBRANCH  16  19
ENDBRANCH   1  16
BRANCH   7  29
ATOM     29  O   LIG d   1       6.061   0.584  -9.775  0.00  0.00    -0.506 OA
ATOM     30  H   LIG d   1       6.945   0.017  -9.446  0.00  0.00     0.292 HD
ENDBRANCH   7  29
TORSDOF 6
ENDMDL
MODEL 2
REMARK VINA RESULT:      -5.4      3.363      5.983
REMARK  6 active torsions:
REMARK  status: ('A' for Active; 'I' for Inactive)
REMARK    1  A    between atoms: C_1  and  C_2 
REMARK    2  A    between atoms: C_2  and  C_4 
REMARK    3  A    between atoms: C_2  and  O_18 
REMARK    4  A    between atoms: C_4  and  C_6 
REMARK    5  A    between atoms: C_6  and  C_7 
REMARK    6  A    between atoms: C_13  and  O_17 
ROOT
ATOM      1  C   LIG d   1       4.821  -2.398  -5.544  0.00  0.00     0.091 C 
ATOM      2  H   LIG d   1       3.896  -2.310  -6.133  0.00  0.00     0.065 H 
ATOM      3  C   LIG d   1       4.693  -1.785  -4.169  0.00  0.00    -0.010 A 
ATOM      4  C   LIG d   1       4.110  -2.225  -2.999  0.00  0.00    -0.056 A 
ATOM      5  C   LIG d   1       4.137  -1.428  -1.869  0.00  0.00    -0.058 A 
ATOM      6  C   LIG d   1       4.745  -0.187  -1.911  0.00  0.00    -0.020 A 
ATOM      7  C   LIG d   1       5.327   0.261  -3.088  0.00  0.00     0.123 A 
ATOM      8  C   LIG d   1       5.297  -0.539  -4.218  0.00  0.00     0.025 A 
ATOM      9  C   LIG d   1       5.826  -0.351  -5.620  0.00  0.00     0.077 C 
ATOM     10  O   LIG d   1       5.865  -1.664  -6.209  0.00  0.00    -0.367 OA
ATOM     11  H   LIG d   1       3.635  -3.194  -2.964  0.00  0.00     0.062 H 
ATOM     12  H   LIG d   1       3.684  -1.775  -0.952  0.00  0.00     0.062 H 
ATOM     13  H   LIG d   1       4.766   0.434  -1.027  0.00  0.00     0.065 H 
ATOM     14  H   LIG d   1       5.153   0.316  -6.179  0.00  0.00     0.061 H 
ATOM     15  H   LIG d   1       6.830   0.096  -5.577  0.00  0.00     0.061 H 
ENDROOT
BRANCH   1  16
ATOM     16  C   LIG d   1       5.209  -3.874  -5.424  0.00  0.00     0.039 C 
ATOM     17  H   LIG d   1       5.200  -4.171  -4.365  0.00  0.00     0.037 H 
ATOM     18  H   LIG d   1       6.218  -4.023  -5.837  0.00  0.00     0.037 H 
BRANCH  16  19
ATOM     19  C   LIG d   1       4.222  -4.717  -6.191  0.00  0.00     0.164 C 
ATOM     20  O   LIG d   1       3.667  -5.640  -5.647  0.00  0.00    -0.295 OA
BRANCH  19  21
ATOM     21  C   LIG d   1       3.929  -4.405  -7.636  0.00  0.00     0.110 C 
ATOM     22  H   LIG d   1       3.566  -3.372  -7.740  0.00  0.00     0.067 H 
BRANCH  21  23
ATOM     23  C   LIG d   1       5.185  -4.650  -8.475  0.00  0.00    -0.032 C 
ATOM     24  H   LIG d   1       5.714  -5.536  -8.093  0.00  0.00     0.026 H 
ATOM     25  H   LIG d   1       5.845  -3.773  -8.411  0.00  0.00     0.026 H 
ATOM     26  H   LIG d   1       4.899  -4.818  -9.524  0.00  0.00     0.026 H 
ENDBRANCH  21  23
BRANCH  21  27
ATOM     27  O   LIG d   1       2.874  -5.249  -8.101  0.00  0.00    -0.385 OA
ATOM     28  H   LIG d   1       2.179  -4.884  -8.873  0.00  0.00     0.210 HD
ENDBRANCH  21  27
ENDBRANCH  19  21
ENDBRANCH  16  19
ENDBRANCH   1  16
BRANCH   7  29
ATOM     29  O   LIG d   1       5.925   1.480  -3.131  0.00  0.00    -0.506 OA
ATOM     30  H   LIG d   1       6.551   1.755  -3.993  0.00  0.00     0.292 HD
ENDBRANCH   7  29
TORSDOF 6
ENDMDL
MODEL 3
REMARK VINA RESULT:      -5.3      4.390      6.196
REMARK  6 active torsions:
REMARK  status: ('A' for Active; 'I' for Inactive)
REMARK    1  A    between atoms: C_1  and  C_2 
REMARK    2  A    between atoms: C_2  and  C_4 
REMARK    3  A    between atoms: C_2  and  O_18 
REMARK    4  A    between atoms: C_4  and  C_6 
REMARK    5  A    between atoms: C_6  and  C_7 
REMARK    6  A    between atoms: C_13  and  O_17 
ROOT
ATOM      1  C   LIG d   1       7.330   0.280  -3.367  0.00  0.00     0.091 C 
ATOM      2  H   LIG d   1       7.969   0.349  -2.474  0.00  0.00     0.065 H 
ATOM      3  C   LIG d   1       5.858   0.337  -3.031  0.00  0.00    -0.010 A 
ATOM      4  C   LIG d   1       5.011   1.378  -2.715  0.00  0.00    -0.056 A 
ATOM      5  C   LIG d   1       3.679   1.128  -2.438  0.00  0.00    -0.058 A 
ATOM      6  C   LIG d   1       3.196  -0.166  -2.471  0.00  0.00    -0.020 A 
ATOM      7  C   LIG d   1       4.048  -1.217  -2.781  0.00  0.00     0.123 A 
ATOM      8  C   LIG d   1       5.380  -0.963  -3.058  0.00  0.00     0.025 A 
ATOM      9  C   LIG d   1       6.540  -1.860  -3.424  0.00  0.00     0.077 C 
ATOM     10  O   LIG d   1       7.544  -0.998  -3.991  0.00  0.00    -0.367 OA
ATOM     11  H   LIG d   1       5.386   2.391  -2.689  0.00  0.00     0.062 H 
ATOM     12  H   LIG d   1       3.015   1.945  -2.195  0.00  0.00     0.062 H 
ATOM     13  H   LIG d   1       2.156  -0.361  -2.254  0.00  0.00     0.065 H 
ATOM     14  H   LIG d   1       6.913  -2.363  -2.519  0.00  0.00     0.061 H 
ATOM     15  H   LIG d   1       6.205  -2.615  -4.150  0.00  0.00     0.061 H 
ENDROOT
BRANCH   1  16
ATOM     16  C   LIG d   1       7.689   1.407  -4.338  0.00  0.00     0.039 C 
ATOM     17  H   LIG d   1       6.903   2.177  -4.314  0.00  0.00     0.037 H 
ATOM     18  H   LIG d   1       7.772   1.001  -5.357  0.00  0.00     0.037 H 
BRANCH  16  19
ATOM     19  C   LIG d   1       9.005   2.020  -3.933  0.00  0.00     0.164 C 
ATOM     20  O   LIG d   1       9.031   2.905  -3.112  0.00  0.00    -0.295 OA
BRANCH  19  21
ATOM     21  C   LIG d   1      10.287   1.527  -4.551  0.00  0.00     0.110 C 
ATOM     22  H   LIG d   1      10.390   1.908  -5.578  0.00  0.00     0.067 H 
BRANCH  21  23
ATOM     23  C   LIG d   1      11.469   1.944  -3.674  0.00  0.00    -0.032 C 
ATOM     24  H   LIG d   1      12.396   1.507  -4.075  0.00  0.00     0.026 H 
ATOM     25  H   LIG d   1      11.309   1.582  -2.647  0.00  0.00     0.026 H 
ATOM     26  H   LIG d   1      11.553   3.041  -3.667  0.00  0.00     0.026 H 
ENDBRANCH  21  23
BRANCH  21  27
ATOM     27  O   LIG d   1      10.250   0.103  -4.655  0.00  0.00    -0.385 OA
ATOM     28  H   LIG d   1      11.180  -0.479  -4.569  0.00  0.00     0.210 HD
ENDBRANCH  21  27
ENDBRANCH  19  21
ENDBRANCH  16  19
ENDBRANCH   1  16
BRANCH   7  29
ATOM     29  O   LIG d   1       3.575  -2.490  -2.814  0.00  0.00    -0.506 OA
ATOM     30  H   LIG d   1       3.590  -3.106  -1.903  0.00  0.00     0.292 HD
ENDBRANCH   7  29
TORSDOF 6
ENDMDL
MODEL 4
REMARK VINA RESULT:      -5.3      1.987      5.446
REMARK  6 active torsions:
REMARK  status: ('A' for Active; 'I' for Inactive)
REMARK    1  A    between atoms: C_1  and  C_2 
REMARK    2  A    between atoms: C_2  and  C_4 
REMARK    3  A    between atoms: C_2  and  O_18 
REMARK    4  A    between atoms: C_4  and  C_6 
REMARK    5  A    between atoms: C_6  and  C_7 
REMARK    6  A    between atoms: C_13  and  O_17 
ROOT
ATOM      1  C   LIG d   1       4.077  -0.365  -6.903  0.00  0.00     0.091 C 
ATOM      2  H   LIG d   1       4.982   0.241  -7.055  0.00  0.00     0.065 H 
ATOM      3  C   LIG d   1       3.670  -0.444  -5.450  0.00  0.00    -0.010 A 
ATOM      4  C   LIG d   1       3.013   0.435  -4.614  0.00  0.00    -0.056 A 
ATOM      5  C   LIG d   1       2.778   0.092  -3.295  0.00  0.00    -0.058 A 
ATOM      6  C   LIG d   1       3.206  -1.129  -2.810  0.00  0.00    -0.020 A 
ATOM      7  C   LIG d   1       3.873  -2.013  -3.647  0.00  0.00     0.123 A 
ATOM      8  C   LIG d   1       4.106  -1.667  -4.967  0.00  0.00     0.025 A 
ATOM      9  C   LIG d   1       4.786  -2.384  -6.109  0.00  0.00     0.077 C 
ATOM     10  O   LIG d   1       4.353  -1.718  -7.310  0.00  0.00    -0.367 OA
ATOM     11  H   LIG d   1       2.678   1.390  -4.991  0.00  0.00     0.062 H 
ATOM     12  H   LIG d   1       2.261   0.780  -2.642  0.00  0.00     0.062 H 
ATOM     13  H   LIG d   1       3.022  -1.396  -1.779  0.00  0.00     0.065 H 
ATOM     14  H   LIG d   1       5.877  -2.315  -5.988  0.00  0.00     0.061 H 
ATOM     15  H   LIG d   1       4.484  -3.442  -6.110  0.00  0.00     0.061 H 
ENDROOT
BRANCH   1  16
ATOM     16  C   LIG d   1       2.931   0.212  -7.737  0.00  0.00     0.039 C 
ATOM     17  H   LIG d   1       2.069   0.416  -7.085  0.00  0.00     0.037 H 
ATOM     18  H   LIG d   1       2.640  -0.512  -8.513  0.00  0.00     0.037 H 
BRANCH  16  19
ATOM     19  C   LIG d   1       3.381   1.494  -8.389  0.00  0.00     0.164 C 
ATOM     20  O   LIG d   1       2.853   2.539  -8.094  0.00  0.00    -0.295 OA
BRANCH  19  21
ATOM     21  C   LIG d   1       4.490   1.472  -9.408  0.00  0.00     0.110 C 
ATOM     22  H   LIG d   1       5.194   0.653  -9.193  0.00  0.00     0.067 H 
BRANCH  21  23
ATOM     23  C   LIG d   1       3.892   1.347 -10.811  0.00  0.00    -0.032 C 
ATOM     24  H   LIG d   1       2.852   1.707 -10.799  0.00  0.00     0.026 H 
ATOM     25  H   LIG d   1       3.910   0.294 -11.126  0.00  0.00     0.026 H 
ATOM     26  H   LIG d   1       4.481   1.951 -11.517  0.00  0.00     0.026 H 
ENDBRANCH  21  23
BRANCH  21  27
ATOM     27  O   LIG d   1       5.246   2.681  -9.318  0.00  0.00    -0.385 OA
ATOM     28  H   LIG d   1       5.039   3.400  -8.511  0.00  0.00     0.210 HD
ENDBRANCH  21  27
ENDBRANCH  19  21
ENDBRANCH  16  19
ENDBRANCH   1  16
BRANCH   7  29
ATOM     29  O   LIG d   1       4.294  -3.214  -3.172  0.00  0.00    -0.506 OA
ATOM     30  H   LIG d   1       3.981  -3.551  -2.173  0.00  0.00     0.292 HD
ENDBRANCH   7  29
TORSDOF 6
ENDMDL
MODEL 5
REMARK VINA RESULT:      -5.0      8.923     10.715
REMARK  6 active torsions:
REMARK  status: ('A' for Active; 'I' for Inactive)
REMARK    1  A    between atoms: C_1  and  C_2 
REMARK    2  A    between atoms: C_2  and  C_4 
REMARK    3  A    between atoms: C_2  and  O_18 
REMARK    4  A    between atoms: C_4  and  C_6 
REMARK    5  A    between atoms: C_6  and  C_7 
REMARK    6  A    between atoms: C_13  and  O_17 
ROOT
ATOM      1  C   LIG d   1       9.723   7.754  -1.442  0.00  0.00     0.091 C 
ATOM      2  H   LIG d   1       8.730   7.899  -0.994  0.00  0.00     0.065 H 
ATOM      3  C   LIG d   1       9.746   6.628  -2.449  0.00  0.00    -0.010 A 
ATOM      4  C   LIG d   1       9.329   6.538  -3.761  0.00  0.00    -0.056 A 
ATOM      5  C   LIG d   1       9.469   5.348  -4.453  0.00  0.00    -0.058 A 
ATOM      6  C   LIG d   1      10.020   4.245  -3.828  0.00  0.00    -0.020 A 
ATOM      7  C   LIG d   1      10.433   4.330  -2.506  0.00  0.00     0.123 A 
ATOM      8  C   LIG d   1      10.292   5.523  -1.817  0.00  0.00     0.025 A 
ATOM      9  C   LIG d   1      10.635   5.937  -0.405  0.00  0.00     0.077 C 
ATOM     10  O   LIG d   1      10.648   7.376  -0.406  0.00  0.00    -0.367 OA
ATOM     11  H   LIG d   1       8.899   7.399  -4.251  0.00  0.00     0.062 H 
ATOM     12  H   LIG d   1       9.146   5.280  -5.481  0.00  0.00     0.062 H 
ATOM     13  H   LIG d   1      10.128   3.316  -4.369  0.00  0.00     0.065 H 
ATOM     14  H   LIG d   1       9.873   5.547   0.286  0.00  0.00     0.061 H 
ATOM     15  H   LIG d   1      11.619   5.529  -0.132  0.00  0.00     0.061 H 
ENDROOT
BRANCH   1  16
ATOM     16  C   LIG d   1      10.178   9.057  -2.105  0.00  0.00     0.039 C 
ATOM     17  H   LIG d   1      10.304   8.895  -3.185  0.00  0.00     0.037 H 
ATOM     18  H   LIG d   1      11.136   9.376  -1.668  0.00  0.00     0.037 H 
BRANCH  16  19
ATOM     19  C   LIG d   1       9.140  10.126  -1.875  0.00  0.00     0.164 C 
ATOM     20  O   LIG d   1       8.460  10.102  -0.878  0.00  0.00    -0.295 OA
BRANCH  19  21
ATOM     21  C   LIG d   1       8.953  11.224  -2.889  0.00  0.00     0.110 C 
ATOM     22  H   LIG d   1       9.460  12.143  -2.559  0.00  0.00     0.067 H 
BRANCH  21  23
ATOM     23  C   LIG d   1       9.468  10.754  -4.251  0.00  0.00    -0.032 C 
ATOM     24  H   LIG d   1      10.549  10.950  -4.322  0.00  0.00     0.026 H 
ATOM     25  H   LIG d   1       8.944  11.299  -5.050  0.00  0.00     0.026 H 
ATOM     26  H   LIG d   1       9.284   9.675  -4.361  0.00  0.00     0.026 H 
ENDBRANCH  21  23
BRANCH  21  27
ATOM     27  O   LIG d   1       7.565  11.548  -2.991  0.00  0.00    -0.385 OA
ATOM     28  H   LIG d   1       7.222  12.261  -3.757  0.00  0.00     0.210 HD
ENDBRANCH  21  27
ENDBRANCH  19  21
ENDBRANCH  16  19
ENDBRANCH   1  16
BRANCH   7  29
ATOM     29  O   LIG d   1      10.975   3.247  -1.891  0.00  0.00    -0.506 OA
ATOM     30  H   LIG d   1      10.831   2.243  -2.317  0.00  0.00     0.292 HD
ENDBRANCH   7  29
TORSDOF 6
ENDMDL
MODEL 6
REMARK VINA RESULT:      -5.0      2.536      5.728
REMARK  6 active torsions:
REMARK  status: ('A' for Active; 'I' for Inactive)
REMARK    1  A    between atoms: C_1  and  C_2 
REMARK    2  A    between atoms: C_2  and  C_4 
REMARK    3  A    between atoms: C_2  and  O_18 
REMARK    4  A    between atoms: C_4  and  C_6 
REMARK    5  A    between atoms: C_6  and  C_7 
REMARK    6  A    between atoms: C_13  and  O_17 
ROOT
ATOM      1  C   LIG d   1       3.415  -0.816  -5.992  0.00  0.00     0.091 C 
ATOM      2  H   LIG d   1       2.488  -1.361  -6.222  0.00  0.00     0.065 H 
ATOM      3  C   LIG d   1       3.822  -0.951  -4.543  0.00  0.00    -0.010 A 
ATOM      4  C   LIG d   1       4.442  -1.959  -3.836  0.00  0.00    -0.056 A 
ATOM      5  C   LIG d   1       4.687  -1.808  -2.483  0.00  0.00    -0.058 A 
ATOM      6  C   LIG d   1       4.306  -0.648  -1.836  0.00  0.00    -0.020 A 
ATOM      7  C   LIG d   1       3.675   0.367  -2.544  0.00  0.00     0.123 A 
ATOM      8  C   LIG d   1       3.432   0.211  -3.898  0.00  0.00     0.025 A 
ATOM      9  C   LIG d   1       2.783   1.103  -4.930  0.00  0.00     0.077 C 
ATOM     10  O   LIG d   1       3.192   0.588  -6.211  0.00  0.00    -0.367 OA
ATOM     11  H   LIG d   1       4.742  -2.867  -4.340  0.00  0.00     0.062 H 
ATOM     12  H   LIG d   1       5.177  -2.597  -1.931  0.00  0.00     0.062 H 
ATOM     13  H   LIG d   1       4.498  -0.530  -0.779  0.00  0.00     0.065 H 
ATOM     14  H   LIG d   1       1.689   1.060  -4.816  0.00  0.00     0.061 H 
ATOM     15  H   LIG d   1       3.125   2.138  -4.789  0.00  0.00     0.061 H 
ENDROOT
BRANCH   1  16
ATOM     16  C   LIG d   1       4.540  -1.319  -6.900  0.00  0.00     0.039 C 
ATOM     17  H   LIG d   1       5.392  -1.644  -6.284  0.00  0.00     0.037 H 
ATOM     18  H   LIG d   1       4.861  -0.508  -7.570  0.00  0.00     0.037 H 
BRANCH  16  19
ATOM     19  C   LIG d   1       4.041  -2.482  -7.720  0.00  0.00     0.164 C 
ATOM     20  O   LIG d   1       3.334  -2.285  -8.677  0.00  0.00    -0.295 OA
BRANCH  19  21
ATOM     21  C   LIG d   1       4.428  -3.889  -7.344  0.00  0.00     0.110 C 
ATOM     22  H   LIG d   1       4.412  -4.541  -8.230  0.00  0.00     0.067 H 
BRANCH  21  23
ATOM     23  C   LIG d   1       5.804  -3.878  -6.676  0.00  0.00    -0.032 C 
ATOM     24  H   LIG d   1       5.929  -4.793  -6.078  0.00  0.00     0.026 H 
ATOM     25  H   LIG d   1       5.887  -2.999  -6.020  0.00  0.00     0.026 H 
ATOM     26  H   LIG d   1       6.587  -3.835  -7.448  0.00  0.00     0.026 H 
ENDBRANCH  21  23
BRANCH  21  27
ATOM     27  O   LIG d   1       3.462  -4.423  -6.437  0.00  0.00    -0.385 OA
ATOM     28  H   LIG d   1       3.457  -5.500  -6.211  0.00  0.00     0.210 HD
ENDBRANCH  21  27
ENDBRANCH  19  21
ENDBRANCH  16  19
ENDBRANCH   1  16
BRANCH   7  29
ATOM     29  O   LIG d   1       3.300   1.507  -1.910  0.00  0.00    -0.506 OA
ATOM     30  H   LIG d   1       3.799   1.808  -0.977  0.00  0.00     0.292 HD
ENDBRANCH   7  29
TORSDOF 6
ENDMDL
MODEL 7
REMARK VINA RESULT:      -5.0      4.324      6.440
REMARK  6 active torsions:
REMARK  status: ('A' for Active; 'I' for Inactive)
REMARK    1  A    between atoms: C_1  and  C_2 
REMARK    2  A    between atoms: C_2  and  C_4 
REMARK    3  A    between atoms: C_2  and  O_18 
REMARK    4  A    between atoms: C_4  and  C_6 
REMARK    5  A    between atoms: C_6  and  C_7 
REMARK    6  A    between atoms: C_13  and  O_17 
ROOT
ATOM      1  C   LIG d   1       6.920  -2.265  -4.715  0.00  0.00     0.091 C 
ATOM      2  H   LIG d   1       6.663  -2.169  -5.780  0.00  0.00     0.065 H 
ATOM      3  C   LIG d   1       5.780  -1.872  -3.805  0.00  0.00    -0.010 A 
ATOM      4  C   LIG d   1       4.631  -2.526  -3.410  0.00  0.00    -0.056 A 
ATOM      5  C   LIG d   1       3.739  -1.904  -2.555  0.00  0.00    -0.058 A 
ATOM      6  C   LIG d   1       3.994  -0.624  -2.100  0.00  0.00    -0.020 A 
ATOM      7  C   LIG d   1       5.145   0.039  -2.502  0.00  0.00     0.123 A 
ATOM      8  C   LIG d   1       6.036  -0.587  -3.357  0.00  0.00     0.025 A 
ATOM      9  C   LIG d   1       7.348  -0.152  -3.967  0.00  0.00     0.077 C 
ATOM     10  O   LIG d   1       7.995  -1.357  -4.415  0.00  0.00    -0.367 OA
ATOM     11  H   LIG d   1       4.430  -3.526  -3.764  0.00  0.00     0.062 H 
ATOM     12  H   LIG d   1       2.842  -2.418  -2.243  0.00  0.00     0.062 H 
ATOM     13  H   LIG d   1       3.296  -0.139  -1.433  0.00  0.00     0.065 H 
ATOM     14  H   LIG d   1       7.153   0.531  -4.808  0.00  0.00     0.061 H 
ATOM     15  H   LIG d   1       7.952   0.366  -3.208  0.00  0.00     0.061 H 
ENDROOT
BRANCH   1  16
ATOM     16  C   LIG d   1       7.350  -3.705  -4.423  0.00  0.00     0.039 C 
ATOM     17  H   LIG d   1       6.839  -4.389  -5.117  0.00  0.00     0.037 H 
ATOM     18  H   LIG d   1       7.081  -3.965  -3.388  0.00  0.00     0.037 H 
BRANCH  16  19
ATOM     19  C   LIG d   1       8.841  -3.830  -4.601  0.00  0.00     0.164 C 
ATOM     20  O   LIG d   1       9.324  -3.768  -5.706  0.00  0.00    -0.295 OA
BRANCH  19  21
ATOM     21  C   LIG d   1       9.729  -4.033  -3.401  0.00  0.00     0.110 C 
ATOM     22  H   LIG d   1       9.753  -5.095  -3.116  0.00  0.00     0.067 H 
BRANCH  21  23
ATOM     23  C   LIG d   1      11.129  -3.498  -3.706  0.00  0.00    -0.032 C 
ATOM     24  H   LIG d   1      11.056  -2.671  -4.429  0.00  0.00     0.026 H 
ATOM     25  H   LIG d   1      11.745  -4.304  -4.133  0.00  0.00     0.026 H 
ATOM     26  H   LIG d   1      11.594  -3.134  -2.778  0.00  0.00     0.026 H 
ENDBRANCH  21  23
BRANCH  21  27
ATOM     27  O   LIG d   1       9.185  -3.331  -2.281  0.00  0.00    -0.385 OA
ATOM     28  H   LIG d   1       8.094  -3.238  -2.169  0.00  0.00     0.210 HD
ENDBRANCH  21  27
ENDBRANCH  19  21
ENDBRANCH  16  19
ENDBRANCH   1  16
BRANCH   7  29
ATOM     29  O   LIG d   1       5.398   1.297  -2.056  0.00  0.00    -0.506 OA
ATOM     30  H   LIG d   1       6.382   1.542  -1.629  0.00  0.00     0.292 HD
ENDBRANCH   7  29
TORSDOF 6
ENDMDL
MODEL 8
REMARK VINA RESULT:      -5.0      1.715      5.608
REMARK  6 active torsions:
REMARK  status: ('A' for Active; 'I' for Inactive)
REMARK    1  A    between atoms: C_1  and  C_2 
REMARK    2  A    between atoms: C_2  and  C_4 
REMARK    3  A    between atoms: C_2  and  O_18 
REMARK    4  A    between atoms: C_4  and  C_6 
REMARK    5  A    between atoms: C_6  and  C_7 
REMARK    6  A    between atoms: C_13  and  O_17 
ROOT
ATOM      1  C   LIG d   1       3.554  -0.407  -6.335  0.00  0.00     0.091 C 
ATOM      2  H   LIG d   1       2.731  -1.062  -6.656  0.00  0.00     0.065 H 
ATOM      3  C   LIG d   1       4.042  -0.729  -4.942  0.00  0.00    -0.010 A 
ATOM      4  C   LIG d   1       4.865  -1.719  -4.445  0.00  0.00    -0.056 A 
ATOM      5  C   LIG d   1       5.138  -1.778  -3.091  0.00  0.00    -0.058 A 
ATOM      6  C   LIG d   1       4.582  -0.849  -2.231  0.00  0.00    -0.020 A 
ATOM      7  C   LIG d   1       3.748   0.143  -2.727  0.00  0.00     0.123 A 
ATOM      8  C   LIG d   1       3.477   0.199  -4.083  0.00  0.00     0.025 A 
ATOM      9  C   LIG d   1       2.633   1.130  -4.922  0.00  0.00     0.077 C 
ATOM     10  O   LIG d   1       3.072   0.948  -6.280  0.00  0.00    -0.367 OA
ATOM     11  H   LIG d   1       5.301  -2.445  -5.115  0.00  0.00     0.062 H 
ATOM     12  H   LIG d   1       5.785  -2.551  -2.704  0.00  0.00     0.062 H 
ATOM     13  H   LIG d   1       4.796  -0.897  -1.173  0.00  0.00     0.065 H 
ATOM     14  H   LIG d   1       1.571   0.865  -4.808  0.00  0.00     0.061 H 
ATOM     15  H   LIG d   1       2.789   2.167  -4.588  0.00  0.00     0.061 H 
ENDROOT
BRANCH   1  16
ATOM     16  C   LIG d   1       4.710  -0.515  -7.332  0.00  0.00     0.039 C 
ATOM     17  H   LIG d   1       4.938  -1.575  -7.516  0.00  0.00     0.037 H 
ATOM     18  H   LIG d   1       5.599  -0.015  -6.919  0.00  0.00     0.037 H 
BRANCH  16  19
ATOM     19  C   LIG d   1       4.319   0.147  -8.628  0.00  0.00     0.164 C 
ATOM     20  O   LIG d   1       3.401  -0.291  -9.277  0.00  0.00    -0.295 OA
BRANCH  19  21
ATOM     21  C   LIG d   1       5.074   1.358  -9.114  0.00  0.00     0.110 C 
ATOM     22  H   LIG d   1       5.588   1.136 -10.060  0.00  0.00     0.067 H 
BRANCH  21  23
ATOM     23  C   LIG d   1       4.109   2.536  -9.257  0.00  0.00    -0.032 C 
ATOM     24  H   LIG d   1       3.149   2.284  -8.784  0.00  0.00     0.026 H 
ATOM     25  H   LIG d   1       3.946   2.749 -10.324  0.00  0.00     0.026 H 
ATOM     26  H   LIG d   1       4.538   3.424  -8.768  0.00  0.00     0.026 H 
ENDBRANCH  21  23
BRANCH  21  27
ATOM     27  O   LIG d   1       6.096   1.691  -8.173  0.00  0.00    -0.385 OA
ATOM     28  H   LIG d   1       7.153   1.678  -8.481  0.00  0.00     0.210 HD
ENDBRANCH  21  27
ENDBRANCH  19  21
ENDBRANCH  16  19
ENDBRANCH   1  16
BRANCH   7  29
ATOM     29  O   LIG d   1       3.201   1.057  -1.884  0.00  0.00    -0.506 OA
ATOM     30  H   LIG d   1       3.057   2.095  -2.217  0.00  0.00     0.292 HD
ENDBRANCH   7  29
TORSDOF 6
ENDMDL
MODEL 9
REMARK VINA RESULT:      -4.9     10.228     12.370
REMARK  6 active torsions:
REMARK  status: ('A' for Active; 'I' for Inactive)
REMARK    1  A    between atoms: C_1  and  C_2 
REMARK    2  A    between atoms: C_2  and  C_4 
REMARK    3  A    between atoms: C_2  and  O_18 
REMARK    4  A    between atoms: C_4  and  C_6 
REMARK    5  A    between atoms: C_6  and  C_7 
REMARK    6  A    between atoms: C_13  and  O_17 
ROOT
ATOM      1  C   LIG d   1      10.398   8.876  -1.932  0.00  0.00     0.091 C 
ATOM      2  H   LIG d   1      11.288   9.417  -2.288  0.00  0.00     0.065 H 
ATOM      3  C   LIG d   1      10.712   7.930  -0.797  0.00  0.00    -0.010 A 
ATOM      4  C   LIG d   1      10.921   8.126   0.553  0.00  0.00    -0.056 A 
ATOM      5  C   LIG d   1      11.206   7.050   1.373  0.00  0.00    -0.058 A 
ATOM      6  C   LIG d   1      11.287   5.776   0.842  0.00  0.00    -0.020 A 
ATOM      7  C   LIG d   1      11.084   5.577  -0.517  0.00  0.00     0.123 A 
ATOM      8  C   LIG d   1      10.799   6.657  -1.335  0.00  0.00     0.025 A 
ATOM      9  C   LIG d   1      10.531   6.777  -2.817  0.00  0.00     0.077 C 
ATOM     10  O   LIG d   1       9.897   8.056  -3.003  0.00  0.00    -0.367 OA
ATOM     11  H   LIG d   1      10.857   9.120   0.970  0.00  0.00     0.062 H 
ATOM     12  H   LIG d   1      11.365   7.204   2.430  0.00  0.00     0.062 H 
ATOM     13  H   LIG d   1      11.510   4.936   1.483  0.00  0.00     0.065 H 
ATOM     14  H   LIG d   1      11.482   6.720  -3.367  0.00  0.00     0.061 H 
ATOM     15  H   LIG d   1       9.873   5.956  -3.138  0.00  0.00     0.061 H 
ENDROOT
BRANCH   1  16
ATOM     16  C   LIG d   1       9.331   9.883  -1.495  0.00  0.00     0.039 C 
ATOM     17  H   LIG d   1       9.343   9.978  -0.400  0.00  0.00     0.037 H 
ATOM     18  H   LIG d   1       8.341   9.531  -1.821  0.00  0.00     0.037 H 
BRANCH  16  19
ATOM     19  C   LIG d   1       9.619  11.224  -2.120  0.00  0.00     0.164 C 
ATOM     20  O   LIG d   1      10.583  11.859  -1.767  0.00  0.00    -0.295 OA
BRANCH  19  21
ATOM     21  C   LIG d   1       8.705  11.770  -3.186  0.00  0.00     0.110 C 
ATOM     22  H   LIG d   1       8.728  12.870  -3.186  0.00  0.00     0.067 H 
BRANCH  21  23
ATOM     23  C   LIG d   1       9.109  11.197  -4.546  0.00  0.00    -0.032 C 
ATOM     24  H   LIG d   1       8.747  11.861  -5.346  0.00  0.00     0.026 H 
ATOM     25  H   LIG d   1       8.665  10.198  -4.670  0.00  0.00     0.026 H 
ATOM     26  H   LIG d   1      10.205  11.121  -4.602  0.00  0.00     0.026 H 
ENDBRANCH  21  23
BRANCH  21  27
ATOM     27  O   LIG d   1       7.357  11.398  -2.895  0.00  0.00    -0.385 OA
ATOM     28  H   LIG d   1       6.936  11.596  -1.897  0.00  0.00     0.210 HD
ENDBRANCH  21  27
ENDBRANCH  19  21
ENDBRANCH  16  19
ENDBRANCH   1  16
BRANCH   7  29
ATOM     29  O   LIG d   1      11.163   4.327  -1.041  0.00  0.00    -0.506 OA
ATOM     30  H   LIG d   1      10.690   4.105  -2.009  0.00  0.00     0.292 HD
ENDBRANCH   7  29
TORSDOF 6
ENDMDL
