MODEL 1
REMARK VINA RESULT:      -4.2      0.000      0.000
REMARK  8 active torsions:
REMARK  status: ('A' for Active; 'I' for Inactive)
REMARK    1  A    between atoms: C_1  and  N_30 
REMARK    2  A    between atoms: C_2  and  C_3 
REMARK    3  A    between atoms: C_2  and  N_30 
REMARK    4  A    between atoms: C_3  and  C_5 
REMARK    5  A    between atoms: C_3  and  O_13 
REMARK    6  A    between atoms: C_8  and  O_11 
REMARK    7  A    between atoms: O_11  and  C_12 
REMARK    8  A    between atoms: O_13  and  C_14 
ROOT
ATOM      1  C   LIG d   1       5.431  -3.981  -4.964  0.00  0.00     0.123 C 
ATOM      2  H   LIG d   1       5.096  -4.897  -4.478  0.00  0.00     0.070 H 
ENDROOT
BRANCH   1   3
ATOM      3  C   LIG d   1       4.638  -3.770  -6.256  0.00  0.00    -0.003 C 
ATOM      4  H   LIG d   1       4.192  -2.776  -6.251  0.00  0.00     0.084 H 
ATOM      5  H   LIG d   1       5.308  -3.864  -7.111  0.00  0.00     0.084 H 
BRANCH   3   6
ATOM      6  N   LIG d   1       3.576  -4.791  -6.343  0.00  0.00     0.227 N 
ATOM      7  H   LIG d   1       3.408  -5.184  -5.409  0.00  0.00     0.201 HD
ATOM      8  H   LIG d   1       2.715  -4.354  -6.692  0.00  0.00     0.201 HD
BRANCH   6   9
ATOM      9  C   LIG d   1       3.980  -5.872  -7.261  0.00  0.00    -0.045 C 
ATOM     10  H   LIG d   1       3.714  -6.837  -6.830  0.00  0.00     0.078 H 
ATOM     11  H   LIG d   1       3.471  -5.749  -8.218  0.00  0.00     0.078 H 
ATOM     12  H   LIG d   1       5.058  -5.827  -7.414  0.00  0.00     0.078 H 
ENDBRANCH   6   9
ENDBRANCH   3   6
ENDBRANCH   1   3
BRANCH   1  13
ATOM     13  C   LIG d   1       5.204  -2.812  -4.040  0.00  0.00    -0.014 A 
ATOM     14  C   LIG d   1       6.132  -1.788  -3.981  0.00  0.00    -0.052 A 
ATOM     15  C   LIG d   1       5.926  -0.716  -3.135  0.00  0.00    -0.020 A 
ATOM     16  H   LIG d   1       7.018  -1.827  -4.596  0.00  0.00     0.062 H 
ATOM     17  C   LIG d   1       4.788  -0.667  -2.343  0.00  0.00     0.120 A 
ATOM     18  H   LIG d   1       6.651   0.084  -3.089  0.00  0.00     0.065 H 
ATOM     19  C   LIG d   1       3.859  -1.694  -2.404  0.00  0.00    -0.020 A 
ATOM     20  C   LIG d   1       4.066  -2.762  -3.256  0.00  0.00    -0.052 A 
ATOM     21  H   LIG d   1       2.971  -1.659  -1.789  0.00  0.00     0.065 H 
ATOM     22  H   LIG d   1       3.341  -3.561  -3.307  0.00  0.00     0.062 H 
BRANCH  17  23
ATOM     23  O   LIG d   1       4.583   0.387  -1.510  0.00  0.00    -0.495 OA
BRANCH  23  24
ATOM     24  C   LIG d   1       3.928   1.532  -2.060  0.00  0.00     0.079 C 
ATOM     25  H   LIG d   1       4.098   1.566  -3.136  0.00  0.00     0.066 H 
ATOM     26  H   LIG d   1       2.857   1.467  -1.863  0.00  0.00     0.066 H 
ATOM     27  H   LIG d   1       4.328   2.435  -1.600  0.00  0.00     0.066 H 
ENDBRANCH  23  24
ENDBRANCH  17  23
ENDBRANCH   1  13
BRANCH   1  28
ATOM     28  O   LIG d   1       6.822  -4.084  -5.269  0.00  0.00    -0.370 OA
BRANCH  28  29
ATOM     29  C   LIG d   1       7.270  -5.423  -5.491  0.00  0.00     0.037 C 
ATOM     30  H   LIG d   1       8.360  -5.437  -5.538  0.00  0.00     0.052 H 
ATOM     31  H   LIG d   1       6.934  -6.060  -4.673  0.00  0.00     0.052 H 
ATOM     32  H   LIG d   1       6.861  -5.792  -6.431  0.00  0.00     0.052 H 
ENDBRANCH  28  29
ENDBRANCH   1  28
TORSDOF 8
ENDMDL
MODEL 2
REMARK VINA RESULT:      -4.1      4.378      5.022
REMARK  8 active torsions:
REMARK  status: ('A' for Active; 'I' for Inactive)
REMARK    1  A    between atoms: C_1  and  N_30 
REMARK    2  A    between atoms: C_2  and  C_3 
REMARK    3  A    between atoms: C_2  and  N_30 
REMARK    4  A    between atoms: C_3  and  C_5 
REMARK    5  A    between atoms: C_3  and  O_13 
REMARK    6  A    between atoms: C_8  and  O_11 
REMARK    7  A    between atoms: O_11  and  C_12 
REMARK    8  A    between atoms: O_13  and  C_14 
ROOT
ATOM      1  C   LIG d   1       3.185   0.554  -7.651  0.00  0.00     0.123 C 
ATOM      2  H   LIG d   1       2.928   1.612  -7.596  0.00  0.00     0.070 H 
ENDROOT
BRANCH   1   3
ATOM      3  C   LIG d   1       4.534   0.394  -8.357  0.00  0.00    -0.003 C 
ATOM      4  H   LIG d   1       5.189  -0.231  -7.752  0.00  0.00     0.084 H 
ATOM      5  H   LIG d   1       4.380  -0.074  -9.330  0.00  0.00     0.084 H 
BRANCH   3   6
ATOM      6  N   LIG d   1       5.144   1.725  -8.538  0.00  0.00     0.227 N 
ATOM      7  H   LIG d   1       5.318   2.146  -7.618  0.00  0.00     0.201 HD
ATOM      8  H   LIG d   1       6.034   1.623  -9.042  0.00  0.00     0.201 HD
BRANCH   6   9
ATOM      9  C   LIG d   1       4.244   2.600  -9.312  0.00  0.00    -0.045 C 
ATOM     10  H   LIG d   1       4.797   3.065 -10.129  0.00  0.00     0.078 H 
ATOM     11  H   LIG d   1       3.422   2.011  -9.720  0.00  0.00     0.078 H 
ATOM     12  H   LIG d   1       3.847   3.374  -8.656  0.00  0.00     0.078 H 
ENDBRANCH   6   9
ENDBRANCH   3   6
ENDBRANCH   1   3
BRANCH   1  13
ATOM     13  C   LIG d   1       3.277  -0.013  -6.258  0.00  0.00    -0.014 A 
ATOM     14  C   LIG d   1       4.241  -0.957  -5.959  0.00  0.00    -0.052 A 
ATOM     15  C   LIG d   1       4.327  -1.479  -4.683  0.00  0.00    -0.020 A 
ATOM     16  H   LIG d   1       4.928  -1.288  -6.724  0.00  0.00     0.062 H 
ATOM     17  C   LIG d   1       3.445  -1.055  -3.701  0.00  0.00     0.120 A 
ATOM     18  H   LIG d   1       5.081  -2.217  -4.450  0.00  0.00     0.065 H 
ATOM     19  C   LIG d   1       2.477  -0.107  -4.003  0.00  0.00    -0.020 A 
ATOM     20  C   LIG d   1       2.399   0.416  -5.279  0.00  0.00    -0.052 A 
ATOM     21  H   LIG d   1       1.789   0.226  -3.240  0.00  0.00     0.065 H 
ATOM     22  H   LIG d   1       1.649   1.157  -5.514  0.00  0.00     0.062 H 
BRANCH  17  23
ATOM     23  O   LIG d   1       3.527  -1.565  -2.444  0.00  0.00    -0.495 OA
BRANCH  23  24
ATOM     24  C   LIG d   1       4.602  -1.104  -1.624  0.00  0.00     0.079 C 
ATOM     25  H   LIG d   1       5.202  -1.954  -1.300  0.00  0.00     0.066 H 
ATOM     26  H   LIG d   1       5.226  -0.416  -2.197  0.00  0.00     0.066 H 
ATOM     27  H   LIG d   1       4.199  -0.589  -0.752  0.00  0.00     0.066 H 
ENDBRANCH  23  24
ENDBRANCH  17  23
ENDBRANCH   1  13
BRANCH   1  28
ATOM     28  O   LIG d   1       2.177  -0.143  -8.384  0.00  0.00    -0.370 OA
BRANCH  28  29
ATOM     29  C   LIG d   1       2.691  -1.081  -9.332  0.00  0.00     0.037 C 
ATOM     30  H   LIG d   1       2.240  -0.895 -10.307  0.00  0.00     0.052 H 
ATOM     31  H   LIG d   1       3.773  -0.969  -9.405  0.00  0.00     0.052 H 
ATOM     32  H   LIG d   1       2.451  -2.093  -9.008  0.00  0.00     0.052 H 
ENDBRANCH  28  29
ENDBRANCH   1  28
TORSDOF 8
ENDMDL
MODEL 3
REMARK VINA RESULT:      -4.1      4.133      4.780
REMARK  8 active torsions:
REMARK  status: ('A' for Active; 'I' for Inactive)
REMARK    1  A    between atoms: C_1  and  N_30 
REMARK    2  A    between atoms: C_2  and  C_3 
REMARK    3  A    between atoms: C_2  and  N_30 
REMARK    4  A    between atoms: C_3  and  C_5 
REMARK    5  A    between atoms: C_3  and  O_13 
REMARK    6  A    between atoms: C_8  and  O_11 
REMARK    7  A    between atoms: O_11  and  C_12 
REMARK    8  A    between atoms: O_13  and  C_14 
ROOT
ATOM      1  C   LIG d   1       3.482   0.397  -7.940  0.00  0.00     0.123 C 
ATOM      2  H   LIG d   1       4.419   0.061  -8.383  0.00  0.00     0.070 H 
ENDROOT
BRANCH   1   3
ATOM      3  C   LIG d   1       2.308  -0.215  -8.707  0.00  0.00    -0.003 C 
ATOM      4  H   LIG d   1       1.471  -0.370  -8.026  0.00  0.00     0.084 H 
ATOM      5  H   LIG d   1       2.005   0.462  -9.507  0.00  0.00     0.084 H 
BRANCH   3   6
ATOM      6  N   LIG d   1       2.727  -1.507  -9.282  0.00  0.00     0.227 N 
ATOM      7  H   LIG d   1       2.793  -2.205  -8.533  0.00  0.00     0.201 HD
ATOM      8  H   LIG d   1       2.032  -1.811  -9.974  0.00  0.00     0.201 HD
BRANCH   6   9
ATOM      9  C   LIG d   1       4.041  -1.372  -9.939  0.00  0.00    -0.045 C 
ATOM     10  H   LIG d   1       4.833  -1.468  -9.197  0.00  0.00     0.078 H 
ATOM     11  H   LIG d   1       4.155  -2.150 -10.694  0.00  0.00     0.078 H 
ATOM     12  H   LIG d   1       4.104  -0.393 -10.414  0.00  0.00     0.078 H 
ENDBRANCH   6   9
ENDBRANCH   3   6
ENDBRANCH   1   3
BRANCH   1  13
ATOM     13  C   LIG d   1       3.424  -0.039  -6.499  0.00  0.00    -0.014 A 
ATOM     14  C   LIG d   1       4.320  -0.977  -6.024  0.00  0.00    -0.052 A 
ATOM     15  C   LIG d   1       4.268  -1.378  -4.703  0.00  0.00    -0.020 A 
ATOM     16  H   LIG d   1       5.062  -1.398  -6.687  0.00  0.00     0.062 H 
ATOM     17  C   LIG d   1       3.315  -0.838  -3.853  0.00  0.00     0.120 A 
ATOM     18  H   LIG d   1       4.969  -2.112  -4.333  0.00  0.00     0.065 H 
ATOM     19  C   LIG d   1       2.416   0.104  -4.331  0.00  0.00    -0.020 A 
ATOM     20  C   LIG d   1       2.475   0.506  -5.651  0.00  0.00    -0.052 A 
ATOM     21  H   LIG d   1       1.672   0.526  -3.671  0.00  0.00     0.065 H 
ATOM     22  H   LIG d   1       1.779   1.242  -6.024  0.00  0.00     0.062 H 
BRANCH  17  23
ATOM     23  O   LIG d   1       3.261  -1.231  -2.553  0.00  0.00    -0.495 OA
BRANCH  23  24
ATOM     24  C   LIG d   1       4.503  -1.342  -1.856  0.00  0.00     0.079 C 
ATOM     25  H   LIG d   1       4.578  -0.543  -1.119  0.00  0.00     0.066 H 
ATOM     26  H   LIG d   1       4.551  -2.308  -1.351  0.00  0.00     0.066 H 
ATOM     27  H   LIG d   1       5.327  -1.261  -2.564  0.00  0.00     0.066 H 
ENDBRANCH  23  24
ENDBRANCH  17  23
ENDBRANCH   1  13
BRANCH   1  28
ATOM     28  O   LIG d   1       3.407   1.822  -8.011  0.00  0.00    -0.370 OA
BRANCH  28  29
ATOM     29  C   LIG d   1       4.011   2.379  -9.179  0.00  0.00     0.037 C 
ATOM     30  H   LIG d   1       4.338   1.574  -9.838  0.00  0.00     0.052 H 
ATOM     31  H   LIG d   1       3.285   3.003  -9.702  0.00  0.00     0.052 H 
ATOM     32  H   LIG d   1       4.869   2.985  -8.892  0.00  0.00     0.052 H 
ENDBRANCH  28  29
ENDBRANCH   1  28
TORSDOF 8
ENDMDL
MODEL 4
REMARK VINA RESULT:      -3.9      4.290      6.050
REMARK  8 active torsions:
REMARK  status: ('A' for Active; 'I' for Inactive)
REMARK    1  A    between atoms: C_1  and  N_30 
REMARK    2  A    between atoms: C_2  and  C_3 
REMARK    3  A    between atoms: C_2  and  N_30 
REMARK    4  A    between atoms: C_3  and  C_5 
REMARK    5  A    between atoms: C_3  and  O_13 
REMARK    6  A    between atoms: C_8  and  O_11 
REMARK    7  A    between atoms: O_11  and  C_12 
REMARK    8  A    between atoms: O_13  and  C_14 
ROOT
ATOM      1  C   LIG d   1       4.042  -0.575  -4.366  0.00  0.00     0.123 C 
ATOM      2  H   LIG d   1       5.064  -0.419  -4.022  0.00  0.00     0.070 H 
ENDROOT
BRANCH   1   3
ATOM      3  C   LIG d   1       3.121   0.455  -3.706  0.00  0.00    -0.003 C 
ATOM      4  H   LIG d   1       2.426   0.848  -4.447  0.00  0.00     0.084 H 
ATOM      5  H   LIG d   1       2.562  -0.022  -2.900  0.00  0.00     0.084 H 
BRANCH   3   6
ATOM      6  N   LIG d   1       3.939   1.554  -3.159  0.00  0.00     0.227 N 
ATOM      7  H   LIG d   1       4.693   1.776  -3.819  0.00  0.00     0.201 HD
ATOM      8  H   LIG d   1       3.347   2.382  -3.024  0.00  0.00     0.201 HD
BRANCH   6   9
ATOM      9  C   LIG d   1       4.526   1.159  -1.865  0.00  0.00    -0.045 C 
ATOM     10  H   LIG d   1       5.533   0.771  -2.022  0.00  0.00     0.078 H 
ATOM     11  H   LIG d   1       4.570   2.025  -1.203  0.00  0.00     0.078 H 
ATOM     12  H   LIG d   1       3.906   0.386  -1.411  0.00  0.00     0.078 H 
ENDBRANCH   6   9
ENDBRANCH   3   6
ENDBRANCH   1   3
BRANCH   1  13
ATOM     13  C   LIG d   1       3.985  -0.412  -5.863  0.00  0.00    -0.014 A 
ATOM     14  C   LIG d   1       2.890   0.190  -6.451  0.00  0.00    -0.052 A 
ATOM     15  C   LIG d   1       2.836   0.340  -7.824  0.00  0.00    -0.020 A 
ATOM     16  H   LIG d   1       2.075   0.544  -5.838  0.00  0.00     0.062 H 
ATOM     17  C   LIG d   1       3.883  -0.115  -8.611  0.00  0.00     0.120 A 
ATOM     18  H   LIG d   1       1.979   0.811  -8.283  0.00  0.00     0.065 H 
ATOM     19  C   LIG d   1       4.982  -0.720  -8.019  0.00  0.00    -0.020 A 
ATOM     20  C   LIG d   1       5.034  -0.862  -6.646  0.00  0.00    -0.052 A 
ATOM     21  H   LIG d   1       5.799  -1.076  -8.629  0.00  0.00     0.065 H 
ATOM     22  H   LIG d   1       5.890  -1.329  -6.183  0.00  0.00     0.062 H 
BRANCH  17  23
ATOM     23  O   LIG d   1       3.833   0.031  -9.961  0.00  0.00    -0.495 OA
BRANCH  23  24
ATOM     24  C   LIG d   1       3.965   1.357 -10.477  0.00  0.00     0.079 C 
ATOM     25  H   LIG d   1       3.278   1.492 -11.312  0.00  0.00     0.066 H 
ATOM     26  H   LIG d   1       3.730   2.077  -9.692  0.00  0.00     0.066 H 
ATOM     27  H   LIG d   1       4.988   1.514 -10.819  0.00  0.00     0.066 H 
ENDBRANCH  23  24
ENDBRANCH  17  23
ENDBRANCH   1  13
BRANCH   1  28
ATOM     28  O   LIG d   1       3.616  -1.891  -4.013  0.00  0.00    -0.370 OA
BRANCH  28  29
ATOM     29  C   LIG d   1       3.943  -2.270  -2.674  0.00  0.00     0.037 C 
ATOM     30  H   LIG d   1       4.165  -1.377  -2.089  0.00  0.00     0.052 H 
ATOM     31  H   LIG d   1       3.099  -2.796  -2.228  0.00  0.00     0.052 H 
ATOM     32  H   LIG d   1       4.815  -2.924  -2.684  0.00  0.00     0.052 H 
ENDBRANCH  28  29
ENDBRANCH   1  28
TORSDOF 8
ENDMDL
MODEL 5
REMARK VINA RESULT:      -3.8      2.020      5.294
REMARK  8 active torsions:
REMARK  status: ('A' for Active; 'I' for Inactive)
REMARK    1  A    between atoms: C_1  and  N_30 
REMARK    2  A    between atoms: C_2  and  C_3 
REMARK    3  A    between atoms: C_2  and  N_30 
REMARK    4  A    between atoms: C_3  and  C_5 
REMARK    5  A    between atoms: C_3  and  O_13 
REMARK    6  A    between atoms: C_8  and  O_11 
REMARK    7  A    between atoms: O_11  and  C_12 
REMARK    8  A    between atoms: O_13  and  C_14 
ROOT
ATOM      1  C   LIG d   1       4.736  -0.501  -3.564  0.00  0.00     0.123 C 
ATOM      2  H   LIG d   1       4.503   0.072  -4.462  0.00  0.00     0.070 H 
ENDROOT
BRANCH   1   3
ATOM      3  C   LIG d   1       3.439  -1.029  -2.947  0.00  0.00    -0.003 C 
ATOM      4  H   LIG d   1       3.532  -2.100  -2.768  0.00  0.00     0.084 H 
ATOM      5  H   LIG d   1       3.252  -0.518  -2.002  0.00  0.00     0.084 H 
BRANCH   3   6
ATOM      6  N   LIG d   1       2.323  -0.776  -3.877  0.00  0.00     0.227 N 
ATOM      7  H   LIG d   1       2.165  -1.611  -4.453  0.00  0.00     0.201 HD
ATOM      8  H   LIG d   1       1.474  -0.566  -3.338  0.00  0.00     0.201 HD
BRANCH   6   9
ATOM      9  C   LIG d   1       2.637   0.368  -4.754  0.00  0.00    -0.045 C 
ATOM     10  H   LIG d   1       1.899   0.431  -5.554  0.00  0.00     0.078 H 
ATOM     11  H   LIG d   1       2.622   1.290  -4.173  0.00  0.00     0.078 H 
ATOM     12  H   LIG d   1       3.628   0.226  -5.185  0.00  0.00     0.078 H 
ENDBRANCH   6   9
ENDBRANCH   3   6
ENDBRANCH   1   3
BRANCH   1  13
ATOM     13  C   LIG d   1       5.628  -1.659  -3.927  0.00  0.00    -0.014 A 
ATOM     14  C   LIG d   1       5.139  -2.691  -4.706  0.00  0.00    -0.052 A 
ATOM     15  C   LIG d   1       5.956  -3.754  -5.039  0.00  0.00    -0.020 A 
ATOM     16  H   LIG d   1       4.118  -2.666  -5.054  0.00  0.00     0.062 H 
ATOM     17  C   LIG d   1       7.268  -3.786  -4.592  0.00  0.00     0.120 A 
ATOM     18  H   LIG d   1       5.573  -4.560  -5.648  0.00  0.00     0.065 H 
ATOM     19  C   LIG d   1       7.758  -2.750  -3.810  0.00  0.00    -0.020 A 
ATOM     20  C   LIG d   1       6.939  -1.686  -3.484  0.00  0.00    -0.052 A 
ATOM     21  H   LIG d   1       8.779  -2.771  -3.459  0.00  0.00     0.065 H 
ATOM     22  H   LIG d   1       7.320  -0.876  -2.879  0.00  0.00     0.062 H 
BRANCH  17  23
ATOM     23  O   LIG d   1       8.075  -4.830  -4.918  0.00  0.00    -0.495 OA
BRANCH  23  24
ATOM     24  C   LIG d   1       8.836  -4.712  -6.122  0.00  0.00     0.079 C 
ATOM     25  H   LIG d   1       9.555  -3.899  -6.018  0.00  0.00     0.066 H 
ATOM     26  H   LIG d   1       9.367  -5.646  -6.308  0.00  0.00     0.066 H 
ATOM     27  H   LIG d   1       8.167  -4.501  -6.956  0.00  0.00     0.066 H 
ENDBRANCH  23  24
ENDBRANCH  17  23
ENDBRANCH   1  13
BRANCH   1  28
ATOM     28  O   LIG d   1       5.404   0.340  -2.623  0.00  0.00    -0.370 OA
BRANCH  28  29
ATOM     29  C   LIG d   1       4.539   0.923  -1.647  0.00  0.00     0.037 C 
ATOM     30  H   LIG d   1       5.128   1.526  -0.954  0.00  0.00     0.052 H 
ATOM     31  H   LIG d   1       3.803   1.555  -2.144  0.00  0.00     0.052 H 
ATOM     32  H   LIG d   1       4.028   0.134  -1.096  0.00  0.00     0.052 H 
ENDBRANCH  28  29
ENDBRANCH   1  28
TORSDOF 8
ENDMDL
MODEL 6
REMARK VINA RESULT:      -3.8      1.492      2.405
REMARK  8 active torsions:
REMARK  status: ('A' for Active; 'I' for Inactive)
REMARK    1  A    between atoms: C_1  and  N_30 
REMARK    2  A    between atoms: C_2  and  C_3 
REMARK    3  A    between atoms: C_2  and  N_30 
REMARK    4  A    between atoms: C_3  and  C_5 
REMARK    5  A    between atoms: C_3  and  O_13 
REMARK    6  A    between atoms: C_8  and  O_11 
REMARK    7  A    between atoms: O_11  and  C_12 
REMARK    8  A    between atoms: O_13  and  C_14 
ROOT
ATOM      1  C   LIG d   1       5.572  -3.943  -5.308  0.00  0.00     0.123 C 
ATOM      2  H   LIG d   1       5.518  -3.510  -6.307  0.00  0.00     0.070 H 
ENDROOT
BRANCH   1   3
ATOM      3  C   LIG d   1       6.967  -4.531  -5.082  0.00  0.00    -0.003 C 
ATOM      4  H   LIG d   1       7.568  -3.827  -4.507  0.00  0.00     0.084 H 
ATOM      5  H   LIG d   1       6.880  -5.468  -4.532  0.00  0.00     0.084 H 
BRANCH   3   6
ATOM      6  N   LIG d   1       7.604  -4.779  -6.389  0.00  0.00     0.227 N 
ATOM      7  H   LIG d   1       8.614  -4.904  -6.255  0.00  0.00     0.201 HD
ATOM      8  H   LIG d   1       7.205  -5.629  -6.804  0.00  0.00     0.201 HD
BRANCH   6   9
ATOM      9  C   LIG d   1       7.370  -3.640  -7.296  0.00  0.00    -0.045 C 
ATOM     10  H   LIG d   1       6.373  -3.234  -7.126  0.00  0.00     0.078 H 
ATOM     11  H   LIG d   1       8.114  -2.864  -7.109  0.00  0.00     0.078 H 
ATOM     12  H   LIG d   1       7.453  -3.982  -8.328  0.00  0.00     0.078 H 
ENDBRANCH   6   9
ENDBRANCH   3   6
ENDBRANCH   1   3
BRANCH   1  13
ATOM     13  C   LIG d   1       5.305  -2.872  -4.282  0.00  0.00    -0.014 A 
ATOM     14  C   LIG d   1       4.187  -2.953  -3.473  0.00  0.00    -0.052 A 
ATOM     15  C   LIG d   1       3.941  -1.972  -2.532  0.00  0.00    -0.020 A 
ATOM     16  H   LIG d   1       3.505  -3.783  -3.577  0.00  0.00     0.062 H 
ATOM     17  C   LIG d   1       4.817  -0.905  -2.399  0.00  0.00     0.120 A 
ATOM     18  H   LIG d   1       3.067  -2.035  -1.900  0.00  0.00     0.065 H 
ATOM     19  C   LIG d   1       5.939  -0.825  -3.212  0.00  0.00    -0.020 A 
ATOM     20  C   LIG d   1       6.183  -1.811  -4.148  0.00  0.00    -0.052 A 
ATOM     21  H   LIG d   1       6.623   0.005  -3.111  0.00  0.00     0.065 H 
ATOM     22  H   LIG d   1       7.058  -1.753  -4.778  0.00  0.00     0.062 H 
BRANCH  17  23
ATOM     23  O   LIG d   1       4.578   0.062  -1.474  0.00  0.00    -0.495 OA
BRANCH  23  24
ATOM     24  C   LIG d   1       4.140   1.332  -1.960  0.00  0.00     0.079 C 
ATOM     25  H   LIG d   1       3.101   1.492  -1.671  0.00  0.00     0.066 H 
ATOM     26  H   LIG d   1       4.761   2.119  -1.530  0.00  0.00     0.066 H 
ATOM     27  H   LIG d   1       4.223   1.355  -3.046  0.00  0.00     0.066 H 
ENDBRANCH  23  24
ENDBRANCH  17  23
ENDBRANCH   1  13
BRANCH   1  28
ATOM     28  O   LIG d   1       4.593  -4.976  -5.183  0.00  0.00    -0.370 OA
BRANCH  28  29
ATOM     29  C   LIG d   1       4.011  -5.379  -6.424  0.00  0.00     0.037 C 
ATOM     30  H   LIG d   1       3.319  -4.610  -6.768  0.00  0.00     0.052 H 
ATOM     31  H   LIG d   1       4.797  -5.518  -7.167  0.00  0.00     0.052 H 
ATOM     32  H   LIG d   1       3.473  -6.317  -6.286  0.00  0.00     0.052 H 
ENDBRANCH  28  29
ENDBRANCH   1  28
TORSDOF 8
ENDMDL
MODEL 7
REMARK VINA RESULT:      -3.8      3.819      5.925
REMARK  8 active torsions:
REMARK  status: ('A' for Active; 'I' for Inactive)
REMARK    1  A    between atoms: C_1  and  N_30 
REMARK    2  A    between atoms: C_2  and  C_3 
REMARK    3  A    between atoms: C_2  and  N_30 
REMARK    4  A    between atoms: C_3  and  C_5 
REMARK    5  A    between atoms: C_3  and  O_13 
REMARK    6  A    between atoms: C_8  and  O_11 
REMARK    7  A    between atoms: O_11  and  C_12 
REMARK    8  A    between atoms: O_13  and  C_14 
ROOT
ATOM      1  C   LIG d   1       4.413  -0.384  -5.224  0.00  0.00     0.123 C 
ATOM      2  H   LIG d   1       3.730   0.286  -4.703  0.00  0.00     0.070 H 
ENDROOT
BRANCH   1   3
ATOM      3  C   LIG d   1       4.590  -1.667  -4.408  0.00  0.00    -0.003 C 
ATOM      4  H   LIG d   1       4.808  -2.497  -5.079  0.00  0.00     0.084 H 
ATOM      5  H   LIG d   1       5.416  -1.540  -3.707  0.00  0.00     0.084 H 
BRANCH   3   6
ATOM      6  N   LIG d   1       3.346  -1.941  -3.664  0.00  0.00     0.227 N 
ATOM      7  H   LIG d   1       2.653  -2.349  -4.303  0.00  0.00     0.201 HD
ATOM      8  H   LIG d   1       3.544  -2.604  -2.905  0.00  0.00     0.201 HD
BRANCH   6   9
ATOM      9  C   LIG d   1       2.806  -0.694  -3.093  0.00  0.00    -0.045 C 
ATOM     10  H   LIG d   1       2.075  -0.263  -3.777  0.00  0.00     0.078 H 
ATOM     11  H   LIG d   1       2.327  -0.906  -2.137  0.00  0.00     0.078 H 
ATOM     12  H   LIG d   1       3.622   0.013  -2.942  0.00  0.00     0.078 H 
ENDBRANCH   6   9
ENDBRANCH   3   6
ENDBRANCH   1   3
BRANCH   1  13
ATOM     13  C   LIG d   1       3.847  -0.724  -6.578  0.00  0.00    -0.014 A 
ATOM     14  C   LIG d   1       2.906   0.103  -7.161  0.00  0.00    -0.052 A 
ATOM     15  C   LIG d   1       2.386  -0.207  -8.403  0.00  0.00    -0.020 A 
ATOM     16  H   LIG d   1       2.576   0.992  -6.645  0.00  0.00     0.062 H 
ATOM     17  C   LIG d   1       2.809  -1.350  -9.065  0.00  0.00     0.120 A 
ATOM     18  H   LIG d   1       1.650   0.440  -8.858  0.00  0.00     0.065 H 
ATOM     19  C   LIG d   1       3.754  -2.179  -8.479  0.00  0.00    -0.020 A 
ATOM     20  C   LIG d   1       4.275  -1.862  -7.239  0.00  0.00    -0.052 A 
ATOM     21  H   LIG d   1       4.086  -3.070  -8.992  0.00  0.00     0.065 H 
ATOM     22  H   LIG d   1       5.014  -2.504  -6.784  0.00  0.00     0.062 H 
BRANCH  17  23
ATOM     23  O   LIG d   1       2.300  -1.657 -10.287  0.00  0.00    -0.495 OA
BRANCH  23  24
ATOM     24  C   LIG d   1       1.378  -2.748 -10.351  0.00  0.00     0.079 C 
ATOM     25  H   LIG d   1       1.925  -3.675 -10.523  0.00  0.00     0.066 H 
ATOM     26  H   LIG d   1       0.832  -2.817  -9.410  0.00  0.00     0.066 H 
ATOM     27  H   LIG d   1       0.676  -2.583 -11.168  0.00  0.00     0.066 H 
ENDBRANCH  23  24
ENDBRANCH  17  23
ENDBRANCH   1  13
BRANCH   1  28
ATOM     28  O   LIG d   1       5.679   0.258  -5.384  0.00  0.00    -0.370 OA
BRANCH  28  29
ATOM     29  C   LIG d   1       6.708  -0.268  -4.544  0.00  0.00     0.037 C 
ATOM     30  H   LIG d   1       7.301  -0.992  -5.106  0.00  0.00     0.052 H 
ATOM     31  H   LIG d   1       7.352   0.543  -4.205  0.00  0.00     0.052 H 
ATOM     32  H   LIG d   1       6.259  -0.759  -3.681  0.00  0.00     0.052 H 
ENDBRANCH  28  29
ENDBRANCH   1  28
TORSDOF 8
ENDMDL
MODEL 8
REMARK VINA RESULT:      -3.7      8.262     11.075
REMARK  8 active torsions:
REMARK  status: ('A' for Active; 'I' for Inactive)
REMARK    1  A    between atoms: C_1  and  N_30 
REMARK    2  A    between atoms: C_2  and  C_3 
REMARK    3  A    between atoms: C_2  and  N_30 
REMARK    4  A    between atoms: C_3  and  C_5 
REMARK    5  A    between atoms: C_3  and  O_13 
REMARK    6  A    between atoms: C_8  and  O_11 
REMARK    7  A    between atoms: O_11  and  C_12 
REMARK    8  A    between atoms: O_13  and  C_14 
ROOT
ATOM      1  C   LIG d   1      10.538   6.796  -1.620  0.00  0.00     0.123 C 
ATOM      2  H   LIG d   1      11.625   6.865  -1.596  0.00  0.00     0.070 H 
ENDROOT
BRANCH   1   3
ATOM      3  C   LIG d   1       9.949   8.163  -1.972  0.00  0.00    -0.003 C 
ATOM      4  H   LIG d   1      10.666   8.944  -1.721  0.00  0.00     0.084 H 
ATOM      5  H   LIG d   1       9.730   8.201  -3.040  0.00  0.00     0.084 H 
BRANCH   3   6
ATOM      6  N   LIG d   1       8.705   8.365  -1.204  0.00  0.00     0.227 N 
ATOM      7  H   LIG d   1       7.898   8.234  -1.825  0.00  0.00     0.201 HD
ATOM      8  H   LIG d   1       8.665   7.681  -0.440  0.00  0.00     0.201 HD
BRANCH   6   9
ATOM      9  C   LIG d   1       8.668   9.728  -0.640  0.00  0.00    -0.045 C 
ATOM     10  H   LIG d   1       7.717  10.200  -0.886  0.00  0.00     0.078 H 
ATOM     11  H   LIG d   1       8.780   9.679   0.444  0.00  0.00     0.078 H 
ATOM     12  H   LIG d   1       9.484  10.313  -1.064  0.00  0.00     0.078 H 
ENDBRANCH   6   9
ENDBRANCH   3   6
ENDBRANCH   1   3
BRANCH   1  13
ATOM     13  C   LIG d   1      10.123   5.787  -2.661  0.00  0.00    -0.014 A 
ATOM     14  C   LIG d   1      10.215   4.435  -2.387  0.00  0.00    -0.052 A 
ATOM     15  C   LIG d   1       9.835   3.510  -3.340  0.00  0.00    -0.020 A 
ATOM     16  H   LIG d   1      10.585   4.103  -1.429  0.00  0.00     0.062 H 
ATOM     17  C   LIG d   1       9.360   3.937  -4.571  0.00  0.00     0.120 A 
ATOM     18  H   LIG d   1       9.907   2.453  -3.126  0.00  0.00     0.065 H 
ATOM     19  C   LIG d   1       9.269   5.294  -4.843  0.00  0.00    -0.020 A 
ATOM     20  C   LIG d   1       9.645   6.217  -3.886  0.00  0.00    -0.052 A 
ATOM     21  H   LIG d   1       8.900   5.631  -5.801  0.00  0.00     0.065 H 
ATOM     22  H   LIG d   1       9.570   7.274  -4.095  0.00  0.00     0.062 H 
BRANCH  17  23
ATOM     23  O   LIG d   1       8.985   3.029  -5.509  0.00  0.00    -0.495 OA
BRANCH  23  24
ATOM     24  C   LIG d   1       8.203   1.919  -5.064  0.00  0.00     0.079 C 
ATOM     25  H   LIG d   1       7.223   1.953  -5.539  0.00  0.00     0.066 H 
ATOM     26  H   LIG d   1       8.706   0.989  -5.334  0.00  0.00     0.066 H 
ATOM     27  H   LIG d   1       8.085   1.968  -3.982  0.00  0.00     0.066 H 
ENDBRANCH  23  24
ENDBRANCH  17  23
ENDBRANCH   1  13
BRANCH   1  28
ATOM     28  O   LIG d   1      10.058   6.385  -0.340  0.00  0.00    -0.370 OA
BRANCH  28  29
ATOM     29  C   LIG d   1      11.060   6.364   0.678  0.00  0.00     0.037 C 
ATOM     30  H   LIG d   1      11.606   7.307   0.669  0.00  0.00     0.052 H 
ATOM     31  H   LIG d   1      10.587   6.227   1.651  0.00  0.00     0.052 H 
ATOM     32  H   LIG d   1      11.751   5.542   0.492  0.00  0.00     0.052 H 
ENDBRANCH  28  29
ENDBRANCH   1  28
TORSDOF 8
ENDMDL
MODEL 9
REMARK VINA RESULT:      -3.7      3.986      6.056
REMARK  8 active torsions:
REMARK  status: ('A' for Active; 'I' for Inactive)
REMARK    1  A    between atoms: C_1  and  N_30 
REMARK    2  A    between atoms: C_2  and  C_3 
REMARK    3  A    between atoms: C_2  and  N_30 
REMARK    4  A    between atoms: C_3  and  C_5 
REMARK    5  A    between atoms: C_3  and  O_13 
REMARK    6  A    between atoms: C_8  and  O_11 
REMARK    7  A    between atoms: O_11  and  C_12 
REMARK    8  A    between atoms: O_13  and  C_14 
ROOT
ATOM      1  C   LIG d   1       4.511  -0.427  -4.819  0.00  0.00     0.123 C 
ATOM      2  H   LIG d   1       5.414   0.180  -4.889  0.00  0.00     0.070 H 
ENDROOT
BRANCH   1   3
ATOM      3  C   LIG d   1       3.464   0.311  -3.983  0.00  0.00    -0.003 C 
ATOM      4  H   LIG d   1       2.687   0.705  -4.638  0.00  0.00     0.084 H 
ATOM      5  H   LIG d   1       3.019  -0.379  -3.266  0.00  0.00     0.084 H 
BRANCH   3   6
ATOM      6  N   LIG d   1       4.116   1.421  -3.263  0.00  0.00     0.227 N 
ATOM      7  H   LIG d   1       4.998   1.658  -3.733  0.00  0.00     0.201 HD
ATOM      8  H   LIG d   1       3.495   2.239  -3.266  0.00  0.00     0.201 HD
BRANCH   6   9
ATOM      9  C   LIG d   1       4.398   1.031  -1.869  0.00  0.00    -0.045 C 
ATOM     10  H   LIG d   1       4.629   1.918  -1.279  0.00  0.00     0.078 H 
ATOM     11  H   LIG d   1       3.527   0.529  -1.445  0.00  0.00     0.078 H 
ATOM     12  H   LIG d   1       5.251   0.352  -1.853  0.00  0.00     0.078 H 
ENDBRANCH   6   9
ENDBRANCH   3   6
ENDBRANCH   1   3
BRANCH   1  13
ATOM     13  C   LIG d   1       3.966  -0.676  -6.202  0.00  0.00    -0.014 A 
ATOM     14  C   LIG d   1       4.415  -1.756  -6.938  0.00  0.00    -0.052 A 
ATOM     15  C   LIG d   1       3.916  -1.986  -8.205  0.00  0.00    -0.020 A 
ATOM     16  H   LIG d   1       5.156  -2.421  -6.522  0.00  0.00     0.062 H 
ATOM     17  C   LIG d   1       2.963  -1.131  -8.740  0.00  0.00     0.120 A 
ATOM     18  H   LIG d   1       4.267  -2.830  -8.780  0.00  0.00     0.065 H 
ATOM     19  C   LIG d   1       2.514  -0.047  -8.000  0.00  0.00    -0.020 A 
ATOM     20  C   LIG d   1       3.011   0.175  -6.731  0.00  0.00    -0.052 A 
ATOM     21  H   LIG d   1       1.772   0.620  -8.413  0.00  0.00     0.065 H 
ATOM     22  H   LIG d   1       2.659   1.016  -6.152  0.00  0.00     0.062 H 
BRANCH  17  23
ATOM     23  O   LIG d   1       2.470  -1.355  -9.986  0.00  0.00    -0.495 OA
BRANCH  23  24
ATOM     24  C   LIG d   1       1.591  -2.469 -10.147  0.00  0.00     0.079 C 
ATOM     25  H   LIG d   1       2.023  -3.173 -10.859  0.00  0.00     0.066 H 
ATOM     26  H   LIG d   1       1.453  -2.965  -9.185  0.00  0.00     0.066 H 
ATOM     27  H   LIG d   1       0.628  -2.122 -10.519  0.00  0.00     0.066 H 
ENDBRANCH  23  24
ENDBRANCH  17  23
ENDBRANCH   1  13
BRANCH   1  28
ATOM     28  O   LIG d   1       4.824  -1.675  -4.199  0.00  0.00    -0.370 OA
BRANCH  28  29
ATOM     29  C   LIG d   1       6.131  -1.729  -3.626  0.00  0.00     0.037 C 
ATOM     30  H   LIG d   1       6.428  -2.770  -3.496  0.00  0.00     0.052 H 
ATOM     31  H   LIG d   1       6.839  -1.229  -4.287  0.00  0.00     0.052 H 
ATOM     32  H   LIG d   1       6.125  -1.229  -2.657  0.00  0.00     0.052 H 
ENDBRANCH  28  29
ENDBRANCH   1  28
TORSDOF 8
ENDMDL
MODEL 10
REMARK VINA RESULT:      -3.7      9.578     12.566
REMARK  8 active torsions:
REMARK  status: ('A' for Active; 'I' for Inactive)
REMARK    1  A    between atoms: C_1  and  N_30 
REMARK    2  A    between atoms: C_2  and  C_3 
REMARK    3  A    between atoms: C_2  and  N_30 
REMARK    4  A    between atoms: C_3  and  C_5 
REMARK    5  A    between atoms: C_3  and  O_13 
REMARK    6  A    between atoms: C_8  and  O_11 
REMARK    7  A    between atoms: O_11  and  C_12 
REMARK    8  A    between atoms: O_13  and  C_14 
ROOT
ATOM      1  C   LIG d   1      10.118   8.758  -0.765  0.00  0.00     0.123 C 
ATOM      2  H   LIG d   1      10.631   9.421  -1.463  0.00  0.00     0.070 H 
ENDROOT
BRANCH   1   3
ATOM      3  C   LIG d   1       8.623   9.083  -0.759  0.00  0.00    -0.003 C 
ATOM      4  H   LIG d   1       8.079   8.304  -1.292  0.00  0.00     0.084 H 
ATOM      5  H   LIG d   1       8.267   9.135   0.270  0.00  0.00     0.084 H 
BRANCH   3   6
ATOM      6  N   LIG d   1       8.409  10.383  -1.424  0.00  0.00     0.227 N 
ATOM      7  H   LIG d   1       7.502  10.371  -1.907  0.00  0.00     0.201 HD
ATOM      8  H   LIG d   1       8.411  11.129  -0.718  0.00  0.00     0.201 HD
BRANCH   6   9
ATOM      9  C   LIG d   1       9.479  10.638  -2.406  0.00  0.00    -0.045 C 
ATOM     10  H   LIG d   1       9.056  11.097  -3.299  0.00  0.00     0.078 H 
ATOM     11  H   LIG d   1      10.223  11.307  -1.971  0.00  0.00     0.078 H 
ATOM     12  H   LIG d   1       9.953   9.693  -2.672  0.00  0.00     0.078 H 
ENDBRANCH   6   9
ENDBRANCH   3   6
ENDBRANCH   1   3
BRANCH   1  13
ATOM     13  C   LIG d   1      10.320   7.327  -1.192  0.00  0.00    -0.014 A 
ATOM     14  C   LIG d   1      11.146   6.497  -0.458  0.00  0.00    -0.052 A 
ATOM     15  C   LIG d   1      11.332   5.185  -0.848  0.00  0.00    -0.020 A 
ATOM     16  H   LIG d   1      11.647   6.875   0.420  0.00  0.00     0.062 H 
ATOM     17  C   LIG d   1      10.688   4.700  -1.977  0.00  0.00     0.120 A 
ATOM     18  H   LIG d   1      11.978   4.537  -0.274  0.00  0.00     0.065 H 
ATOM     19  C   LIG d   1       9.859   5.535  -2.712  0.00  0.00    -0.020 A 
ATOM     20  C   LIG d   1       9.672   6.845  -2.315  0.00  0.00    -0.052 A 
ATOM     21  H   LIG d   1       9.356   5.160  -3.592  0.00  0.00     0.065 H 
ATOM     22  H   LIG d   1       9.023   7.494  -2.885  0.00  0.00     0.062 H 
BRANCH  17  23
ATOM     23  O   LIG d   1      10.868   3.410  -2.363  0.00  0.00    -0.495 OA
BRANCH  23  24
ATOM     24  C   LIG d   1       9.886   2.849  -3.235  0.00  0.00     0.079 C 
ATOM     25  H   LIG d   1      10.324   2.019  -3.790  0.00  0.00     0.066 H 
ATOM     26  H   LIG d   1       9.042   2.486  -2.646  0.00  0.00     0.066 H 
ATOM     27  H   LIG d   1       9.541   3.611  -3.933  0.00  0.00     0.066 H 
ENDBRANCH  23  24
ENDBRANCH  17  23
ENDBRANCH   1  13
BRANCH   1  28
ATOM     28  O   LIG d   1      10.652   8.944   0.547  0.00  0.00    -0.370 OA
BRANCH  28  29
ATOM     29  C   LIG d   1      11.414  10.142   0.701  0.00  0.00     0.037 C 
ATOM     30  H   LIG d   1      11.610  10.577  -0.280  0.00  0.00     0.052 H 
ATOM     31  H   LIG d   1      10.855  10.854   1.308  0.00  0.00     0.052 H 
ATOM     32  H   LIG d   1      12.360   9.912   1.191  0.00  0.00     0.052 H 
ENDBRANCH  28  29
ENDBRANCH   1  28
TORSDOF 8
ENDMDL
