MODEL 1
REMARK VINA RESULT:      -5.6      0.000      0.000
REMARK  8 active torsions:
REMARK  status: ('A' for Active; 'I' for Inactive)
REMARK    1  A    between atoms: C_1  and  N_2 
REMARK    2  A    between atoms: C_6  and  C_8 
REMARK    3  A    between atoms: C_10  and  C_13 
REMARK    4  A    between atoms: C_15  and  O_19 
REMARK    5  A    between atoms: O_19  and  C_20 
REMARK    6  A    between atoms: C_20  and  C_21 
REMARK    7  A    between atoms: C_21  and  O_22 
REMARK    8  A    between atoms: O_22  and  C_23 
ROOT
ATOM      1  C   LIG d   1       2.949   0.913  -8.166  0.00  0.00     0.276 A 
ATOM      2  N   LIG d   1       3.332  -0.127  -7.482  0.00  0.00    -0.185 NA
ATOM      3  C   LIG d   1       3.288   0.144  -6.165  0.00  0.00     0.221 A 
ATOM      4  N   LIG d   1       2.871   1.375  -6.005  0.00  0.00    -0.054 NA
ATOM      5  O   LIG d   1       2.648   1.897  -7.308  0.00  0.00    -0.332 OA
ENDROOT
BRANCH   3   6
ATOM      6  C   LIG d   1       3.652  -0.795  -5.074  0.00  0.00     0.115 A 
ATOM      7  N   LIG d   1       3.107  -0.651  -3.874  0.00  0.00    -0.252 NA
ATOM      8  C   LIG d   1       3.397  -1.464  -2.878  0.00  0.00     0.032 A 
ATOM      9  C   LIG d   1       4.295  -2.500  -3.045  0.00  0.00    -0.002 A 
ATOM     10  H   LIG d   1       2.927  -1.317  -1.916  0.00  0.00     0.083 H 
ATOM     11  C   LIG d   1       4.897  -2.686  -4.287  0.00  0.00     0.124 A 
ATOM     12  H   LIG d   1       4.528  -3.158  -2.220  0.00  0.00     0.067 H 
ATOM     13  C   LIG d   1       4.566  -1.814  -5.320  0.00  0.00     0.009 A 
ATOM     14  H   LIG d   1       5.012  -1.928  -6.297  0.00  0.00     0.068 H 
BRANCH  11  15
ATOM     15  O   LIG d   1       5.784  -3.695  -4.486  0.00  0.00    -0.490 OA
BRANCH  15  16
ATOM     16  C   LIG d   1       5.646  -4.451  -5.691  0.00  0.00     0.113 C 
ATOM     17  H   LIG d   1       5.259  -3.808  -6.481  0.00  0.00     0.072 H 
ATOM     18  H   LIG d   1       6.618  -4.845  -5.985  0.00  0.00     0.072 H 
BRANCH  16  19
ATOM     19  C   LIG d   1       4.675  -5.610  -5.456  0.00  0.00     0.081 C 
ATOM     20  H   LIG d   1       5.139  -6.544  -5.777  0.00  0.00     0.059 H 
ATOM     21  H   LIG d   1       4.433  -5.672  -4.395  0.00  0.00     0.059 H 
BRANCH  19  22
ATOM     22  O   LIG d   1       3.479  -5.390  -6.206  0.00  0.00    -0.380 OA
BRANCH  22  23
ATOM     23  C   LIG d   1       3.696  -4.779  -7.479  0.00  0.00     0.037 C 
ATOM     24  H   LIG d   1       3.261  -3.780  -7.483  0.00  0.00     0.052 H 
ATOM     25  H   LIG d   1       4.766  -4.710  -7.672  0.00  0.00     0.052 H 
ATOM     26  H   LIG d   1       3.226  -5.382  -8.256  0.00  0.00     0.052 H 
ENDBRANCH  22  23
ENDBRANCH  19  22
ENDBRANCH  16  19
ENDBRANCH  15  16
ENDBRANCH  11  15
ENDBRANCH   3   6
BRANCH   1  27
ATOM     27  C   LIG d   1       2.865   0.998  -9.668  0.00  0.00     0.059 C 
ATOM     28  N   LIG d   1       4.148   1.478 -10.214  0.00  0.00     0.242 N 
ATOM     29  C   LIG d   1       4.705   0.430 -11.096  0.00  0.00    -0.031 C 
ATOM     30  H   LIG d   1       3.995   2.321 -10.748  0.00  0.00     0.204 HD
ATOM     31  C   LIG d   1       3.479  -0.402 -11.546  0.00  0.00    -0.007 C 
ATOM     32  H   LIG d   1       5.196   0.880 -11.958  0.00  0.00     0.081 H 
ATOM     33  H   LIG d   1       5.406  -0.196 -10.544  0.00  0.00     0.081 H 
ATOM     34  C   LIG d   1       2.612  -0.404 -10.260  0.00  0.00     0.004 C 
ATOM     35  H   LIG d   1       2.956   0.087 -12.368  0.00  0.00     0.032 H 
ATOM     36  H   LIG d   1       3.773  -1.415 -11.820  0.00  0.00     0.032 H 
ATOM     37  H   LIG d   1       1.557  -0.533 -10.505  0.00  0.00     0.033 H 
ATOM     38  H   LIG d   1       2.946  -1.180  -9.571  0.00  0.00     0.033 H 
ATOM     39  H   LIG d   1       2.062   1.675  -9.958  0.00  0.00     0.095 H 
BRANCH  28  40
ATOM     40  C   LIG d   1       5.083   1.749  -9.116  0.00  0.00    -0.042 C 
ATOM     41  H   LIG d   1       4.782   2.659  -8.597  0.00  0.00     0.078 H 
ATOM     42  H   LIG d   1       5.074   0.913  -8.416  0.00  0.00     0.078 H 
ATOM     43  H   LIG d   1       6.089   1.876  -9.517  0.00  0.00     0.078 H 
ENDBRANCH  28  40
ENDBRANCH   1  27
TORSDOF 8
ENDMDL
MODEL 2
REMARK VINA RESULT:      -5.5      6.671      9.052
REMARK  8 active torsions:
REMARK  status: ('A' for Active; 'I' for Inactive)
REMARK    1  A    between atoms: C_1  and  N_2 
REMARK    2  A    between atoms: C_6  and  C_8 
REMARK    3  A    between atoms: C_10  and  C_13 
REMARK    4  A    between atoms: C_15  and  O_19 
REMARK    5  A    between atoms: O_19  and  C_20 
REMARK    6  A    between atoms: C_20  and  C_21 
REMARK    7  A    between atoms: C_21  and  O_22 
REMARK    8  A    between atoms: O_22  and  C_23 
ROOT
ATOM      1  C   LIG d   1       6.240   0.482  -3.460  0.00  0.00     0.276 A 
ATOM      2  N   LIG d   1       7.177   1.334  -3.155  0.00  0.00    -0.185 NA
ATOM      3  C   LIG d   1       7.718   1.845  -4.275  0.00  0.00     0.221 A 
ATOM      4  N   LIG d   1       7.117   1.314  -5.311  0.00  0.00    -0.054 NA
ATOM      5  O   LIG d   1       6.148   0.413  -4.795  0.00  0.00    -0.332 OA
ENDROOT
BRANCH   3   6
ATOM      6  C   LIG d   1       8.813   2.847  -4.329  0.00  0.00     0.115 A 
ATOM      7  N   LIG d   1       9.049   3.502  -5.458  0.00  0.00    -0.252 NA
ATOM      8  C   LIG d   1      10.006   4.403  -5.550  0.00  0.00     0.032 A 
ATOM      9  C   LIG d   1      10.815   4.694  -4.469  0.00  0.00    -0.002 A 
ATOM     10  H   LIG d   1      10.163   4.920  -6.486  0.00  0.00     0.083 H 
ATOM     11  C   LIG d   1      10.608   4.025  -3.264  0.00  0.00     0.124 A 
ATOM     12  H   LIG d   1      11.599   5.431  -4.557  0.00  0.00     0.067 H 
ATOM     13  C   LIG d   1       9.585   3.084  -3.198  0.00  0.00     0.009 A 
ATOM     14  H   LIG d   1       9.395   2.546  -2.280  0.00  0.00     0.068 H 
BRANCH  11  15
ATOM     15  O   LIG d   1      11.384   4.286  -2.182  0.00  0.00    -0.490 OA
BRANCH  15  16
ATOM     16  C   LIG d   1      11.461   5.648  -1.753  0.00  0.00     0.113 C 
ATOM     17  H   LIG d   1      12.507   5.942  -1.668  0.00  0.00     0.072 H 
ATOM     18  H   LIG d   1      10.961   6.286  -2.480  0.00  0.00     0.072 H 
BRANCH  16  19
ATOM     19  C   LIG d   1      10.779   5.792  -0.391  0.00  0.00     0.081 C 
ATOM     20  H   LIG d   1      10.195   4.895  -0.180  0.00  0.00     0.059 H 
ATOM     21  H   LIG d   1      11.535   5.922   0.383  0.00  0.00     0.059 H 
BRANCH  19  22
ATOM     22  O   LIG d   1       9.914   6.929  -0.409  0.00  0.00    -0.380 OA
BRANCH  22  23
ATOM     23  C   LIG d   1       9.343   7.204  -1.690  0.00  0.00     0.037 C 
ATOM     24  H   LIG d   1       9.316   8.282  -1.853  0.00  0.00     0.052 H 
ATOM     25  H   LIG d   1       9.946   6.734  -2.466  0.00  0.00     0.052 H 
ATOM     26  H   LIG d   1       8.328   6.806  -1.728  0.00  0.00     0.052 H 
ENDBRANCH  22  23
ENDBRANCH  19  22
ENDBRANCH  16  19
ENDBRANCH  15  16
ENDBRANCH  11  15
ENDBRANCH   3   6
BRANCH   1  27
ATOM     27  C   LIG d   1       5.405  -0.298  -2.478  0.00  0.00     0.059 C 
ATOM     28  N   LIG d   1       4.114   0.383  -2.266  0.00  0.00     0.242 N 
ATOM     29  C   LIG d   1       3.028  -0.522  -2.700  0.00  0.00    -0.031 C 
ATOM     30  H   LIG d   1       4.002   0.600  -1.287  0.00  0.00     0.204 HD
ATOM     31  C   LIG d   1       3.632  -1.944  -2.594  0.00  0.00    -0.007 C 
ATOM     32  H   LIG d   1       2.167  -0.427  -2.039  0.00  0.00     0.081 H 
ATOM     33  H   LIG d   1       2.743  -0.307  -3.729  0.00  0.00     0.081 H 
ATOM     34  C   LIG d   1       5.095  -1.698  -3.048  0.00  0.00     0.004 C 
ATOM     35  H   LIG d   1       3.598  -2.308  -1.568  0.00  0.00     0.032 H 
ATOM     36  H   LIG d   1       3.126  -2.635  -3.268  0.00  0.00     0.032 H 
ATOM     37  H   LIG d   1       5.764  -2.445  -2.619  0.00  0.00     0.033 H 
ATOM     38  H   LIG d   1       5.166  -1.696  -4.136  0.00  0.00     0.033 H 
ATOM     39  H   LIG d   1       5.934  -0.392  -1.530  0.00  0.00     0.095 H 
BRANCH  28  40
ATOM     40  C   LIG d   1       4.072   1.620  -3.056  0.00  0.00    -0.042 C 
ATOM     41  H   LIG d   1       4.590   2.413  -2.518  0.00  0.00     0.078 H 
ATOM     42  H   LIG d   1       4.560   1.454  -4.016  0.00  0.00     0.078 H 
ATOM     43  H   LIG d   1       3.034   1.910  -3.222  0.00  0.00     0.078 H 
ENDBRANCH  28  40
ENDBRANCH   1  27
TORSDOF 8
ENDMDL
MODEL 3
REMARK VINA RESULT:      -5.3      2.640      6.408
REMARK  8 active torsions:
REMARK  status: ('A' for Active; 'I' for Inactive)
REMARK    1  A    between atoms: C_1  and  N_2 
REMARK    2  A    between atoms: C_6  and  C_8 
REMARK    3  A    between atoms: C_10  and  C_13 
REMARK    4  A    between atoms: C_15  and  O_19 
REMARK    5  A    between atoms: O_19  and  C_20 
REMARK    6  A    between atoms: C_20  and  C_21 
REMARK    7  A    between atoms: C_21  and  O_22 
REMARK    8  A    between atoms: O_22  and  C_23 
ROOT
ATOM      1  C   LIG d   1       4.281  -0.948  -4.931  0.00  0.00     0.276 A 
ATOM      2  N   LIG d   1       4.089  -0.057  -5.861  0.00  0.00    -0.185 NA
ATOM      3  C   LIG d   1       4.199  -0.627  -7.075  0.00  0.00     0.221 A 
ATOM      4  N   LIG d   1       4.463  -1.900  -6.918  0.00  0.00    -0.054 NA
ATOM      5  O   LIG d   1       4.525  -2.128  -5.517  0.00  0.00    -0.332 OA
ENDROOT
BRANCH   3   6
ATOM      6  C   LIG d   1       4.045   0.071  -8.376  0.00  0.00     0.115 A 
ATOM      7  N   LIG d   1       4.500   1.309  -8.516  0.00  0.00    -0.252 NA
ATOM      8  C   LIG d   1       4.390   1.965  -9.655  0.00  0.00     0.032 A 
ATOM      9  C   LIG d   1       3.780   1.387 -10.751  0.00  0.00    -0.002 A 
ATOM     10  H   LIG d   1       4.779   2.970  -9.730  0.00  0.00     0.083 H 
ATOM     11  C   LIG d   1       3.280   0.091 -10.648  0.00  0.00     0.124 A 
ATOM     12  H   LIG d   1       3.691   1.935 -11.677  0.00  0.00     0.067 H 
ATOM     13  C   LIG d   1       3.418  -0.577  -9.435  0.00  0.00     0.009 A 
ATOM     14  H   LIG d   1       3.043  -1.583  -9.318  0.00  0.00     0.068 H 
BRANCH  11  15
ATOM     15  O   LIG d   1       2.676  -0.507 -11.706  0.00  0.00    -0.490 OA
BRANCH  15  16
ATOM     16  C   LIG d   1       1.337  -0.968 -11.512  0.00  0.00     0.113 C 
ATOM     17  H   LIG d   1       1.011  -0.723 -10.501  0.00  0.00     0.072 H 
ATOM     18  H   LIG d   1       0.679  -0.486 -12.234  0.00  0.00     0.072 H 
BRANCH  16  19
ATOM     19  C   LIG d   1       1.287  -2.485 -11.710  0.00  0.00     0.081 C 
ATOM     20  H   LIG d   1       0.558  -2.726 -12.485  0.00  0.00     0.059 H 
ATOM     21  H   LIG d   1       2.270  -2.845 -12.012  0.00  0.00     0.059 H 
BRANCH  19  22
ATOM     22  O   LIG d   1       0.905  -3.113 -10.485  0.00  0.00    -0.380 OA
BRANCH  22  23
ATOM     23  C   LIG d   1       0.314  -4.403 -10.653  0.00  0.00     0.037 C 
ATOM     24  H   LIG d   1       1.059  -5.096 -11.045  0.00  0.00     0.052 H 
ATOM     25  H   LIG d   1      -0.048  -4.766  -9.691  0.00  0.00     0.052 H 
ATOM     26  H   LIG d   1      -0.520  -4.332 -11.351  0.00  0.00     0.052 H 
ENDBRANCH  22  23
ENDBRANCH  19  22
ENDBRANCH  16  19
ENDBRANCH  15  16
ENDBRANCH  11  15
ENDBRANCH   3   6
BRANCH   1  27
ATOM     27  C   LIG d   1       4.240  -0.694  -3.446  0.00  0.00     0.059 C 
ATOM     28  N   LIG d   1       5.556  -0.214  -2.985  0.00  0.00     0.242 N 
ATOM     29  C   LIG d   1       5.390   1.143  -2.421  0.00  0.00    -0.031 C 
ATOM     30  H   LIG d   1       5.913  -0.833  -2.272  0.00  0.00     0.204 HD
ATOM     31  C   LIG d   1       3.902   1.216  -1.996  0.00  0.00    -0.007 C 
ATOM     32  H   LIG d   1       6.038   1.278  -1.556  0.00  0.00     0.081 H 
ATOM     33  H   LIG d   1       5.605   1.897  -3.178  0.00  0.00     0.081 H 
ATOM     34  C   LIG d   1       3.212   0.412  -3.130  0.00  0.00     0.004 C 
ATOM     35  H   LIG d   1       3.748   0.737  -1.029  0.00  0.00     0.032 H 
ATOM     36  H   LIG d   1       3.550   2.247  -1.980  0.00  0.00     0.032 H 
ATOM     37  H   LIG d   1       2.275  -0.022  -2.781  0.00  0.00     0.033 H 
ATOM     38  H   LIG d   1       3.045   1.043  -4.003  0.00  0.00     0.033 H 
ATOM     39  H   LIG d   1       3.975  -1.610  -2.919  0.00  0.00     0.095 H 
BRANCH  28  40
ATOM     40  C   LIG d   1       6.491  -0.168  -4.116  0.00  0.00    -0.042 C 
ATOM     41  H   LIG d   1       7.396   0.361  -3.819  0.00  0.00     0.078 H 
ATOM     42  H   LIG d   1       6.747  -1.184  -4.417  0.00  0.00     0.078 H 
ATOM     43  H   LIG d   1       6.024   0.353  -4.953  0.00  0.00     0.078 H 
ENDBRANCH  28  40
ENDBRANCH   1  27
TORSDOF 8
ENDMDL
MODEL 4
REMARK VINA RESULT:      -5.3      4.547      5.646
REMARK  8 active torsions:
REMARK  status: ('A' for Active; 'I' for Inactive)
REMARK    1  A    between atoms: C_1  and  N_2 
REMARK    2  A    between atoms: C_6  and  C_8 
REMARK    3  A    between atoms: C_10  and  C_13 
REMARK    4  A    between atoms: C_15  and  O_19 
REMARK    5  A    between atoms: O_19  and  C_20 
REMARK    6  A    between atoms: C_20  and  C_21 
REMARK    7  A    between atoms: C_21  and  O_22 
REMARK    8  A    between atoms: O_22  and  C_23 
ROOT
ATOM      1  C   LIG d   1       8.435   2.129  -4.683  0.00  0.00     0.276 A 
ATOM      2  N   LIG d   1       7.338   1.780  -4.075  0.00  0.00    -0.185 NA
ATOM      3  C   LIG d   1       7.206   0.441  -4.092  0.00  0.00     0.221 A 
ATOM      4  N   LIG d   1       8.234  -0.072  -4.720  0.00  0.00    -0.054 NA
ATOM      5  O   LIG d   1       9.049   1.021  -5.120  0.00  0.00    -0.332 OA
ENDROOT
BRANCH   3   6
ATOM      6  C   LIG d   1       6.083  -0.327  -3.498  0.00  0.00     0.115 A 
ATOM      7  N   LIG d   1       5.426   0.169  -2.457  0.00  0.00    -0.252 NA
ATOM      8  C   LIG d   1       4.419  -0.476  -1.901  0.00  0.00     0.032 A 
ATOM      9  C   LIG d   1       4.014  -1.707  -2.377  0.00  0.00    -0.002 A 
ATOM     10  H   LIG d   1       3.907  -0.036  -1.058  0.00  0.00     0.083 H 
ATOM     11  C   LIG d   1       4.679  -2.269  -3.465  0.00  0.00     0.124 A 
ATOM     12  H   LIG d   1       3.191  -2.228  -1.911  0.00  0.00     0.067 H 
ATOM     13  C   LIG d   1       5.733  -1.561  -4.034  0.00  0.00     0.009 A 
ATOM     14  H   LIG d   1       6.272  -1.965  -4.878  0.00  0.00     0.068 H 
BRANCH  11  15
ATOM     15  O   LIG d   1       4.306  -3.477  -3.959  0.00  0.00    -0.490 OA
BRANCH  15  16
ATOM     16  C   LIG d   1       5.099  -4.018  -5.018  0.00  0.00     0.113 C 
ATOM     17  H   LIG d   1       5.028  -3.370  -5.892  0.00  0.00     0.072 H 
ATOM     18  H   LIG d   1       6.138  -4.082  -4.697  0.00  0.00     0.072 H 
BRANCH  16  19
ATOM     19  C   LIG d   1       4.588  -5.415  -5.376  0.00  0.00     0.081 C 
ATOM     20  H   LIG d   1       5.364  -5.958  -5.916  0.00  0.00     0.059 H 
ATOM     21  H   LIG d   1       4.336  -5.954  -4.463  0.00  0.00     0.059 H 
BRANCH  19  22
ATOM     22  O   LIG d   1       3.425  -5.300  -6.199  0.00  0.00    -0.380 OA
BRANCH  22  23
ATOM     23  C   LIG d   1       3.708  -4.992  -7.565  0.00  0.00     0.037 C 
ATOM     24  H   LIG d   1       3.269  -4.027  -7.818  0.00  0.00     0.052 H 
ATOM     25  H   LIG d   1       4.787  -4.950  -7.713  0.00  0.00     0.052 H 
ATOM     26  H   LIG d   1       3.284  -5.764  -8.207  0.00  0.00     0.052 H 
ENDBRANCH  22  23
ENDBRANCH  19  22
ENDBRANCH  16  19
ENDBRANCH  15  16
ENDBRANCH  11  15
ENDBRANCH   3   6
BRANCH   1  27
ATOM     27  C   LIG d   1       8.928   3.540  -4.871  0.00  0.00     0.059 C 
ATOM     28  N   LIG d   1       9.973   3.842  -3.876  0.00  0.00     0.242 N 
ATOM     29  C   LIG d   1      11.230   4.149  -4.592  0.00  0.00    -0.031 C 
ATOM     30  H   LIG d   1       9.695   4.640  -3.323  0.00  0.00     0.204 HD
ATOM     31  C   LIG d   1      10.779   4.622  -5.996  0.00  0.00    -0.007 C 
ATOM     32  H   LIG d   1      11.774   4.943  -4.081  0.00  0.00     0.081 H 
ATOM     33  H   LIG d   1      11.848   3.256  -4.673  0.00  0.00     0.081 H 
ATOM     34  C   LIG d   1       9.568   3.692  -6.267  0.00  0.00     0.004 C 
ATOM     35  H   LIG d   1      10.472   5.667  -5.977  0.00  0.00     0.032 H 
ATOM     36  H   LIG d   1      11.566   4.462  -6.733  0.00  0.00     0.032 H 
ATOM     37  H   LIG d   1       8.869   4.159  -6.962  0.00  0.00     0.033 H 
ATOM     38  H   LIG d   1       9.901   2.725  -6.645  0.00  0.00     0.033 H 
ATOM     39  H   LIG d   1       8.100   4.241  -4.763  0.00  0.00     0.095 H 
BRANCH  28  40
ATOM     40  C   LIG d   1      10.174   2.680  -3.001  0.00  0.00    -0.042 C 
ATOM     41  H   LIG d   1       9.523   1.866  -3.321  0.00  0.00     0.078 H 
ATOM     42  H   LIG d   1      11.213   2.356  -3.060  0.00  0.00     0.078 H 
ATOM     43  H   LIG d   1       9.936   2.953  -1.973  0.00  0.00     0.078 H 
ENDBRANCH  28  40
ENDBRANCH   1  27
TORSDOF 8
ENDMDL
MODEL 5
REMARK VINA RESULT:      -5.2      4.181      6.065
REMARK  8 active torsions:
REMARK  status: ('A' for Active; 'I' for Inactive)
REMARK    1  A    between atoms: C_1  and  N_2 
REMARK    2  A    between atoms: C_6  and  C_8 
REMARK    3  A    between atoms: C_10  and  C_13 
REMARK    4  A    between atoms: C_15  and  O_19 
REMARK    5  A    between atoms: O_19  and  C_20 
REMARK    6  A    between atoms: C_20  and  C_21 
REMARK    7  A    between atoms: C_21  and  O_22 
REMARK    8  A    between atoms: O_22  and  C_23 
ROOT
ATOM      1  C   LIG d   1       4.534  -1.773  -3.920  0.00  0.00     0.276 A 
ATOM      2  N   LIG d   1       5.002  -2.988  -3.901  0.00  0.00    -0.185 NA
ATOM      3  C   LIG d   1       5.058  -3.480  -5.152  0.00  0.00     0.221 A 
ATOM      4  N   LIG d   1       4.620  -2.566  -5.982  0.00  0.00    -0.054 NA
ATOM      5  O   LIG d   1       4.267  -1.441  -5.190  0.00  0.00    -0.332 OA
ENDROOT
BRANCH   3   6
ATOM      6  C   LIG d   1       5.538  -4.834  -5.530  0.00  0.00     0.115 A 
ATOM      7  N   LIG d   1       6.832  -5.039  -5.737  0.00  0.00    -0.252 NA
ATOM      8  C   LIG d   1       7.303  -6.224  -6.069  0.00  0.00     0.032 A 
ATOM      9  C   LIG d   1       6.458  -7.305  -6.225  0.00  0.00    -0.002 A 
ATOM     10  H   LIG d   1       8.364  -6.351  -6.224  0.00  0.00     0.083 H 
ATOM     11  C   LIG d   1       5.090  -7.136  -6.023  0.00  0.00     0.124 A 
ATOM     12  H   LIG d   1       6.855  -8.271  -6.501  0.00  0.00     0.067 H 
ATOM     13  C   LIG d   1       4.626  -5.874  -5.668  0.00  0.00     0.009 A 
ATOM     14  H   LIG d   1       3.571  -5.705  -5.503  0.00  0.00     0.068 H 
BRANCH  11  15
ATOM     15  O   LIG d   1       4.232  -8.178  -6.168  0.00  0.00    -0.490 OA
BRANCH  15  16
ATOM     16  C   LIG d   1       4.809  -9.473  -6.352  0.00  0.00     0.113 C 
ATOM     17  H   LIG d   1       4.262 -10.007  -7.129  0.00  0.00     0.072 H 
ATOM     18  H   LIG d   1       5.851  -9.367  -6.648  0.00  0.00     0.072 H 
BRANCH  16  19
ATOM     19  C   LIG d   1       4.728 -10.257  -5.041  0.00  0.00     0.081 C 
ATOM     20  H   LIG d   1       4.643 -11.322  -5.259  0.00  0.00     0.059 H 
ATOM     21  H   LIG d   1       5.629 -10.078  -4.454  0.00  0.00     0.059 H 
BRANCH  19  22
ATOM     22  O   LIG d   1       3.584  -9.830  -4.299  0.00  0.00    -0.380 OA
BRANCH  22  23
ATOM     23  C   LIG d   1       3.168 -10.751  -3.290  0.00  0.00     0.037 C 
ATOM     24  H   LIG d   1       2.619 -10.218  -2.514  0.00  0.00     0.052 H 
ATOM     25  H   LIG d   1       2.525 -11.511  -3.733  0.00  0.00     0.052 H 
ATOM     26  H   LIG d   1       4.044 -11.229  -2.851  0.00  0.00     0.052 H 
ENDBRANCH  22  23
ENDBRANCH  19  22
ENDBRANCH  16  19
ENDBRANCH  15  16
ENDBRANCH  11  15
ENDBRANCH   3   6
BRANCH   1  27
ATOM     27  C   LIG d   1       4.322  -0.892  -2.716  0.00  0.00     0.059 C 
ATOM     28  N   LIG d   1       5.512  -0.050  -2.496  0.00  0.00     0.242 N 
ATOM     29  C   LIG d   1       5.114   1.369  -2.619  0.00  0.00    -0.031 C 
ATOM     30  H   LIG d   1       5.881  -0.218  -1.572  0.00  0.00     0.204 HD
ATOM     31  C   LIG d   1       3.597   1.382  -2.307  0.00  0.00    -0.007 C 
ATOM     32  H   LIG d   1       5.654   1.979  -1.896  0.00  0.00     0.081 H 
ATOM     33  H   LIG d   1       5.296   1.728  -3.631  0.00  0.00     0.081 H 
ATOM     34  C   LIG d   1       3.130   0.056  -2.963  0.00  0.00     0.004 C 
ATOM     35  H   LIG d   1       3.419   1.369  -1.232  0.00  0.00     0.032 H 
ATOM     36  H   LIG d   1       3.110   2.239  -2.771  0.00  0.00     0.032 H 
ATOM     37  H   LIG d   1       2.231  -0.321  -2.475  0.00  0.00     0.033 H 
ATOM     38  H   LIG d   1       2.961   0.193  -4.031  0.00  0.00     0.033 H 
ATOM     39  H   LIG d   1       4.134  -1.505  -1.835  0.00  0.00     0.095 H 
BRANCH  28  40
ATOM     40  C   LIG d   1       6.534  -0.365  -3.503  0.00  0.00    -0.042 C 
ATOM     41  H   LIG d   1       6.153  -1.127  -4.182  0.00  0.00     0.078 H 
ATOM     42  H   LIG d   1       6.777   0.535  -4.068  0.00  0.00     0.078 H 
ATOM     43  H   LIG d   1       7.431  -0.735  -3.006  0.00  0.00     0.078 H 
ENDBRANCH  28  40
ENDBRANCH   1  27
TORSDOF 8
ENDMDL
MODEL 6
REMARK VINA RESULT:      -5.2      2.862      6.398
REMARK  8 active torsions:
REMARK  status: ('A' for Active; 'I' for Inactive)
REMARK    1  A    between atoms: C_1  and  N_2 
REMARK    2  A    between atoms: C_6  and  C_8 
REMARK    3  A    between atoms: C_10  and  C_13 
REMARK    4  A    between atoms: C_15  and  O_19 
REMARK    5  A    between atoms: O_19  and  C_20 
REMARK    6  A    between atoms: C_20  and  C_21 
REMARK    7  A    between atoms: C_21  and  O_22 
REMARK    8  A    between atoms: O_22  and  C_23 
ROOT
ATOM      1  C   LIG d   1       3.875   0.108  -5.185  0.00  0.00     0.276 A 
ATOM      2  N   LIG d   1       3.137  -0.070  -6.243  0.00  0.00    -0.185 NA
ATOM      3  C   LIG d   1       3.906  -0.072  -7.347  0.00  0.00     0.221 A 
ATOM      4  N   LIG d   1       5.153   0.106  -6.989  0.00  0.00    -0.054 NA
ATOM      5  O   LIG d   1       5.151   0.231  -5.574  0.00  0.00    -0.332 OA
ENDROOT
BRANCH   3   6
ATOM      6  C   LIG d   1       3.422  -0.248  -8.740  0.00  0.00     0.115 A 
ATOM      7  N   LIG d   1       3.970   0.458  -9.720  0.00  0.00    -0.252 NA
ATOM      8  C   LIG d   1       3.576   0.330 -10.972  0.00  0.00     0.032 A 
ATOM      9  C   LIG d   1       2.560  -0.542 -11.311  0.00  0.00    -0.002 A 
ATOM     10  H   LIG d   1       4.052   0.919 -11.742  0.00  0.00     0.083 H 
ATOM     11  C   LIG d   1       1.950  -1.299 -10.313  0.00  0.00     0.124 A 
ATOM     12  H   LIG d   1       2.243  -0.635 -12.339  0.00  0.00     0.067 H 
ATOM     13  C   LIG d   1       2.393  -1.146  -9.003  0.00  0.00     0.009 A 
ATOM     14  H   LIG d   1       1.945  -1.716  -8.203  0.00  0.00     0.068 H 
BRANCH  11  15
ATOM     15  O   LIG d   1       0.949  -2.166 -10.612  0.00  0.00    -0.490 OA
BRANCH  15  16
ATOM     16  C   LIG d   1       1.286  -3.554 -10.659  0.00  0.00     0.113 C 
ATOM     17  H   LIG d   1       2.129  -3.700 -11.335  0.00  0.00     0.072 H 
ATOM     18  H   LIG d   1       1.557  -3.896  -9.661  0.00  0.00     0.072 H 
BRANCH  16  19
ATOM     19  C   LIG d   1       0.083  -4.353 -11.164  0.00  0.00     0.081 C 
ATOM     20  H   LIG d   1      -0.759  -3.679 -11.326  0.00  0.00     0.059 H 
ATOM     21  H   LIG d   1       0.340  -4.844 -12.102  0.00  0.00     0.059 H 
BRANCH  19  22
ATOM     22  O   LIG d   1      -0.276  -5.338 -10.193  0.00  0.00    -0.380 OA
BRANCH  22  23
ATOM     23  C   LIG d   1      -1.678  -5.405  -9.925  0.00  0.00     0.037 C 
ATOM     24  H   LIG d   1      -1.932  -4.695  -9.137  0.00  0.00     0.052 H 
ATOM     25  H   LIG d   1      -2.234  -5.158 -10.829  0.00  0.00     0.052 H 
ATOM     26  H   LIG d   1      -1.938  -6.413  -9.603  0.00  0.00     0.052 H 
ENDBRANCH  22  23
ENDBRANCH  19  22
ENDBRANCH  16  19
ENDBRANCH  15  16
ENDBRANCH  11  15
ENDBRANCH   3   6
BRANCH   1  27
ATOM     27  C   LIG d   1       3.377   0.170  -3.764  0.00  0.00     0.059 C 
ATOM     28  N   LIG d   1       3.591  -1.129  -3.101  0.00  0.00     0.242 N 
ATOM     29  C   LIG d   1       4.503  -0.927  -1.954  0.00  0.00    -0.031 C 
ATOM     30  H   LIG d   1       2.709  -1.491  -2.770  0.00  0.00     0.204 HD
ATOM     31  C   LIG d   1       4.342   0.566  -1.578  0.00  0.00    -0.007 C 
ATOM     32  H   LIG d   1       4.210  -1.562  -1.119  0.00  0.00     0.081 H 
ATOM     33  H   LIG d   1       5.532  -1.135  -2.247  0.00  0.00     0.081 H 
ATOM     34  C   LIG d   1       4.178   1.226  -2.973  0.00  0.00     0.004 C 
ATOM     35  H   LIG d   1       3.452   0.721  -0.967  0.00  0.00     0.032 H 
ATOM     36  H   LIG d   1       5.231   0.940  -1.072  0.00  0.00     0.032 H 
ATOM     37  H   LIG d   1       3.617   2.157  -2.897  0.00  0.00     0.033 H 
ATOM     38  H   LIG d   1       5.151   1.397  -3.435  0.00  0.00     0.033 H 
ATOM     39  H   LIG d   1       2.317   0.422  -3.752  0.00  0.00     0.095 H 
BRANCH  28  40
ATOM     40  C   LIG d   1       4.191  -2.076  -4.049  0.00  0.00    -0.042 C 
ATOM     41  H   LIG d   1       4.645  -1.527  -4.874  0.00  0.00     0.078 H 
ATOM     42  H   LIG d   1       4.957  -2.663  -3.541  0.00  0.00     0.078 H 
ATOM     43  H   LIG d   1       3.420  -2.741  -4.436  0.00  0.00     0.078 H 
ENDBRANCH  28  40
ENDBRANCH   1  27
TORSDOF 8
ENDMDL
MODEL 7
REMARK VINA RESULT:      -5.2      6.216      8.345
REMARK  8 active torsions:
REMARK  status: ('A' for Active; 'I' for Inactive)
REMARK    1  A    between atoms: C_1  and  N_2 
REMARK    2  A    between atoms: C_6  and  C_8 
REMARK    3  A    between atoms: C_10  and  C_13 
REMARK    4  A    between atoms: C_15  and  O_19 
REMARK    5  A    between atoms: O_19  and  C_20 
REMARK    6  A    between atoms: C_20  and  C_21 
REMARK    7  A    between atoms: C_21  and  O_22 
REMARK    8  A    between atoms: O_22  and  C_23 
ROOT
ATOM      1  C   LIG d   1       5.399  -0.347  -5.228  0.00  0.00     0.276 A 
ATOM      2  N   LIG d   1       6.260   0.301  -4.498  0.00  0.00    -0.185 NA
ATOM      3  C   LIG d   1       7.424   0.427  -5.159  0.00  0.00     0.221 A 
ATOM      4  N   LIG d   1       7.306  -0.150  -6.329  0.00  0.00    -0.054 NA
ATOM      5  O   LIG d   1       5.984  -0.668  -6.390  0.00  0.00    -0.332 OA
ENDROOT
BRANCH   3   6
ATOM      6  C   LIG d   1       8.642   1.106  -4.648  0.00  0.00     0.115 A 
ATOM      7  N   LIG d   1       9.840   0.629  -4.959  0.00  0.00    -0.252 NA
ATOM      8  C   LIG d   1      10.948   1.203  -4.533  0.00  0.00     0.032 A 
ATOM      9  C   LIG d   1      10.902   2.325  -3.729  0.00  0.00    -0.002 A 
ATOM     10  H   LIG d   1      11.905   0.787  -4.813  0.00  0.00     0.083 H 
ATOM     11  C   LIG d   1       9.666   2.857  -3.371  0.00  0.00     0.124 A 
ATOM     12  H   LIG d   1      11.816   2.784  -3.382  0.00  0.00     0.067 H 
ATOM     13  C   LIG d   1       8.516   2.232  -3.843  0.00  0.00     0.009 A 
ATOM     14  H   LIG d   1       7.539   2.617  -3.586  0.00  0.00     0.068 H 
BRANCH  11  15
ATOM     15  O   LIG d   1       9.585   3.960  -2.583  0.00  0.00    -0.490 OA
BRANCH  15  16
ATOM     16  C   LIG d   1      10.816   4.509  -2.109  0.00  0.00     0.113 C 
ATOM     17  H   LIG d   1      11.152   3.947  -1.237  0.00  0.00     0.072 H 
ATOM     18  H   LIG d   1      11.568   4.446  -2.894  0.00  0.00     0.072 H 
BRANCH  16  19
ATOM     19  C   LIG d   1      10.604   5.974  -1.721  0.00  0.00     0.081 C 
ATOM     20  H   LIG d   1      11.537   6.523  -1.854  0.00  0.00     0.059 H 
ATOM     21  H   LIG d   1       9.834   6.410  -2.356  0.00  0.00     0.059 H 
BRANCH  19  22
ATOM     22  O   LIG d   1      10.196   6.051  -0.354  0.00  0.00    -0.380 OA
BRANCH  22  23
ATOM     23  C   LIG d   1      11.254   5.833   0.581  0.00  0.00     0.037 C 
ATOM     24  H   LIG d   1      10.993   5.004   1.240  0.00  0.00     0.052 H 
ATOM     25  H   LIG d   1      12.172   5.595   0.044  0.00  0.00     0.052 H 
ATOM     26  H   LIG d   1      11.405   6.735   1.175  0.00  0.00     0.052 H 
ENDBRANCH  22  23
ENDBRANCH  19  22
ENDBRANCH  16  19
ENDBRANCH  15  16
ENDBRANCH  11  15
ENDBRANCH   3   6
BRANCH   1  27
ATOM     27  C   LIG d   1       3.985  -0.686  -4.831  0.00  0.00     0.059 C 
ATOM     28  N   LIG d   1       3.954  -2.003  -4.168  0.00  0.00     0.242 N 
ATOM     29  C   LIG d   1       3.458  -1.822  -2.787  0.00  0.00    -0.031 C 
ATOM     30  H   LIG d   1       3.335  -2.622  -4.671  0.00  0.00     0.204 HD
ATOM     31  C   LIG d   1       2.630  -0.514  -2.832  0.00  0.00    -0.007 C 
ATOM     32  H   LIG d   1       2.826  -2.661  -2.497  0.00  0.00     0.081 H 
ATOM     33  H   LIG d   1       4.293  -1.718  -2.094  0.00  0.00     0.081 H 
ATOM     34  C   LIG d   1       3.461   0.350  -3.816  0.00  0.00     0.004 C 
ATOM     35  H   LIG d   1       1.629  -0.698  -3.224  0.00  0.00     0.032 H 
ATOM     36  H   LIG d   1       2.581  -0.048  -1.848  0.00  0.00     0.032 H 
ATOM     37  H   LIG d   1       2.830   1.088  -4.311  0.00  0.00     0.033 H 
ATOM     38  H   LIG d   1       4.289   0.835  -3.298  0.00  0.00     0.033 H 
ATOM     39  H   LIG d   1       3.345  -0.700  -5.713  0.00  0.00     0.095 H 
BRANCH  28  40
ATOM     40  C   LIG d   1       5.306  -2.574  -4.136  0.00  0.00    -0.042 C 
ATOM     41  H   LIG d   1       6.025  -1.795  -3.881  0.00  0.00     0.078 H 
ATOM     42  H   LIG d   1       5.350  -3.365  -3.388  0.00  0.00     0.078 H 
ATOM     43  H   LIG d   1       5.550  -2.986  -5.116  0.00  0.00     0.078 H 
ENDBRANCH  28  40
ENDBRANCH   1  27
TORSDOF 8
ENDMDL
MODEL 8
REMARK VINA RESULT:      -5.1      3.553      4.146
REMARK  8 active torsions:
REMARK  status: ('A' for Active; 'I' for Inactive)
REMARK    1  A    between atoms: C_1  and  N_2 
REMARK    2  A    between atoms: C_6  and  C_8 
REMARK    3  A    between atoms: C_10  and  C_13 
REMARK    4  A    between atoms: C_15  and  O_19 
REMARK    5  A    between atoms: O_19  and  C_20 
REMARK    6  A    between atoms: C_20  and  C_21 
REMARK    7  A    between atoms: C_21  and  O_22 
REMARK    8  A    between atoms: O_22  and  C_23 
ROOT
ATOM      1  C   LIG d   1       8.057   1.671  -5.684  0.00  0.00     0.276 A 
ATOM      2  N   LIG d   1       7.119   0.800  -5.447  0.00  0.00    -0.185 NA
ATOM      3  C   LIG d   1       6.880   0.728  -4.125  0.00  0.00     0.221 A 
ATOM      4  N   LIG d   1       7.676   1.565  -3.509  0.00  0.00    -0.054 NA
ATOM      5  O   LIG d   1       8.459   2.190  -4.516  0.00  0.00    -0.332 OA
ENDROOT
BRANCH   3   6
ATOM      6  C   LIG d   1       5.879  -0.155  -3.474  0.00  0.00     0.115 A 
ATOM      7  N   LIG d   1       5.268   0.249  -2.367  0.00  0.00    -0.252 NA
ATOM      8  C   LIG d   1       4.370  -0.498  -1.758  0.00  0.00     0.032 A 
ATOM      9  C   LIG d   1       4.035  -1.746  -2.246  0.00  0.00    -0.002 A 
ATOM     10  H   LIG d   1       3.891  -0.132  -0.862  0.00  0.00     0.083 H 
ATOM     11  C   LIG d   1       4.655  -2.214  -3.403  0.00  0.00     0.124 A 
ATOM     12  H   LIG d   1       3.300  -2.352  -1.737  0.00  0.00     0.067 H 
ATOM     13  C   LIG d   1       5.595  -1.399  -4.025  0.00  0.00     0.009 A 
ATOM     14  H   LIG d   1       6.096  -1.728  -4.924  0.00  0.00     0.068 H 
BRANCH  11  15
ATOM     15  O   LIG d   1       4.349  -3.436  -3.910  0.00  0.00    -0.490 OA
BRANCH  15  16
ATOM     16  C   LIG d   1       4.938  -3.782  -5.166  0.00  0.00     0.113 C 
ATOM     17  H   LIG d   1       4.501  -3.168  -5.953  0.00  0.00     0.072 H 
ATOM     18  H   LIG d   1       6.012  -3.608  -5.123  0.00  0.00     0.072 H 
BRANCH  16  19
ATOM     19  C   LIG d   1       4.671  -5.259  -5.463  0.00  0.00     0.081 C 
ATOM     20  H   LIG d   1       5.515  -5.678  -6.012  0.00  0.00     0.059 H 
ATOM     21  H   LIG d   1       4.543  -5.801  -4.526  0.00  0.00     0.059 H 
BRANCH  19  22
ATOM     22  O   LIG d   1       3.484  -5.381  -6.249  0.00  0.00    -0.380 OA
BRANCH  22  23
ATOM     23  C   LIG d   1       3.658  -5.026  -7.622  0.00  0.00     0.037 C 
ATOM     24  H   LIG d   1       4.508  -4.350  -7.718  0.00  0.00     0.052 H 
ATOM     25  H   LIG d   1       3.842  -5.925  -8.210  0.00  0.00     0.052 H 
ATOM     26  H   LIG d   1       2.758  -4.532  -7.987  0.00  0.00     0.052 H 
ENDBRANCH  22  23
ENDBRANCH  19  22
ENDBRANCH  16  19
ENDBRANCH  15  16
ENDBRANCH  11  15
ENDBRANCH   3   6
BRANCH   1  27
ATOM     27  C   LIG d   1       8.604   2.031  -7.041  0.00  0.00     0.059 C 
ATOM     28  N   LIG d   1       9.764   1.177  -7.356  0.00  0.00     0.242 N 
ATOM     29  C   LIG d   1       9.452   0.387  -8.566  0.00  0.00    -0.031 C 
ATOM     30  H   LIG d   1      10.574   1.755  -7.530  0.00  0.00     0.204 HD
ATOM     31  C   LIG d   1       8.369   1.209  -9.307  0.00  0.00    -0.007 C 
ATOM     32  H   LIG d   1      10.339   0.280  -9.190  0.00  0.00     0.081 H 
ATOM     33  H   LIG d   1       9.062  -0.592  -8.290  0.00  0.00     0.081 H 
ATOM     34  C   LIG d   1       7.536   1.769  -8.124  0.00  0.00     0.004 C 
ATOM     35  H   LIG d   1       8.818   2.017  -9.885  0.00  0.00     0.032 H 
ATOM     36  H   LIG d   1       7.759   0.568  -9.943  0.00  0.00     0.032 H 
ATOM     37  H   LIG d   1       7.039   2.698  -8.406  0.00  0.00     0.033 H 
ATOM     38  H   LIG d   1       6.811   1.032  -7.779  0.00  0.00     0.033 H 
ATOM     39  H   LIG d   1       8.900   3.080  -7.057  0.00  0.00     0.095 H 
BRANCH  28  40
ATOM     40  C   LIG d   1      10.033   0.273  -6.231  0.00  0.00    -0.042 C 
ATOM     41  H   LIG d   1       9.237  -0.468  -6.161  0.00  0.00     0.078 H 
ATOM     42  H   LIG d   1      10.986  -0.233  -6.391  0.00  0.00     0.078 H 
ATOM     43  H   LIG d   1      10.077   0.847  -5.305  0.00  0.00     0.078 H 
ENDBRANCH  28  40
ENDBRANCH   1  27
TORSDOF 8
ENDMDL
MODEL 9
REMARK VINA RESULT:      -5.1      2.835      6.897
REMARK  8 active torsions:
REMARK  status: ('A' for Active; 'I' for Inactive)
REMARK    1  A    between atoms: C_1  and  N_2 
REMARK    2  A    between atoms: C_6  and  C_8 
REMARK    3  A    between atoms: C_10  and  C_13 
REMARK    4  A    between atoms: C_15  and  O_19 
REMARK    5  A    between atoms: O_19  and  C_20 
REMARK    6  A    between atoms: C_20  and  C_21 
REMARK    7  A    between atoms: C_21  and  O_22 
REMARK    8  A    between atoms: O_22  and  C_23 
ROOT
ATOM      1  C   LIG d   1       4.262  -0.930  -5.037  0.00  0.00     0.276 A 
ATOM      2  N   LIG d   1       4.084   0.033  -5.895  0.00  0.00    -0.185 NA
ATOM      3  C   LIG d   1       4.184  -0.442  -7.149  0.00  0.00     0.221 A 
ATOM      4  N   LIG d   1       4.428  -1.727  -7.092  0.00  0.00    -0.054 NA
ATOM      5  O   LIG d   1       4.488  -2.064  -5.714  0.00  0.00    -0.332 OA
ENDROOT
BRANCH   3   6
ATOM      6  C   LIG d   1       4.039   0.358  -8.392  0.00  0.00     0.115 A 
ATOM      7  N   LIG d   1       3.887   1.673  -8.313  0.00  0.00    -0.252 NA
ATOM      8  C   LIG d   1       3.760   2.423  -9.390  0.00  0.00     0.032 A 
ATOM      9  C   LIG d   1       3.771   1.862 -10.652  0.00  0.00    -0.002 A 
ATOM     10  H   LIG d   1       3.643   3.492  -9.284  0.00  0.00     0.083 H 
ATOM     11  C   LIG d   1       3.923   0.483 -10.783  0.00  0.00     0.124 A 
ATOM     12  H   LIG d   1       3.662   2.485 -11.527  0.00  0.00     0.067 H 
ATOM     13  C   LIG d   1       4.060  -0.280  -9.627  0.00  0.00     0.009 A 
ATOM     14  H   LIG d   1       4.180  -1.351  -9.690  0.00  0.00     0.068 H 
BRANCH  11  15
ATOM     15  O   LIG d   1       3.938  -0.102 -12.008  0.00  0.00    -0.490 OA
BRANCH  15  16
ATOM     16  C   LIG d   1       2.892  -1.032 -12.296  0.00  0.00     0.113 C 
ATOM     17  H   LIG d   1       2.884  -1.815 -11.538  0.00  0.00     0.072 H 
ATOM     18  H   LIG d   1       1.934  -0.513 -12.292  0.00  0.00     0.072 H 
BRANCH  16  19
ATOM     19  C   LIG d   1       3.129  -1.655 -13.673  0.00  0.00     0.081 C 
ATOM     20  H   LIG d   1       3.345  -2.718 -13.558  0.00  0.00     0.059 H 
ATOM     21  H   LIG d   1       2.238  -1.531 -14.287  0.00  0.00     0.059 H 
BRANCH  19  22
ATOM     22  O   LIG d   1       4.236  -1.010 -14.304  0.00  0.00    -0.380 OA
BRANCH  22  23
ATOM     23  C   LIG d   1       3.939  -0.479 -15.597  0.00  0.00     0.037 C 
ATOM     24  H   LIG d   1       4.848  -0.072 -16.040  0.00  0.00     0.052 H 
ATOM     25  H   LIG d   1       3.548  -1.271 -16.234  0.00  0.00     0.052 H 
ATOM     26  H   LIG d   1       3.195   0.312 -15.503  0.00  0.00     0.052 H 
ENDBRANCH  22  23
ENDBRANCH  19  22
ENDBRANCH  16  19
ENDBRANCH  15  16
ENDBRANCH  11  15
ENDBRANCH   3   6
BRANCH   1  27
ATOM     27  C   LIG d   1       4.226  -0.793  -3.537  0.00  0.00     0.059 C 
ATOM     28  N   LIG d   1       5.551  -0.374  -3.041  0.00  0.00     0.242 N 
ATOM     29  C   LIG d   1       5.410   0.938  -2.373  0.00  0.00    -0.031 C 
ATOM     30  H   LIG d   1       5.896  -1.054  -2.380  0.00  0.00     0.204 HD
ATOM     31  C   LIG d   1       3.924   1.004  -1.942  0.00  0.00    -0.007 C 
ATOM     32  H   LIG d   1       6.060   0.992  -1.501  0.00  0.00     0.081 H 
ATOM     33  H   LIG d   1       5.639   1.744  -3.069  0.00  0.00     0.081 H 
ATOM     34  C   LIG d   1       3.219   0.305  -3.134  0.00  0.00     0.004 C 
ATOM     35  H   LIG d   1       3.761   0.455  -1.015  0.00  0.00     0.032 H 
ATOM     36  H   LIG d   1       3.591   2.037  -1.845  0.00  0.00     0.032 H 
ATOM     37  H   LIG d   1       2.274  -0.138  -2.818  0.00  0.00     0.033 H 
ATOM     38  H   LIG d   1       3.063   1.005  -3.955  0.00  0.00     0.033 H 
ATOM     39  H   LIG d   1       3.944  -1.742  -3.083  0.00  0.00     0.095 H 
BRANCH  28  40
ATOM     40  C   LIG d   1       6.486  -0.257  -4.167  0.00  0.00    -0.042 C 
ATOM     41  H   LIG d   1       6.571   0.788  -4.463  0.00  0.00     0.078 H 
ATOM     42  H   LIG d   1       7.466  -0.629  -3.865  0.00  0.00     0.078 H 
ATOM     43  H   LIG d   1       6.118  -0.845  -5.008  0.00  0.00     0.078 H 
ENDBRANCH  28  40
ENDBRANCH   1  27
TORSDOF 8
ENDMDL
