MODEL 1
REMARK VINA RESULT:      -6.1      0.000      0.000
REMARK  8 active torsions:
REMARK  status: ('A' for Active; 'I' for Inactive)
REMARK    1  A    between atoms: C_1  and  C_2 
REMARK    2  A    between atoms: C_2  and  C_3 
REMARK    3  A    between atoms: C_11  and  C_13 
REMARK    4  A    between atoms: C_13  and  C_15 
REMARK    5  A    between atoms: C_13  and  O_28 
REMARK    6  A    between atoms: C_22  and  O_25 
REMARK    7  A    between atoms: O_25  and  C_26 
REMARK    8  A    between atoms: C_26  and  C_27 
ROOT
ATOM      1  C   LIG d   1       5.519  -1.868  -2.943  0.00  0.00     0.002 C 
ATOM      2  H   LIG d   1       5.471  -2.464  -2.032  0.00  0.00     0.035 H 
ATOM      3  C   LIG d   1       4.504  -2.400  -3.958  0.00  0.00    -0.028 C 
ATOM      4  C   LIG d   1       2.788  -0.921  -3.102  0.00  0.00    -0.031 C 
ATOM      5  C   LIG d   1       3.755  -0.346  -2.062  0.00  0.00    -0.009 C 
ATOM      6  C   LIG d   1       5.181  -0.406  -2.624  0.00  0.00    -0.023 C 
ATOM      7  H   LIG d   1       5.887  -0.009  -1.895  0.00  0.00     0.031 H 
ATOM      8  C   LIG d   1       5.228   0.403  -3.926  0.00  0.00    -0.004 C 
ATOM      9  C   LIG d   1       4.221  -0.193  -4.914  0.00  0.00     0.010 C 
ATOM     10  H   LIG d   1       3.483   0.563  -5.182  0.00  0.00     0.088 H 
ATOM     11  H   LIG d   1       3.972  -3.250  -3.529  0.00  0.00     0.082 H 
ATOM     12  H   LIG d   1       5.025  -2.716  -4.863  0.00  0.00     0.082 H 
ATOM     13  H   LIG d   1       2.060  -0.160  -3.382  0.00  0.00     0.081 H 
ATOM     14  H   LIG d   1       2.271  -1.783  -2.680  0.00  0.00     0.081 H 
ATOM     15  H   LIG d   1       3.697  -0.935  -1.146  0.00  0.00     0.032 H 
ATOM     16  H   LIG d   1       3.490   0.689  -1.848  0.00  0.00     0.032 H 
ATOM     17  H   LIG d   1       6.230   0.354  -4.351  0.00  0.00     0.032 H 
ATOM     18  H   LIG d   1       4.968   1.441  -3.721  0.00  0.00     0.032 H 
ATOM     19  N   LIG d   1       3.525  -1.349  -4.310  0.00  0.00     0.240 N 
ATOM     20  H   LIG d   1       2.858  -1.729  -4.990  0.00  0.00     0.204 HD
ENDROOT
BRANCH   9  21
ATOM     21  C   LIG d   1       4.956  -0.657  -6.174  0.00  0.00     0.123 C 
ATOM     22  H   LIG d   1       5.325  -1.671  -6.025  0.00  0.00     0.070 H 
BRANCH  21  23
ATOM     23  C   LIG d   1       4.008  -0.634  -7.345  0.00  0.00    -0.003 A 
ATOM     24  C   LIG d   1       3.679  -1.818  -8.033  0.00  0.00     0.010 A 
ATOM     25  C   LIG d   1       2.784  -1.749  -9.129  0.00  0.00     0.071 A 
ATOM     26  C   LIG d   1       4.220  -3.056  -7.654  0.00  0.00    -0.010 A 
ATOM     27  N   LIG d   1       2.267  -0.572  -9.492  0.00  0.00    -0.255 NA
ATOM     28  C   LIG d   1       2.453  -2.930  -9.819  0.00  0.00    -0.032 A 
ATOM     29  C   LIG d   1       2.571   0.532  -8.854  0.00  0.00     0.029 A 
ATOM     30  C   LIG d   1       3.449   0.536  -7.773  0.00  0.00    -0.037 A 
ATOM     31  H   LIG d   1       2.132   1.465  -9.179  0.00  0.00     0.083 H 
ATOM     32  H   LIG d   1       3.682   1.463  -7.270  0.00  0.00     0.064 H 
ATOM     33  C   LIG d   1       2.993  -4.114  -9.428  0.00  0.00    -0.018 A 
ATOM     34  H   LIG d   1       1.772  -2.894 -10.657  0.00  0.00     0.064 H 
ATOM     35  C   LIG d   1       3.876  -4.182  -8.347  0.00  0.00     0.121 A 
ATOM     36  H   LIG d   1       2.735  -5.018  -9.962  0.00  0.00     0.066 H 
ATOM     37  H   LIG d   1       4.904  -3.118  -6.820  0.00  0.00     0.066 H 
BRANCH  35  38
ATOM     38  O   LIG d   1       4.401  -5.382  -7.981  0.00  0.00    -0.492 OA
BRANCH  38  39
ATOM     39  C   LIG d   1       5.335  -5.379  -6.900  0.00  0.00     0.087 C 
ATOM     40  H   LIG d   1       6.243  -5.901  -7.203  0.00  0.00     0.069 H 
ATOM     41  H   LIG d   1       5.581  -4.350  -6.634  0.00  0.00     0.069 H 
BRANCH  39  42
ATOM     42  C   LIG d   1       4.720  -6.085  -5.692  0.00  0.00    -0.031 C 
ATOM     43  H   LIG d   1       5.443  -6.784  -5.271  0.00  0.00     0.026 H 
ATOM     44  H   LIG d   1       4.449  -5.345  -4.938  0.00  0.00     0.026 H 
ATOM     45  H   LIG d   1       3.828  -6.629  -6.003  0.00  0.00     0.026 H 
ENDBRANCH  39  42
ENDBRANCH  38  39
ENDBRANCH  35  38
ENDBRANCH  21  23
BRANCH  21  46
ATOM     46  O   LIG d   1       6.055   0.218  -6.433  0.00  0.00    -0.382 OA
ATOM     47  H   LIG d   1       6.133   0.950  -5.807  0.00  0.00     0.210 HD
ENDBRANCH  21  46
ENDBRANCH   9  21
BRANCH   1  48
ATOM     48  C   LIG d   1       6.927  -1.950  -3.535  0.00  0.00    -0.048 C 
ATOM     49  H   LIG d   1       7.137  -1.042  -4.101  0.00  0.00     0.027 H 
ATOM     50  H   LIG d   1       7.655  -2.052  -2.730  0.00  0.00     0.027 H 
BRANCH  48  51
ATOM     51  C   LIG d   1       7.021  -3.163  -4.464  0.00  0.00    -0.065 C 
ATOM     52  H   LIG d   1       7.134  -4.068  -3.867  0.00  0.00     0.023 H 
ATOM     53  H   LIG d   1       6.113  -3.233  -5.063  0.00  0.00     0.023 H 
ATOM     54  H   LIG d   1       7.883  -3.052  -5.121  0.00  0.00     0.023 H 
ENDBRANCH  48  51
ENDBRANCH   1  48
TORSDOF 8
ENDMDL
MODEL 2
REMARK VINA RESULT:      -6.0      1.818      6.420
REMARK  8 active torsions:
REMARK  status: ('A' for Active; 'I' for Inactive)
REMARK    1  A    between atoms: C_1  and  C_2 
REMARK    2  A    between atoms: C_2  and  C_3 
REMARK    3  A    between atoms: C_11  and  C_13 
REMARK    4  A    between atoms: C_13  and  C_15 
REMARK    5  A    between atoms: C_13  and  O_28 
REMARK    6  A    between atoms: C_22  and  O_25 
REMARK    7  A    between atoms: O_25  and  C_26 
REMARK    8  A    between atoms: C_26  and  C_27 
ROOT
ATOM      1  C   LIG d   1       2.941   0.740 -10.477  0.00  0.00     0.002 C 
ATOM      2  H   LIG d   1       2.209   1.443 -10.876  0.00  0.00     0.035 H 
ATOM      3  C   LIG d   1       2.441   0.180  -9.143  0.00  0.00    -0.028 C 
ATOM      4  C   LIG d   1       1.324  -1.652 -10.268  0.00  0.00    -0.031 C 
ATOM      5  C   LIG d   1       1.794  -1.143 -11.635  0.00  0.00    -0.009 C 
ATOM      6  C   LIG d   1       3.135  -0.420 -11.461  0.00  0.00    -0.023 C 
ATOM      7  H   LIG d   1       3.484  -0.042 -12.422  0.00  0.00     0.031 H 
ATOM      8  C   LIG d   1       4.147  -1.405 -10.863  0.00  0.00    -0.004 C 
ATOM      9  C   LIG d   1       3.614  -1.906  -9.518  0.00  0.00     0.010 C 
ATOM     10  H   LIG d   1       3.496  -2.989  -9.554  0.00  0.00     0.088 H 
ATOM     11  H   LIG d   1       1.469   0.614  -8.908  0.00  0.00     0.082 H 
ATOM     12  H   LIG d   1       3.151   0.427  -8.354  0.00  0.00     0.082 H 
ATOM     13  H   LIG d   1       1.222  -2.736 -10.299  0.00  0.00     0.081 H 
ATOM     14  H   LIG d   1       0.362  -1.202 -10.024  0.00  0.00     0.081 H 
ATOM     15  H   LIG d   1       1.054  -0.451 -12.039  0.00  0.00     0.032 H 
ATOM     16  H   LIG d   1       1.917  -1.984 -12.317  0.00  0.00     0.032 H 
ATOM     17  H   LIG d   1       5.102  -0.902 -10.712  0.00  0.00     0.032 H 
ATOM     18  H   LIG d   1       4.280  -2.248 -11.540  0.00  0.00     0.032 H 
ATOM     19  N   LIG d   1       2.303  -1.290  -9.220  0.00  0.00     0.240 N 
ATOM     20  H   LIG d   1       1.967  -1.642  -8.316  0.00  0.00     0.204 HD
ENDROOT
BRANCH   9  21
ATOM     21  C   LIG d   1       4.600  -1.537  -8.408  0.00  0.00     0.123 C 
ATOM     22  H   LIG d   1       4.352  -0.552  -8.014  0.00  0.00     0.070 H 
BRANCH  21  23
ATOM     23  C   LIG d   1       4.515  -2.556  -7.301  0.00  0.00    -0.003 A 
ATOM     24  C   LIG d   1       4.707  -2.183  -5.957  0.00  0.00     0.010 A 
ATOM     25  C   LIG d   1       4.618  -3.176  -4.949  0.00  0.00     0.071 A 
ATOM     26  C   LIG d   1       4.982  -0.854  -5.602  0.00  0.00    -0.010 A 
ATOM     27  N   LIG d   1       4.356  -4.442  -5.285  0.00  0.00    -0.255 NA
ATOM     28  C   LIG d   1       4.809  -2.806  -3.605  0.00  0.00    -0.032 A 
ATOM     29  C   LIG d   1       4.177  -4.793  -6.535  0.00  0.00     0.029 A 
ATOM     30  C   LIG d   1       4.257  -3.870  -7.574  0.00  0.00    -0.037 A 
ATOM     31  H   LIG d   1       3.967  -5.828  -6.765  0.00  0.00     0.083 H 
ATOM     32  H   LIG d   1       4.108  -4.191  -8.595  0.00  0.00     0.064 H 
ATOM     33  C   LIG d   1       5.074  -1.510  -3.292  0.00  0.00    -0.018 A 
ATOM     34  H   LIG d   1       4.745  -3.551  -2.825  0.00  0.00     0.064 H 
ATOM     35  C   LIG d   1       5.162  -0.532  -4.287  0.00  0.00     0.121 A 
ATOM     36  H   LIG d   1       5.220  -1.233  -2.258  0.00  0.00     0.066 H 
ATOM     37  H   LIG d   1       5.052  -0.090  -6.363  0.00  0.00     0.066 H 
BRANCH  35  38
ATOM     38  O   LIG d   1       5.430   0.756  -3.941  0.00  0.00    -0.492 OA
BRANCH  38  39
ATOM     39  C   LIG d   1       5.138   1.140  -2.596  0.00  0.00     0.087 C 
ATOM     40  H   LIG d   1       5.387   0.320  -1.922  0.00  0.00     0.069 H 
ATOM     41  H   LIG d   1       5.728   2.019  -2.332  0.00  0.00     0.069 H 
BRANCH  39  42
ATOM     42  C   LIG d   1       3.650   1.470  -2.471  0.00  0.00    -0.031 C 
ATOM     43  H   LIG d   1       3.297   1.188  -1.478  0.00  0.00     0.026 H 
ATOM     44  H   LIG d   1       3.501   2.540  -2.618  0.00  0.00     0.026 H 
ATOM     45  H   LIG d   1       3.091   0.918  -3.226  0.00  0.00     0.026 H 
ENDBRANCH  39  42
ENDBRANCH  38  39
ENDBRANCH  35  38
ENDBRANCH  21  23
BRANCH  21  46
ATOM     46  O   LIG d   1       5.927  -1.518  -8.937  0.00  0.00    -0.382 OA
ATOM     47  H   LIG d   1       6.084  -0.817  -9.583  0.00  0.00     0.210 HD
ENDBRANCH  21  46
ENDBRANCH   9  21
BRANCH   1  48
ATOM     48  C   LIG d   1       4.275   1.458 -10.263  0.00  0.00    -0.048 C 
ATOM     49  H   LIG d   1       5.022   0.743  -9.919  0.00  0.00     0.027 H 
ATOM     50  H   LIG d   1       4.603   1.904 -11.202  0.00  0.00     0.027 H 
BRANCH  48  51
ATOM     51  C   LIG d   1       4.100   2.557  -9.211  0.00  0.00    -0.065 C 
ATOM     52  H   LIG d   1       4.580   2.248  -8.282  0.00  0.00     0.023 H 
ATOM     53  H   LIG d   1       4.559   3.478  -9.569  0.00  0.00     0.023 H 
ATOM     54  H   LIG d   1       3.039   2.725  -9.033  0.00  0.00     0.023 H 
ENDBRANCH  48  51
ENDBRANCH   1  48
TORSDOF 8
ENDMDL
MODEL 3
REMARK VINA RESULT:      -5.7      1.996      4.246
REMARK  8 active torsions:
REMARK  status: ('A' for Active; 'I' for Inactive)
REMARK    1  A    between atoms: C_1  and  C_2 
REMARK    2  A    between atoms: C_2  and  C_3 
REMARK    3  A    between atoms: C_11  and  C_13 
REMARK    4  A    between atoms: C_13  and  C_15 
REMARK    5  A    between atoms: C_13  and  O_28 
REMARK    6  A    between atoms: C_22  and  O_25 
REMARK    7  A    between atoms: O_25  and  C_26 
REMARK    8  A    between atoms: C_26  and  C_27 
ROOT
ATOM      1  C   LIG d   1       4.983  -0.470  -3.053  0.00  0.00     0.002 C 
ATOM      2  H   LIG d   1       5.076   0.358  -2.350  0.00  0.00     0.035 H 
ATOM      3  C   LIG d   1       4.598   0.070  -4.433  0.00  0.00    -0.028 C 
ATOM      4  C   LIG d   1       6.928   0.309  -5.050  0.00  0.00    -0.031 C 
ATOM      5  C   LIG d   1       7.379  -0.224  -3.687  0.00  0.00    -0.009 C 
ATOM      6  C   LIG d   1       6.324  -1.207  -3.165  0.00  0.00    -0.023 C 
ATOM      7  H   LIG d   1       6.622  -1.593  -2.190  0.00  0.00     0.031 H 
ATOM      8  C   LIG d   1       6.173  -2.346  -4.179  0.00  0.00    -0.004 C 
ATOM      9  C   LIG d   1       5.754  -1.756  -5.528  0.00  0.00     0.010 C 
ATOM     10  H   LIG d   1       6.505  -1.997  -6.280  0.00  0.00     0.088 H 
ATOM     11  H   LIG d   1       4.509   1.156  -4.387  0.00  0.00     0.082 H 
ATOM     12  H   LIG d   1       3.645  -0.362  -4.740  0.00  0.00     0.082 H 
ATOM     13  H   LIG d   1       7.671   0.053  -5.805  0.00  0.00     0.081 H 
ATOM     14  H   LIG d   1       6.819   1.393  -4.999  0.00  0.00     0.081 H 
ATOM     15  H   LIG d   1       7.485   0.606  -2.988  0.00  0.00     0.032 H 
ATOM     16  H   LIG d   1       8.336  -0.736  -3.792  0.00  0.00     0.032 H 
ATOM     17  H   LIG d   1       5.410  -3.045  -3.834  0.00  0.00     0.032 H 
ATOM     18  H   LIG d   1       7.124  -2.868  -4.288  0.00  0.00     0.032 H 
ATOM     19  N   LIG d   1       5.629  -0.285  -5.432  0.00  0.00     0.240 N 
ATOM     20  H   LIG d   1       5.349   0.086  -6.347  0.00  0.00     0.204 HD
ENDROOT
BRANCH   9  21
ATOM     21  C   LIG d   1       4.405  -2.343  -5.947  0.00  0.00     0.123 C 
ATOM     22  H   LIG d   1       3.635  -1.575  -5.872  0.00  0.00     0.070 H 
BRANCH  21  23
ATOM     23  C   LIG d   1       4.489  -2.832  -7.370  0.00  0.00    -0.003 A 
ATOM     24  C   LIG d   1       3.956  -2.072  -8.429  0.00  0.00     0.010 A 
ATOM     25  C   LIG d   1       4.058  -2.571  -9.751  0.00  0.00     0.071 A 
ATOM     26  C   LIG d   1       3.328  -0.839  -8.197  0.00  0.00    -0.010 A 
ATOM     27  N   LIG d   1       4.654  -3.745  -9.975  0.00  0.00    -0.255 NA
ATOM     28  C   LIG d   1       3.525  -1.814 -10.812  0.00  0.00    -0.032 A 
ATOM     29  C   LIG d   1       5.153  -4.455  -8.992  0.00  0.00     0.029 A 
ATOM     30  C   LIG d   1       5.081  -4.026  -7.669  0.00  0.00    -0.037 A 
ATOM     31  H   LIG d   1       5.627  -5.400  -9.213  0.00  0.00     0.083 H 
ATOM     32  H   LIG d   1       5.497  -4.636  -6.880  0.00  0.00     0.064 H 
ATOM     33  C   LIG d   1       2.924  -0.623 -10.556  0.00  0.00    -0.018 A 
ATOM     34  H   LIG d   1       3.595  -2.181 -11.826  0.00  0.00     0.064 H 
ATOM     35  C   LIG d   1       2.823  -0.132  -9.251  0.00  0.00     0.121 A 
ATOM     36  H   LIG d   1       2.517  -0.047 -11.375  0.00  0.00     0.066 H 
ATOM     37  H   LIG d   1       3.246  -0.450  -7.193  0.00  0.00     0.066 H 
BRANCH  35  38
ATOM     38  O   LIG d   1       2.214   1.064  -9.028  0.00  0.00    -0.492 OA
BRANCH  38  39
ATOM     39  C   LIG d   1       2.984   2.071  -8.368  0.00  0.00     0.087 C 
ATOM     40  H   LIG d   1       2.321   2.855  -8.004  0.00  0.00     0.069 H 
ATOM     41  H   LIG d   1       3.518   1.627  -7.527  0.00  0.00     0.069 H 
BRANCH  39  42
ATOM     42  C   LIG d   1       3.990   2.669  -9.352  0.00  0.00    -0.031 C 
ATOM     43  H   LIG d   1       5.003   2.431  -9.027  0.00  0.00     0.026 H 
ATOM     44  H   LIG d   1       3.820   2.252 -10.345  0.00  0.00     0.026 H 
ATOM     45  H   LIG d   1       3.865   3.751  -9.387  0.00  0.00     0.026 H 
ENDBRANCH  39  42
ENDBRANCH  38  39
ENDBRANCH  35  38
ENDBRANCH  21  23
BRANCH  21  46
ATOM     46  O   LIG d   1       4.074  -3.435  -5.088  0.00  0.00    -0.382 OA
ATOM     47  H   LIG d   1       3.651  -3.171  -4.259  0.00  0.00     0.210 HD
ENDBRANCH  21  46
ENDBRANCH   9  21
BRANCH   1  48
ATOM     48  C   LIG d   1       3.906  -1.439  -2.563  0.00  0.00    -0.048 C 
ATOM     49  H   LIG d   1       4.094  -2.430  -2.974  0.00  0.00     0.027 H 
ATOM     50  H   LIG d   1       3.928  -1.487  -1.474  0.00  0.00     0.027 H 
BRANCH  48  51
ATOM     51  C   LIG d   1       2.531  -0.949  -3.023  0.00  0.00    -0.065 C 
ATOM     52  H   LIG d   1       1.877  -0.841  -2.157  0.00  0.00     0.023 H 
ATOM     53  H   LIG d   1       2.636   0.013  -3.522  0.00  0.00     0.023 H 
ATOM     54  H   LIG d   1       2.100  -1.672  -3.715  0.00  0.00     0.023 H 
ENDBRANCH  48  51
ENDBRANCH   1  48
TORSDOF 8
ENDMDL
MODEL 4
REMARK VINA RESULT:      -5.7      3.122      5.191
REMARK  8 active torsions:
REMARK  status: ('A' for Active; 'I' for Inactive)
REMARK    1  A    between atoms: C_1  and  C_2 
REMARK    2  A    between atoms: C_2  and  C_3 
REMARK    3  A    between atoms: C_11  and  C_13 
REMARK    4  A    between atoms: C_13  and  C_15 
REMARK    5  A    between atoms: C_13  and  O_28 
REMARK    6  A    between atoms: C_22  and  O_25 
REMARK    7  A    between atoms: O_25  and  C_26 
REMARK    8  A    between atoms: C_26  and  C_27 
ROOT
ATOM      1  C   LIG d   1       3.790  -1.782  -3.762  0.00  0.00     0.002 C 
ATOM      2  H   LIG d   1       2.747  -2.092  -3.833  0.00  0.00     0.035 H 
ATOM      3  C   LIG d   1       4.125  -0.839  -4.920  0.00  0.00    -0.028 C 
ATOM      4  C   LIG d   1       3.481   1.092  -3.609  0.00  0.00    -0.031 C 
ATOM      5  C   LIG d   1       3.127   0.204  -2.412  0.00  0.00    -0.009 C 
ATOM      6  C   LIG d   1       4.021  -1.042  -2.438  0.00  0.00    -0.023 C 
ATOM      7  H   LIG d   1       3.780  -1.694  -1.598  0.00  0.00     0.031 H 
ATOM      8  C   LIG d   1       5.486  -0.594  -2.377  0.00  0.00    -0.004 C 
ATOM      9  C   LIG d   1       5.775   0.315  -3.574  0.00  0.00     0.010 C 
ATOM     10  H   LIG d   1       6.092   1.295  -3.219  0.00  0.00     0.088 H 
ATOM     11  H   LIG d   1       3.241  -0.699  -5.543  0.00  0.00     0.082 H 
ATOM     12  H   LIG d   1       4.928  -1.270  -5.520  0.00  0.00     0.082 H 
ATOM     13  H   LIG d   1       3.814   2.067  -3.252  0.00  0.00     0.081 H 
ATOM     14  H   LIG d   1       2.602   1.216  -4.241  0.00  0.00     0.081 H 
ATOM     15  H   LIG d   1       2.081  -0.095  -2.476  0.00  0.00     0.032 H 
ATOM     16  H   LIG d   1       3.293   0.753  -1.485  0.00  0.00     0.032 H 
ATOM     17  H   LIG d   1       6.138  -1.468  -2.416  0.00  0.00     0.032 H 
ATOM     18  H   LIG d   1       5.663  -0.047  -1.452  0.00  0.00     0.032 H 
ATOM     19  N   LIG d   1       4.563   0.476  -4.406  0.00  0.00     0.240 N 
ATOM     20  H   LIG d   1       4.782   1.089  -5.199  0.00  0.00     0.204 HD
ENDROOT
BRANCH   9  21
ATOM     21  C   LIG d   1       6.885  -0.301  -4.428  0.00  0.00     0.123 C 
ATOM     22  H   LIG d   1       6.442  -0.871  -5.244  0.00  0.00     0.070 H 
BRANCH  21  23
ATOM     23  C   LIG d   1       7.751   0.794  -4.994  0.00  0.00    -0.003 A 
ATOM     24  C   LIG d   1       7.703   1.122  -6.362  0.00  0.00     0.010 A 
ATOM     25  C   LIG d   1       8.535   2.160  -6.850  0.00  0.00     0.071 A 
ATOM     26  C   LIG d   1       6.849   0.443  -7.245  0.00  0.00    -0.010 A 
ATOM     27  N   LIG d   1       9.349   2.809  -6.012  0.00  0.00    -0.255 NA
ATOM     28  C   LIG d   1       8.489   2.490  -8.217  0.00  0.00    -0.032 A 
ATOM     29  C   LIG d   1       9.397   2.507  -4.738  0.00  0.00     0.029 A 
ATOM     30  C   LIG d   1       8.610   1.494  -4.194  0.00  0.00    -0.037 A 
ATOM     31  H   LIG d   1      10.069   3.055  -4.092  0.00  0.00     0.083 H 
ATOM     32  H   LIG d   1       8.675   1.266  -3.140  0.00  0.00     0.064 H 
ATOM     33  C   LIG d   1       7.652   1.814  -9.047  0.00  0.00    -0.018 A 
ATOM     34  H   LIG d   1       9.118   3.278  -8.605  0.00  0.00     0.064 H 
ATOM     35  C   LIG d   1       6.831   0.790  -8.566  0.00  0.00     0.121 A 
ATOM     36  H   LIG d   1       7.621   2.072 -10.096  0.00  0.00     0.066 H 
ATOM     37  H   LIG d   1       6.211  -0.350  -6.882  0.00  0.00     0.066 H 
BRANCH  35  38
ATOM     38  O   LIG d   1       6.005   0.131  -9.422  0.00  0.00    -0.492 OA
BRANCH  38  39
ATOM     39  C   LIG d   1       4.616   0.463  -9.367  0.00  0.00     0.087 C 
ATOM     40  H   LIG d   1       4.026  -0.452  -9.307  0.00  0.00     0.069 H 
ATOM     41  H   LIG d   1       4.423   1.077  -8.487  0.00  0.00     0.069 H 
BRANCH  39  42
ATOM     42  C   LIG d   1       4.227   1.239 -10.625  0.00  0.00    -0.031 C 
ATOM     43  H   LIG d   1       5.030   1.928 -10.891  0.00  0.00     0.026 H 
ATOM     44  H   LIG d   1       4.062   0.542 -11.447  0.00  0.00     0.026 H 
ATOM     45  H   LIG d   1       3.313   1.802 -10.437  0.00  0.00     0.026 H 
ENDBRANCH  39  42
ENDBRANCH  38  39
ENDBRANCH  35  38
ENDBRANCH  21  23
BRANCH  21  46
ATOM     46  O   LIG d   1       7.682  -1.168  -3.619  0.00  0.00    -0.382 OA
ATOM     47  H   LIG d   1       7.960  -1.980  -4.065  0.00  0.00     0.210 HD
ENDBRANCH  21  46
ENDBRANCH   9  21
BRANCH   1  48
ATOM     48  C   LIG d   1       4.695  -3.014  -3.825  0.00  0.00    -0.048 C 
ATOM     49  H   LIG d   1       5.624  -2.809  -3.294  0.00  0.00     0.027 H 
ATOM     50  H   LIG d   1       4.189  -3.861  -3.360  0.00  0.00     0.027 H 
BRANCH  48  51
ATOM     51  C   LIG d   1       5.005  -3.345  -5.287  0.00  0.00    -0.065 C 
ATOM     52  H   LIG d   1       5.695  -4.188  -5.328  0.00  0.00     0.023 H 
ATOM     53  H   LIG d   1       4.082  -3.605  -5.804  0.00  0.00     0.023 H 
ATOM     54  H   LIG d   1       5.460  -2.479  -5.767  0.00  0.00     0.023 H 
ENDBRANCH  48  51
ENDBRANCH   1  48
TORSDOF 8
ENDMDL
MODEL 5
REMARK VINA RESULT:      -5.5      2.636      4.710
REMARK  8 active torsions:
REMARK  status: ('A' for Active; 'I' for Inactive)
REMARK    1  A    between atoms: C_1  and  C_2 
REMARK    2  A    between atoms: C_2  and  C_3 
REMARK    3  A    between atoms: C_11  and  C_13 
REMARK    4  A    between atoms: C_13  and  C_15 
REMARK    5  A    between atoms: C_13  and  O_28 
REMARK    6  A    between atoms: C_22  and  O_25 
REMARK    7  A    between atoms: O_25  and  C_26 
REMARK    8  A    between atoms: C_26  and  C_27 
ROOT
ATOM      1  C   LIG d   1       3.275   0.600  -3.834  0.00  0.00     0.002 C 
ATOM      2  H   LIG d   1       3.108   1.645  -3.571  0.00  0.00     0.035 H 
ATOM      3  C   LIG d   1       4.589   0.471  -4.610  0.00  0.00    -0.028 C 
ATOM      4  C   LIG d   1       5.832   0.133  -2.559  0.00  0.00    -0.031 C 
ATOM      5  C   LIG d   1       4.553   0.253  -1.724  0.00  0.00    -0.009 C 
ATOM      6  C   LIG d   1       3.367  -0.247  -2.559  0.00  0.00    -0.023 C 
ATOM      7  H   LIG d   1       2.444  -0.163  -1.986  0.00  0.00     0.031 H 
ATOM      8  C   LIG d   1       3.630  -1.704  -2.957  0.00  0.00    -0.004 C 
ATOM      9  C   LIG d   1       4.933  -1.771  -3.758  0.00  0.00     0.010 C 
ATOM     10  H   LIG d   1       5.644  -2.418  -3.244  0.00  0.00     0.088 H 
ATOM     11  H   LIG d   1       5.048   1.454  -4.715  0.00  0.00     0.082 H 
ATOM     12  H   LIG d   1       4.389   0.055  -5.598  0.00  0.00     0.082 H 
ATOM     13  H   LIG d   1       6.536  -0.527  -2.053  0.00  0.00     0.081 H 
ATOM     14  H   LIG d   1       6.280   1.119  -2.681  0.00  0.00     0.081 H 
ATOM     15  H   LIG d   1       4.393   1.296  -1.450  0.00  0.00     0.032 H 
ATOM     16  H   LIG d   1       4.646  -0.351  -0.822  0.00  0.00     0.032 H 
ATOM     17  H   LIG d   1       2.806  -2.071  -3.570  0.00  0.00     0.032 H 
ATOM     18  H   LIG d   1       3.721  -2.318  -2.061  0.00  0.00     0.032 H 
ATOM     19  N   LIG d   1       5.525  -0.422  -3.894  0.00  0.00     0.240 N 
ATOM     20  H   LIG d   1       6.396  -0.493  -4.433  0.00  0.00     0.204 HD
ENDROOT
BRANCH   9  21
ATOM     21  C   LIG d   1       4.648  -2.332  -5.153  0.00  0.00     0.123 C 
ATOM     22  H   LIG d   1       3.996  -1.647  -5.693  0.00  0.00     0.070 H 
BRANCH  21  23
ATOM     23  C   LIG d   1       5.944  -2.490  -5.905  0.00  0.00    -0.003 A 
ATOM     24  C   LIG d   1       6.105  -1.944  -7.192  0.00  0.00     0.010 A 
ATOM     25  C   LIG d   1       7.341  -2.117  -7.863  0.00  0.00     0.071 A 
ATOM     26  C   LIG d   1       5.069  -1.234  -7.818  0.00  0.00    -0.010 A 
ATOM     27  N   LIG d   1       8.330  -2.791  -7.270  0.00  0.00    -0.255 NA
ATOM     28  C   LIG d   1       7.505  -1.572  -9.150  0.00  0.00    -0.032 A 
ATOM     29  C   LIG d   1       8.185  -3.302  -6.071  0.00  0.00     0.029 A 
ATOM     30  C   LIG d   1       6.994  -3.173  -5.360  0.00  0.00    -0.037 A 
ATOM     31  H   LIG d   1       9.008  -3.842  -5.626  0.00  0.00     0.083 H 
ATOM     32  H   LIG d   1       6.903  -3.609  -4.375  0.00  0.00     0.064 H 
ATOM     33  C   LIG d   1       6.483  -0.890  -9.730  0.00  0.00    -0.018 A 
ATOM     34  H   LIG d   1       8.442  -1.696  -9.674  0.00  0.00     0.064 H 
ATOM     35  C   LIG d   1       5.263  -0.719  -9.068  0.00  0.00     0.121 A 
ATOM     36  H   LIG d   1       6.615  -0.473 -10.718  0.00  0.00     0.066 H 
ATOM     37  H   LIG d   1       4.122  -1.097  -7.315  0.00  0.00     0.066 H 
BRANCH  35  38
ATOM     38  O   LIG d   1       4.259  -0.032  -9.676  0.00  0.00    -0.492 OA
BRANCH  38  39
ATOM     39  C   LIG d   1       4.592   1.236 -10.244  0.00  0.00     0.087 C 
ATOM     40  H   LIG d   1       5.661   1.270 -10.456  0.00  0.00     0.069 H 
ATOM     41  H   LIG d   1       4.034   1.378 -11.170  0.00  0.00     0.069 H 
BRANCH  39  42
ATOM     42  C   LIG d   1       4.233   2.347  -9.257  0.00  0.00    -0.031 C 
ATOM     43  H   LIG d   1       4.851   3.223  -9.454  0.00  0.00     0.026 H 
ATOM     44  H   LIG d   1       3.181   2.611  -9.374  0.00  0.00     0.026 H 
ATOM     45  H   LIG d   1       4.409   2.000  -8.239  0.00  0.00     0.026 H 
ENDBRANCH  39  42
ENDBRANCH  38  39
ENDBRANCH  35  38
ENDBRANCH  21  23
BRANCH  21  46
ATOM     46  O   LIG d   1       4.009  -3.604  -5.032  0.00  0.00    -0.382 OA
ATOM     47  H   LIG d   1       4.622  -4.346  -4.939  0.00  0.00     0.210 HD
ENDBRANCH  21  46
ENDBRANCH   9  21
BRANCH   1  48
ATOM     48  C   LIG d   1       2.118   0.099  -4.699  0.00  0.00    -0.048 C 
ATOM     49  H   LIG d   1       2.010  -0.978  -4.574  0.00  0.00     0.027 H 
ATOM     50  H   LIG d   1       1.195   0.594  -4.394  0.00  0.00     0.027 H 
BRANCH  48  51
ATOM     51  C   LIG d   1       2.404   0.416  -6.169  0.00  0.00    -0.065 C 
ATOM     52  H   LIG d   1       2.621  -0.510  -6.703  0.00  0.00     0.023 H 
ATOM     53  H   LIG d   1       1.533   0.896  -6.613  0.00  0.00     0.023 H 
ATOM     54  H   LIG d   1       3.262   1.084  -6.237  0.00  0.00     0.023 H 
ENDBRANCH  48  51
ENDBRANCH   1  48
TORSDOF 8
ENDMDL
MODEL 6
REMARK VINA RESULT:      -5.5      2.540      3.765
REMARK  8 active torsions:
REMARK  status: ('A' for Active; 'I' for Inactive)
REMARK    1  A    between atoms: C_1  and  C_2 
REMARK    2  A    between atoms: C_2  and  C_3 
REMARK    3  A    between atoms: C_11  and  C_13 
REMARK    4  A    between atoms: C_13  and  C_15 
REMARK    5  A    between atoms: C_13  and  O_28 
REMARK    6  A    between atoms: C_22  and  O_25 
REMARK    7  A    between atoms: O_25  and  C_26 
REMARK    8  A    between atoms: C_26  and  C_27 
ROOT
ATOM      1  C   LIG d   1       5.112  -0.508  -2.434  0.00  0.00     0.002 C 
ATOM      2  H   LIG d   1       5.754  -0.889  -1.639  0.00  0.00     0.035 H 
ATOM      3  C   LIG d   1       5.689  -0.908  -3.795  0.00  0.00    -0.028 C 
ATOM      4  C   LIG d   1       4.422  -2.972  -3.787  0.00  0.00    -0.031 C 
ATOM      5  C   LIG d   1       3.808  -2.631  -2.426  0.00  0.00    -0.009 C 
ATOM      6  C   LIG d   1       3.706  -1.106  -2.297  0.00  0.00    -0.023 C 
ATOM      7  H   LIG d   1       3.279  -0.839  -1.330  0.00  0.00     0.031 H 
ATOM      8  C   LIG d   1       2.835  -0.576  -3.442  0.00  0.00    -0.004 C 
ATOM      9  C   LIG d   1       3.475  -0.973  -4.775  0.00  0.00     0.010 C 
ATOM     10  H   LIG d   1       2.780  -1.593  -5.341  0.00  0.00     0.088 H 
ATOM     11  H   LIG d   1       6.605  -1.482  -3.647  0.00  0.00     0.082 H 
ATOM     12  H   LIG d   1       5.910  -0.012  -4.375  0.00  0.00     0.082 H 
ATOM     13  H   LIG d   1       3.720  -3.578  -4.360  0.00  0.00     0.081 H 
ATOM     14  H   LIG d   1       5.348  -3.528  -3.639  0.00  0.00     0.081 H 
ATOM     15  H   LIG d   1       4.443  -3.023  -1.631  0.00  0.00     0.032 H 
ATOM     16  H   LIG d   1       2.814  -3.071  -2.350  0.00  0.00     0.032 H 
ATOM     17  H   LIG d   1       2.768   0.511  -3.379  0.00  0.00     0.032 H 
ATOM     18  H   LIG d   1       1.837  -1.008  -3.373  0.00  0.00     0.032 H 
ATOM     19  N   LIG d   1       4.720  -1.737  -4.543  0.00  0.00     0.240 N 
ATOM     20  H   LIG d   1       5.128  -1.992  -5.449  0.00  0.00     0.204 HD
ENDROOT
BRANCH   9  21
ATOM     21  C   LIG d   1       3.807   0.286  -5.578  0.00  0.00     0.123 C 
ATOM     22  H   LIG d   1       4.801   0.639  -5.306  0.00  0.00     0.070 H 
BRANCH  21  23
ATOM     23  C   LIG d   1       3.772  -0.033  -7.050  0.00  0.00    -0.003 A 
ATOM     24  C   LIG d   1       4.954  -0.056  -7.814  0.00  0.00     0.010 A 
ATOM     25  C   LIG d   1       4.874  -0.361  -9.196  0.00  0.00     0.071 A 
ATOM     26  C   LIG d   1       6.202   0.218  -7.234  0.00  0.00    -0.010 A 
ATOM     27  N   LIG d   1       3.688  -0.622  -9.751  0.00  0.00    -0.255 NA
ATOM     28  C   LIG d   1       6.055  -0.384  -9.962  0.00  0.00    -0.032 A 
ATOM     29  C   LIG d   1       2.585  -0.603  -9.043  0.00  0.00     0.029 A 
ATOM     30  C   LIG d   1       2.592  -0.304  -7.683  0.00  0.00    -0.037 A 
ATOM     31  H   LIG d   1       1.644  -0.819  -9.529  0.00  0.00     0.083 H 
ATOM     32  H   LIG d   1       1.665  -0.292  -7.127  0.00  0.00     0.064 H 
ATOM     33  C   LIG d   1       7.249  -0.115  -9.372  0.00  0.00    -0.018 A 
ATOM     34  H   LIG d   1       6.010  -0.615 -11.016  0.00  0.00     0.064 H 
ATOM     35  C   LIG d   1       7.327   0.187  -8.009  0.00  0.00     0.121 A 
ATOM     36  H   LIG d   1       8.151  -0.134  -9.965  0.00  0.00     0.066 H 
ATOM     37  H   LIG d   1       6.274   0.452  -6.181  0.00  0.00     0.066 H 
BRANCH  35  38
ATOM     38  O   LIG d   1       8.537   0.453  -7.447  0.00  0.00    -0.492 OA
BRANCH  38  39
ATOM     39  C   LIG d   1       8.558   0.701  -6.040  0.00  0.00     0.087 C 
ATOM     40  H   LIG d   1       9.068   1.645  -5.846  0.00  0.00     0.069 H 
ATOM     41  H   LIG d   1       7.536   0.757  -5.665  0.00  0.00     0.069 H 
BRANCH  39  42
ATOM     42  C   LIG d   1       9.300  -0.434  -5.333  0.00  0.00    -0.031 C 
ATOM     43  H   LIG d   1       8.911  -0.548  -4.321  0.00  0.00     0.026 H 
ATOM     44  H   LIG d   1       9.153  -1.363  -5.885  0.00  0.00     0.026 H 
ATOM     45  H   LIG d   1      10.364  -0.201  -5.290  0.00  0.00     0.026 H 
ENDBRANCH  39  42
ENDBRANCH  38  39
ENDBRANCH  35  38
ENDBRANCH  21  23
BRANCH  21  46
ATOM     46  O   LIG d   1       2.845   1.302  -5.289  0.00  0.00    -0.382 OA
ATOM     47  H   LIG d   1       2.116   1.348  -5.923  0.00  0.00     0.210 HD
ENDBRANCH  21  46
ENDBRANCH   9  21
BRANCH   1  48
ATOM     48  C   LIG d   1       5.032   1.017  -2.340  0.00  0.00    -0.048 C 
ATOM     49  H   LIG d   1       4.076   1.356  -2.740  0.00  0.00     0.027 H 
ATOM     50  H   LIG d   1       5.118   1.322  -1.297  0.00  0.00     0.027 H 
BRANCH  48  51
ATOM     51  C   LIG d   1       6.172   1.639  -3.150  0.00  0.00    -0.065 C 
ATOM     52  H   LIG d   1       6.442   0.970  -3.968  0.00  0.00     0.023 H 
ATOM     53  H   LIG d   1       5.848   2.597  -3.555  0.00  0.00     0.023 H 
ATOM     54  H   LIG d   1       7.036   1.791  -2.504  0.00  0.00     0.023 H 
ENDBRANCH  48  51
ENDBRANCH   1  48
TORSDOF 8
ENDMDL
MODEL 7
REMARK VINA RESULT:      -5.4      2.717      6.480
REMARK  8 active torsions:
REMARK  status: ('A' for Active; 'I' for Inactive)
REMARK    1  A    between atoms: C_1  and  C_2 
REMARK    2  A    between atoms: C_2  and  C_3 
REMARK    3  A    between atoms: C_11  and  C_13 
REMARK    4  A    between atoms: C_13  and  C_15 
REMARK    5  A    between atoms: C_13  and  O_28 
REMARK    6  A    between atoms: C_22  and  O_25 
REMARK    7  A    between atoms: O_25  and  C_26 
REMARK    8  A    between atoms: C_26  and  C_27 
ROOT
ATOM      1  C   LIG d   1       3.272   0.771 -10.106  0.00  0.00     0.002 C 
ATOM      2  H   LIG d   1       2.317   0.684 -10.625  0.00  0.00     0.035 H 
ATOM      3  C   LIG d   1       3.332  -0.249  -8.966  0.00  0.00    -0.028 C 
ATOM      4  C   LIG d   1       4.302  -1.914 -10.431  0.00  0.00    -0.031 C 
ATOM      5  C   LIG d   1       4.271  -0.941 -11.614  0.00  0.00    -0.009 C 
ATOM      6  C   LIG d   1       4.421   0.490 -11.083  0.00  0.00    -0.023 C 
ATOM      7  H   LIG d   1       4.393   1.201 -11.909  0.00  0.00     0.031 H 
ATOM      8  C   LIG d   1       5.748   0.592 -10.321  0.00  0.00    -0.004 C 
ATOM      9  C   LIG d   1       5.739  -0.422  -9.174  0.00  0.00     0.010 C 
ATOM     10  H   LIG d   1       6.563  -1.123  -9.302  0.00  0.00     0.088 H 
ATOM     11  H   LIG d   1       2.405  -0.823  -8.943  0.00  0.00     0.082 H 
ATOM     12  H   LIG d   1       3.460   0.273  -8.017  0.00  0.00     0.082 H 
ATOM     13  H   LIG d   1       5.137  -2.605 -10.551  0.00  0.00     0.081 H 
ATOM     14  H   LIG d   1       3.368  -2.474 -10.397  0.00  0.00     0.081 H 
ATOM     15  H   LIG d   1       3.321  -1.039 -12.141  0.00  0.00     0.032 H 
ATOM     16  H   LIG d   1       5.091  -1.166 -12.296  0.00  0.00     0.032 H 
ATOM     17  H   LIG d   1       5.862   1.598  -9.918  0.00  0.00     0.032 H 
ATOM     18  H   LIG d   1       6.575   0.373 -10.996  0.00  0.00     0.032 H 
ATOM     19  N   LIG d   1       4.466  -1.176  -9.161  0.00  0.00     0.240 N 
ATOM     20  H   LIG d   1       4.485  -1.848  -8.386  0.00  0.00     0.204 HD
ENDROOT
BRANCH   9  21
ATOM     21  C   LIG d   1       5.895   0.312  -7.841  0.00  0.00     0.123 C 
ATOM     22  H   LIG d   1       4.927   0.377  -7.346  0.00  0.00     0.070 H 
BRANCH  21  23
ATOM     23  C   LIG d   1       6.859  -0.442  -6.962  0.00  0.00    -0.003 A 
ATOM     24  C   LIG d   1       6.477  -0.882  -5.680  0.00  0.00     0.010 A 
ATOM     25  C   LIG d   1       7.417  -1.588  -4.888  0.00  0.00     0.071 A 
ATOM     26  C   LIG d   1       5.190  -0.636  -5.178  0.00  0.00    -0.010 A 
ATOM     27  N   LIG d   1       8.642  -1.825  -5.364  0.00  0.00    -0.255 NA
ATOM     28  C   LIG d   1       7.038  -2.029  -3.607  0.00  0.00    -0.032 A 
ATOM     29  C   LIG d   1       9.002  -1.416  -6.556  0.00  0.00     0.029 A 
ATOM     30  C   LIG d   1       8.130  -0.713  -7.383  0.00  0.00    -0.037 A 
ATOM     31  H   LIG d   1      10.003  -1.627  -6.905  0.00  0.00     0.083 H 
ATOM     32  H   LIG d   1       8.457  -0.386  -8.360  0.00  0.00     0.064 H 
ATOM     33  C   LIG d   1       5.785  -1.775  -3.148  0.00  0.00    -0.018 A 
ATOM     34  H   LIG d   1       7.743  -2.568  -2.990  0.00  0.00     0.064 H 
ATOM     35  C   LIG d   1       4.858  -1.079  -3.929  0.00  0.00     0.121 A 
ATOM     36  H   LIG d   1       5.500  -2.117  -2.163  0.00  0.00     0.066 H 
ATOM     37  H   LIG d   1       4.467  -0.098  -5.775  0.00  0.00     0.066 H 
BRANCH  35  38
ATOM     38  O   LIG d   1       3.611  -0.840  -3.441  0.00  0.00    -0.492 OA
BRANCH  38  39
ATOM     39  C   LIG d   1       3.195   0.525  -3.368  0.00  0.00     0.087 C 
ATOM     40  H   LIG d   1       3.503   1.049  -4.274  0.00  0.00     0.069 H 
ATOM     41  H   LIG d   1       2.110   0.570  -3.275  0.00  0.00     0.069 H 
BRANCH  39  42
ATOM     42  C   LIG d   1       3.839   1.190  -2.151  0.00  0.00    -0.031 C 
ATOM     43  H   LIG d   1       4.608   0.534  -1.742  0.00  0.00     0.026 H 
ATOM     44  H   LIG d   1       4.291   2.136  -2.450  0.00  0.00     0.026 H 
ATOM     45  H   LIG d   1       3.078   1.374  -1.392  0.00  0.00     0.026 H 
ENDBRANCH  39  42
ENDBRANCH  38  39
ENDBRANCH  35  38
ENDBRANCH  21  23
BRANCH  21  46
ATOM     46  O   LIG d   1       6.398   1.628  -8.079  0.00  0.00    -0.382 OA
ATOM     47  H   LIG d   1       5.772   2.214  -8.527  0.00  0.00     0.210 HD
ENDBRANCH  21  46
ENDBRANCH   9  21
BRANCH   1  48
ATOM     48  C   LIG d   1       3.418   2.184  -9.538  0.00  0.00    -0.048 C 
ATOM     49  H   LIG d   1       4.475   2.433  -9.449  0.00  0.00     0.027 H 
ATOM     50  H   LIG d   1       2.932   2.896 -10.205  0.00  0.00     0.027 H 
BRANCH  48  51
ATOM     51  C   LIG d   1       2.761   2.250  -8.157  0.00  0.00    -0.065 C 
ATOM     52  H   LIG d   1       1.726   2.576  -8.263  0.00  0.00     0.023 H 
ATOM     53  H   LIG d   1       2.786   1.263  -7.696  0.00  0.00     0.023 H 
ATOM     54  H   LIG d   1       3.303   2.957  -7.530  0.00  0.00     0.023 H 
ENDBRANCH  48  51
ENDBRANCH   1  48
TORSDOF 8
ENDMDL
MODEL 8
REMARK VINA RESULT:      -5.4      2.269      5.701
REMARK  8 active torsions:
REMARK  status: ('A' for Active; 'I' for Inactive)
REMARK    1  A    between atoms: C_1  and  C_2 
REMARK    2  A    between atoms: C_2  and  C_3 
REMARK    3  A    between atoms: C_11  and  C_13 
REMARK    4  A    between atoms: C_13  and  C_15 
REMARK    5  A    between atoms: C_13  and  O_28 
REMARK    6  A    between atoms: C_22  and  O_25 
REMARK    7  A    between atoms: O_25  and  C_26 
REMARK    8  A    between atoms: C_26  and  C_27 
ROOT
ATOM      1  C   LIG d   1       5.208   0.331 -10.590  0.00  0.00     0.002 C 
ATOM      2  H   LIG d   1       5.770   0.829 -11.382  0.00  0.00     0.035 H 
ATOM      3  C   LIG d   1       5.743   0.774  -9.226  0.00  0.00    -0.028 C 
ATOM      4  C   LIG d   1       4.179   2.621  -9.149  0.00  0.00    -0.031 C 
ATOM      5  C   LIG d   1       3.599   2.231 -10.513  0.00  0.00    -0.009 C 
ATOM      6  C   LIG d   1       3.726   0.713 -10.689  0.00  0.00    -0.023 C 
ATOM      7  H   LIG d   1       3.326   0.414 -11.658  0.00  0.00     0.031 H 
ATOM      8  C   LIG d   1       2.966   0.023  -9.550  0.00  0.00    -0.004 C 
ATOM      9  C   LIG d   1       3.563   0.473  -8.214  0.00  0.00     0.010 C 
ATOM     10  H   LIG d   1       2.793   0.964  -7.618  0.00  0.00     0.088 H 
ATOM     11  H   LIG d   1       6.559   1.484  -9.367  0.00  0.00     0.082 H 
ATOM     12  H   LIG d   1       6.107  -0.096  -8.678  0.00  0.00     0.082 H 
ATOM     13  H   LIG d   1       3.405   3.097  -8.548  0.00  0.00     0.081 H 
ATOM     14  H   LIG d   1       5.007   3.315  -9.292  0.00  0.00     0.081 H 
ATOM     15  H   LIG d   1       4.152   2.739 -11.303  0.00  0.00     0.032 H 
ATOM     16  H   LIG d   1       2.548   2.518 -10.560  0.00  0.00     0.032 H 
ATOM     17  H   LIG d   1       3.063  -1.058  -9.647  0.00  0.00     0.032 H 
ATOM     18  H   LIG d   1       1.913   0.301  -9.592  0.00  0.00     0.032 H 
ATOM     19  N   LIG d   1       4.674   1.424  -8.438  0.00  0.00     0.240 N 
ATOM     20  H   LIG d   1       5.056   1.710  -7.530  0.00  0.00     0.204 HD
ENDROOT
BRANCH   9  21
ATOM     21  C   LIG d   1       4.096  -0.745  -7.456  0.00  0.00     0.123 C 
ATOM     22  H   LIG d   1       5.145  -0.898  -7.707  0.00  0.00     0.070 H 
BRANCH  21  23
ATOM     23  C   LIG d   1       3.963  -0.511  -5.973  0.00  0.00    -0.003 A 
ATOM     24  C   LIG d   1       4.933  -0.995  -5.075  0.00  0.00     0.010 A 
ATOM     25  C   LIG d   1       4.768  -0.752  -3.689  0.00  0.00     0.071 A 
ATOM     26  C   LIG d   1       6.054  -1.709  -5.527  0.00  0.00    -0.010 A 
ATOM     27  N   LIG d   1       3.702  -0.073  -3.255  0.00  0.00    -0.255 NA
ATOM     28  C   LIG d   1       5.736  -1.235  -2.788  0.00  0.00    -0.032 A 
ATOM     29  C   LIG d   1       2.797   0.379  -4.089  0.00  0.00     0.029 A 
ATOM     30  C   LIG d   1       2.896   0.171  -5.462  0.00  0.00    -0.037 A 
ATOM     31  H   LIG d   1       1.949   0.925  -3.699  0.00  0.00     0.083 H 
ATOM     32  H   LIG d   1       2.131   0.552  -6.123  0.00  0.00     0.064 H 
ATOM     33  C   LIG d   1       6.810  -1.923  -3.256  0.00  0.00    -0.018 A 
ATOM     34  H   LIG d   1       5.624  -1.058  -1.728  0.00  0.00     0.064 H 
ATOM     35  C   LIG d   1       6.973  -2.163  -4.624  0.00  0.00     0.121 A 
ATOM     36  H   LIG d   1       7.550  -2.291  -2.559  0.00  0.00     0.066 H 
ATOM     37  H   LIG d   1       6.189  -1.899  -6.582  0.00  0.00     0.066 H 
BRANCH  35  38
ATOM     38  O   LIG d   1       8.059  -2.855  -5.060  0.00  0.00    -0.492 OA
BRANCH  38  39
ATOM     39  C   LIG d   1       8.458  -3.989  -4.287  0.00  0.00     0.087 C 
ATOM     40  H   LIG d   1       9.541  -3.980  -4.162  0.00  0.00     0.069 H 
ATOM     41  H   LIG d   1       7.979  -3.950  -3.309  0.00  0.00     0.069 H 
BRANCH  39  42
ATOM     42  C   LIG d   1       8.038  -5.271  -5.009  0.00  0.00    -0.031 C 
ATOM     43  H   LIG d   1       7.495  -5.916  -4.318  0.00  0.00     0.026 H 
ATOM     44  H   LIG d   1       7.395  -5.019  -5.852  0.00  0.00     0.026 H 
ATOM     45  H   LIG d   1       8.925  -5.791  -5.371  0.00  0.00     0.026 H 
ENDBRANCH  39  42
ENDBRANCH  38  39
ENDBRANCH  35  38
ENDBRANCH  21  23
BRANCH  21  46
ATOM     46  O   LIG d   1       3.343  -1.901  -7.825  0.00  0.00    -0.382 OA
ATOM     47  H   LIG d   1       3.853  -2.723  -7.817  0.00  0.00     0.210 HD
ENDBRANCH  21  46
ENDBRANCH   9  21
BRANCH   1  48
ATOM     48  C   LIG d   1       5.358  -1.184 -10.732  0.00  0.00    -0.048 C 
ATOM     49  H   LIG d   1       4.468  -1.676 -10.337  0.00  0.00     0.027 H 
ATOM     50  H   LIG d   1       5.477  -1.441 -11.785  0.00  0.00     0.027 H 
BRANCH  48  51
ATOM     51  C   LIG d   1       6.588  -1.652  -9.951  0.00  0.00    -0.065 C 
ATOM     52  H   LIG d   1       6.565  -2.738  -9.856  0.00  0.00     0.023 H 
ATOM     53  H   LIG d   1       7.491  -1.352 -10.482  0.00  0.00     0.023 H 
ATOM     54  H   LIG d   1       6.582  -1.200  -8.960  0.00  0.00     0.023 H 
ENDBRANCH  48  51
ENDBRANCH   1  48
TORSDOF 8
ENDMDL
MODEL 9
REMARK VINA RESULT:      -5.3      2.728      5.444
REMARK  8 active torsions:
REMARK  status: ('A' for Active; 'I' for Inactive)
REMARK    1  A    between atoms: C_1  and  C_2 
REMARK    2  A    between atoms: C_2  and  C_3 
REMARK    3  A    between atoms: C_11  and  C_13 
REMARK    4  A    between atoms: C_13  and  C_15 
REMARK    5  A    between atoms: C_13  and  O_28 
REMARK    6  A    between atoms: C_22  and  O_25 
REMARK    7  A    between atoms: O_25  and  C_26 
REMARK    8  A    between atoms: C_26  and  C_27 
ROOT
ATOM      1  C   LIG d   1       8.915  -3.673  -6.452  0.00  0.00     0.002 C 
ATOM      2  H   LIG d   1       9.289  -4.285  -7.273  0.00  0.00     0.035 H 
ATOM      3  C   LIG d   1       7.470  -3.256  -6.740  0.00  0.00    -0.028 C 
ATOM      4  C   LIG d   1       6.619  -5.232  -5.630  0.00  0.00    -0.031 C 
ATOM      5  C   LIG d   1       8.040  -5.706  -5.309  0.00  0.00    -0.009 C 
ATOM      6  C   LIG d   1       8.947  -4.480  -5.148  0.00  0.00    -0.023 C 
ATOM      7  H   LIG d   1       9.967  -4.794  -4.927  0.00  0.00     0.031 H 
ATOM      8  C   LIG d   1       8.390  -3.605  -4.018  0.00  0.00    -0.004 C 
ATOM      9  C   LIG d   1       6.960  -3.189  -4.373  0.00  0.00     0.010 C 
ATOM     10  H   LIG d   1       6.274  -3.555  -3.610  0.00  0.00     0.088 H 
ATOM     11  H   LIG d   1       7.156  -3.672  -7.698  0.00  0.00     0.082 H 
ATOM     12  H   LIG d   1       7.405  -2.168  -6.776  0.00  0.00     0.082 H 
ATOM     13  H   LIG d   1       5.936  -5.584  -4.856  0.00  0.00     0.081 H 
ATOM     14  H   LIG d   1       6.312  -5.632  -6.596  0.00  0.00     0.081 H 
ATOM     15  H   LIG d   1       8.409  -6.330  -6.124  0.00  0.00     0.032 H 
ATOM     16  H   LIG d   1       8.036  -6.281  -4.383  0.00  0.00     0.032 H 
ATOM     17  H   LIG d   1       9.011  -2.717  -3.903  0.00  0.00     0.032 H 
ATOM     18  H   LIG d   1       8.385  -4.171  -3.086  0.00  0.00     0.032 H 
ATOM     19  N   LIG d   1       6.567  -3.756  -5.682  0.00  0.00     0.240 N 
ATOM     20  H   LIG d   1       5.607  -3.464  -5.897  0.00  0.00     0.204 HD
ENDROOT
BRANCH   9  21
ATOM     21  C   LIG d   1       6.875  -1.663  -4.447  0.00  0.00     0.123 C 
ATOM     22  H   LIG d   1       6.942  -1.345  -5.487  0.00  0.00     0.070 H 
BRANCH  21  23
ATOM     23  C   LIG d   1       5.563  -1.204  -3.865  0.00  0.00    -0.003 A 
ATOM     24  C   LIG d   1       4.563  -0.648  -4.685  0.00  0.00     0.010 A 
ATOM     25  C   LIG d   1       3.344  -0.230  -4.095  0.00  0.00     0.071 A 
ATOM     26  C   LIG d   1       4.752  -0.502  -6.068  0.00  0.00    -0.010 A 
ATOM     27  N   LIG d   1       3.161  -0.368  -2.779  0.00  0.00    -0.255 NA
ATOM     28  C   LIG d   1       2.343   0.326  -4.912  0.00  0.00    -0.032 A 
ATOM     29  C   LIG d   1       4.090  -0.886  -2.012  0.00  0.00     0.029 A 
ATOM     30  C   LIG d   1       5.312  -1.311  -2.527  0.00  0.00    -0.037 A 
ATOM     31  H   LIG d   1       3.904  -0.981  -0.952  0.00  0.00     0.083 H 
ATOM     32  H   LIG d   1       6.059  -1.730  -1.868  0.00  0.00     0.064 H 
ATOM     33  C   LIG d   1       2.555   0.455  -6.248  0.00  0.00    -0.018 A 
ATOM     34  H   LIG d   1       1.408   0.650  -4.478  0.00  0.00     0.064 H 
ATOM     35  C   LIG d   1       3.757   0.043  -6.830  0.00  0.00     0.121 A 
ATOM     36  H   LIG d   1       1.782   0.883  -6.870  0.00  0.00     0.066 H 
ATOM     37  H   LIG d   1       5.678  -0.817  -6.527  0.00  0.00     0.066 H 
BRANCH  35  38
ATOM     38  O   LIG d   1       3.940   0.186  -8.170  0.00  0.00    -0.492 OA
BRANCH  38  39
ATOM     39  C   LIG d   1       3.082   1.107  -8.847  0.00  0.00     0.087 C 
ATOM     40  H   LIG d   1       2.749   0.669  -9.788  0.00  0.00     0.069 H 
ATOM     41  H   LIG d   1       2.216   1.324  -8.221  0.00  0.00     0.069 H 
BRANCH  39  42
ATOM     42  C   LIG d   1       3.845   2.402  -9.128  0.00  0.00    -0.031 C 
ATOM     43  H   LIG d   1       4.902   2.178  -9.272  0.00  0.00     0.026 H 
ATOM     44  H   LIG d   1       3.447   2.870 -10.029  0.00  0.00     0.026 H 
ATOM     45  H   LIG d   1       3.730   3.083  -8.284  0.00  0.00     0.026 H 
ENDBRANCH  39  42
ENDBRANCH  38  39
ENDBRANCH  35  38
ENDBRANCH  21  23
BRANCH  21  46
ATOM     46  O   LIG d   1       7.952  -1.091  -3.703  0.00  0.00    -0.382 OA
ATOM     47  H   LIG d   1       8.615  -0.645  -4.248  0.00  0.00     0.210 HD
ENDBRANCH  21  46
ENDBRANCH   9  21
BRANCH   1  48
ATOM     48  C   LIG d   1       9.788  -2.426  -6.305  0.00  0.00    -0.048 C 
ATOM     49  H   LIG d   1       9.763  -2.085  -5.270  0.00  0.00     0.027 H 
ATOM     50  H   LIG d   1      10.815  -2.666  -6.584  0.00  0.00     0.027 H 
BRANCH  48  51
ATOM     51  C   LIG d   1       9.257  -1.319  -7.219  0.00  0.00    -0.065 C 
ATOM     52  H   LIG d   1       9.881  -1.256  -8.111  0.00  0.00     0.023 H 
ATOM     53  H   LIG d   1       8.232  -1.548  -7.508  0.00  0.00     0.023 H 
ATOM     54  H   LIG d   1       9.282  -0.367  -6.689  0.00  0.00     0.023 H 
ENDBRANCH  48  51
ENDBRANCH   1  48
TORSDOF 8
ENDMDL
MODEL 10
REMARK VINA RESULT:      -5.3     10.914     13.919
REMARK  8 active torsions:
REMARK  status: ('A' for Active; 'I' for Inactive)
REMARK    1  A    between atoms: C_1  and  C_2 
REMARK    2  A    between atoms: C_2  and  C_3 
REMARK    3  A    between atoms: C_11  and  C_13 
REMARK    4  A    between atoms: C_13  and  C_15 
REMARK    5  A    between atoms: C_13  and  O_28 
REMARK    6  A    between atoms: C_22  and  O_25 
REMARK    7  A    between atoms: O_25  and  C_26 
REMARK    8  A    between atoms: C_26  and  C_27 
ROOT
ATOM      1  C   LIG d   1      10.539  10.861  -4.843  0.00  0.00     0.002 C 
ATOM      2  H   LIG d   1      11.150  11.023  -5.731  0.00  0.00     0.035 H 
ATOM      3  C   LIG d   1      11.380  10.184  -3.757  0.00  0.00    -0.028 C 
ATOM      4  C   LIG d   1      12.065  12.332  -2.871  0.00  0.00    -0.031 C 
ATOM      5  C   LIG d   1      11.242  13.070  -3.932  0.00  0.00    -0.009 C 
ATOM      6  C   LIG d   1      10.032  12.207  -4.310  0.00  0.00    -0.023 C 
ATOM      7  H   LIG d   1       9.436  12.711  -5.071  0.00  0.00     0.031 H 
ATOM      8  C   LIG d   1       9.200  11.951  -3.047  0.00  0.00    -0.004 C 
ATOM      9  C   LIG d   1      10.078  11.244  -2.012  0.00  0.00     0.010 C 
ATOM     10  H   LIG d   1      10.143  11.855  -1.112  0.00  0.00     0.088 H 
ATOM     11  H   LIG d   1      12.393  10.026  -4.128  0.00  0.00     0.082 H 
ATOM     12  H   LIG d   1      10.934   9.225  -3.496  0.00  0.00     0.082 H 
ATOM     13  H   LIG d   1      12.116  12.936  -1.965  0.00  0.00     0.081 H 
ATOM     14  H   LIG d   1      13.071  12.156  -3.250  0.00  0.00     0.081 H 
ATOM     15  H   LIG d   1      11.858  13.244  -4.815  0.00  0.00     0.032 H 
ATOM     16  H   LIG d   1      10.899  14.025  -3.532  0.00  0.00     0.032 H 
ATOM     17  H   LIG d   1       8.345  11.321  -3.294  0.00  0.00     0.032 H 
ATOM     18  H   LIG d   1       8.849  12.901  -2.642  0.00  0.00     0.032 H 
ATOM     19  N   LIG d   1      11.440  11.032  -2.547  0.00  0.00     0.240 N 
ATOM     20  H   LIG d   1      12.008  10.558  -1.836  0.00  0.00     0.204 HD
ENDROOT
BRANCH   9  21
ATOM     21  C   LIG d   1       9.464   9.887  -1.663  0.00  0.00     0.123 C 
ATOM     22  H   LIG d   1       9.487   9.241  -2.540  0.00  0.00     0.070 H 
BRANCH  21  23
ATOM     23  C   LIG d   1      10.253   9.249  -0.549  0.00  0.00    -0.003 A 
ATOM     24  C   LIG d   1      10.534   7.870  -0.558  0.00  0.00     0.010 A 
ATOM     25  C   LIG d   1      11.280   7.313   0.510  0.00  0.00     0.071 A 
ATOM     26  C   LIG d   1      10.090   7.042  -1.601  0.00  0.00    -0.010 A 
ATOM     27  N   LIG d   1      11.705   8.098   1.504  0.00  0.00    -0.255 NA
ATOM     28  C   LIG d   1      11.562   5.935   0.503  0.00  0.00    -0.032 A 
ATOM     29  C   LIG d   1      11.446   9.383   1.517  0.00  0.00     0.029 A 
ATOM     30  C   LIG d   1      10.713   9.992   0.501  0.00  0.00    -0.037 A 
ATOM     31  H   LIG d   1      11.806   9.984   2.339  0.00  0.00     0.083 H 
ATOM     32  H   LIG d   1      10.512  11.053   0.542  0.00  0.00     0.064 H 
ATOM     33  C   LIG d   1      11.119   5.159  -0.521  0.00  0.00    -0.018 A 
ATOM     34  H   LIG d   1      12.130   5.495   1.311  0.00  0.00     0.064 H 
ATOM     35  C   LIG d   1      10.382   5.708  -1.574  0.00  0.00     0.121 A 
ATOM     36  H   LIG d   1      11.339   4.101  -0.520  0.00  0.00     0.066 H 
ATOM     37  H   LIG d   1       9.520   7.458  -2.420  0.00  0.00     0.066 H 
BRANCH  35  38
ATOM     38  O   LIG d   1       9.951   4.906  -2.584  0.00  0.00    -0.492 OA
BRANCH  38  39
ATOM     39  C   LIG d   1      10.527   3.600  -2.665  0.00  0.00     0.087 C 
ATOM     40  H   LIG d   1      11.472   3.653  -3.208  0.00  0.00     0.069 H 
ATOM     41  H   LIG d   1      10.707   3.219  -1.660  0.00  0.00     0.069 H 
BRANCH  39  42
ATOM     42  C   LIG d   1       9.567   2.665  -3.401  0.00  0.00    -0.031 C 
ATOM     43  H   LIG d   1       9.936   2.486  -4.411  0.00  0.00     0.026 H 
ATOM     44  H   LIG d   1       9.502   1.717  -2.866  0.00  0.00     0.026 H 
ATOM     45  H   LIG d   1       8.579   3.123  -3.450  0.00  0.00     0.026 H 
ENDBRANCH  39  42
ENDBRANCH  38  39
ENDBRANCH  35  38
ENDBRANCH  21  23
BRANCH  21  46
ATOM     46  O   LIG d   1       8.111  10.071  -1.242  0.00  0.00    -0.382 OA
ATOM     47  H   LIG d   1       7.531  10.436  -1.924  0.00  0.00     0.210 HD
ENDBRANCH  21  46
ENDBRANCH   9  21
BRANCH   1  48
ATOM     48  C   LIG d   1       9.348   9.969  -5.198  0.00  0.00    -0.048 C 
ATOM     49  H   LIG d   1       8.543  10.135  -4.482  0.00  0.00     0.027 H 
ATOM     50  H   LIG d   1       8.997  10.214  -6.201  0.00  0.00     0.027 H 
BRANCH  48  51
ATOM     51  C   LIG d   1       9.777   8.501  -5.151  0.00  0.00    -0.065 C 
ATOM     52  H   LIG d   1      10.836   8.441  -4.899  0.00  0.00     0.023 H 
ATOM     53  H   LIG d   1       9.193   7.976  -4.396  0.00  0.00     0.023 H 
ATOM     54  H   LIG d   1       9.608   8.042  -6.125  0.00  0.00     0.023 H 
ENDBRANCH  48  51
ENDBRANCH   1  48
TORSDOF 8
ENDMDL
