MODEL 1
REMARK VINA RESULT:      -5.2      0.000      0.000
REMARK  4 active torsions:
REMARK  status: ('A' for Active; 'I' for Inactive)
REMARK    1  A    between atoms: C_1  and  C_2 
REMARK       I    between atoms: C_2  and  N_4 
REMARK    2  A    between atoms: N_4  and  C_5 
REMARK    3  A    between atoms: C_14  and  N_15 
REMARK       I    between atoms: N_15  and  C_16 
REMARK    4  A    between atoms: C_16  and  C_18 
ROOT
ATOM      1  C   LIG d   1       4.305   0.629 -10.440  0.00  0.00     0.041 A 
ATOM      2  C   LIG d   1       3.656   1.837 -10.300  0.00  0.00    -0.040 A 
ATOM      3  C   LIG d   1       3.049   2.182  -9.097  0.00  0.00    -0.059 A 
ATOM      4  C   LIG d   1       3.078   1.339  -8.027  0.00  0.00    -0.052 A 
ATOM      5  C   LIG d   1       3.728   0.099  -8.129  0.00  0.00     0.005 A 
ATOM      6  C   LIG d   1       4.346  -0.266  -9.350  0.00  0.00     0.005 A 
ATOM      7  C   LIG d   1       4.992  -1.508  -9.455  0.00  0.00    -0.052 A 
ATOM      8  C   LIG d   1       5.017  -2.354  -8.387  0.00  0.00    -0.059 A 
ATOM      9  C   LIG d   1       4.409  -2.008  -7.184  0.00  0.00    -0.040 A 
ATOM     10  C   LIG d   1       3.775  -0.794  -7.038  0.00  0.00     0.041 A 
ATOM     11  H   LIG d   1       3.618   2.523 -11.133  0.00  0.00     0.064 H 
ATOM     12  H   LIG d   1       2.547   3.134  -9.009  0.00  0.00     0.062 H 
ATOM     13  H   LIG d   1       2.602   1.624  -7.101  0.00  0.00     0.062 H 
ATOM     14  H   LIG d   1       5.468  -1.794 -10.382  0.00  0.00     0.062 H 
ATOM     15  H   LIG d   1       5.516  -3.307  -8.476  0.00  0.00     0.062 H 
ATOM     16  H   LIG d   1       4.443  -2.696  -6.352  0.00  0.00     0.064 H 
ENDROOT
BRANCH   1  17
ATOM     17  N   LIG d   1       4.911   0.293 -11.653  0.00  0.00    -0.285 N 
ATOM     18  C   LIG d   1       4.210  -0.361 -12.600  0.00  0.00     0.214 C 
ATOM     19  O   LIG d   1       3.079  -0.733 -12.367  0.00  0.00    -0.276 OA
ATOM     20  H   LIG d   1       5.838   0.530 -11.813  0.00  0.00     0.155 HD
BRANCH  18  21
ATOM     21  C   LIG d   1       4.829  -0.628 -13.946  0.00  0.00     0.013 C 
ATOM     22  H   LIG d   1       4.930   0.310 -14.493  0.00  0.00     0.032 H 
ATOM     23  H   LIG d   1       5.813  -1.077 -13.811  0.00  0.00     0.032 H 
ATOM     24  H   LIG d   1       4.192  -1.310 -14.510  0.00  0.00     0.032 H 
ENDBRANCH  18  21
ENDBRANCH   1  17
BRANCH  10  25
ATOM     25  N   LIG d   1       3.169  -0.456  -5.825  0.00  0.00    -0.285 N 
ATOM     26  C   LIG d   1       3.913   0.037  -4.815  0.00  0.00     0.214 C 
ATOM     27  O   LIG d   1       5.120   0.094  -4.923  0.00  0.00    -0.276 OA
ATOM     28  H   LIG d   1       2.213  -0.577  -5.710  0.00  0.00     0.155 HD
BRANCH  26  29
ATOM     29  C   LIG d   1       3.245   0.518  -3.554  0.00  0.00     0.013 C 
ATOM     30  H   LIG d   1       2.654   1.408  -3.771  0.00  0.00     0.032 H 
ATOM     31  H   LIG d   1       2.592  -0.266  -3.167  0.00  0.00     0.032 H 
ATOM     32  H   LIG d   1       4.003   0.758  -2.809  0.00  0.00     0.032 H 
ENDBRANCH  26  29
ENDBRANCH  10  25
TORSDOF 4
ENDMDL
MODEL 2
REMARK VINA RESULT:      -5.2      0.415      6.258
REMARK  4 active torsions:
REMARK  status: ('A' for Active; 'I' for Inactive)
REMARK    1  A    between atoms: C_1  and  C_2 
REMARK       I    between atoms: C_2  and  N_4 
REMARK    2  A    between atoms: N_4  and  C_5 
REMARK    3  A    between atoms: C_14  and  N_15 
REMARK       I    between atoms: N_15  and  C_16 
REMARK    4  A    between atoms: C_16  and  C_18 
ROOT
ATOM      1  C   LIG d   1       3.796  -0.752  -6.626  0.00  0.00     0.041 A 
ATOM      2  C   LIG d   1       4.493  -1.932  -6.770  0.00  0.00    -0.040 A 
ATOM      3  C   LIG d   1       5.078  -2.268  -7.988  0.00  0.00    -0.059 A 
ATOM      4  C   LIG d   1       4.977  -1.443  -9.067  0.00  0.00    -0.052 A 
ATOM      5  C   LIG d   1       4.275  -0.232  -8.961  0.00  0.00     0.005 A 
ATOM      6  C   LIG d   1       3.671   0.119  -7.729  0.00  0.00     0.005 A 
ATOM      7  C   LIG d   1       2.964   1.327  -7.624  0.00  0.00    -0.052 A 
ATOM      8  C   LIG d   1       2.859   2.149  -8.704  0.00  0.00    -0.059 A 
ATOM      9  C   LIG d   1       3.443   1.813  -9.921  0.00  0.00    -0.040 A 
ATOM     10  C   LIG d   1       4.155   0.642 -10.062  0.00  0.00     0.041 A 
ATOM     11  H   LIG d   1       4.587  -2.604  -5.929  0.00  0.00     0.064 H 
ATOM     12  H   LIG d   1       5.621  -3.197  -8.078  0.00  0.00     0.062 H 
ATOM     13  H   LIG d   1       5.438  -1.720 -10.003  0.00  0.00     0.062 H 
ATOM     14  H   LIG d   1       2.503   1.604  -6.687  0.00  0.00     0.062 H 
ATOM     15  H   LIG d   1       2.313   3.077  -8.615  0.00  0.00     0.062 H 
ATOM     16  H   LIG d   1       3.346   2.483 -10.763  0.00  0.00     0.064 H 
ENDROOT
BRANCH   1  17
ATOM     17  N   LIG d   1       3.213  -0.425  -5.399  0.00  0.00    -0.285 N 
ATOM     18  C   LIG d   1       3.963   0.116  -4.419  0.00  0.00     0.214 C 
ATOM     19  O   LIG d   1       5.160   0.239  -4.570  0.00  0.00    -0.276 OA
ATOM     20  H   LIG d   1       2.268  -0.587  -5.253  0.00  0.00     0.155 HD
BRANCH  18  21
ATOM     21  C   LIG d   1       3.315   0.568  -3.137  0.00  0.00     0.013 C 
ATOM     22  H   LIG d   1       4.039   0.515  -2.324  0.00  0.00     0.032 H 
ATOM     23  H   LIG d   1       2.969   1.596  -3.247  0.00  0.00     0.032 H 
ATOM     24  H   LIG d   1       2.467  -0.079  -2.911  0.00  0.00     0.032 H 
ENDBRANCH  18  21
ENDBRANCH   1  17
BRANCH  10  25
ATOM     25  N   LIG d   1       4.739   0.314 -11.288  0.00  0.00    -0.285 N 
ATOM     26  C   LIG d   1       4.009  -0.304 -12.237  0.00  0.00     0.214 C 
ATOM     27  O   LIG d   1       2.877  -0.665 -11.993  0.00  0.00    -0.276 OA
ATOM     28  H   LIG d   1       5.669   0.531 -11.456  0.00  0.00     0.155 HD
BRANCH  26  29
ATOM     29  C   LIG d   1       4.599  -0.545 -13.603  0.00  0.00     0.013 C 
ATOM     30  H   LIG d   1       5.292  -1.384 -13.556  0.00  0.00     0.032 H 
ATOM     31  H   LIG d   1       3.799  -0.772 -14.309  0.00  0.00     0.032 H 
ATOM     32  H   LIG d   1       5.130   0.348 -13.932  0.00  0.00     0.032 H 
ENDBRANCH  26  29
ENDBRANCH  10  25
TORSDOF 4
ENDMDL
MODEL 3
REMARK VINA RESULT:      -5.2      1.233      5.829
REMARK  4 active torsions:
REMARK  status: ('A' for Active; 'I' for Inactive)
REMARK    1  A    between atoms: C_1  and  C_2 
REMARK       I    between atoms: C_2  and  N_4 
REMARK    2  A    between atoms: N_4  and  C_5 
REMARK    3  A    between atoms: C_14  and  N_15 
REMARK       I    between atoms: N_15  and  C_16 
REMARK    4  A    between atoms: C_16  and  C_18 
ROOT
ATOM      1  C   LIG d   1       2.926   0.436  -8.044  0.00  0.00     0.041 A 
ATOM      2  C   LIG d   1       2.979   1.764  -8.409  0.00  0.00    -0.040 A 
ATOM      3  C   LIG d   1       3.453   2.139  -9.662  0.00  0.00    -0.059 A 
ATOM      4  C   LIG d   1       3.876   1.208 -10.561  0.00  0.00    -0.052 A 
ATOM      5  C   LIG d   1       3.839  -0.155 -10.229  0.00  0.00     0.005 A 
ATOM      6  C   LIG d   1       3.364  -0.550  -8.954  0.00  0.00     0.005 A 
ATOM      7  C   LIG d   1       3.331  -1.913  -8.619  0.00  0.00    -0.052 A 
ATOM      8  C   LIG d   1       3.759  -2.844  -9.516  0.00  0.00    -0.059 A 
ATOM      9  C   LIG d   1       4.233  -2.468 -10.769  0.00  0.00    -0.040 A 
ATOM     10  C   LIG d   1       4.271  -1.142 -11.140  0.00  0.00     0.041 A 
ATOM     11  H   LIG d   1       2.649   2.522  -7.713  0.00  0.00     0.064 H 
ATOM     12  H   LIG d   1       3.484   3.186  -9.926  0.00  0.00     0.062 H 
ATOM     13  H   LIG d   1       4.241   1.518 -11.529  0.00  0.00     0.062 H 
ATOM     14  H   LIG d   1       2.967  -2.223  -7.650  0.00  0.00     0.062 H 
ATOM     15  H   LIG d   1       3.731  -3.890  -9.250  0.00  0.00     0.062 H 
ATOM     16  H   LIG d   1       4.567  -3.227 -11.463  0.00  0.00     0.064 H 
ENDROOT
BRANCH   1  17
ATOM     17  N   LIG d   1       2.449   0.070  -6.784  0.00  0.00    -0.285 N 
ATOM     18  C   LIG d   1       3.277   0.075  -5.721  0.00  0.00     0.214 C 
ATOM     19  O   LIG d   1       4.456   0.313  -5.873  0.00  0.00    -0.276 OA
ATOM     20  H   LIG d   1       1.520  -0.188  -6.674  0.00  0.00     0.155 HD
BRANCH  18  21
ATOM     21  C   LIG d   1       2.738  -0.214  -4.345  0.00  0.00     0.013 C 
ATOM     22  H   LIG d   1       2.125  -1.115  -4.375  0.00  0.00     0.032 H 
ATOM     23  H   LIG d   1       3.568  -0.363  -3.653  0.00  0.00     0.032 H 
ATOM     24  H   LIG d   1       2.131   0.627  -4.008  0.00  0.00     0.032 H 
ENDBRANCH  18  21
ENDBRANCH   1  17
BRANCH  10  25
ATOM     25  N   LIG d   1       4.747  -0.776 -12.401  0.00  0.00    -0.285 N 
ATOM     26  C   LIG d   1       3.947  -0.882 -13.480  0.00  0.00     0.214 C 
ATOM     27  O   LIG d   1       2.850  -1.389 -13.374  0.00  0.00    -0.276 OA
ATOM     28  H   LIG d   1       5.654  -0.445 -12.500  0.00  0.00     0.155 HD
BRANCH  26  29
ATOM     29  C   LIG d   1       4.415  -0.371 -14.818  0.00  0.00     0.013 C 
ATOM     30  H   LIG d   1       3.627  -0.512 -15.557  0.00  0.00     0.032 H 
ATOM     31  H   LIG d   1       4.654   0.690 -14.738  0.00  0.00     0.032 H 
ATOM     32  H   LIG d   1       5.305  -0.920 -15.126  0.00  0.00     0.032 H 
ENDBRANCH  26  29
ENDBRANCH  10  25
TORSDOF 4
ENDMDL
MODEL 4
REMARK VINA RESULT:      -5.1      2.226      2.442
REMARK  4 active torsions:
REMARK  status: ('A' for Active; 'I' for Inactive)
REMARK    1  A    between atoms: C_1  and  C_2 
REMARK       I    between atoms: C_2  and  N_4 
REMARK    2  A    between atoms: N_4  and  C_5 
REMARK    3  A    between atoms: C_14  and  N_15 
REMARK       I    between atoms: N_15  and  C_16 
REMARK    4  A    between atoms: C_16  and  C_18 
ROOT
ATOM      1  C   LIG d   1       3.283  -1.216  -9.267  0.00  0.00     0.041 A 
ATOM      2  C   LIG d   1       2.756   0.027  -9.546  0.00  0.00    -0.040 A 
ATOM      3  C   LIG d   1       2.724   1.020  -8.572  0.00  0.00    -0.059 A 
ATOM      4  C   LIG d   1       3.211   0.794  -7.321  0.00  0.00    -0.052 A 
ATOM      5  C   LIG d   1       3.756  -0.458  -6.996  0.00  0.00     0.005 A 
ATOM      6  C   LIG d   1       3.789  -1.480  -7.977  0.00  0.00     0.005 A 
ATOM      7  C   LIG d   1       4.330  -2.734  -7.651  0.00  0.00    -0.052 A 
ATOM      8  C   LIG d   1       4.812  -2.962  -6.398  0.00  0.00    -0.059 A 
ATOM      9  C   LIG d   1       4.780  -1.968  -5.425  0.00  0.00    -0.040 A 
ATOM     10  C   LIG d   1       4.268  -0.721  -5.708  0.00  0.00     0.041 A 
ATOM     11  H   LIG d   1       2.363   0.232 -10.531  0.00  0.00     0.064 H 
ATOM     12  H   LIG d   1       2.307   1.987  -8.814  0.00  0.00     0.062 H 
ATOM     13  H   LIG d   1       3.178   1.577  -6.578  0.00  0.00     0.062 H 
ATOM     14  H   LIG d   1       4.362  -3.518  -8.394  0.00  0.00     0.062 H 
ATOM     15  H   LIG d   1       5.226  -3.930  -6.156  0.00  0.00     0.062 H 
ATOM     16  H   LIG d   1       5.169  -2.175  -4.439  0.00  0.00     0.064 H 
ENDROOT
BRANCH   1  17
ATOM     17  N   LIG d   1       3.310  -2.206 -10.252  0.00  0.00    -0.285 N 
ATOM     18  C   LIG d   1       2.171  -2.826 -10.617  0.00  0.00     0.214 C 
ATOM     19  O   LIG d   1       1.137  -2.586 -10.031  0.00  0.00    -0.276 OA
ATOM     20  H   LIG d   1       4.150  -2.447 -10.673  0.00  0.00     0.155 HD
BRANCH  18  21
ATOM     21  C   LIG d   1       2.182  -3.815 -11.753  0.00  0.00     0.013 C 
ATOM     22  H   LIG d   1       1.181  -4.223 -11.891  0.00  0.00     0.032 H 
ATOM     23  H   LIG d   1       2.500  -3.314 -12.668  0.00  0.00     0.032 H 
ATOM     24  H   LIG d   1       2.875  -4.624 -11.522  0.00  0.00     0.032 H 
ENDBRANCH  18  21
ENDBRANCH   1  17
BRANCH  10  25
ATOM     25  N   LIG d   1       4.241   0.270  -4.724  0.00  0.00    -0.285 N 
ATOM     26  C   LIG d   1       3.380   0.171  -3.692  0.00  0.00     0.214 C 
ATOM     27  O   LIG d   1       2.561  -0.723  -3.669  0.00  0.00    -0.276 OA
ATOM     28  H   LIG d   1       4.842   1.029  -4.784  0.00  0.00     0.155 HD
BRANCH  26  29
ATOM     29  C   LIG d   1       3.436   1.171  -2.567  0.00  0.00     0.013 C 
ATOM     30  H   LIG d   1       3.990   0.747  -1.730  0.00  0.00     0.032 H 
ATOM     31  H   LIG d   1       3.935   2.078  -2.911  0.00  0.00     0.032 H 
ATOM     32  H   LIG d   1       2.423   1.415  -2.246  0.00  0.00     0.032 H 
ENDBRANCH  26  29
ENDBRANCH  10  25
TORSDOF 4
ENDMDL
MODEL 5
REMARK VINA RESULT:      -5.1      3.521      5.007
REMARK  4 active torsions:
REMARK  status: ('A' for Active; 'I' for Inactive)
REMARK    1  A    between atoms: C_1  and  C_2 
REMARK       I    between atoms: C_2  and  N_4 
REMARK    2  A    between atoms: N_4  and  C_5 
REMARK    3  A    between atoms: C_14  and  N_15 
REMARK       I    between atoms: N_15  and  C_16 
REMARK    4  A    between atoms: C_16  and  C_18 
ROOT
ATOM      1  C   LIG d   1       5.274  -3.828  -6.744  0.00  0.00     0.041 A 
ATOM      2  C   LIG d   1       6.030  -4.202  -5.654  0.00  0.00    -0.040 A 
ATOM      3  C   LIG d   1       6.188  -3.344  -4.570  0.00  0.00    -0.059 A 
ATOM      4  C   LIG d   1       5.600  -2.115  -4.555  0.00  0.00    -0.052 A 
ATOM      5  C   LIG d   1       4.822  -1.697  -5.646  0.00  0.00     0.005 A 
ATOM      6  C   LIG d   1       4.659  -2.558  -6.758  0.00  0.00     0.005 A 
ATOM      7  C   LIG d   1       3.885  -2.138  -7.851  0.00  0.00    -0.052 A 
ATOM      8  C   LIG d   1       3.303  -0.907  -7.839  0.00  0.00    -0.059 A 
ATOM      9  C   LIG d   1       3.460  -0.050  -6.754  0.00  0.00    -0.040 A 
ATOM     10  C   LIG d   1       4.202  -0.430  -5.657  0.00  0.00     0.041 A 
ATOM     11  H   LIG d   1       6.507  -5.171  -5.642  0.00  0.00     0.064 H 
ATOM     12  H   LIG d   1       6.784  -3.659  -3.726  0.00  0.00     0.062 H 
ATOM     13  H   LIG d   1       5.733  -1.464  -3.704  0.00  0.00     0.062 H 
ATOM     14  H   LIG d   1       3.753  -2.790  -8.703  0.00  0.00     0.062 H 
ATOM     15  H   LIG d   1       2.709  -0.592  -8.684  0.00  0.00     0.062 H 
ATOM     16  H   LIG d   1       2.987   0.921  -6.769  0.00  0.00     0.064 H 
ENDROOT
BRANCH   1  17
ATOM     17  N   LIG d   1       5.123  -4.697  -7.828  0.00  0.00    -0.285 N 
ATOM     18  C   LIG d   1       4.151  -5.630  -7.814  0.00  0.00     0.214 C 
ATOM     19  O   LIG d   1       3.462  -5.772  -6.826  0.00  0.00    -0.276 OA
ATOM     20  H   LIG d   1       5.719  -4.628  -8.590  0.00  0.00     0.155 HD
BRANCH  18  21
ATOM     21  C   LIG d   1       3.919  -6.494  -9.026  0.00  0.00     0.013 C 
ATOM     22  H   LIG d   1       3.045  -6.133  -9.568  0.00  0.00     0.032 H 
ATOM     23  H   LIG d   1       4.793  -6.451  -9.676  0.00  0.00     0.032 H 
ATOM     24  H   LIG d   1       3.751  -7.523  -8.710  0.00  0.00     0.032 H 
ENDBRANCH  18  21
ENDBRANCH   1  17
BRANCH  10  25
ATOM     25  N   LIG d   1       4.353   0.438  -4.573  0.00  0.00    -0.285 N 
ATOM     26  C   LIG d   1       3.472   0.401  -3.554  0.00  0.00     0.214 C 
ATOM     27  O   LIG d   1       2.495  -0.314  -3.622  0.00  0.00    -0.276 OA
ATOM     28  H   LIG d   1       5.090   1.067  -4.554  0.00  0.00     0.155 HD
BRANCH  26  29
ATOM     29  C   LIG d   1       3.703   1.246  -2.328  0.00  0.00     0.013 C 
ATOM     30  H   LIG d   1       3.035   0.921  -1.531  0.00  0.00     0.032 H 
ATOM     31  H   LIG d   1       4.738   1.138  -2.002  0.00  0.00     0.032 H 
ATOM     32  H   LIG d   1       3.506   2.292  -2.565  0.00  0.00     0.032 H 
ENDBRANCH  26  29
ENDBRANCH  10  25
TORSDOF 4
ENDMDL
MODEL 6
REMARK VINA RESULT:      -5.1      2.217      6.275
REMARK  4 active torsions:
REMARK  status: ('A' for Active; 'I' for Inactive)
REMARK    1  A    between atoms: C_1  and  C_2 
REMARK       I    between atoms: C_2  and  N_4 
REMARK    2  A    between atoms: N_4  and  C_5 
REMARK    3  A    between atoms: C_14  and  N_15 
REMARK       I    between atoms: N_15  and  C_16 
REMARK    4  A    between atoms: C_16  and  C_18 
ROOT
ATOM      1  C   LIG d   1       4.210  -0.698  -5.888  0.00  0.00     0.041 A 
ATOM      2  C   LIG d   1       4.722  -1.947  -5.611  0.00  0.00    -0.040 A 
ATOM      3  C   LIG d   1       4.730  -2.944  -6.582  0.00  0.00    -0.059 A 
ATOM      4  C   LIG d   1       4.234  -2.714  -7.829  0.00  0.00    -0.052 A 
ATOM      5  C   LIG d   1       3.702  -1.456  -8.151  0.00  0.00     0.005 A 
ATOM      6  C   LIG d   1       3.683  -0.434  -7.171  0.00  0.00     0.005 A 
ATOM      7  C   LIG d   1       3.147   0.823  -7.491  0.00  0.00    -0.052 A 
ATOM      8  C   LIG d   1       2.645   1.051  -8.736  0.00  0.00    -0.059 A 
ATOM      9  C   LIG d   1       2.653   0.054  -9.706  0.00  0.00    -0.040 A 
ATOM     10  C   LIG d   1       3.181  -1.190  -9.435  0.00  0.00     0.041 A 
ATOM     11  H   LIG d   1       5.123  -2.154  -4.629  0.00  0.00     0.064 H 
ATOM     12  H   LIG d   1       5.138  -3.915  -6.343  0.00  0.00     0.062 H 
ATOM     13  H   LIG d   1       4.248  -3.500  -8.570  0.00  0.00     0.062 H 
ATOM     14  H   LIG d   1       3.132   1.609  -6.749  0.00  0.00     0.062 H 
ATOM     15  H   LIG d   1       2.235   2.021  -8.974  0.00  0.00     0.062 H 
ATOM     16  H   LIG d   1       2.249   0.260 -10.687  0.00  0.00     0.064 H 
ENDROOT
BRANCH   1  17
ATOM     17  N   LIG d   1       4.207   0.296  -4.906  0.00  0.00    -0.285 N 
ATOM     18  C   LIG d   1       3.368   0.203  -3.856  0.00  0.00     0.214 C 
ATOM     19  O   LIG d   1       2.556  -0.696  -3.806  0.00  0.00    -0.276 OA
ATOM     20  H   LIG d   1       4.809   1.052  -4.981  0.00  0.00     0.155 HD
BRANCH  18  21
ATOM     21  C   LIG d   1       3.440   1.216  -2.743  0.00  0.00     0.013 C 
ATOM     22  H   LIG d   1       4.479   1.355  -2.444  0.00  0.00     0.032 H 
ATOM     23  H   LIG d   1       3.032   2.166  -3.089  0.00  0.00     0.032 H 
ATOM     24  H   LIG d   1       2.862   0.861  -1.891  0.00  0.00     0.032 H 
ENDBRANCH  18  21
ENDBRANCH   1  17
BRANCH  10  25
ATOM     25  N   LIG d   1       3.185  -2.183 -10.417  0.00  0.00    -0.285 N 
ATOM     26  C   LIG d   1       2.049  -2.850 -10.704  0.00  0.00     0.214 C 
ATOM     27  O   LIG d   1       1.050  -2.659 -10.045  0.00  0.00    -0.276 OA
ATOM     28  H   LIG d   1       4.004  -2.393 -10.891  0.00  0.00     0.155 HD
BRANCH  26  29
ATOM     29  C   LIG d   1       2.022  -3.832 -11.847  0.00  0.00     0.013 C 
ATOM     30  H   LIG d   1       2.277  -3.319 -12.774  0.00  0.00     0.032 H 
ATOM     31  H   LIG d   1       2.746  -4.626 -11.660  0.00  0.00     0.032 H 
ATOM     32  H   LIG d   1       1.025  -4.264 -11.933  0.00  0.00     0.032 H 
ENDBRANCH  26  29
ENDBRANCH  10  25
TORSDOF 4
ENDMDL
MODEL 7
REMARK VINA RESULT:      -5.1      3.421      6.158
REMARK  4 active torsions:
REMARK  status: ('A' for Active; 'I' for Inactive)
REMARK    1  A    between atoms: C_1  and  C_2 
REMARK       I    between atoms: C_2  and  N_4 
REMARK    2  A    between atoms: N_4  and  C_5 
REMARK    3  A    between atoms: C_14  and  N_15 
REMARK       I    between atoms: N_15  and  C_16 
REMARK    4  A    between atoms: C_16  and  C_18 
ROOT
ATOM      1  C   LIG d   1       4.183  -0.418  -5.697  0.00  0.00     0.041 A 
ATOM      2  C   LIG d   1       3.433   0.012  -6.771  0.00  0.00    -0.040 A 
ATOM      3  C   LIG d   1       3.279  -0.791  -7.897  0.00  0.00    -0.059 A 
ATOM      4  C   LIG d   1       3.861  -2.020  -7.970  0.00  0.00    -0.052 A 
ATOM      5  C   LIG d   1       4.633  -2.494  -6.898  0.00  0.00     0.005 A 
ATOM      6  C   LIG d   1       4.803  -1.685  -5.748  0.00  0.00     0.005 A 
ATOM      7  C   LIG d   1       5.579  -2.157  -4.678  0.00  0.00    -0.052 A 
ATOM      8  C   LIG d   1       6.166  -3.383  -4.753  0.00  0.00    -0.059 A 
ATOM      9  C   LIG d   1       6.012  -4.185  -5.879  0.00  0.00    -0.040 A 
ATOM     10  C   LIG d   1       5.248  -3.763  -6.945  0.00  0.00     0.041 A 
ATOM     11  H   LIG d   1       2.961   0.983  -6.738  0.00  0.00     0.064 H 
ATOM     12  H   LIG d   1       2.686  -0.434  -8.726  0.00  0.00     0.062 H 
ATOM     13  H   LIG d   1       3.730  -2.629  -8.852  0.00  0.00     0.062 H 
ATOM     14  H   LIG d   1       5.711  -1.547  -3.795  0.00  0.00     0.062 H 
ATOM     15  H   LIG d   1       6.762  -3.738  -3.925  0.00  0.00     0.062 H 
ATOM     16  H   LIG d   1       6.487  -5.154  -5.913  0.00  0.00     0.064 H 
ENDROOT
BRANCH   1  17
ATOM     17  N   LIG d   1       4.332   0.396  -4.572  0.00  0.00    -0.285 N 
ATOM     18  C   LIG d   1       3.436   0.328  -3.567  0.00  0.00     0.214 C 
ATOM     19  O   LIG d   1       2.455  -0.376  -3.677  0.00  0.00    -0.276 OA
ATOM     20  H   LIG d   1       5.080   1.010  -4.514  0.00  0.00     0.155 HD
BRANCH  18  21
ATOM     21  C   LIG d   1       3.655   1.125  -2.308  0.00  0.00     0.013 C 
ATOM     22  H   LIG d   1       4.062   0.476  -1.532  0.00  0.00     0.032 H 
ATOM     23  H   LIG d   1       4.357   1.935  -2.508  0.00  0.00     0.032 H 
ATOM     24  H   LIG d   1       2.706   1.541  -1.972  0.00  0.00     0.032 H 
ENDBRANCH  18  21
ENDBRANCH   1  17
BRANCH  10  25
ATOM     25  N   LIG d   1       5.098  -4.577  -8.071  0.00  0.00    -0.285 N 
ATOM     26  C   LIG d   1       4.096  -5.476  -8.122  0.00  0.00     0.214 C 
ATOM     27  O   LIG d   1       3.387  -5.650  -7.154  0.00  0.00    -0.276 OA
ATOM     28  H   LIG d   1       5.715  -4.494  -8.815  0.00  0.00     0.155 HD
BRANCH  26  29
ATOM     29  C   LIG d   1       3.857  -6.265  -9.383  0.00  0.00     0.013 C 
ATOM     30  H   LIG d   1       3.705  -5.581 -10.217  0.00  0.00     0.032 H 
ATOM     31  H   LIG d   1       4.722  -6.898  -9.585  0.00  0.00     0.032 H 
ATOM     32  H   LIG d   1       2.973  -6.891  -9.259  0.00  0.00     0.032 H 
ENDBRANCH  26  29
ENDBRANCH  10  25
TORSDOF 4
ENDMDL
MODEL 8
REMARK VINA RESULT:      -4.8      2.070      6.496
REMARK  4 active torsions:
REMARK  status: ('A' for Active; 'I' for Inactive)
REMARK    1  A    between atoms: C_1  and  C_2 
REMARK       I    between atoms: C_2  and  N_4 
REMARK    2  A    between atoms: N_4  and  C_5 
REMARK    3  A    between atoms: C_14  and  N_15 
REMARK       I    between atoms: N_15  and  C_16 
REMARK    4  A    between atoms: C_16  and  C_18 
ROOT
ATOM      1  C   LIG d   1       5.264  -0.900  -4.729  0.00  0.00     0.041 A 
ATOM      2  C   LIG d   1       6.475  -1.526  -4.934  0.00  0.00    -0.040 A 
ATOM      3  C   LIG d   1       6.891  -1.867  -6.217  0.00  0.00    -0.059 A 
ATOM      4  C   LIG d   1       6.116  -1.593  -7.303  0.00  0.00    -0.052 A 
ATOM      5  C   LIG d   1       4.876  -0.957  -7.137  0.00  0.00     0.005 A 
ATOM      6  C   LIG d   1       4.438  -0.610  -5.835  0.00  0.00     0.005 A 
ATOM      7  C   LIG d   1       3.196   0.021  -5.668  0.00  0.00    -0.052 A 
ATOM      8  C   LIG d   1       2.418   0.290  -6.753  0.00  0.00    -0.059 A 
ATOM      9  C   LIG d   1       2.834  -0.051  -8.036  0.00  0.00    -0.040 A 
ATOM     10  C   LIG d   1       4.052  -0.662  -8.244  0.00  0.00     0.041 A 
ATOM     11  H   LIG d   1       7.109  -1.754  -4.089  0.00  0.00     0.064 H 
ATOM     12  H   LIG d   1       7.844  -2.355  -6.354  0.00  0.00     0.062 H 
ATOM     13  H   LIG d   1       6.455  -1.865  -8.292  0.00  0.00     0.062 H 
ATOM     14  H   LIG d   1       2.856   0.293  -4.679  0.00  0.00     0.062 H 
ATOM     15  H   LIG d   1       1.463   0.776  -6.616  0.00  0.00     0.062 H 
ATOM     16  H   LIG d   1       2.199   0.173  -8.881  0.00  0.00     0.064 H 
ENDROOT
BRANCH   1  17
ATOM     17  N   LIG d   1       4.857  -0.562  -3.436  0.00  0.00    -0.285 N 
ATOM     18  C   LIG d   1       5.197   0.632  -2.912  0.00  0.00     0.214 C 
ATOM     19  O   LIG d   1       5.929   1.377  -3.528  0.00  0.00    -0.276 OA
ATOM     20  H   LIG d   1       4.329  -1.187  -2.916  0.00  0.00     0.155 HD
BRANCH  18  21
ATOM     21  C   LIG d   1       4.668   1.040  -1.562  0.00  0.00     0.013 C 
ATOM     22  H   LIG d   1       5.495   1.124  -0.857  0.00  0.00     0.032 H 
ATOM     23  H   LIG d   1       4.163   2.003  -1.646  0.00  0.00     0.032 H 
ATOM     24  H   LIG d   1       3.962   0.290  -1.207  0.00  0.00     0.032 H 
ENDBRANCH  18  21
ENDBRANCH   1  17
BRANCH  10  25
ATOM     25  N   LIG d   1       4.461  -0.999  -9.536  0.00  0.00    -0.285 N 
ATOM     26  C   LIG d   1       5.018  -0.064 -10.331  0.00  0.00     0.214 C 
ATOM     27  O   LIG d   1       5.074   1.090  -9.963  0.00  0.00    -0.276 OA
ATOM     28  H   LIG d   1       4.343  -1.905  -9.861  0.00  0.00     0.155 HD
BRANCH  26  29
ATOM     29  C   LIG d   1       5.573  -0.455 -11.676  0.00  0.00     0.013 C 
ATOM     30  H   LIG d   1       5.382  -1.513 -11.855  0.00  0.00     0.032 H 
ATOM     31  H   LIG d   1       5.090   0.138 -12.454  0.00  0.00     0.032 H 
ATOM     32  H   LIG d   1       6.647  -0.271 -11.695  0.00  0.00     0.032 H 
ENDBRANCH  26  29
ENDBRANCH  10  25
TORSDOF 4
ENDMDL
MODEL 9
REMARK VINA RESULT:      -4.7      5.781      6.896
REMARK  4 active torsions:
REMARK  status: ('A' for Active; 'I' for Inactive)
REMARK    1  A    between atoms: C_1  and  C_2 
REMARK       I    between atoms: C_2  and  N_4 
REMARK    2  A    between atoms: N_4  and  C_5 
REMARK    3  A    between atoms: C_14  and  N_15 
REMARK       I    between atoms: N_15  and  C_16 
REMARK    4  A    between atoms: C_16  and  C_18 
ROOT
ATOM      1  C   LIG d   1       5.937  -1.377  -3.563  0.00  0.00     0.041 A 
ATOM      2  C   LIG d   1       5.029  -0.691  -2.785  0.00  0.00    -0.040 A 
ATOM      3  C   LIG d   1       5.190   0.668  -2.535  0.00  0.00    -0.059 A 
ATOM      4  C   LIG d   1       6.247   1.357  -3.050  0.00  0.00    -0.052 A 
ATOM      5  C   LIG d   1       7.194   0.695  -3.846  0.00  0.00     0.005 A 
ATOM      6  C   LIG d   1       7.044  -0.690  -4.104  0.00  0.00     0.005 A 
ATOM      7  C   LIG d   1       7.994  -1.353  -4.896  0.00  0.00    -0.052 A 
ATOM      8  C   LIG d   1       9.053  -0.666  -5.406  0.00  0.00    -0.059 A 
ATOM      9  C   LIG d   1       9.214   0.693  -5.156  0.00  0.00    -0.040 A 
ATOM     10  C   LIG d   1       8.298   1.383  -4.392  0.00  0.00     0.041 A 
ATOM     11  H   LIG d   1       4.182  -1.215  -2.365  0.00  0.00     0.064 H 
ATOM     12  H   LIG d   1       4.465   1.185  -1.924  0.00  0.00     0.062 H 
ATOM     13  H   LIG d   1       6.355   2.411  -2.845  0.00  0.00     0.062 H 
ATOM     14  H   LIG d   1       7.885  -2.409  -5.101  0.00  0.00     0.062 H 
ATOM     15  H   LIG d   1       9.779  -1.184  -6.015  0.00  0.00     0.062 H 
ATOM     16  H   LIG d   1      10.063   1.216  -5.572  0.00  0.00     0.064 H 
ENDROOT
BRANCH   1  17
ATOM     17  N   LIG d   1       5.765  -2.741  -3.808  0.00  0.00    -0.285 N 
ATOM     18  C   LIG d   1       5.058  -3.150  -4.880  0.00  0.00     0.214 C 
ATOM     19  O   LIG d   1       4.498  -2.336  -5.583  0.00  0.00    -0.276 OA
ATOM     20  H   LIG d   1       6.154  -3.394  -3.206  0.00  0.00     0.155 HD
BRANCH  18  21
ATOM     21  C   LIG d   1       4.963  -4.618  -5.204  0.00  0.00     0.013 C 
ATOM     22  H   LIG d   1       5.956  -5.004  -5.438  0.00  0.00     0.032 H 
ATOM     23  H   LIG d   1       4.558  -5.155  -4.346  0.00  0.00     0.032 H 
ATOM     24  H   LIG d   1       4.307  -4.759  -6.063  0.00  0.00     0.032 H 
ENDBRANCH  18  21
ENDBRANCH   1  17
BRANCH  10  25
ATOM     25  N   LIG d   1       8.469   2.748  -4.148  0.00  0.00    -0.285 N 
ATOM     26  C   LIG d   1       9.511   3.173  -3.407  0.00  0.00     0.214 C 
ATOM     27  O   LIG d   1      10.243   2.369  -2.871  0.00  0.00    -0.276 OA
ATOM     28  H   LIG d   1       7.837   3.388  -4.510  0.00  0.00     0.155 HD
BRANCH  26  29
ATOM     29  C   LIG d   1       9.767   4.650  -3.247  0.00  0.00     0.013 C 
ATOM     30  H   LIG d   1      10.159   4.845  -2.249  0.00  0.00     0.032 H 
ATOM     31  H   LIG d   1      10.494   4.975  -3.993  0.00  0.00     0.032 H 
ATOM     32  H   LIG d   1       8.836   5.198  -3.386  0.00  0.00     0.032 H 
ENDBRANCH  26  29
ENDBRANCH  10  25
TORSDOF 4
ENDMDL
MODEL 10
REMARK VINA RESULT:      -4.7      3.410      6.694
REMARK  4 active torsions:
REMARK  status: ('A' for Active; 'I' for Inactive)
REMARK    1  A    between atoms: C_1  and  C_2 
REMARK       I    between atoms: C_2  and  N_4 
REMARK    2  A    between atoms: N_4  and  C_5 
REMARK    3  A    between atoms: C_14  and  N_15 
REMARK       I    between atoms: N_15  and  C_16 
REMARK    4  A    between atoms: C_16  and  C_18 
ROOT
ATOM      1  C   LIG d   1       5.244  -1.062  -4.622  0.00  0.00     0.041 A 
ATOM      2  C   LIG d   1       6.088  -1.912  -3.939  0.00  0.00    -0.040 A 
ATOM      3  C   LIG d   1       6.452  -3.140  -4.482  0.00  0.00    -0.059 A 
ATOM      4  C   LIG d   1       5.987  -3.537  -5.699  0.00  0.00    -0.052 A 
ATOM      5  C   LIG d   1       5.125  -2.701  -6.426  0.00  0.00     0.005 A 
ATOM      6  C   LIG d   1       4.742  -1.450  -5.883  0.00  0.00     0.005 A 
ATOM      7  C   LIG d   1       3.877  -0.616  -6.607  0.00  0.00    -0.052 A 
ATOM      8  C   LIG d   1       3.407  -1.015  -7.822  0.00  0.00    -0.059 A 
ATOM      9  C   LIG d   1       3.771  -2.243  -8.364  0.00  0.00    -0.040 A 
ATOM     10  C   LIG d   1       4.628  -3.086  -7.690  0.00  0.00     0.041 A 
ATOM     11  H   LIG d   1       6.471  -1.621  -2.972  0.00  0.00     0.064 H 
ATOM     12  H   LIG d   1       7.115  -3.789  -3.929  0.00  0.00     0.062 H 
ATOM     13  H   LIG d   1       6.281  -4.493  -6.105  0.00  0.00     0.062 H 
ATOM     14  H   LIG d   1       3.582   0.341  -6.201  0.00  0.00     0.062 H 
ATOM     15  H   LIG d   1       2.741  -0.367  -8.373  0.00  0.00     0.062 H 
ATOM     16  H   LIG d   1       3.385  -2.536  -9.330  0.00  0.00     0.064 H 
ENDROOT
BRANCH   1  17
ATOM     17  N   LIG d   1       4.885   0.168  -4.068  0.00  0.00    -0.285 N 
ATOM     18  C   LIG d   1       3.929   0.228  -3.120  0.00  0.00     0.214 C 
ATOM     19  O   LIG d   1       3.320  -0.773  -2.810  0.00  0.00    -0.276 OA
ATOM     20  H   LIG d   1       5.324   0.980  -4.366  0.00  0.00     0.155 HD
BRANCH  18  21
ATOM     21  C   LIG d   1       3.618   1.539  -2.446  0.00  0.00     0.013 C 
ATOM     22  H   LIG d   1       4.469   1.848  -1.839  0.00  0.00     0.032 H 
ATOM     23  H   LIG d   1       3.417   2.298  -3.203  0.00  0.00     0.032 H 
ATOM     24  H   LIG d   1       2.742   1.420  -1.809  0.00  0.00     0.032 H 
ENDBRANCH  18  21
ENDBRANCH   1  17
BRANCH  10  25
ATOM     25  N   LIG d   1       4.988  -4.316  -8.243  0.00  0.00    -0.285 N 
ATOM     26  C   LIG d   1       4.234  -5.408  -8.006  0.00  0.00     0.214 C 
ATOM     27  O   LIG d   1       3.302  -5.345  -7.233  0.00  0.00    -0.276 OA
ATOM     28  H   LIG d   1       5.781  -4.385  -8.798  0.00  0.00     0.155 HD
BRANCH  26  29
ATOM     29  C   LIG d   1       4.550  -6.706  -8.702  0.00  0.00     0.013 C 
ATOM     30  H   LIG d   1       4.199  -6.660  -9.733  0.00  0.00     0.032 H 
ATOM     31  H   LIG d   1       5.628  -6.871  -8.691  0.00  0.00     0.032 H 
ATOM     32  H   LIG d   1       4.052  -7.527  -8.185  0.00  0.00     0.032 H 
ENDBRANCH  26  29
ENDBRANCH  10  25
TORSDOF 4
ENDMDL
