MODEL 1
REMARK VINA RESULT:      -7.0      0.000      0.000
REMARK  6 active torsions:
REMARK  status: ('A' for Active; 'I' for Inactive)
REMARK    1  A    between atoms: C_3  and  C_6 
REMARK    2  A    between atoms: C_6  and  N_7 
REMARK    3  A    between atoms: C_15  and  C_17 
REMARK    4  A    between atoms: C_19  and  C_22 
REMARK    5  A    between atoms: C_25  and  O_28 
REMARK    6  A    between atoms: O_28  and  C_29 
ROOT
ATOM      1  N   LIG d   1       5.453  -0.104  -6.578  0.00  0.00    -0.281 N 
ATOM      2  C   LIG d   1       4.508  -0.877  -7.402  0.00  0.00     0.044 C 
ATOM      3  C   LIG d   1       4.310  -0.148  -8.707  0.00  0.00     0.076 A 
ATOM      4  C   LIG d   1       5.145   0.820  -9.150  0.00  0.00     0.042 A 
ATOM      5  N   LIG d   1       4.662   1.252 -10.344  0.00  0.00    -0.348 N 
ATOM      6  C   LIG d   1       3.542   0.531 -10.600  0.00  0.00     0.094 A 
ATOM      7  N   LIG d   1       3.342  -0.303  -9.613  0.00  0.00    -0.239 NA
ATOM      8  C   LIG d   1       6.366   1.275  -8.392  0.00  0.00     0.014 C 
ATOM      9  C   LIG d   1       6.677   0.218  -7.323  0.00  0.00     0.096 C 
ATOM     10  H   LIG d   1       7.042  -0.712  -7.781  0.00  0.00     0.057 H 
ATOM     11  H   LIG d   1       4.920  -1.880  -7.590  0.00  0.00     0.049 H 
ATOM     12  H   LIG d   1       3.549  -0.968  -6.872  0.00  0.00     0.049 H 
ATOM     13  H   LIG d   1       2.908   0.551 -11.374  0.00  0.00     0.103 H 
ATOM     14  H   LIG d   1       7.213   1.375  -9.088  0.00  0.00     0.035 H 
ATOM     15  H   LIG d   1       6.164   2.248  -7.920  0.00  0.00     0.035 H 
ATOM     16  H   LIG d   1       5.185   2.047 -10.894  0.00  0.00     0.167 HD
ENDROOT
BRANCH   9  17
ATOM     17  C   LIG d   1       7.715   0.758  -6.373  0.00  0.00     0.245 A 
ATOM     18  O   LIG d   1       8.712   0.067  -5.810  0.00  0.00    -0.336 OA
ATOM     19  N   LIG d   1       9.371   0.795  -5.097  0.00  0.00    -0.056 NA
ATOM     20  C   LIG d   1       8.884   2.009  -5.121  0.00  0.00     0.202 A 
ATOM     21  N   LIG d   1       7.814   1.993  -5.950  0.00  0.00    -0.190 NA
BRANCH  20  22
ATOM     22  C   LIG d   1       9.408   3.184  -4.382  0.00  0.00     0.023 A 
ATOM     23  C   LIG d   1       9.290   4.461  -4.929  0.00  0.00    -0.048 A 
ATOM     24  C   LIG d   1       9.778   5.551  -4.239  0.00  0.00    -0.019 A 
ATOM     25  H   LIG d   1       8.817   4.596  -5.889  0.00  0.00     0.063 H 
ATOM     26  C   LIG d   1      10.385   5.378  -3.002  0.00  0.00     0.130 A 
ATOM     27  H   LIG d   1       9.686   6.541  -4.661  0.00  0.00     0.065 H 
ATOM     28  C   LIG d   1      10.504   4.106  -2.457  0.00  0.00    -0.019 A 
ATOM     29  C   LIG d   1      10.012   3.014  -3.139  0.00  0.00    -0.048 A 
ATOM     30  H   LIG d   1      10.977   3.974  -1.495  0.00  0.00     0.065 H 
ATOM     31  H   LIG d   1      10.101   2.025  -2.711  0.00  0.00     0.063 H 
BRANCH  26  32
ATOM     32  O   LIG d   1      10.865   6.454  -2.326  0.00  0.00    -0.406 OA
BRANCH  32  33
ATOM     33  C   LIG d   1      10.059   6.963  -1.262  0.00  0.00     0.575 C 
ATOM     34  F   LIG d   1       8.717   6.974  -1.658  0.00  0.00    -0.133 F 
ATOM     35  F   LIG d   1      10.206   6.149  -0.135  0.00  0.00    -0.133 F 
ATOM     36  F   LIG d   1      10.464   8.266  -0.952  0.00  0.00    -0.133 F 
ENDBRANCH  32  33
ENDBRANCH  26  32
ENDBRANCH  20  22
ENDBRANCH   9  17
BRANCH   1  37
ATOM     37  C   LIG d   1       5.767  -0.814  -5.331  0.00  0.00     0.031 C 
ATOM     38  H   LIG d   1       6.857  -0.834  -5.184  0.00  0.00     0.048 H 
ATOM     39  H   LIG d   1       5.386  -1.845  -5.390  0.00  0.00     0.048 H 
BRANCH  37  40
ATOM     40  C   LIG d   1       5.116  -0.104  -4.171  0.00  0.00     0.004 A 
ATOM     41  C   LIG d   1       5.692   0.441  -3.073  0.00  0.00    -0.050 A 
ATOM     42  C   LIG d   1       4.888   1.052  -2.128  0.00  0.00    -0.054 A 
ATOM     43  H   LIG d   1       6.762   0.402  -2.938  0.00  0.00     0.063 H 
ATOM     44  C   LIG d   1       3.547   1.078  -2.324  0.00  0.00    -0.024 A 
ATOM     45  H   LIG d   1       5.322   1.500  -1.246  0.00  0.00     0.062 H 
ATOM     46  S   LIG d   1       3.386   0.228  -3.885  0.00  0.00    -0.100 SA
ATOM     47  H   LIG d   1       2.777   1.503  -1.698  0.00  0.00     0.069 H 
ENDBRANCH  37  40
ENDBRANCH   1  37
TORSDOF 6
ENDMDL
MODEL 2
REMARK VINA RESULT:      -6.8      6.754      8.767
REMARK  6 active torsions:
REMARK  status: ('A' for Active; 'I' for Inactive)
REMARK    1  A    between atoms: C_3  and  C_6 
REMARK    2  A    between atoms: C_6  and  N_7 
REMARK    3  A    between atoms: C_15  and  C_17 
REMARK    4  A    between atoms: C_19  and  C_22 
REMARK    5  A    between atoms: C_25  and  O_28 
REMARK    6  A    between atoms: O_28  and  C_29 
ROOT
ATOM      1  N   LIG d   1       7.367  -7.845  -5.064  0.00  0.00    -0.281 N 
ATOM      2  C   LIG d   1       7.678  -9.285  -5.077  0.00  0.00     0.044 C 
ATOM      3  C   LIG d   1       6.387 -10.050  -4.928  0.00  0.00     0.076 A 
ATOM      4  C   LIG d   1       5.169  -9.497  -5.130  0.00  0.00     0.042 A 
ATOM      5  N   LIG d   1       4.246 -10.467  -4.906  0.00  0.00    -0.348 N 
ATOM      6  C   LIG d   1       4.926 -11.592  -4.575  0.00  0.00     0.094 A 
ATOM      7  N   LIG d   1       6.208 -11.329  -4.591  0.00  0.00    -0.239 NA
ATOM      8  C   LIG d   1       4.966  -8.058  -5.529  0.00  0.00     0.014 C 
ATOM      9  C   LIG d   1       6.312  -7.514  -6.030  0.00  0.00     0.096 C 
ATOM     10  H   LIG d   1       6.588  -7.968  -6.993  0.00  0.00     0.057 H 
ATOM     11  H   LIG d   1       8.163  -9.547  -6.029  0.00  0.00     0.049 H 
ATOM     12  H   LIG d   1       8.355  -9.522  -4.243  0.00  0.00     0.049 H 
ATOM     13  H   LIG d   1       4.608 -12.511  -4.342  0.00  0.00     0.103 H 
ATOM     14  H   LIG d   1       4.211  -8.002  -6.328  0.00  0.00     0.035 H 
ATOM     15  H   LIG d   1       4.621  -7.481  -4.659  0.00  0.00     0.035 H 
ATOM     16  H   LIG d   1       3.174 -10.242  -5.011  0.00  0.00     0.167 HD
ENDROOT
BRANCH   9  17
ATOM     17  C   LIG d   1       6.222  -6.017  -6.181  0.00  0.00     0.245 A 
ATOM     18  O   LIG d   1       6.475  -5.314  -7.290  0.00  0.00    -0.336 OA
ATOM     19  N   LIG d   1       6.308  -4.131  -7.079  0.00  0.00    -0.056 NA
ATOM     20  C   LIG d   1       5.937  -3.944  -5.838  0.00  0.00     0.202 A 
ATOM     21  N   LIG d   1       5.874  -5.162  -5.252  0.00  0.00    -0.190 NA
BRANCH  20  22
ATOM     22  C   LIG d   1       5.638  -2.641  -5.195  0.00  0.00     0.023 A 
ATOM     23  C   LIG d   1       6.227  -2.313  -3.975  0.00  0.00    -0.048 A 
ATOM     24  C   LIG d   1       5.948  -1.101  -3.380  0.00  0.00    -0.019 A 
ATOM     25  H   LIG d   1       6.902  -3.007  -3.497  0.00  0.00     0.063 H 
ATOM     26  C   LIG d   1       5.081  -0.207  -3.994  0.00  0.00     0.130 A 
ATOM     27  H   LIG d   1       6.405  -0.846  -2.435  0.00  0.00     0.065 H 
ATOM     28  C   LIG d   1       4.492  -0.532  -5.209  0.00  0.00    -0.019 A 
ATOM     29  C   LIG d   1       4.773  -1.740  -5.812  0.00  0.00    -0.048 A 
ATOM     30  H   LIG d   1       3.818   0.165  -5.686  0.00  0.00     0.065 H 
ATOM     31  H   LIG d   1       4.319  -1.989  -6.761  0.00  0.00     0.063 H 
BRANCH  26  32
ATOM     32  O   LIG d   1       4.807   0.986  -3.406  0.00  0.00    -0.406 OA
BRANCH  32  33
ATOM     33  C   LIG d   1       3.949   0.964  -2.263  0.00  0.00     0.575 C 
ATOM     34  F   LIG d   1       3.078   2.058  -2.314  0.00  0.00    -0.133 F 
ATOM     35  F   LIG d   1       3.208  -0.222  -2.259  0.00  0.00    -0.133 F 
ATOM     36  F   LIG d   1       4.721   1.036  -1.099  0.00  0.00    -0.133 F 
ENDBRANCH  32  33
ENDBRANCH  26  32
ENDBRANCH  20  22
ENDBRANCH   9  17
BRANCH   1  37
ATOM     37  C   LIG d   1       8.574  -7.044  -5.307  0.00  0.00     0.031 C 
ATOM     38  H   LIG d   1       8.356  -6.270  -6.058  0.00  0.00     0.048 H 
ATOM     39  H   LIG d   1       9.380  -7.697  -5.676  0.00  0.00     0.048 H 
BRANCH  37  40
ATOM     40  C   LIG d   1       9.009  -6.388  -4.021  0.00  0.00     0.004 A 
ATOM     41  C   LIG d   1       9.155  -5.070  -3.742  0.00  0.00    -0.050 A 
ATOM     42  C   LIG d   1       9.567  -4.695  -2.477  0.00  0.00    -0.054 A 
ATOM     43  H   LIG d   1       8.948  -4.325  -4.494  0.00  0.00     0.063 H 
ATOM     44  C   LIG d   1       9.824  -5.657  -1.557  0.00  0.00    -0.024 A 
ATOM     45  H   LIG d   1       9.686  -3.651  -2.226  0.00  0.00     0.062 H 
ATOM     46  S   LIG d   1       9.475  -7.147  -2.474  0.00  0.00    -0.100 SA
ATOM     47  H   LIG d   1      10.155  -5.548  -0.534  0.00  0.00     0.069 H 
ENDBRANCH  37  40
ENDBRANCH   1  37
TORSDOF 6
ENDMDL
MODEL 3
REMARK VINA RESULT:      -6.7      4.812      8.119
REMARK  6 active torsions:
REMARK  status: ('A' for Active; 'I' for Inactive)
REMARK    1  A    between atoms: C_3  and  C_6 
REMARK    2  A    between atoms: C_6  and  N_7 
REMARK    3  A    between atoms: C_15  and  C_17 
REMARK    4  A    between atoms: C_19  and  C_22 
REMARK    5  A    between atoms: C_25  and  O_28 
REMARK    6  A    between atoms: O_28  and  C_29 
ROOT
ATOM      1  N   LIG d   1      10.335   5.134  -6.392  0.00  0.00    -0.281 N 
ATOM      2  C   LIG d   1      11.018   6.314  -6.952  0.00  0.00     0.044 C 
ATOM      3  C   LIG d   1      10.327   7.551  -6.436  0.00  0.00     0.076 A 
ATOM      4  C   LIG d   1       9.493   7.545  -5.371  0.00  0.00     0.042 A 
ATOM      5  N   LIG d   1       9.056   8.819  -5.196  0.00  0.00    -0.348 N 
ATOM      6  C   LIG d   1       9.640   9.572  -6.161  0.00  0.00     0.094 A 
ATOM      7  N   LIG d   1      10.398   8.801  -6.896  0.00  0.00    -0.239 NA
ATOM      8  C   LIG d   1       9.163   6.305  -4.580  0.00  0.00     0.014 C 
ATOM      9  C   LIG d   1      10.203   5.232  -4.932  0.00  0.00     0.096 C 
ATOM     10  H   LIG d   1      11.191   5.490  -4.526  0.00  0.00     0.057 H 
ATOM     11  H   LIG d   1      12.072   6.312  -6.636  0.00  0.00     0.049 H 
ATOM     12  H   LIG d   1      10.964   6.282  -8.050  0.00  0.00     0.049 H 
ATOM     13  H   LIG d   1       9.574  10.550  -6.364  0.00  0.00     0.103 H 
ATOM     14  H   LIG d   1       9.201   6.535  -3.505  0.00  0.00     0.035 H 
ATOM     15  H   LIG d   1       8.153   5.959  -4.844  0.00  0.00     0.035 H 
ATOM     16  H   LIG d   1       8.358   9.055  -4.380  0.00  0.00     0.167 HD
ENDROOT
BRANCH   9  17
ATOM     17  C   LIG d   1       9.758   3.903  -4.379  0.00  0.00     0.245 A 
ATOM     18  O   LIG d   1      10.470   3.092  -3.590  0.00  0.00    -0.336 OA
ATOM     19  N   LIG d   1       9.825   2.101  -3.320  0.00  0.00    -0.056 NA
ATOM     20  C   LIG d   1       8.650   2.161  -3.892  0.00  0.00     0.202 A 
ATOM     21  N   LIG d   1       8.598   3.328  -4.576  0.00  0.00    -0.190 NA
BRANCH  20  22
ATOM     22  C   LIG d   1       7.574   1.143  -3.805  0.00  0.00     0.023 A 
ATOM     23  C   LIG d   1       6.294   1.514  -3.397  0.00  0.00    -0.048 A 
ATOM     24  C   LIG d   1       5.296   0.566  -3.318  0.00  0.00    -0.019 A 
ATOM     25  H   LIG d   1       6.084   2.543  -3.145  0.00  0.00     0.063 H 
ATOM     26  C   LIG d   1       5.565  -0.757  -3.644  0.00  0.00     0.130 A 
ATOM     27  H   LIG d   1       4.303   0.853  -3.003  0.00  0.00     0.065 H 
ATOM     28  C   LIG d   1       6.840  -1.129  -4.050  0.00  0.00    -0.019 A 
ATOM     29  C   LIG d   1       7.839  -0.183  -4.137  0.00  0.00    -0.048 A 
ATOM     30  H   LIG d   1       7.046  -2.158  -4.303  0.00  0.00     0.065 H 
ATOM     31  H   LIG d   1       8.830  -0.473  -4.458  0.00  0.00     0.063 H 
BRANCH  26  32
ATOM     32  O   LIG d   1       4.580  -1.689  -3.564  0.00  0.00    -0.406 OA
BRANCH  32  33
ATOM     33  C   LIG d   1       3.793  -1.701  -2.372  0.00  0.00     0.575 C 
ATOM     34  F   LIG d   1       4.500  -1.074  -1.341  0.00  0.00    -0.133 F 
ATOM     35  F   LIG d   1       2.594  -1.018  -2.598  0.00  0.00    -0.133 F 
ATOM     36  F   LIG d   1       3.515  -3.023  -2.010  0.00  0.00    -0.133 F 
ENDBRANCH  32  33
ENDBRANCH  26  32
ENDBRANCH  20  22
ENDBRANCH   9  17
BRANCH   1  37
ATOM     37  C   LIG d   1      11.024   3.895  -6.777  0.00  0.00     0.031 C 
ATOM     38  H   LIG d   1      11.020   3.195  -5.929  0.00  0.00     0.048 H 
ATOM     39  H   LIG d   1      12.063   4.125  -7.058  0.00  0.00     0.048 H 
BRANCH  37  40
ATOM     40  C   LIG d   1      10.314   3.269  -7.950  0.00  0.00     0.004 A 
ATOM     41  C   LIG d   1       8.999   2.980  -8.095  0.00  0.00    -0.050 A 
ATOM     42  C   LIG d   1       8.567   2.402  -9.275  0.00  0.00    -0.054 A 
ATOM     43  H   LIG d   1       8.298   3.199  -7.305  0.00  0.00     0.063 H 
ATOM     44  C   LIG d   1       9.474   2.133 -10.246  0.00  0.00    -0.024 A 
ATOM     45  H   LIG d   1       7.523   2.166  -9.420  0.00  0.00     0.062 H 
ATOM     46  S   LIG d   1      10.991   2.708  -9.504  0.00  0.00    -0.100 SA
ATOM     47  H   LIG d   1       9.317   1.687 -11.217  0.00  0.00     0.069 H 
ENDBRANCH  37  40
ENDBRANCH   1  37
TORSDOF 6
ENDMDL
MODEL 4
REMARK VINA RESULT:      -6.7      5.033      8.473
REMARK  6 active torsions:
REMARK  status: ('A' for Active; 'I' for Inactive)
REMARK    1  A    between atoms: C_3  and  C_6 
REMARK    2  A    between atoms: C_6  and  N_7 
REMARK    3  A    between atoms: C_15  and  C_17 
REMARK    4  A    between atoms: C_19  and  C_22 
REMARK    5  A    between atoms: C_25  and  O_28 
REMARK    6  A    between atoms: O_28  and  C_29 
ROOT
ATOM      1  N   LIG d   1      10.461   6.189  -4.005  0.00  0.00    -0.281 N 
ATOM      2  C   LIG d   1      10.613   7.559  -4.524  0.00  0.00     0.044 C 
ATOM      3  C   LIG d   1      11.567   7.521  -5.691  0.00  0.00     0.076 A 
ATOM      4  C   LIG d   1      11.897   6.382  -6.342  0.00  0.00     0.042 A 
ATOM      5  N   LIG d   1      12.772   6.720  -7.325  0.00  0.00    -0.348 N 
ATOM      6  C   LIG d   1      12.950   8.062  -7.249  0.00  0.00     0.094 A 
ATOM      7  N   LIG d   1      12.224   8.530  -6.267  0.00  0.00    -0.239 NA
ATOM      8  C   LIG d   1      11.349   5.027  -5.977  0.00  0.00     0.014 C 
ATOM      9  C   LIG d   1      10.124   5.242  -5.076  0.00  0.00     0.096 C 
ATOM     10  H   LIG d   1       9.285   5.669  -5.644  0.00  0.00     0.057 H 
ATOM     11  H   LIG d   1       9.633   7.938  -4.851  0.00  0.00     0.049 H 
ATOM     12  H   LIG d   1      11.013   8.209  -3.732  0.00  0.00     0.049 H 
ATOM     13  H   LIG d   1      13.512   8.685  -7.796  0.00  0.00     0.103 H 
ATOM     14  H   LIG d   1      11.059   4.490  -6.893  0.00  0.00     0.035 H 
ATOM     15  H   LIG d   1      12.119   4.450  -5.443  0.00  0.00     0.035 H 
ATOM     16  H   LIG d   1      13.181   5.945  -7.988  0.00  0.00     0.167 HD
ENDROOT
BRANCH   9  17
ATOM     17  C   LIG d   1       9.711   3.926  -4.470  0.00  0.00     0.245 A 
ATOM     18  O   LIG d   1      10.431   3.178  -3.628  0.00  0.00    -0.336 OA
ATOM     19  N   LIG d   1       9.812   2.179  -3.325  0.00  0.00    -0.056 NA
ATOM     20  C   LIG d   1       8.649   2.173  -3.925  0.00  0.00     0.202 A 
ATOM     21  N   LIG d   1       8.574   3.304  -4.664  0.00  0.00    -0.190 NA
BRANCH  20  22
ATOM     22  C   LIG d   1       7.605   1.124  -3.812  0.00  0.00     0.023 A 
ATOM     23  C   LIG d   1       6.329   1.456  -3.359  0.00  0.00    -0.048 A 
ATOM     24  C   LIG d   1       5.361   0.480  -3.255  0.00  0.00    -0.019 A 
ATOM     25  H   LIG d   1       6.099   2.476  -3.090  0.00  0.00     0.063 H 
ATOM     26  C   LIG d   1       5.656  -0.833  -3.602  0.00  0.00     0.130 A 
ATOM     27  H   LIG d   1       4.372   0.736  -2.906  0.00  0.00     0.065 H 
ATOM     28  C   LIG d   1       6.926  -1.165  -4.053  0.00  0.00    -0.019 A 
ATOM     29  C   LIG d   1       7.896  -0.191  -4.164  0.00  0.00    -0.048 A 
ATOM     30  H   LIG d   1       7.153  -2.187  -4.322  0.00  0.00     0.065 H 
ATOM     31  H   LIG d   1       8.884  -0.451  -4.520  0.00  0.00     0.063 H 
BRANCH  26  32
ATOM     32  O   LIG d   1       4.700  -1.793  -3.499  0.00  0.00    -0.406 OA
BRANCH  32  33
ATOM     33  C   LIG d   1       3.848  -1.740  -2.354  0.00  0.00     0.575 C 
ATOM     34  F   LIG d   1       3.477  -3.038  -1.989  0.00  0.00    -0.133 F 
ATOM     35  F   LIG d   1       4.530  -1.134  -1.293  0.00  0.00    -0.133 F 
ATOM     36  F   LIG d   1       2.704  -0.995  -2.657  0.00  0.00    -0.133 F 
ENDBRANCH  32  33
ENDBRANCH  26  32
ENDBRANCH  20  22
ENDBRANCH   9  17
BRANCH   1  37
ATOM     37  C   LIG d   1       9.465   6.142  -2.927  0.00  0.00     0.031 C 
ATOM     38  H   LIG d   1       8.959   5.165  -2.937  0.00  0.00     0.048 H 
ATOM     39  H   LIG d   1       8.723   6.941  -3.078  0.00  0.00     0.048 H 
BRANCH  37  40
ATOM     40  C   LIG d   1      10.150   6.339  -1.599  0.00  0.00     0.004 A 
ATOM     41  C   LIG d   1      10.875   5.453  -0.873  0.00  0.00    -0.050 A 
ATOM     42  C   LIG d   1      11.420   5.861   0.330  0.00  0.00    -0.054 A 
ATOM     43  H   LIG d   1      11.028   4.447  -1.231  0.00  0.00     0.063 H 
ATOM     44  C   LIG d   1      11.204   7.131   0.753  0.00  0.00    -0.024 A 
ATOM     45  H   LIG d   1      12.007   5.177   0.926  0.00  0.00     0.062 H 
ATOM     46  S   LIG d   1      10.210   7.797  -0.570  0.00  0.00    -0.100 SA
ATOM     47  H   LIG d   1      11.546   7.613   1.658  0.00  0.00     0.069 H 
ENDBRANCH  37  40
ENDBRANCH   1  37
TORSDOF 6
ENDMDL
MODEL 5
REMARK VINA RESULT:      -6.7      4.866      8.603
REMARK  6 active torsions:
REMARK  status: ('A' for Active; 'I' for Inactive)
REMARK    1  A    between atoms: C_3  and  C_6 
REMARK    2  A    between atoms: C_6  and  N_7 
REMARK    3  A    between atoms: C_15  and  C_17 
REMARK    4  A    between atoms: C_19  and  C_22 
REMARK    5  A    between atoms: C_25  and  O_28 
REMARK    6  A    between atoms: O_28  and  C_29 
ROOT
ATOM      1  N   LIG d   1      10.672   5.719  -4.810  0.00  0.00    -0.281 N 
ATOM      2  C   LIG d   1      11.396   6.999  -4.726  0.00  0.00     0.044 C 
ATOM      3  C   LIG d   1      10.753   7.839  -3.650  0.00  0.00     0.076 A 
ATOM      4  C   LIG d   1       9.922   7.331  -2.711  0.00  0.00     0.042 A 
ATOM      5  N   LIG d   1       9.534   8.363  -1.919  0.00  0.00    -0.348 N 
ATOM      6  C   LIG d   1      10.142   9.477  -2.395  0.00  0.00     0.094 A 
ATOM      7  N   LIG d   1      10.869   9.149  -3.432  0.00  0.00    -0.239 NA
ATOM      8  C   LIG d   1       9.549   5.873  -2.632  0.00  0.00     0.014 C 
ATOM      9  C   LIG d   1      10.548   5.084  -3.491  0.00  0.00     0.096 C 
ATOM     10  H   LIG d   1      11.546   5.076  -3.031  0.00  0.00     0.057 H 
ATOM     11  H   LIG d   1      12.450   6.809  -4.475  0.00  0.00     0.049 H 
ATOM     12  H   LIG d   1      11.337   7.518  -5.694  0.00  0.00     0.049 H 
ATOM     13  H   LIG d   1      10.112  10.428  -2.086  0.00  0.00     0.103 H 
ATOM     14  H   LIG d   1       9.599   5.538  -1.585  0.00  0.00     0.035 H 
ATOM     15  H   LIG d   1       8.526   5.734  -3.012  0.00  0.00     0.035 H 
ATOM     16  H   LIG d   1       8.847   8.184  -1.078  0.00  0.00     0.167 HD
ENDROOT
BRANCH   9  17
ATOM     17  C   LIG d   1      10.055   3.670  -3.660  0.00  0.00     0.245 A 
ATOM     18  O   LIG d   1      10.796   2.603  -3.978  0.00  0.00    -0.336 OA
ATOM     19  N   LIG d   1      10.097   1.613  -4.035  0.00  0.00    -0.056 NA
ATOM     20  C   LIG d   1       8.855   1.924  -3.765  0.00  0.00     0.202 A 
ATOM     21  N   LIG d   1       8.821   3.254  -3.516  0.00  0.00    -0.190 NA
BRANCH  20  22
ATOM     22  C   LIG d   1       7.701   0.993  -3.734  0.00  0.00     0.023 A 
ATOM     23  C   LIG d   1       6.436   1.461  -3.379  0.00  0.00    -0.048 A 
ATOM     24  C   LIG d   1       5.365   0.593  -3.351  0.00  0.00    -0.019 A 
ATOM     25  H   LIG d   1       6.297   2.501  -3.127  0.00  0.00     0.063 H 
ATOM     26  C   LIG d   1       5.544  -0.745  -3.676  0.00  0.00     0.130 A 
ATOM     27  H   LIG d   1       4.385   0.955  -3.077  0.00  0.00     0.065 H 
ATOM     28  C   LIG d   1       6.803  -1.213  -4.029  0.00  0.00    -0.019 A 
ATOM     29  C   LIG d   1       7.877  -0.349  -4.065  0.00  0.00    -0.048 A 
ATOM     30  H   LIG d   1       6.940  -2.255  -4.282  0.00  0.00     0.065 H 
ATOM     31  H   LIG d   1       8.855  -0.713  -4.346  0.00  0.00     0.063 H 
BRANCH  26  32
ATOM     32  O   LIG d   1       4.487  -1.598  -3.648  0.00  0.00    -0.406 OA
BRANCH  32  33
ATOM     33  C   LIG d   1       3.752  -1.679  -2.425  0.00  0.00     0.575 C 
ATOM     34  F   LIG d   1       2.520  -1.033  -2.579  0.00  0.00    -0.133 F 
ATOM     35  F   LIG d   1       3.537  -3.021  -2.099  0.00  0.00    -0.133 F 
ATOM     36  F   LIG d   1       4.478  -1.060  -1.402  0.00  0.00    -0.133 F 
ENDBRANCH  32  33
ENDBRANCH  26  32
ENDBRANCH  20  22
ENDBRANCH   9  17
BRANCH   1  37
ATOM     37  C   LIG d   1      11.313   4.814  -5.773  0.00  0.00     0.031 C 
ATOM     38  H   LIG d   1      11.476   3.833  -5.302  0.00  0.00     0.048 H 
ATOM     39  H   LIG d   1      12.280   5.236  -6.085  0.00  0.00     0.048 H 
BRANCH  37  40
ATOM     40  C   LIG d   1      10.424   4.651  -6.979  0.00  0.00     0.004 A 
ATOM     41  C   LIG d   1      10.102   5.560  -7.931  0.00  0.00    -0.050 A 
ATOM     42  C   LIG d   1       9.260   5.183  -8.960  0.00  0.00    -0.054 A 
ATOM     43  H   LIG d   1      10.500   6.563  -7.888  0.00  0.00     0.063 H 
ATOM     44  C   LIG d   1       8.773   3.918  -8.981  0.00  0.00    -0.024 A 
ATOM     45  H   LIG d   1       8.992   5.886  -9.735  0.00  0.00     0.062 H 
ATOM     46  S   LIG d   1       9.514   3.213  -7.518  0.00  0.00    -0.100 SA
ATOM     47  H   LIG d   1       8.108   3.457  -9.697  0.00  0.00     0.069 H 
ENDBRANCH  37  40
ENDBRANCH   1  37
TORSDOF 6
ENDMDL
MODEL 6
REMARK VINA RESULT:      -6.6      7.313      9.079
REMARK  6 active torsions:
REMARK  status: ('A' for Active; 'I' for Inactive)
REMARK    1  A    between atoms: C_3  and  C_6 
REMARK    2  A    between atoms: C_6  and  N_7 
REMARK    3  A    between atoms: C_15  and  C_17 
REMARK    4  A    between atoms: C_19  and  C_22 
REMARK    5  A    between atoms: C_25  and  O_28 
REMARK    6  A    between atoms: O_28  and  C_29 
ROOT
ATOM      1  N   LIG d   1       6.387  -8.537  -6.340  0.00  0.00    -0.281 N 
ATOM      2  C   LIG d   1       7.322  -9.503  -6.942  0.00  0.00     0.044 C 
ATOM      3  C   LIG d   1       6.898  -9.746  -8.369  0.00  0.00     0.076 A 
ATOM      4  C   LIG d   1       6.053  -8.931  -9.041  0.00  0.00     0.042 A 
ATOM      5  N   LIG d   1       5.896  -9.453 -10.285  0.00  0.00    -0.348 N 
ATOM      6  C   LIG d   1       6.654 -10.576 -10.340  0.00  0.00     0.094 A 
ATOM      7  N   LIG d   1       7.249 -10.740  -9.187  0.00  0.00    -0.239 NA
ATOM      8  C   LIG d   1       5.443  -7.690  -8.442  0.00  0.00     0.014 C 
ATOM      9  C   LIG d   1       6.238  -7.339  -7.176  0.00  0.00     0.096 C 
ATOM     10  H   LIG d   1       7.247  -6.983  -7.428  0.00  0.00     0.057 H 
ATOM     11  H   LIG d   1       8.342  -9.091  -6.917  0.00  0.00     0.049 H 
ATOM     12  H   LIG d   1       7.292 -10.445  -6.375  0.00  0.00     0.049 H 
ATOM     13  H   LIG d   1       6.806 -11.234 -11.079  0.00  0.00     0.103 H 
ATOM     14  H   LIG d   1       5.500  -6.866  -9.169  0.00  0.00     0.035 H 
ATOM     15  H   LIG d   1       4.390  -7.883  -8.190  0.00  0.00     0.035 H 
ATOM     16  H   LIG d   1       5.242  -8.953 -11.014  0.00  0.00     0.167 HD
ENDROOT
BRANCH   9  17
ATOM     17  C   LIG d   1       5.503  -6.275  -6.402  0.00  0.00     0.245 A 
ATOM     18  O   LIG d   1       4.318  -6.408  -5.798  0.00  0.00    -0.336 OA
ATOM     19  N   LIG d   1       4.005  -5.366  -5.261  0.00  0.00    -0.056 NA
ATOM     20  C   LIG d   1       4.933  -4.465  -5.455  0.00  0.00     0.202 A 
ATOM     21  N   LIG d   1       5.909  -5.048  -6.189  0.00  0.00    -0.190 NA
BRANCH  20  22
ATOM     22  C   LIG d   1       4.921  -3.066  -4.960  0.00  0.00     0.023 A 
ATOM     23  C   LIG d   1       4.576  -2.025  -5.820  0.00  0.00    -0.048 A 
ATOM     24  C   LIG d   1       4.565  -0.726  -5.357  0.00  0.00    -0.019 A 
ATOM     25  H   LIG d   1       4.318  -2.235  -6.847  0.00  0.00     0.063 H 
ATOM     26  C   LIG d   1       4.895  -0.455  -4.035  0.00  0.00     0.130 A 
ATOM     27  H   LIG d   1       4.297   0.081  -6.022  0.00  0.00     0.065 H 
ATOM     28  C   LIG d   1       5.239  -1.491  -3.177  0.00  0.00    -0.019 A 
ATOM     29  C   LIG d   1       5.246  -2.792  -3.633  0.00  0.00    -0.048 A 
ATOM     30  H   LIG d   1       5.496  -1.278  -2.149  0.00  0.00     0.065 H 
ATOM     31  H   LIG d   1       5.509  -3.599  -2.963  0.00  0.00     0.063 H 
BRANCH  26  32
ATOM     32  O   LIG d   1       4.883   0.825  -3.582  0.00  0.00    -0.406 OA
BRANCH  32  33
ATOM     33  C   LIG d   1       3.789   1.208  -2.747  0.00  0.00     0.575 C 
ATOM     34  F   LIG d   1       2.754   0.276  -2.880  0.00  0.00    -0.133 F 
ATOM     35  F   LIG d   1       4.211   1.250  -1.415  0.00  0.00    -0.133 F 
ATOM     36  F   LIG d   1       3.329   2.472  -3.130  0.00  0.00    -0.133 F 
ENDBRANCH  32  33
ENDBRANCH  26  32
ENDBRANCH  20  22
ENDBRANCH   9  17
BRANCH   1  37
ATOM     37  C   LIG d   1       6.804  -8.180  -4.977  0.00  0.00     0.031 C 
ATOM     38  H   LIG d   1       6.423  -7.179  -4.728  0.00  0.00     0.048 H 
ATOM     39  H   LIG d   1       7.903  -8.181  -4.918  0.00  0.00     0.048 H 
BRANCH  37  40
ATOM     40  C   LIG d   1       6.248  -9.186  -4.002  0.00  0.00     0.004 A 
ATOM     41  C   LIG d   1       5.009  -9.732  -3.952  0.00  0.00    -0.050 A 
ATOM     42  C   LIG d   1       4.721 -10.649  -2.957  0.00  0.00    -0.054 A 
ATOM     43  H   LIG d   1       4.260  -9.458  -4.678  0.00  0.00     0.063 H 
ATOM     44  C   LIG d   1       5.683 -10.967  -2.057  0.00  0.00    -0.024 A 
ATOM     45  H   LIG d   1       3.743 -11.103  -2.898  0.00  0.00     0.062 H 
ATOM     46  S   LIG d   1       7.051  -9.961  -2.608  0.00  0.00    -0.100 SA
ATOM     47  H   LIG d   1       5.634 -11.651  -1.222  0.00  0.00     0.069 H 
ENDBRANCH  37  40
ENDBRANCH   1  37
TORSDOF 6
ENDMDL
MODEL 7
REMARK VINA RESULT:      -6.6      5.041      9.293
REMARK  6 active torsions:
REMARK  status: ('A' for Active; 'I' for Inactive)
REMARK    1  A    between atoms: C_3  and  C_6 
REMARK    2  A    between atoms: C_6  and  N_7 
REMARK    3  A    between atoms: C_15  and  C_17 
REMARK    4  A    between atoms: C_19  and  C_22 
REMARK    5  A    between atoms: C_25  and  O_28 
REMARK    6  A    between atoms: O_28  and  C_29 
ROOT
ATOM      1  N   LIG d   1       9.645   6.183  -3.429  0.00  0.00    -0.281 N 
ATOM      2  C   LIG d   1      10.309   7.471  -3.163  0.00  0.00     0.044 C 
ATOM      3  C   LIG d   1      10.905   7.420  -1.778  0.00  0.00     0.076 A 
ATOM      4  C   LIG d   1      11.100   6.268  -1.097  0.00  0.00     0.042 A 
ATOM      5  N   LIG d   1      11.644   6.598   0.103  0.00  0.00    -0.348 N 
ATOM      6  C   LIG d   1      11.771   7.948   0.120  0.00  0.00     0.094 A 
ATOM      7  N   LIG d   1      11.324   8.428  -1.012  0.00  0.00    -0.239 NA
ATOM      8  C   LIG d   1      10.747   4.909  -1.644  0.00  0.00     0.014 C 
ATOM      9  C   LIG d   1      10.540   5.050  -3.158  0.00  0.00     0.096 C 
ATOM     10  H   LIG d   1      11.491   5.249  -3.671  0.00  0.00     0.057 H 
ATOM     11  H   LIG d   1      11.102   7.635  -3.908  0.00  0.00     0.049 H 
ATOM     12  H   LIG d   1       9.572   8.284  -3.226  0.00  0.00     0.049 H 
ATOM     13  H   LIG d   1      12.129   8.568   0.819  0.00  0.00     0.103 H 
ATOM     14  H   LIG d   1      11.568   4.206  -1.435  0.00  0.00     0.035 H 
ATOM     15  H   LIG d   1       9.825   4.548  -1.164  0.00  0.00     0.035 H 
ATOM     16  H   LIG d   1      11.889   5.813   0.832  0.00  0.00     0.167 HD
ENDROOT
BRANCH   9  17
ATOM     17  C   LIG d   1       9.925   3.785  -3.700  0.00  0.00     0.245 A 
ATOM     18  O   LIG d   1      10.352   3.082  -4.753  0.00  0.00    -0.336 OA
ATOM     19  N   LIG d   1       9.639   2.116  -4.926  0.00  0.00    -0.056 NA
ATOM     20  C   LIG d   1       8.692   2.090  -4.022  0.00  0.00     0.202 A 
ATOM     21  N   LIG d   1       8.875   3.165  -3.222  0.00  0.00    -0.190 NA
BRANCH  20  22
ATOM     22  C   LIG d   1       7.623   1.069  -3.897  0.00  0.00     0.023 A 
ATOM     23  C   LIG d   1       7.887  -0.261  -4.218  0.00  0.00    -0.048 A 
ATOM     24  C   LIG d   1       6.891  -1.208  -4.100  0.00  0.00    -0.019 A 
ATOM     25  H   LIG d   1       8.870  -0.550  -4.558  0.00  0.00     0.063 H 
ATOM     26  C   LIG d   1       5.626  -0.837  -3.661  0.00  0.00     0.130 A 
ATOM     27  H   LIG d   1       7.095  -2.239  -4.347  0.00  0.00     0.065 H 
ATOM     28  C   LIG d   1       5.361   0.488  -3.342  0.00  0.00    -0.019 A 
ATOM     29  C   LIG d   1       6.355   1.438  -3.451  0.00  0.00    -0.048 A 
ATOM     30  H   LIG d   1       4.377   0.775  -3.001  0.00  0.00     0.065 H 
ATOM     31  H   LIG d   1       6.149   2.468  -3.197  0.00  0.00     0.063 H 
BRANCH  26  32
ATOM     32  O   LIG d   1       4.647  -1.771  -3.546  0.00  0.00    -0.406 OA
BRANCH  32  33
ATOM     33  C   LIG d   1       3.871  -1.753  -2.346  0.00  0.00     0.575 C 
ATOM     34  F   LIG d   1       3.503  -3.060  -2.010  0.00  0.00    -0.133 F 
ATOM     35  F   LIG d   1       4.628  -1.199  -1.309  0.00  0.00    -0.133 F 
ATOM     36  F   LIG d   1       2.721  -0.982  -2.547  0.00  0.00    -0.133 F 
ENDBRANCH  32  33
ENDBRANCH  26  32
ENDBRANCH  20  22
ENDBRANCH   9  17
BRANCH   1  37
ATOM     37  C   LIG d   1       9.129   6.131  -4.803  0.00  0.00     0.031 C 
ATOM     38  H   LIG d   1       8.033   6.232  -4.788  0.00  0.00     0.048 H 
ATOM     39  H   LIG d   1       9.402   5.168  -5.261  0.00  0.00     0.048 H 
BRANCH  37  40
ATOM     40  C   LIG d   1       9.726   7.257  -5.608  0.00  0.00     0.004 A 
ATOM     41  C   LIG d   1       9.159   8.426  -5.991  0.00  0.00    -0.050 A 
ATOM     42  C   LIG d   1       9.908   9.322  -6.732  0.00  0.00    -0.054 A 
ATOM     43  H   LIG d   1       8.140   8.656  -5.721  0.00  0.00     0.063 H 
ATOM     44  C   LIG d   1      11.183   9.000  -7.060  0.00  0.00    -0.024 A 
ATOM     45  H   LIG d   1       9.482  10.264  -7.046  0.00  0.00     0.062 H 
ATOM     46  S   LIG d   1      11.363   7.391  -6.309  0.00  0.00    -0.100 SA
ATOM     47  H   LIG d   1      11.903   9.570  -7.629  0.00  0.00     0.069 H 
ENDBRANCH  37  40
ENDBRANCH   1  37
TORSDOF 6
ENDMDL
MODEL 8
REMARK VINA RESULT:      -6.6      8.279     11.501
REMARK  6 active torsions:
REMARK  status: ('A' for Active; 'I' for Inactive)
REMARK    1  A    between atoms: C_3  and  C_6 
REMARK    2  A    between atoms: C_6  and  N_7 
REMARK    3  A    between atoms: C_15  and  C_17 
REMARK    4  A    between atoms: C_19  and  C_22 
REMARK    5  A    between atoms: C_25  and  O_28 
REMARK    6  A    between atoms: O_28  and  C_29 
ROOT
ATOM      1  N   LIG d   1       4.735  -1.585  -5.641  0.00  0.00    -0.281 N 
ATOM      2  C   LIG d   1       5.313  -0.279  -5.279  0.00  0.00     0.044 C 
ATOM      3  C   LIG d   1       4.999  -0.007  -3.829  0.00  0.00     0.076 A 
ATOM      4  C   LIG d   1       4.598  -0.966  -2.964  0.00  0.00     0.042 A 
ATOM      5  N   LIG d   1       4.405  -0.367  -1.761  0.00  0.00    -0.348 N 
ATOM      6  C   LIG d   1       4.699   0.947  -1.923  0.00  0.00     0.094 A 
ATOM      7  N   LIG d   1       5.053   1.150  -3.166  0.00  0.00    -0.239 NA
ATOM      8  C   LIG d   1       4.421  -2.412  -3.350  0.00  0.00     0.014 C 
ATOM      9  C   LIG d   1       5.136  -2.632  -4.691  0.00  0.00     0.096 C 
ATOM     10  H   LIG d   1       6.227  -2.572  -4.573  0.00  0.00     0.057 H 
ATOM     11  H   LIG d   1       6.402  -0.306  -5.430  0.00  0.00     0.049 H 
ATOM     12  H   LIG d   1       4.873   0.504  -5.913  0.00  0.00     0.049 H 
ATOM     13  H   LIG d   1       4.683   1.711  -1.277  0.00  0.00     0.103 H 
ATOM     14  H   LIG d   1       4.861  -3.055  -2.573  0.00  0.00     0.035 H 
ATOM     15  H   LIG d   1       3.349  -2.638  -3.447  0.00  0.00     0.035 H 
ATOM     16  H   LIG d   1       4.072  -0.960  -0.897  0.00  0.00     0.167 HD
ENDROOT
BRANCH   9  17
ATOM     17  C   LIG d   1       4.758  -3.982  -5.245  0.00  0.00     0.245 A 
ATOM     18  O   LIG d   1       3.617  -4.294  -5.868  0.00  0.00    -0.336 OA
ATOM     19  N   LIG d   1       3.626  -5.463  -6.191  0.00  0.00    -0.056 NA
ATOM     20  C   LIG d   1       4.749  -6.023  -5.820  0.00  0.00     0.202 A 
ATOM     21  N   LIG d   1       5.489  -5.068  -5.211  0.00  0.00    -0.190 NA
BRANCH  20  22
ATOM     22  C   LIG d   1       5.140  -7.439  -6.032  0.00  0.00     0.023 A 
ATOM     23  C   LIG d   1       4.591  -8.163  -7.089  0.00  0.00    -0.048 A 
ATOM     24  C   LIG d   1       4.956  -9.479  -7.283  0.00  0.00    -0.019 A 
ATOM     25  H   LIG d   1       3.882  -7.695  -7.754  0.00  0.00     0.063 H 
ATOM     26  C   LIG d   1       5.870 -10.081  -6.428  0.00  0.00     0.130 A 
ATOM     27  H   LIG d   1       4.533 -10.040  -8.102  0.00  0.00     0.065 H 
ATOM     28  C   LIG d   1       6.416  -9.362  -5.374  0.00  0.00    -0.019 A 
ATOM     29  C   LIG d   1       6.060  -8.044  -5.179  0.00  0.00    -0.048 A 
ATOM     30  H   LIG d   1       7.127  -9.833  -4.710  0.00  0.00     0.065 H 
ATOM     31  H   LIG d   1       6.490  -7.483  -4.361  0.00  0.00     0.063 H 
BRANCH  26  32
ATOM     32  O   LIG d   1       6.227 -11.378  -6.621  0.00  0.00    -0.406 OA
BRANCH  32  33
ATOM     33  C   LIG d   1       5.688 -12.342  -5.716  0.00  0.00     0.575 C 
ATOM     34  F   LIG d   1       4.439 -11.906  -5.261  0.00  0.00    -0.133 F 
ATOM     35  F   LIG d   1       5.544 -13.568  -6.371  0.00  0.00    -0.133 F 
ATOM     36  F   LIG d   1       6.553 -12.494  -4.627  0.00  0.00    -0.133 F 
ENDBRANCH  32  33
ENDBRANCH  26  32
ENDBRANCH  20  22
ENDBRANCH   9  17
BRANCH   1  37
ATOM     37  C   LIG d   1       5.091  -1.956  -7.016  0.00  0.00     0.031 C 
ATOM     38  H   LIG d   1       5.333  -3.029  -7.056  0.00  0.00     0.048 H 
ATOM     39  H   LIG d   1       5.965  -1.371  -7.339  0.00  0.00     0.048 H 
BRANCH  37  40
ATOM     40  C   LIG d   1       3.929  -1.669  -7.932  0.00  0.00     0.004 A 
ATOM     41  C   LIG d   1       3.148  -0.564  -7.998  0.00  0.00    -0.050 A 
ATOM     42  C   LIG d   1       2.129  -0.519  -8.931  0.00  0.00    -0.054 A 
ATOM     43  H   LIG d   1       3.321   0.270  -7.335  0.00  0.00     0.063 H 
ATOM     44  C   LIG d   1       1.935  -1.586  -9.745  0.00  0.00    -0.024 A 
ATOM     45  H   LIG d   1       1.495   0.352  -9.009  0.00  0.00     0.062 H 
ATOM     46  S   LIG d   1       3.219  -2.700  -9.205  0.00  0.00    -0.100 SA
ATOM     47  H   LIG d   1       1.194  -1.724 -10.518  0.00  0.00     0.069 H 
ENDBRANCH  37  40
ENDBRANCH   1  37
TORSDOF 6
ENDMDL
MODEL 9
REMARK VINA RESULT:      -6.4      2.807      3.238
REMARK  6 active torsions:
REMARK  status: ('A' for Active; 'I' for Inactive)
REMARK    1  A    between atoms: C_3  and  C_6 
REMARK    2  A    between atoms: C_6  and  N_7 
REMARK    3  A    between atoms: C_15  and  C_17 
REMARK    4  A    between atoms: C_19  and  C_22 
REMARK    5  A    between atoms: C_25  and  O_28 
REMARK    6  A    between atoms: O_28  and  C_29 
ROOT
ATOM      1  N   LIG d   1       7.266  -1.430  -4.487  0.00  0.00    -0.281 N 
ATOM      2  C   LIG d   1       7.339  -2.881  -4.245  0.00  0.00     0.044 C 
ATOM      3  C   LIG d   1       7.745  -3.557  -5.530  0.00  0.00     0.076 A 
ATOM      4  C   LIG d   1       8.298  -2.895  -6.573  0.00  0.00     0.042 A 
ATOM      5  N   LIG d   1       8.529  -3.809  -7.551  0.00  0.00    -0.348 N 
ATOM      6  C   LIG d   1       8.114  -5.009  -7.076  0.00  0.00     0.094 A 
ATOM      7  N   LIG d   1       7.647  -4.844  -5.865  0.00  0.00    -0.239 NA
ATOM      8  C   LIG d   1       8.570  -1.413  -6.567  0.00  0.00     0.014 C 
ATOM      9  C   LIG d   1       8.497  -0.927  -5.112  0.00  0.00     0.096 C 
ATOM     10  H   LIG d   1       9.346  -1.305  -4.525  0.00  0.00     0.057 H 
ATOM     11  H   LIG d   1       8.082  -3.086  -3.460  0.00  0.00     0.049 H 
ATOM     12  H   LIG d   1       6.354  -3.249  -3.922  0.00  0.00     0.049 H 
ATOM     13  H   LIG d   1       8.118  -5.920  -7.490  0.00  0.00     0.103 H 
ATOM     14  H   LIG d   1       9.571  -1.223  -6.983  0.00  0.00     0.035 H 
ATOM     15  H   LIG d   1       7.816  -0.898  -7.180  0.00  0.00     0.035 H 
ATOM     16  H   LIG d   1       8.978  -3.494  -8.504  0.00  0.00     0.167 HD
ENDROOT
BRANCH   9  17
ATOM     17  C   LIG d   1       8.493   0.580  -5.087  0.00  0.00     0.245 A 
ATOM     18  O   LIG d   1       7.795   1.386  -5.893  0.00  0.00    -0.336 OA
ATOM     19  N   LIG d   1       8.011   2.546  -5.611  0.00  0.00    -0.056 NA
ATOM     20  C   LIG d   1       8.855   2.615  -4.614  0.00  0.00     0.202 A 
ATOM     21  N   LIG d   1       9.167   1.345  -4.265  0.00  0.00    -0.190 NA
BRANCH  20  22
ATOM     22  C   LIG d   1       9.370   3.853  -3.980  0.00  0.00     0.023 A 
ATOM     23  C   LIG d   1       9.210   5.083  -4.619  0.00  0.00    -0.048 A 
ATOM     24  C   LIG d   1       9.689   6.232  -4.027  0.00  0.00    -0.019 A 
ATOM     25  H   LIG d   1       8.711   5.134  -5.574  0.00  0.00     0.063 H 
ATOM     26  C   LIG d   1      10.330   6.167  -2.797  0.00  0.00     0.130 A 
ATOM     27  H   LIG d   1       9.565   7.184  -4.521  0.00  0.00     0.065 H 
ATOM     28  C   LIG d   1      10.491   4.944  -2.160  0.00  0.00    -0.019 A 
ATOM     29  C   LIG d   1      10.008   3.792  -2.743  0.00  0.00    -0.048 A 
ATOM     30  H   LIG d   1      10.990   4.896  -1.202  0.00  0.00     0.065 H 
ATOM     31  H   LIG d   1      10.130   2.841  -2.244  0.00  0.00     0.063 H 
BRANCH  26  32
ATOM     32  O   LIG d   1      10.802   7.301  -2.217  0.00  0.00    -0.406 OA
BRANCH  32  33
ATOM     33  C   LIG d   1      10.025   7.857  -1.154  0.00  0.00     0.575 C 
ATOM     34  F   LIG d   1       8.682   7.503  -1.324  0.00  0.00    -0.133 F 
ATOM     35  F   LIG d   1      10.487   7.362   0.069  0.00  0.00    -0.133 F 
ATOM     36  F   LIG d   1      10.145   9.251  -1.168  0.00  0.00    -0.133 F 
ENDBRANCH  32  33
ENDBRANCH  26  32
ENDBRANCH  20  22
ENDBRANCH   9  17
BRANCH   1  37
ATOM     37  C   LIG d   1       6.972  -0.703  -3.244  0.00  0.00     0.031 C 
ATOM     38  H   LIG d   1       7.616   0.185  -3.178  0.00  0.00     0.048 H 
ATOM     39  H   LIG d   1       7.162  -1.360  -2.382  0.00  0.00     0.048 H 
BRANCH  37  40
ATOM     40  C   LIG d   1       5.526  -0.277  -3.242  0.00  0.00     0.004 A 
ATOM     41  C   LIG d   1       4.828   0.369  -2.277  0.00  0.00    -0.050 A 
ATOM     42  C   LIG d   1       3.496   0.663  -2.498  0.00  0.00    -0.054 A 
ATOM     43  H   LIG d   1       5.306   0.652  -1.352  0.00  0.00     0.063 H 
ATOM     44  C   LIG d   1       2.924   0.288  -3.668  0.00  0.00    -0.024 A 
ATOM     45  H   LIG d   1       2.917   1.183  -1.747  0.00  0.00     0.062 H 
ATOM     46  S   LIG d   1       4.286  -0.502  -4.507  0.00  0.00    -0.100 SA
ATOM     47  H   LIG d   1       1.908   0.430  -4.004  0.00  0.00     0.069 H 
ENDBRANCH  37  40
ENDBRANCH   1  37
TORSDOF 6
ENDMDL
MODEL 10
REMARK VINA RESULT:      -6.3      6.850      9.516
REMARK  6 active torsions:
REMARK  status: ('A' for Active; 'I' for Inactive)
REMARK    1  A    between atoms: C_3  and  C_6 
REMARK    2  A    between atoms: C_6  and  N_7 
REMARK    3  A    between atoms: C_15  and  C_17 
REMARK    4  A    between atoms: C_19  and  C_22 
REMARK    5  A    between atoms: C_25  and  O_28 
REMARK    6  A    between atoms: O_28  and  C_29 
ROOT
ATOM      1  N   LIG d   1      11.397  -5.682  -3.406  0.00  0.00    -0.281 N 
ATOM      2  C   LIG d   1      12.447  -6.650  -3.045  0.00  0.00     0.044 C 
ATOM      3  C   LIG d   1      12.018  -7.370  -1.791  0.00  0.00     0.076 A 
ATOM      4  C   LIG d   1      10.745  -7.370  -1.336  0.00  0.00     0.042 A 
ATOM      5  N   LIG d   1      10.727  -8.108  -0.195  0.00  0.00    -0.348 N 
ATOM      6  C   LIG d   1      11.994  -8.542   0.014  0.00  0.00     0.094 A 
ATOM      7  N   LIG d   1      12.758  -8.093  -0.949  0.00  0.00    -0.239 NA
ATOM      8  C   LIG d   1       9.613  -6.656  -2.029  0.00  0.00     0.014 C 
ATOM      9  C   LIG d   1      10.074  -6.317  -3.454  0.00  0.00     0.096 C 
ATOM     10  H   LIG d   1      10.163  -7.225  -4.067  0.00  0.00     0.057 H 
ATOM     11  H   LIG d   1      12.580  -7.370  -3.866  0.00  0.00     0.049 H 
ATOM     12  H   LIG d   1      13.393  -6.116  -2.869  0.00  0.00     0.049 H 
ATOM     13  H   LIG d   1      12.386  -9.109   0.740  0.00  0.00     0.103 H 
ATOM     14  H   LIG d   1       8.730  -7.311  -2.059  0.00  0.00     0.035 H 
ATOM     15  H   LIG d   1       9.367  -5.736  -1.478  0.00  0.00     0.035 H 
ATOM     16  H   LIG d   1       9.786  -8.246   0.356  0.00  0.00     0.167 HD
ENDROOT
BRANCH   9  17
ATOM     17  C   LIG d   1       9.086  -5.372  -4.088  0.00  0.00     0.245 A 
ATOM     18  O   LIG d   1       8.648  -5.409  -5.350  0.00  0.00    -0.336 OA
ATOM     19  N   LIG d   1       7.858  -4.509  -5.544  0.00  0.00    -0.056 NA
ATOM     20  C   LIG d   1       7.702  -3.806  -4.451  0.00  0.00     0.202 A 
ATOM     21  N   LIG d   1       8.490  -4.363  -3.503  0.00  0.00    -0.190 NA
BRANCH  20  22
ATOM     22  C   LIG d   1       6.822  -2.624  -4.283  0.00  0.00     0.023 A 
ATOM     23  C   LIG d   1       5.526  -2.639  -4.796  0.00  0.00    -0.048 A 
ATOM     24  C   LIG d   1       4.711  -1.539  -4.638  0.00  0.00    -0.019 A 
ATOM     25  H   LIG d   1       5.162  -3.512  -5.317  0.00  0.00     0.063 H 
ATOM     26  C   LIG d   1       5.178  -0.417  -3.967  0.00  0.00     0.130 A 
ATOM     27  H   LIG d   1       3.706  -1.551  -5.035  0.00  0.00     0.065 H 
ATOM     28  C   LIG d   1       6.469  -0.399  -3.455  0.00  0.00    -0.019 A 
ATOM     29  C   LIG d   1       7.286  -1.499  -3.604  0.00  0.00    -0.048 A 
ATOM     30  H   LIG d   1       6.830   0.475  -2.933  0.00  0.00     0.065 H 
ATOM     31  H   LIG d   1       8.289  -1.486  -3.201  0.00  0.00     0.063 H 
BRANCH  26  32
ATOM     32  O   LIG d   1       4.372   0.666  -3.812  0.00  0.00    -0.406 OA
BRANCH  32  33
ATOM     33  C   LIG d   1       3.558   0.706  -2.639  0.00  0.00     0.575 C 
ATOM     34  F   LIG d   1       4.287   0.219  -1.549  0.00  0.00    -0.133 F 
ATOM     35  F   LIG d   1       3.168   2.025  -2.387  0.00  0.00    -0.133 F 
ATOM     36  F   LIG d   1       2.422  -0.087  -2.832  0.00  0.00    -0.133 F 
ENDBRANCH  32  33
ENDBRANCH  26  32
ENDBRANCH  20  22
ENDBRANCH   9  17
BRANCH   1  37
ATOM     37  C   LIG d   1      11.709  -5.017  -4.678  0.00  0.00     0.031 C 
ATOM     38  H   LIG d   1      10.792  -4.925  -5.278  0.00  0.00     0.048 H 
ATOM     39  H   LIG d   1      12.451  -5.612  -5.231  0.00  0.00     0.048 H 
BRANCH  37  40
ATOM     40  C   LIG d   1      12.270  -3.645  -4.404  0.00  0.00     0.004 A 
ATOM     41  C   LIG d   1      11.660  -2.439  -4.498  0.00  0.00    -0.050 A 
ATOM     42  C   LIG d   1      12.379  -1.299  -4.190  0.00  0.00    -0.054 A 
ATOM     43  H   LIG d   1      10.628  -2.369  -4.806  0.00  0.00     0.063 H 
ATOM     44  C   LIG d   1      13.675  -1.421  -3.813  0.00  0.00    -0.024 A 
ATOM     45  H   LIG d   1      11.915  -0.325  -4.251  0.00  0.00     0.062 H 
ATOM     46  S   LIG d   1      13.914  -3.188  -3.879  0.00  0.00    -0.100 SA
ATOM     47  H   LIG d   1      14.380  -0.648  -3.543  0.00  0.00     0.069 H 
ENDBRANCH  37  40
ENDBRANCH   1  37
TORSDOF 6
ENDMDL
