MODEL 1
REMARK VINA RESULT:      -5.9      0.000      0.000
REMARK  6 active torsions:
REMARK  status: ('A' for Active; 'I' for Inactive)
REMARK    1  A    between atoms: C_1  and  C_2 
REMARK    2  A    between atoms: C_2  and  C_3 
REMARK    3  A    between atoms: C_6  and  C_19 
REMARK    4  A    between atoms: N_7  and  C_9 
REMARK    5  A    between atoms: C_9  and  C_10 
REMARK    6  A    between atoms: C_10  and  C_12 
ROOT
ATOM      1  C   LIG d   1       4.720  -0.569  -2.547  0.00  0.00     0.016 A 
ATOM      2  C   LIG d   1       4.013  -1.744  -2.351  0.00  0.00    -0.047 A 
ATOM      3  C   LIG d   1       4.240  -2.804  -3.216  0.00  0.00     0.005 A 
ATOM      4  C   LIG d   1       5.159  -2.654  -4.237  0.00  0.00     0.181 A 
ATOM      5  N   LIG d   1       5.816  -1.521  -4.393  0.00  0.00    -0.194 N 
ATOM      6  C   LIG d   1       5.620  -0.490  -3.593  0.00  0.00     0.175 A 
ATOM      7  H   LIG d   1       3.301  -1.833  -1.544  0.00  0.00     0.062 H 
ATOM      8  H   LIG d   1       3.708  -3.735  -3.093  0.00  0.00     0.068 H 
ATOM      9  H   LIG d   1       6.172   0.424  -3.756  0.00  0.00     0.138 H 
ENDROOT
BRANCH   5  10
ATOM     10  C   LIG d   1       6.782  -1.401  -5.487  0.00  0.00     0.213 C 
ATOM     11  H   LIG d   1       7.767  -1.172  -5.080  0.00  0.00     0.112 H 
ATOM     12  H   LIG d   1       6.826  -2.342  -6.037  0.00  0.00     0.112 H 
BRANCH  10  13
ATOM     13  C   LIG d   1       6.354  -0.295  -6.418  0.00  0.00     0.228 C 
ATOM     14  O   LIG d   1       6.925   0.774  -6.391  0.00  0.00    -0.285 OA
BRANCH  13  15
ATOM     15  C   LIG d   1       5.243  -0.514  -7.357  0.00  0.00     0.024 A 
ATOM     16  C   LIG d   1       3.946  -0.113  -7.016  0.00  0.00    -0.050 A 
ATOM     17  C   LIG d   1       2.911  -0.317  -7.903  0.00  0.00    -0.048 A 
ATOM     18  H   LIG d   1       3.758   0.358  -6.064  0.00  0.00     0.062 H 
ATOM     19  C   LIG d   1       3.149  -0.926  -9.124  0.00  0.00     0.013 A 
ATOM     20  H   LIG d   1       1.910  -0.004  -7.644  0.00  0.00     0.063 H 
ATOM     21  C   LIG d   1       4.429  -1.331  -9.465  0.00  0.00    -0.048 A 
ATOM     22  I   LIG d   1       1.567  -1.238 -10.461  0.00  0.00    -0.044 I 
ATOM     23  C   LIG d   1       5.476  -1.128  -8.591  0.00  0.00    -0.050 A 
ATOM     24  H   LIG d   1       4.608  -1.805 -10.419  0.00  0.00     0.063 H 
ATOM     25  H   LIG d   1       6.474  -1.443  -8.859  0.00  0.00     0.062 H 
ENDBRANCH  13  15
ENDBRANCH  10  13
ENDBRANCH   5  10
BRANCH   4  26
ATOM     26  C   LIG d   1       5.416  -3.799  -5.183  0.00  0.00     0.021 C 
ATOM     27  H   LIG d   1       6.490  -3.933  -5.309  0.00  0.00     0.034 H 
ATOM     28  H   LIG d   1       4.980  -4.711  -4.776  0.00  0.00     0.034 H 
ATOM     29  H   LIG d   1       4.962  -3.579  -6.150  0.00  0.00     0.034 H 
ENDBRANCH   4  26
BRANCH   1  30
ATOM     30  C   LIG d   1       4.509   0.611  -1.634  0.00  0.00    -0.025 C 
ATOM     31  H   LIG d   1       5.471   1.063  -1.394  0.00  0.00     0.031 H 
ATOM     32  H   LIG d   1       4.025   0.278  -0.716  0.00  0.00     0.031 H 
BRANCH  30  33
ATOM     33  C   LIG d   1       3.621   1.644  -2.332  0.00  0.00    -0.061 C 
ATOM     34  H   LIG d   1       2.680   1.738  -1.791  0.00  0.00     0.023 H 
ATOM     35  H   LIG d   1       4.130   2.608  -2.348  0.00  0.00     0.023 H 
ATOM     36  H   LIG d   1       3.423   1.321  -3.354  0.00  0.00     0.023 H 
ENDBRANCH  30  33
ENDBRANCH   1  30
TORSDOF 6
ENDMDL
MODEL 2
REMARK VINA RESULT:      -5.8      1.452      2.082
REMARK  6 active torsions:
REMARK  status: ('A' for Active; 'I' for Inactive)
REMARK    1  A    between atoms: C_1  and  C_2 
REMARK    2  A    between atoms: C_2  and  C_3 
REMARK    3  A    between atoms: C_6  and  C_19 
REMARK    4  A    between atoms: N_7  and  C_9 
REMARK    5  A    between atoms: C_9  and  C_10 
REMARK    6  A    between atoms: C_10  and  C_12 
ROOT
ATOM      1  C   LIG d   1       4.450  -0.603  -2.796  0.00  0.00     0.016 A 
ATOM      2  C   LIG d   1       4.289  -1.919  -2.390  0.00  0.00    -0.047 A 
ATOM      3  C   LIG d   1       4.353  -2.918  -3.350  0.00  0.00     0.005 A 
ATOM      4  C   LIG d   1       4.575  -2.571  -4.668  0.00  0.00     0.181 A 
ATOM      5  N   LIG d   1       4.726  -1.308  -5.018  0.00  0.00    -0.194 N 
ATOM      6  C   LIG d   1       4.664  -0.332  -4.133  0.00  0.00     0.175 A 
ATOM      7  H   LIG d   1       4.117  -2.161  -1.352  0.00  0.00     0.062 H 
ATOM      8  H   LIG d   1       4.233  -3.954  -3.070  0.00  0.00     0.068 H 
ATOM      9  H   LIG d   1       4.786   0.691  -4.459  0.00  0.00     0.138 H 
ENDROOT
BRANCH   5  10
ATOM     10  C   LIG d   1       4.960  -0.982  -6.427  0.00  0.00     0.213 C 
ATOM     11  H   LIG d   1       5.812  -0.307  -6.507  0.00  0.00     0.112 H 
ATOM     12  H   LIG d   1       5.167  -1.897  -6.982  0.00  0.00     0.112 H 
BRANCH  10  13
ATOM     13  C   LIG d   1       3.735  -0.314  -6.998  0.00  0.00     0.228 C 
ATOM     14  O   LIG d   1       3.292   0.686  -6.476  0.00  0.00    -0.285 OA
BRANCH  13  15
ATOM     15  C   LIG d   1       3.079  -0.876  -8.189  0.00  0.00     0.024 A 
ATOM     16  C   LIG d   1       3.409  -2.162  -8.631  0.00  0.00    -0.050 A 
ATOM     17  C   LIG d   1       2.788  -2.684  -9.744  0.00  0.00    -0.048 A 
ATOM     18  H   LIG d   1       4.145  -2.745  -8.098  0.00  0.00     0.062 H 
ATOM     19  C   LIG d   1       1.846  -1.935 -10.432  0.00  0.00     0.013 A 
ATOM     20  H   LIG d   1       3.036  -3.678 -10.084  0.00  0.00     0.063 H 
ATOM     21  C   LIG d   1       1.520  -0.660 -10.005  0.00  0.00    -0.048 A 
ATOM     22  I   LIG d   1       0.914  -2.736 -12.128  0.00  0.00    -0.044 I 
ATOM     23  C   LIG d   1       2.129  -0.126  -8.888  0.00  0.00    -0.050 A 
ATOM     24  H   LIG d   1       0.786  -0.081 -10.545  0.00  0.00     0.063 H 
ATOM     25  H   LIG d   1       1.873   0.869  -8.555  0.00  0.00     0.062 H 
ENDBRANCH  13  15
ENDBRANCH  10  13
ENDBRANCH   5  10
BRANCH   4  26
ATOM     26  C   LIG d   1       4.648  -3.648  -5.720  0.00  0.00     0.021 C 
ATOM     27  H   LIG d   1       5.216  -3.283  -6.576  0.00  0.00     0.034 H 
ATOM     28  H   LIG d   1       5.140  -4.528  -5.306  0.00  0.00     0.034 H 
ATOM     29  H   LIG d   1       3.640  -3.913  -6.040  0.00  0.00     0.034 H 
ENDBRANCH   4  26
BRANCH   1  30
ATOM     30  C   LIG d   1       4.389   0.518  -1.791  0.00  0.00    -0.025 C 
ATOM     31  H   LIG d   1       5.400   0.827  -1.528  0.00  0.00     0.031 H 
ATOM     32  H   LIG d   1       3.869   0.175  -0.896  0.00  0.00     0.031 H 
BRANCH  30  33
ATOM     33  C   LIG d   1       3.635   1.704  -2.396  0.00  0.00    -0.061 C 
ATOM     34  H   LIG d   1       2.568   1.594  -2.200  0.00  0.00     0.023 H 
ATOM     35  H   LIG d   1       3.993   2.630  -1.946  0.00  0.00     0.023 H 
ATOM     36  H   LIG d   1       3.806   1.733  -3.472  0.00  0.00     0.023 H 
ENDBRANCH  30  33
ENDBRANCH   1  30
TORSDOF 6
ENDMDL
MODEL 3
REMARK VINA RESULT:      -5.4      4.005      5.172
REMARK  6 active torsions:
REMARK  status: ('A' for Active; 'I' for Inactive)
REMARK    1  A    between atoms: C_1  and  C_2 
REMARK    2  A    between atoms: C_2  and  C_3 
REMARK    3  A    between atoms: C_6  and  C_19 
REMARK    4  A    between atoms: N_7  and  C_9 
REMARK    5  A    between atoms: C_9  and  C_10 
REMARK    6  A    between atoms: C_10  and  C_12 
ROOT
ATOM      1  C   LIG d   1       4.885  -1.210  -2.708  0.00  0.00     0.016 A 
ATOM      2  C   LIG d   1       4.293  -2.388  -3.135  0.00  0.00    -0.047 A 
ATOM      3  C   LIG d   1       4.872  -3.072  -4.193  0.00  0.00     0.005 A 
ATOM      4  C   LIG d   1       6.014  -2.561  -4.780  0.00  0.00     0.181 A 
ATOM      5  N   LIG d   1       6.551  -1.438  -4.346  0.00  0.00    -0.194 N 
ATOM      6  C   LIG d   1       6.023  -0.758  -3.347  0.00  0.00     0.175 A 
ATOM      7  H   LIG d   1       3.401  -2.764  -2.656  0.00  0.00     0.062 H 
ATOM      8  H   LIG d   1       4.438  -3.994  -4.551  0.00  0.00     0.068 H 
ATOM      9  H   LIG d   1       6.489   0.162  -3.023  0.00  0.00     0.138 H 
ENDROOT
BRANCH   5  10
ATOM     10  C   LIG d   1       7.762  -0.929  -4.996  0.00  0.00     0.213 C 
ATOM     11  H   LIG d   1       8.559  -0.837  -4.258  0.00  0.00     0.112 H 
ATOM     12  H   LIG d   1       8.071  -1.621  -5.780  0.00  0.00     0.112 H 
BRANCH  10  13
ATOM     13  C   LIG d   1       7.478   0.422  -5.600  0.00  0.00     0.228 C 
ATOM     14  O   LIG d   1       6.604   0.542  -6.432  0.00  0.00    -0.285 OA
BRANCH  13  15
ATOM     15  C   LIG d   1       8.261   1.594  -5.181  0.00  0.00     0.024 A 
ATOM     16  C   LIG d   1       8.794   2.463  -6.140  0.00  0.00    -0.050 A 
ATOM     17  C   LIG d   1       9.523   3.562  -5.740  0.00  0.00    -0.048 A 
ATOM     18  H   LIG d   1       8.631   2.275  -7.190  0.00  0.00     0.062 H 
ATOM     19  C   LIG d   1       9.738   3.802  -4.392  0.00  0.00     0.013 A 
ATOM     20  H   LIG d   1       9.930   4.236  -6.478  0.00  0.00     0.063 H 
ATOM     21  C   LIG d   1       9.219   2.944  -3.438  0.00  0.00    -0.048 A 
ATOM     22  I   LIG d   1      10.853   5.471  -3.796  0.00  0.00    -0.044 I 
ATOM     23  C   LIG d   1       8.482   1.843  -3.823  0.00  0.00    -0.050 A 
ATOM     24  H   LIG d   1       9.390   3.137  -2.389  0.00  0.00     0.063 H 
ATOM     25  H   LIG d   1       8.078   1.175  -3.077  0.00  0.00     0.062 H 
ENDBRANCH  13  15
ENDBRANCH  10  13
ENDBRANCH   5  10
BRANCH   4  26
ATOM     26  C   LIG d   1       6.653  -3.297  -5.930  0.00  0.00     0.021 C 
ATOM     27  H   LIG d   1       6.052  -4.170  -6.182  0.00  0.00     0.034 H 
ATOM     28  H   LIG d   1       6.715  -2.636  -6.795  0.00  0.00     0.034 H 
ATOM     29  H   LIG d   1       7.655  -3.617  -5.645  0.00  0.00     0.034 H 
ENDBRANCH   4  26
BRANCH   1  30
ATOM     30  C   LIG d   1       4.294  -0.429  -1.562  0.00  0.00    -0.025 C 
ATOM     31  H   LIG d   1       4.833  -0.664  -0.645  0.00  0.00     0.031 H 
ATOM     32  H   LIG d   1       3.243  -0.697  -1.445  0.00  0.00     0.031 H 
BRANCH  30  33
ATOM     33  C   LIG d   1       4.409   1.068  -1.853  0.00  0.00    -0.061 C 
ATOM     34  H   LIG d   1       3.411   1.501  -1.929  0.00  0.00     0.023 H 
ATOM     35  H   LIG d   1       4.955   1.554  -1.043  0.00  0.00     0.023 H 
ATOM     36  H   LIG d   1       4.942   1.217  -2.791  0.00  0.00     0.023 H 
ENDBRANCH  30  33
ENDBRANCH   1  30
TORSDOF 6
ENDMDL
MODEL 4
REMARK VINA RESULT:      -5.3      1.866      2.591
REMARK  6 active torsions:
REMARK  status: ('A' for Active; 'I' for Inactive)
REMARK    1  A    between atoms: C_1  and  C_2 
REMARK    2  A    between atoms: C_2  and  C_3 
REMARK    3  A    between atoms: C_6  and  C_19 
REMARK    4  A    between atoms: N_7  and  C_9 
REMARK    5  A    between atoms: C_9  and  C_10 
REMARK    6  A    between atoms: C_10  and  C_12 
ROOT
ATOM      1  C   LIG d   1       5.629   0.261  -2.820  0.00  0.00     0.016 A 
ATOM      2  C   LIG d   1       6.602   1.133  -3.281  0.00  0.00    -0.047 A 
ATOM      3  C   LIG d   1       7.482   0.687  -4.255  0.00  0.00     0.005 A 
ATOM      4  C   LIG d   1       7.360  -0.605  -4.731  0.00  0.00     0.181 A 
ATOM      5  N   LIG d   1       6.421  -1.408  -4.270  0.00  0.00    -0.194 N 
ATOM      6  C   LIG d   1       5.571  -1.018  -3.339  0.00  0.00     0.175 A 
ATOM      7  H   LIG d   1       6.674   2.138  -2.891  0.00  0.00     0.062 H 
ATOM      8  H   LIG d   1       8.252   1.340  -4.638  0.00  0.00     0.068 H 
ATOM      9  H   LIG d   1       4.818  -1.707  -2.983  0.00  0.00     0.138 H 
ENDROOT
BRANCH   5  10
ATOM     10  C   LIG d   1       6.324  -2.770  -4.801  0.00  0.00     0.213 C 
ATOM     11  H   LIG d   1       7.187  -2.977  -5.432  0.00  0.00     0.112 H 
ATOM     12  H   LIG d   1       6.299  -3.481  -3.974  0.00  0.00     0.112 H 
BRANCH  10  13
ATOM     13  C   LIG d   1       5.062  -2.903  -5.615  0.00  0.00     0.228 C 
ATOM     14  O   LIG d   1       4.247  -3.755  -5.334  0.00  0.00    -0.285 OA
BRANCH  13  15
ATOM     15  C   LIG d   1       4.822  -1.999  -6.750  0.00  0.00     0.024 A 
ATOM     16  C   LIG d   1       3.948  -0.914  -6.611  0.00  0.00    -0.050 A 
ATOM     17  C   LIG d   1       3.731  -0.068  -7.677  0.00  0.00    -0.048 A 
ATOM     18  H   LIG d   1       3.450  -0.738  -5.670  0.00  0.00     0.062 H 
ATOM     19  C   LIG d   1       4.366  -0.295  -8.887  0.00  0.00     0.013 A 
ATOM     20  H   LIG d   1       3.062   0.772  -7.570  0.00  0.00     0.063 H 
ATOM     21  C   LIG d   1       5.226  -1.370  -9.034  0.00  0.00    -0.048 A 
ATOM     22  I   LIG d   1       4.023   0.993 -10.502  0.00  0.00    -0.044 I 
ATOM     23  C   LIG d   1       5.459  -2.222  -7.974  0.00  0.00    -0.050 A 
ATOM     24  H   LIG d   1       5.719  -1.541  -9.980  0.00  0.00     0.063 H 
ATOM     25  H   LIG d   1       6.131  -3.059  -8.090  0.00  0.00     0.062 H 
ENDBRANCH  13  15
ENDBRANCH  10  13
ENDBRANCH   5  10
BRANCH   4  26
ATOM     26  C   LIG d   1       8.310  -1.102  -5.790  0.00  0.00     0.021 C 
ATOM     27  H   LIG d   1       9.108  -0.373  -5.933  0.00  0.00     0.034 H 
ATOM     28  H   LIG d   1       8.739  -2.054  -5.475  0.00  0.00     0.034 H 
ATOM     29  H   LIG d   1       7.771  -1.239  -6.727  0.00  0.00     0.034 H 
ENDBRANCH   4  26
BRANCH   1  30
ATOM     30  C   LIG d   1       4.649   0.699  -1.763  0.00  0.00    -0.025 C 
ATOM     31  H   LIG d   1       5.142   1.382  -1.070  0.00  0.00     0.031 H 
ATOM     32  H   LIG d   1       4.289  -0.174  -1.217  0.00  0.00     0.031 H 
BRANCH  30  33
ATOM     33  C   LIG d   1       3.468   1.410  -2.425  0.00  0.00    -0.061 C 
ATOM     34  H   LIG d   1       2.863   1.898  -1.661  0.00  0.00     0.023 H 
ATOM     35  H   LIG d   1       3.840   2.158  -3.126  0.00  0.00     0.023 H 
ATOM     36  H   LIG d   1       2.859   0.682  -2.961  0.00  0.00     0.023 H 
ENDBRANCH  30  33
ENDBRANCH   1  30
TORSDOF 6
ENDMDL
MODEL 5
REMARK VINA RESULT:      -5.3      3.358      5.179
REMARK  6 active torsions:
REMARK  status: ('A' for Active; 'I' for Inactive)
REMARK    1  A    between atoms: C_1  and  C_2 
REMARK    2  A    between atoms: C_2  and  C_3 
REMARK    3  A    between atoms: C_6  and  C_19 
REMARK    4  A    between atoms: N_7  and  C_9 
REMARK    5  A    between atoms: C_9  and  C_10 
REMARK    6  A    between atoms: C_10  and  C_12 
ROOT
ATOM      1  C   LIG d   1       3.179  -0.034  -6.188  0.00  0.00     0.016 A 
ATOM      2  C   LIG d   1       2.418   0.658  -5.259  0.00  0.00    -0.047 A 
ATOM      3  C   LIG d   1       2.812   0.628  -3.929  0.00  0.00     0.005 A 
ATOM      4  C   LIG d   1       3.942  -0.085  -3.579  0.00  0.00     0.181 A 
ATOM      5  N   LIG d   1       4.643  -0.730  -4.490  0.00  0.00    -0.194 N 
ATOM      6  C   LIG d   1       4.294  -0.729  -5.762  0.00  0.00     0.175 A 
ATOM      7  H   LIG d   1       1.539   1.207  -5.562  0.00  0.00     0.062 H 
ATOM      8  H   LIG d   1       2.243   1.156  -3.178  0.00  0.00     0.068 H 
ATOM      9  H   LIG d   1       4.891  -1.274  -6.480  0.00  0.00     0.138 H 
ENDROOT
BRANCH   5  10
ATOM     10  C   LIG d   1       5.836  -1.474  -4.078  0.00  0.00     0.213 C 
ATOM     11  H   LIG d   1       6.110  -1.189  -3.063  0.00  0.00     0.112 H 
ATOM     12  H   LIG d   1       5.627  -2.543  -4.112  0.00  0.00     0.112 H 
BRANCH  10  13
ATOM     13  C   LIG d   1       6.975  -1.155  -5.013  0.00  0.00     0.228 C 
ATOM     14  O   LIG d   1       7.393  -2.005  -5.770  0.00  0.00    -0.285 OA
BRANCH  13  15
ATOM     15  C   LIG d   1       7.578   0.187  -5.007  0.00  0.00     0.024 A 
ATOM     16  C   LIG d   1       7.668   0.910  -3.812  0.00  0.00    -0.050 A 
ATOM     17  C   LIG d   1       8.238   2.165  -3.812  0.00  0.00    -0.048 A 
ATOM     18  H   LIG d   1       7.296   0.485  -2.892  0.00  0.00     0.062 H 
ATOM     19  C   LIG d   1       8.712   2.714  -4.993  0.00  0.00     0.013 A 
ATOM     20  H   LIG d   1       8.314   2.722  -2.891  0.00  0.00     0.063 H 
ATOM     21  C   LIG d   1       8.620   2.007  -6.179  0.00  0.00    -0.048 A 
ATOM     22  I   LIG d   1       9.570   4.625  -4.982  0.00  0.00    -0.044 I 
ATOM     23  C   LIG d   1       8.058   0.748  -6.194  0.00  0.00    -0.050 A 
ATOM     24  H   LIG d   1       8.991   2.441  -7.096  0.00  0.00     0.063 H 
ATOM     25  H   LIG d   1       7.988   0.197  -7.120  0.00  0.00     0.062 H 
ENDBRANCH  13  15
ENDBRANCH  10  13
ENDBRANCH   5  10
BRANCH   4  26
ATOM     26  C   LIG d   1       4.381  -0.124  -2.137  0.00  0.00     0.021 C 
ATOM     27  H   LIG d   1       3.520   0.045  -1.491  0.00  0.00     0.034 H 
ATOM     28  H   LIG d   1       4.816  -1.099  -1.916  0.00  0.00     0.034 H 
ATOM     29  H   LIG d   1       5.124   0.653  -1.962  0.00  0.00     0.034 H 
ENDBRANCH   4  26
BRANCH   1  30
ATOM     30  C   LIG d   1       2.792  -0.032  -7.644  0.00  0.00    -0.025 C 
ATOM     31  H   LIG d   1       1.794  -0.455  -7.757  0.00  0.00     0.031 H 
ATOM     32  H   LIG d   1       3.506  -0.630  -8.210  0.00  0.00     0.031 H 
BRANCH  30  33
ATOM     33  C   LIG d   1       2.799   1.404  -8.172  0.00  0.00    -0.061 C 
ATOM     34  H   LIG d   1       2.832   1.391  -9.261  0.00  0.00     0.023 H 
ATOM     35  H   LIG d   1       1.894   1.916  -7.842  0.00  0.00     0.023 H 
ATOM     36  H   LIG d   1       3.674   1.929  -7.788  0.00  0.00     0.023 H 
ENDBRANCH  30  33
ENDBRANCH   1  30
TORSDOF 6
ENDMDL
MODEL 6
REMARK VINA RESULT:      -5.2      1.623      3.422
REMARK  6 active torsions:
REMARK  status: ('A' for Active; 'I' for Inactive)
REMARK    1  A    between atoms: C_1  and  C_2 
REMARK    2  A    between atoms: C_2  and  C_3 
REMARK    3  A    between atoms: C_6  and  C_19 
REMARK    4  A    between atoms: N_7  and  C_9 
REMARK    5  A    between atoms: C_9  and  C_10 
REMARK    6  A    between atoms: C_10  and  C_12 
ROOT
ATOM      1  C   LIG d   1       5.672  -2.230  -4.231  0.00  0.00     0.016 A 
ATOM      2  C   LIG d   1       5.914  -1.630  -3.005  0.00  0.00    -0.047 A 
ATOM      3  C   LIG d   1       5.198  -0.488  -2.676  0.00  0.00     0.005 A 
ATOM      4  C   LIG d   1       4.274   0.009  -3.575  0.00  0.00     0.181 A 
ATOM      5  N   LIG d   1       4.069  -0.589  -4.733  0.00  0.00    -0.194 N 
ATOM      6  C   LIG d   1       4.736  -1.673  -5.081  0.00  0.00     0.175 A 
ATOM      7  H   LIG d   1       6.642  -2.041  -2.322  0.00  0.00     0.062 H 
ATOM      8  H   LIG d   1       5.360   0.005  -1.729  0.00  0.00     0.068 H 
ATOM      9  H   LIG d   1       4.545  -2.132  -6.040  0.00  0.00     0.138 H 
ENDROOT
BRANCH   5  10
ATOM     10  C   LIG d   1       3.080  -0.031  -5.658  0.00  0.00     0.213 C 
ATOM     11  H   LIG d   1       2.204  -0.678  -5.687  0.00  0.00     0.112 H 
ATOM     12  H   LIG d   1       2.788   0.963  -5.321  0.00  0.00     0.112 H 
BRANCH  10  13
ATOM     13  C   LIG d   1       3.680   0.063  -7.038  0.00  0.00     0.228 C 
ATOM     14  O   LIG d   1       4.678   0.726  -7.220  0.00  0.00    -0.285 OA
BRANCH  13  15
ATOM     15  C   LIG d   1       3.055  -0.651  -8.162  0.00  0.00     0.024 A 
ATOM     16  C   LIG d   1       3.420  -1.972  -8.445  0.00  0.00    -0.050 A 
ATOM     17  C   LIG d   1       2.826  -2.637  -9.497  0.00  0.00    -0.048 A 
ATOM     18  H   LIG d   1       4.160  -2.471  -7.839  0.00  0.00     0.062 H 
ATOM     19  C   LIG d   1       1.878  -1.996 -10.279  0.00  0.00     0.013 A 
ATOM     20  H   LIG d   1       3.102  -3.657  -9.713  0.00  0.00     0.063 H 
ATOM     21  C   LIG d   1       1.518  -0.687 -10.009  0.00  0.00    -0.048 A 
ATOM     22  I   LIG d   1       0.989  -3.013 -11.879  0.00  0.00    -0.044 I 
ATOM     23  C   LIG d   1       2.098  -0.012  -8.956  0.00  0.00    -0.050 A 
ATOM     24  H   LIG d   1       0.778  -0.194 -10.622  0.00  0.00     0.063 H 
ATOM     25  H   LIG d   1       1.815   1.009  -8.746  0.00  0.00     0.062 H 
ENDBRANCH  13  15
ENDBRANCH  10  13
ENDBRANCH   5  10
BRANCH   4  26
ATOM     26  C   LIG d   1       3.490   1.249  -3.229  0.00  0.00     0.021 C 
ATOM     27  H   LIG d   1       3.918   1.713  -2.341  0.00  0.00     0.034 H 
ATOM     28  H   LIG d   1       3.532   1.950  -4.063  0.00  0.00     0.034 H 
ATOM     29  H   LIG d   1       2.452   0.979  -3.033  0.00  0.00     0.034 H 
ENDBRANCH   4  26
BRANCH   1  30
ATOM     30  C   LIG d   1       6.424  -3.472  -4.635  0.00  0.00    -0.025 C 
ATOM     31  H   LIG d   1       6.366  -3.598  -5.716  0.00  0.00     0.031 H 
ATOM     32  H   LIG d   1       5.981  -4.340  -4.144  0.00  0.00     0.031 H 
BRANCH  30  33
ATOM     33  C   LIG d   1       7.889  -3.341  -4.214  0.00  0.00    -0.061 C 
ATOM     34  H   LIG d   1       8.364  -2.552  -4.797  0.00  0.00     0.023 H 
ATOM     35  H   LIG d   1       7.942  -3.091  -3.154  0.00  0.00     0.023 H 
ATOM     36  H   LIG d   1       8.404  -4.284  -4.392  0.00  0.00     0.023 H 
ENDBRANCH  30  33
ENDBRANCH   1  30
TORSDOF 6
ENDMDL
MODEL 7
REMARK VINA RESULT:      -5.1      3.025      4.011
REMARK  6 active torsions:
REMARK  status: ('A' for Active; 'I' for Inactive)
REMARK    1  A    between atoms: C_1  and  C_2 
REMARK    2  A    between atoms: C_2  and  C_3 
REMARK    3  A    between atoms: C_6  and  C_19 
REMARK    4  A    between atoms: N_7  and  C_9 
REMARK    5  A    between atoms: C_9  and  C_10 
REMARK    6  A    between atoms: C_10  and  C_12 
ROOT
ATOM      1  C   LIG d   1       3.812  -0.610  -3.271  0.00  0.00     0.016 A 
ATOM      2  C   LIG d   1       4.040  -1.846  -2.686  0.00  0.00    -0.047 A 
ATOM      3  C   LIG d   1       4.451  -2.894  -3.496  0.00  0.00     0.005 A 
ATOM      4  C   LIG d   1       4.618  -2.672  -4.850  0.00  0.00     0.181 A 
ATOM      5  N   LIG d   1       4.392  -1.482  -5.372  0.00  0.00    -0.194 N 
ATOM      6  C   LIG d   1       3.995  -0.465  -4.633  0.00  0.00     0.175 A 
ATOM      7  H   LIG d   1       3.902  -1.989  -1.625  0.00  0.00     0.062 H 
ATOM      8  H   LIG d   1       4.639  -3.870  -3.074  0.00  0.00     0.068 H 
ATOM      9  H   LIG d   1       3.814   0.494  -5.097  0.00  0.00     0.138 H 
ENDROOT
BRANCH   5  10
ATOM     10  C   LIG d   1       4.581  -1.288  -6.812  0.00  0.00     0.213 C 
ATOM     11  H   LIG d   1       4.852  -2.237  -7.274  0.00  0.00     0.112 H 
ATOM     12  H   LIG d   1       3.655  -0.919  -7.253  0.00  0.00     0.112 H 
BRANCH  10  13
ATOM     13  C   LIG d   1       5.682  -0.284  -7.043  0.00  0.00     0.228 C 
ATOM     14  O   LIG d   1       5.435   0.771  -7.585  0.00  0.00    -0.285 OA
BRANCH  13  15
ATOM     15  C   LIG d   1       7.055  -0.587  -6.609  0.00  0.00     0.024 A 
ATOM     16  C   LIG d   1       7.651   0.163  -5.589  0.00  0.00    -0.050 A 
ATOM     17  C   LIG d   1       8.935  -0.129  -5.184  0.00  0.00    -0.048 A 
ATOM     18  H   LIG d   1       7.103   0.964  -5.116  0.00  0.00     0.062 H 
ATOM     19  C   LIG d   1       9.641  -1.154  -5.793  0.00  0.00     0.013 A 
ATOM     20  H   LIG d   1       9.395   0.445  -4.393  0.00  0.00     0.063 H 
ATOM     21  C   LIG d   1       9.061  -1.896  -6.808  0.00  0.00    -0.048 A 
ATOM     22  I   LIG d   1      11.596  -1.584  -5.176  0.00  0.00    -0.044 I 
ATOM     23  C   LIG d   1       7.774  -1.619  -7.219  0.00  0.00    -0.050 A 
ATOM     24  H   LIG d   1       9.616  -2.694  -7.278  0.00  0.00     0.063 H 
ATOM     25  H   LIG d   1       7.322  -2.200  -8.010  0.00  0.00     0.062 H 
ENDBRANCH  13  15
ENDBRANCH  10  13
ENDBRANCH   5  10
BRANCH   4  26
ATOM     26  C   LIG d   1       5.065  -3.803  -5.740  0.00  0.00     0.021 C 
ATOM     27  H   LIG d   1       6.028  -4.178  -5.396  0.00  0.00     0.034 H 
ATOM     28  H   LIG d   1       4.328  -4.607  -5.704  0.00  0.00     0.034 H 
ATOM     29  H   LIG d   1       5.160  -3.443  -6.764  0.00  0.00     0.034 H 
ENDBRANCH   4  26
BRANCH   1  30
ATOM     30  C   LIG d   1       3.364   0.560  -2.433  0.00  0.00    -0.025 C 
ATOM     31  H   LIG d   1       2.565   0.243  -1.763  0.00  0.00     0.031 H 
ATOM     32  H   LIG d   1       2.998   1.354  -3.085  0.00  0.00     0.031 H 
BRANCH  30  33
ATOM     33  C   LIG d   1       4.544   1.079  -1.610  0.00  0.00    -0.061 C 
ATOM     34  H   LIG d   1       4.377   0.857  -0.556  0.00  0.00     0.023 H 
ATOM     35  H   LIG d   1       5.461   0.592  -1.943  0.00  0.00     0.023 H 
ATOM     36  H   LIG d   1       4.635   2.157  -1.744  0.00  0.00     0.023 H 
ENDBRANCH  30  33
ENDBRANCH   1  30
TORSDOF 6
ENDMDL
MODEL 8
REMARK VINA RESULT:      -5.1      2.050      3.115
REMARK  6 active torsions:
REMARK  status: ('A' for Active; 'I' for Inactive)
REMARK    1  A    between atoms: C_1  and  C_2 
REMARK    2  A    between atoms: C_2  and  C_3 
REMARK    3  A    between atoms: C_6  and  C_19 
REMARK    4  A    between atoms: N_7  and  C_9 
REMARK    5  A    between atoms: C_9  and  C_10 
REMARK    6  A    between atoms: C_10  and  C_12 
ROOT
ATOM      1  C   LIG d   1       5.380  -0.774  -2.890  0.00  0.00     0.016 A 
ATOM      2  C   LIG d   1       5.198   0.566  -2.586  0.00  0.00    -0.047 A 
ATOM      3  C   LIG d   1       6.117   1.484  -3.072  0.00  0.00     0.005 A 
ATOM      4  C   LIG d   1       7.175   1.035  -3.839  0.00  0.00     0.181 A 
ATOM      5  N   LIG d   1       7.316  -0.248  -4.110  0.00  0.00    -0.194 N 
ATOM      6  C   LIG d   1       6.465  -1.149  -3.658  0.00  0.00     0.175 A 
ATOM      7  H   LIG d   1       4.361   0.889  -1.984  0.00  0.00     0.062 H 
ATOM      8  H   LIG d   1       6.007   2.536  -2.855  0.00  0.00     0.068 H 
ATOM      9  H   LIG d   1       6.616  -2.192  -3.897  0.00  0.00     0.138 H 
ENDROOT
BRANCH   5  10
ATOM     10  C   LIG d   1       8.451  -0.685  -4.927  0.00  0.00     0.213 C 
ATOM     11  H   LIG d   1       9.106   0.164  -5.122  0.00  0.00     0.112 H 
ATOM     12  H   LIG d   1       9.005  -1.458  -4.394  0.00  0.00     0.112 H 
BRANCH  10  13
ATOM     13  C   LIG d   1       7.945  -1.239  -6.234  0.00  0.00     0.228 C 
ATOM     14  O   LIG d   1       8.334  -2.319  -6.625  0.00  0.00    -0.285 OA
BRANCH  13  15
ATOM     15  C   LIG d   1       6.980  -0.470  -7.035  0.00  0.00     0.024 A 
ATOM     16  C   LIG d   1       5.651  -0.898  -7.135  0.00  0.00    -0.050 A 
ATOM     17  C   LIG d   1       4.751  -0.170  -7.882  0.00  0.00    -0.048 A 
ATOM     18  H   LIG d   1       5.331  -1.794  -6.624  0.00  0.00     0.062 H 
ATOM     19  C   LIG d   1       5.161   0.977  -8.542  0.00  0.00     0.013 A 
ATOM     20  H   LIG d   1       3.724  -0.496  -7.957  0.00  0.00     0.063 H 
ATOM     21  C   LIG d   1       6.475   1.403  -8.453  0.00  0.00    -0.048 A 
ATOM     22  I   LIG d   1       3.786   2.072  -9.682  0.00  0.00    -0.044 I 
ATOM     23  C   LIG d   1       7.386   0.688  -7.703  0.00  0.00    -0.050 A 
ATOM     24  H   LIG d   1       6.788   2.299  -8.969  0.00  0.00     0.063 H 
ATOM     25  H   LIG d   1       8.411   1.023  -7.634  0.00  0.00     0.062 H 
ENDBRANCH  13  15
ENDBRANCH  10  13
ENDBRANCH   5  10
BRANCH   4  26
ATOM     26  C   LIG d   1       8.181   2.023  -4.373  0.00  0.00     0.021 C 
ATOM     27  H   LIG d   1       7.685   2.972  -4.574  0.00  0.00     0.034 H 
ATOM     28  H   LIG d   1       8.970   2.172  -3.637  0.00  0.00     0.034 H 
ATOM     29  H   LIG d   1       8.613   1.637  -5.297  0.00  0.00     0.034 H 
ENDBRANCH   4  26
BRANCH   1  30
ATOM     30  C   LIG d   1       4.408  -1.809  -2.385  0.00  0.00    -0.025 C 
ATOM     31  H   LIG d   1       4.493  -1.890  -1.301  0.00  0.00     0.031 H 
ATOM     32  H   LIG d   1       4.636  -2.773  -2.840  0.00  0.00     0.031 H 
BRANCH  30  33
ATOM     33  C   LIG d   1       2.983  -1.395  -2.755  0.00  0.00    -0.061 C 
ATOM     34  H   LIG d   1       3.003  -0.803  -3.670  0.00  0.00     0.023 H 
ATOM     35  H   LIG d   1       2.375  -2.286  -2.912  0.00  0.00     0.023 H 
ATOM     36  H   LIG d   1       2.556  -0.801  -1.947  0.00  0.00     0.023 H 
ENDBRANCH  30  33
ENDBRANCH   1  30
TORSDOF 6
ENDMDL
MODEL 9
REMARK VINA RESULT:      -5.1      2.297      3.311
REMARK  6 active torsions:
REMARK  status: ('A' for Active; 'I' for Inactive)
REMARK    1  A    between atoms: C_1  and  C_2 
REMARK    2  A    between atoms: C_2  and  C_3 
REMARK    3  A    between atoms: C_6  and  C_19 
REMARK    4  A    between atoms: N_7  and  C_9 
REMARK    5  A    between atoms: C_9  and  C_10 
REMARK    6  A    between atoms: C_10  and  C_12 
ROOT
ATOM      1  C   LIG d   1       3.831   0.412  -3.923  0.00  0.00     0.016 A 
ATOM      2  C   LIG d   1       4.939  -0.420  -3.961  0.00  0.00    -0.047 A 
ATOM      3  C   LIG d   1       5.181  -1.145  -5.118  0.00  0.00     0.005 A 
ATOM      4  C   LIG d   1       4.315  -1.014  -6.187  0.00  0.00     0.181 A 
ATOM      5  N   LIG d   1       3.271  -0.212  -6.116  0.00  0.00    -0.194 N 
ATOM      6  C   LIG d   1       3.007   0.487  -5.029  0.00  0.00     0.175 A 
ATOM      7  H   LIG d   1       5.599  -0.502  -3.110  0.00  0.00     0.062 H 
ATOM      8  H   LIG d   1       6.035  -1.801  -5.184  0.00  0.00     0.068 H 
ATOM      9  H   LIG d   1       2.138   1.130  -5.006  0.00  0.00     0.138 H 
ENDROOT
BRANCH   5  10
ATOM     10  C   LIG d   1       2.377  -0.100  -7.271  0.00  0.00     0.213 C 
ATOM     11  H   LIG d   1       2.253  -1.080  -7.731  0.00  0.00     0.112 H 
ATOM     12  H   LIG d   1       1.406   0.273  -6.944  0.00  0.00     0.112 H 
BRANCH  10  13
ATOM     13  C   LIG d   1       2.970   0.855  -8.275  0.00  0.00     0.228 C 
ATOM     14  O   LIG d   1       3.226   1.994  -7.949  0.00  0.00    -0.285 OA
BRANCH  13  15
ATOM     15  C   LIG d   1       3.238   0.404  -9.650  0.00  0.00     0.024 A 
ATOM     16  C   LIG d   1       4.428   0.769 -10.289  0.00  0.00    -0.050 A 
ATOM     17  C   LIG d   1       4.674   0.338 -11.575  0.00  0.00    -0.048 A 
ATOM     18  H   LIG d   1       5.153   1.381  -9.775  0.00  0.00     0.062 H 
ATOM     19  C   LIG d   1       3.743  -0.444 -12.238  0.00  0.00     0.013 A 
ATOM     20  H   LIG d   1       5.594   0.614 -12.068  0.00  0.00     0.063 H 
ATOM     21  C   LIG d   1       2.561  -0.804 -11.614  0.00  0.00    -0.048 A 
ATOM     22  I   LIG d   1       4.125  -1.086 -14.195  0.00  0.00    -0.044 I 
ATOM     23  C   LIG d   1       2.303  -0.386 -10.325  0.00  0.00    -0.050 A 
ATOM     24  H   LIG d   1       1.839  -1.414 -12.136  0.00  0.00     0.063 H 
ATOM     25  H   LIG d   1       1.380  -0.668  -9.839  0.00  0.00     0.062 H 
ENDBRANCH  13  15
ENDBRANCH  10  13
ENDBRANCH   5  10
BRANCH   4  26
ATOM     26  C   LIG d   1       4.568  -1.796  -7.451  0.00  0.00     0.021 C 
ATOM     27  H   LIG d   1       5.250  -2.619  -7.238  0.00  0.00     0.034 H 
ATOM     28  H   LIG d   1       3.624  -2.193  -7.827  0.00  0.00     0.034 H 
ATOM     29  H   LIG d   1       5.011  -1.141  -8.201  0.00  0.00     0.034 H 
ENDBRANCH   4  26
BRANCH   1  30
ATOM     30  C   LIG d   1       3.525   1.220  -2.688  0.00  0.00    -0.025 C 
ATOM     31  H   LIG d   1       2.539   0.948  -2.310  0.00  0.00     0.031 H 
ATOM     32  H   LIG d   1       3.539   2.281  -2.937  0.00  0.00     0.031 H 
BRANCH  30  33
ATOM     33  C   LIG d   1       4.579   0.933  -1.617  0.00  0.00    -0.061 C 
ATOM     34  H   LIG d   1       4.123   0.375  -0.800  0.00  0.00     0.023 H 
ATOM     35  H   LIG d   1       5.388   0.346  -2.052  0.00  0.00     0.023 H 
ATOM     36  H   LIG d   1       4.977   1.874  -1.237  0.00  0.00     0.023 H 
ENDBRANCH  30  33
ENDBRANCH   1  30
TORSDOF 6
ENDMDL
