MODEL 1
REMARK VINA RESULT:      -5.3      0.000      0.000
REMARK  10 active torsions:
REMARK  status: ('A' for Active; 'I' for Inactive)
REMARK    1  A    between atoms: C_1  and  C_2 
REMARK    2  A    between atoms: C_2  and  C_3 
REMARK    3  A    between atoms: N_6  and  S_16 
REMARK    4  A    between atoms: C_9  and  C_11 
REMARK    5  A    between atoms: C_11  and  C_12 
REMARK    6  A    between atoms: C_12  and  O_14 
REMARK    7  A    between atoms: O_14  and  C_15 
REMARK    8  A    between atoms: S_16  and  C_19 
REMARK    9  A    between atoms: C_20  and  C_25 
REMARK   10  A    between atoms: C_23  and  C_24 
ROOT
ATOM      1  C   LIG d   1       4.118  -0.004  -6.871  0.00  0.00    -0.024 C 
ATOM      2  H   LIG d   1       3.895   1.003  -7.226  0.00  0.00     0.032 H 
ATOM      3  C   LIG d   1       5.547  -0.048  -6.322  0.00  0.00     0.024 C 
ATOM      4  N   LIG d   1       5.874  -1.436  -5.968  0.00  0.00    -0.176 N 
ATOM      5  C   LIG d   1       5.698  -2.484  -6.982  0.00  0.00     0.021 C 
ATOM      6  C   LIG d   1       4.267  -2.415  -7.524  0.00  0.00    -0.035 C 
ATOM      7  C   LIG d   1       3.988  -0.995  -8.029  0.00  0.00    -0.026 C 
ATOM      8  H   LIG d   1       4.707  -0.739  -8.808  0.00  0.00     0.031 H 
ATOM      9  H   LIG d   1       5.618   0.581  -5.435  0.00  0.00     0.045 H 
ATOM     10  H   LIG d   1       6.244   0.309  -7.080  0.00  0.00     0.045 H 
ATOM     11  H   LIG d   1       6.406  -2.326  -7.796  0.00  0.00     0.044 H 
ATOM     12  H   LIG d   1       5.873  -3.461  -6.532  0.00  0.00     0.044 H 
ATOM     13  H   LIG d   1       4.154  -3.125  -8.343  0.00  0.00     0.028 H 
ATOM     14  H   LIG d   1       3.565  -2.663  -6.728  0.00  0.00     0.028 H 
ENDROOT
BRANCH   4  15
ATOM     15  S   LIG d   1       6.431  -1.812  -4.454  0.00  0.00     0.066 S 
ATOM     16  O   LIG d   1       5.886  -3.082  -4.124  0.00  0.00    -0.153 OA
ATOM     17  O   LIG d   1       7.830  -1.563  -4.462  0.00  0.00    -0.153 OA
BRANCH  15  18
ATOM     18  C   LIG d   1       5.720  -0.652  -3.334  0.00  0.00     0.170 A 
ATOM     19  C   LIG d   1       4.649  -0.824  -2.522  0.00  0.00     0.161 A 
ATOM     20  O   LIG d   1       4.486   0.329  -1.859  0.00  0.00    -0.358 OA
ATOM     21  N   LIG d   1       5.313   1.149  -2.184  0.00  0.00    -0.081 NA
ATOM     22  C   LIG d   1       6.130   0.677  -3.080  0.00  0.00     0.107 A 
BRANCH  19  23
ATOM     23  C   LIG d   1       3.810  -2.069  -2.389  0.00  0.00    -0.002 C 
ATOM     24  H   LIG d   1       2.757  -1.810  -2.497  0.00  0.00     0.031 H 
ATOM     25  H   LIG d   1       4.090  -2.781  -3.165  0.00  0.00     0.031 H 
ATOM     26  H   LIG d   1       3.976  -2.516  -1.410  0.00  0.00     0.031 H 
ENDBRANCH  19  23
BRANCH  22  27
ATOM     27  C   LIG d   1       7.285   1.403  -3.721  0.00  0.00    -0.017 C 
ATOM     28  H   LIG d   1       6.938   2.353  -4.126  0.00  0.00     0.029 H 
ATOM     29  H   LIG d   1       8.057   1.587  -2.974  0.00  0.00     0.029 H 
ATOM     30  H   LIG d   1       7.696   0.794  -4.526  0.00  0.00     0.029 H 
ENDBRANCH  22  27
ENDBRANCH  15  18
ENDBRANCH   4  15
BRANCH   1  31
ATOM     31  C   LIG d   1       3.133  -0.382  -5.762  0.00  0.00    -0.052 C 
ATOM     32  H   LIG d   1       2.295  -0.932  -6.192  0.00  0.00     0.027 H 
ATOM     33  H   LIG d   1       3.638  -1.005  -5.025  0.00  0.00     0.027 H 
BRANCH  31  34
ATOM     34  C   LIG d   1       2.615   0.889  -5.086  0.00  0.00    -0.065 C 
ATOM     35  H   LIG d   1       2.345   1.622  -5.846  0.00  0.00     0.023 H 
ATOM     36  H   LIG d   1       1.738   0.650  -4.485  0.00  0.00     0.023 H 
ATOM     37  H   LIG d   1       3.393   1.303  -4.444  0.00  0.00     0.023 H 
ENDBRANCH  31  34
ENDBRANCH   1  31
BRANCH   7  38
ATOM     38  C   LIG d   1       2.571  -0.928  -8.602  0.00  0.00     0.048 C 
ATOM     39  H   LIG d   1       2.082  -1.893  -8.474  0.00  0.00     0.038 H 
ATOM     40  H   LIG d   1       2.003  -0.159  -8.078  0.00  0.00     0.038 H 
BRANCH  38  41
ATOM     41  C   LIG d   1       2.639  -0.590 -10.070  0.00  0.00     0.307 C 
ATOM     42  O   LIG d   1       1.658  -0.714 -10.764  0.00  0.00    -0.251 OA
BRANCH  41  43
ATOM     43  O   LIG d   1       3.789  -0.154 -10.605  0.00  0.00    -0.468 OA
BRANCH  43  44
ATOM     44  C   LIG d   1       3.892   1.268 -10.877  0.00  0.00     0.082 C 
ATOM     45  H   LIG d   1       4.930   1.523 -11.094  0.00  0.00     0.066 H 
ATOM     46  H   LIG d   1       3.269   1.521 -11.735  0.00  0.00     0.066 H 
ATOM     47  H   LIG d   1       3.555   1.830 -10.005  0.00  0.00     0.066 H 
ENDBRANCH  43  44
ENDBRANCH  41  43
ENDBRANCH  38  41
ENDBRANCH   7  38
TORSDOF 10
ENDMDL
MODEL 2
REMARK VINA RESULT:      -5.2      2.372      6.135
REMARK  10 active torsions:
REMARK  status: ('A' for Active; 'I' for Inactive)
REMARK    1  A    between atoms: C_1  and  C_2 
REMARK    2  A    between atoms: C_2  and  C_3 
REMARK    3  A    between atoms: N_6  and  S_16 
REMARK    4  A    between atoms: C_9  and  C_11 
REMARK    5  A    between atoms: C_11  and  C_12 
REMARK    6  A    between atoms: C_12  and  O_14 
REMARK    7  A    between atoms: O_14  and  C_15 
REMARK    8  A    between atoms: S_16  and  C_19 
REMARK    9  A    between atoms: C_20  and  C_25 
REMARK   10  A    between atoms: C_23  and  C_24 
ROOT
ATOM      1  C   LIG d   1       6.848   0.166  -3.071  0.00  0.00    -0.024 C 
ATOM      2  H   LIG d   1       7.261   0.225  -2.064  0.00  0.00     0.032 H 
ATOM      3  C   LIG d   1       6.478  -1.286  -3.388  0.00  0.00     0.024 C 
ATOM      4  N   LIG d   1       6.045  -1.368  -4.790  0.00  0.00    -0.176 N 
ATOM      5  C   LIG d   1       6.933  -0.841  -5.835  0.00  0.00     0.021 C 
ATOM      6  C   LIG d   1       7.297   0.607  -5.494  0.00  0.00    -0.035 C 
ATOM      7  C   LIG d   1       7.888   0.657  -4.081  0.00  0.00    -0.026 C 
ATOM      8  H   LIG d   1       8.770   0.017  -4.033  0.00  0.00     0.031 H 
ATOM      9  H   LIG d   1       5.667  -1.607  -2.736  0.00  0.00     0.045 H 
ATOM     10  H   LIG d   1       7.346  -1.928  -3.236  0.00  0.00     0.045 H 
ATOM     11  H   LIG d   1       7.839  -1.445  -5.883  0.00  0.00     0.044 H 
ATOM     12  H   LIG d   1       6.422  -0.873  -6.798  0.00  0.00     0.044 H 
ATOM     13  H   LIG d   1       8.030   0.976  -6.212  0.00  0.00     0.028 H 
ATOM     14  H   LIG d   1       6.401   1.227  -5.536  0.00  0.00     0.028 H 
ENDROOT
BRANCH   4  15
ATOM     15  S   LIG d   1       4.584  -2.042  -5.183  0.00  0.00     0.066 S 
ATOM     16  O   LIG d   1       4.866  -3.294  -5.794  0.00  0.00    -0.153 OA
ATOM     17  O   LIG d   1       3.760  -1.926  -4.031  0.00  0.00    -0.153 OA
BRANCH  15  18
ATOM     18  C   LIG d   1       3.860  -1.026  -6.426  0.00  0.00     0.170 A 
ATOM     19  C   LIG d   1       3.028   0.030  -6.260  0.00  0.00     0.161 A 
ATOM     20  O   LIG d   1       2.742   0.485  -7.488  0.00  0.00    -0.358 OA
ATOM     21  N   LIG d   1       3.290  -0.170  -8.344  0.00  0.00    -0.081 NA
ATOM     22  C   LIG d   1       4.006  -1.128  -7.829  0.00  0.00     0.107 A 
BRANCH  19  23
ATOM     23  C   LIG d   1       2.526   0.586  -4.952  0.00  0.00    -0.002 C 
ATOM     24  H   LIG d   1       3.258   0.392  -4.170  0.00  0.00     0.031 H 
ATOM     25  H   LIG d   1       2.373   1.661  -5.049  0.00  0.00     0.031 H 
ATOM     26  H   LIG d   1       1.581   0.108  -4.694  0.00  0.00     0.031 H 
ENDBRANCH  19  23
BRANCH  22  27
ATOM     27  C   LIG d   1       4.829  -2.144  -8.579  0.00  0.00    -0.017 C 
ATOM     28  H   LIG d   1       5.734  -1.671  -8.956  0.00  0.00     0.029 H 
ATOM     29  H   LIG d   1       5.098  -2.959  -7.907  0.00  0.00     0.029 H 
ATOM     30  H   LIG d   1       4.249  -2.537  -9.414  0.00  0.00     0.029 H 
ENDBRANCH  22  27
ENDBRANCH  15  18
ENDBRANCH   4  15
BRANCH   1  31
ATOM     31  C   LIG d   1       5.597   1.043  -3.161  0.00  0.00    -0.052 C 
ATOM     32  H   LIG d   1       5.891   2.090  -3.240  0.00  0.00     0.027 H 
ATOM     33  H   LIG d   1       5.017   0.761  -4.039  0.00  0.00     0.027 H 
BRANCH  31  34
ATOM     34  C   LIG d   1       4.745   0.846  -1.904  0.00  0.00    -0.065 C 
ATOM     35  H   LIG d   1       4.481  -0.207  -1.807  0.00  0.00     0.023 H 
ATOM     36  H   LIG d   1       5.312   1.160  -1.028  0.00  0.00     0.023 H 
ATOM     37  H   LIG d   1       3.837   1.442  -1.983  0.00  0.00     0.023 H 
ENDBRANCH  31  34
ENDBRANCH   1  31
BRANCH   7  38
ATOM     38  C   LIG d   1       8.285   2.096  -3.745  0.00  0.00     0.048 C 
ATOM     39  H   LIG d   1       7.936   2.762  -4.534  0.00  0.00     0.038 H 
ATOM     40  H   LIG d   1       7.833   2.387  -2.798  0.00  0.00     0.038 H 
BRANCH  38  41
ATOM     41  C   LIG d   1       9.785   2.191  -3.636  0.00  0.00     0.307 C 
ATOM     42  O   LIG d   1      10.487   1.583  -4.409  0.00  0.00    -0.251 OA
BRANCH  41  43
ATOM     43  O   LIG d   1      10.342   2.950  -2.680  0.00  0.00    -0.468 OA
BRANCH  43  44
ATOM     44  C   LIG d   1      10.071   4.375  -2.728  0.00  0.00     0.082 C 
ATOM     45  H   LIG d   1       8.996   4.539  -2.807  0.00  0.00     0.066 H 
ATOM     46  H   LIG d   1      10.444   4.846  -1.819  0.00  0.00     0.066 H 
ATOM     47  H   LIG d   1      10.570   4.811  -3.594  0.00  0.00     0.066 H 
ENDBRANCH  43  44
ENDBRANCH  41  43
ENDBRANCH  38  41
ENDBRANCH   7  38
TORSDOF 10
ENDMDL
MODEL 3
REMARK VINA RESULT:      -5.2      1.167      2.687
REMARK  10 active torsions:
REMARK  status: ('A' for Active; 'I' for Inactive)
REMARK    1  A    between atoms: C_1  and  C_2 
REMARK    2  A    between atoms: C_2  and  C_3 
REMARK    3  A    between atoms: N_6  and  S_16 
REMARK    4  A    between atoms: C_9  and  C_11 
REMARK    5  A    between atoms: C_11  and  C_12 
REMARK    6  A    between atoms: C_12  and  O_14 
REMARK    7  A    between atoms: O_14  and  C_15 
REMARK    8  A    between atoms: S_16  and  C_19 
REMARK    9  A    between atoms: C_20  and  C_25 
REMARK   10  A    between atoms: C_23  and  C_24 
ROOT
ATOM      1  C   LIG d   1       4.220  -1.276  -8.307  0.00  0.00    -0.024 C 
ATOM      2  H   LIG d   1       4.082  -1.906  -9.186  0.00  0.00     0.032 H 
ATOM      3  C   LIG d   1       4.508  -2.156  -7.087  0.00  0.00     0.024 C 
ATOM      4  N   LIG d   1       4.562  -1.304  -5.892  0.00  0.00    -0.176 N 
ATOM      5  C   LIG d   1       3.429  -0.413  -5.606  0.00  0.00     0.021 C 
ATOM      6  C   LIG d   1       3.153   0.450  -6.842  0.00  0.00    -0.035 C 
ATOM      7  C   LIG d   1       2.948  -0.462  -8.057  0.00  0.00    -0.026 C 
ATOM      8  H   LIG d   1       2.115  -1.139  -7.867  0.00  0.00     0.031 H 
ATOM      9  H   LIG d   1       5.464  -2.662  -7.219  0.00  0.00     0.045 H 
ATOM     10  H   LIG d   1       3.715  -2.895  -6.972  0.00  0.00     0.045 H 
ATOM     11  H   LIG d   1       2.547  -1.009  -5.372  0.00  0.00     0.044 H 
ATOM     12  H   LIG d   1       3.673   0.228  -4.759  0.00  0.00     0.044 H 
ATOM     13  H   LIG d   1       2.256   1.046  -6.675  0.00  0.00     0.028 H 
ATOM     14  H   LIG d   1       4.001   1.110  -7.021  0.00  0.00     0.028 H 
ENDROOT
BRANCH   4  15
ATOM     15  S   LIG d   1       5.877  -1.346  -4.885  0.00  0.00     0.066 S 
ATOM     16  O   LIG d   1       6.004  -2.689  -4.439  0.00  0.00    -0.153 OA
ATOM     17  O   LIG d   1       6.927  -0.665  -5.560  0.00  0.00    -0.153 OA
BRANCH  15  18
ATOM     18  C   LIG d   1       5.479  -0.379  -3.468  0.00  0.00     0.170 A 
ATOM     19  C   LIG d   1       6.003   0.814  -3.097  0.00  0.00     0.161 A 
ATOM     20  O   LIG d   1       5.391   1.160  -1.956  0.00  0.00    -0.358 OA
ATOM     21  N   LIG d   1       4.587   0.323  -1.611  0.00  0.00    -0.081 NA
ATOM     22  C   LIG d   1       4.542  -0.672  -2.449  0.00  0.00     0.107 A 
BRANCH  19  23
ATOM     23  C   LIG d   1       7.063   1.599  -3.826  0.00  0.00    -0.002 C 
ATOM     24  H   LIG d   1       7.930   0.963  -4.000  0.00  0.00     0.031 H 
ATOM     25  H   LIG d   1       6.667   1.944  -4.781  0.00  0.00     0.031 H 
ATOM     26  H   LIG d   1       7.356   2.458  -3.224  0.00  0.00     0.031 H 
ENDBRANCH  19  23
BRANCH  22  27
ATOM     27  C   LIG d   1       3.666  -1.894  -2.354  0.00  0.00    -0.017 C 
ATOM     28  H   LIG d   1       4.277  -2.789  -2.473  0.00  0.00     0.029 H 
ATOM     29  H   LIG d   1       3.178  -1.915  -1.379  0.00  0.00     0.029 H 
ATOM     30  H   LIG d   1       2.911  -1.863  -3.139  0.00  0.00     0.029 H 
ENDBRANCH  22  27
ENDBRANCH  15  18
ENDBRANCH   4  15
BRANCH   1  31
ATOM     31  C   LIG d   1       5.396  -0.326  -8.541  0.00  0.00    -0.052 C 
ATOM     32  H   LIG d   1       5.089   0.476  -9.211  0.00  0.00     0.027 H 
ATOM     33  H   LIG d   1       5.717   0.097  -7.589  0.00  0.00     0.027 H 
BRANCH  31  34
ATOM     34  C   LIG d   1       6.558  -1.099  -9.171  0.00  0.00    -0.065 C 
ATOM     35  H   LIG d   1       6.344  -1.281 -10.224  0.00  0.00     0.023 H 
ATOM     36  H   LIG d   1       7.474  -0.516  -9.081  0.00  0.00     0.023 H 
ATOM     37  H   LIG d   1       6.681  -2.052  -8.657  0.00  0.00     0.023 H 
ENDBRANCH  31  34
ENDBRANCH   1  31
BRANCH   7  38
ATOM     38  C   LIG d   1       2.639   0.393  -9.288  0.00  0.00     0.048 C 
ATOM     39  H   LIG d   1       1.906   1.155  -9.025  0.00  0.00     0.038 H 
ATOM     40  H   LIG d   1       3.553   0.871  -9.637  0.00  0.00     0.038 H 
BRANCH  38  41
ATOM     41  C   LIG d   1       2.082  -0.484 -10.380  0.00  0.00     0.307 C 
ATOM     42  O   LIG d   1       1.183  -1.255 -10.137  0.00  0.00    -0.251 OA
BRANCH  41  43
ATOM     43  O   LIG d   1       2.585  -0.411 -11.622  0.00  0.00    -0.468 OA
BRANCH  43  44
ATOM     44  C   LIG d   1       3.621  -1.365 -11.971  0.00  0.00     0.082 C 
ATOM     45  H   LIG d   1       3.192  -2.366 -12.024  0.00  0.00     0.066 H 
ATOM     46  H   LIG d   1       4.047  -1.101 -12.940  0.00  0.00     0.066 H 
ATOM     47  H   LIG d   1       4.405  -1.346 -11.213  0.00  0.00     0.066 H 
ENDBRANCH  43  44
ENDBRANCH  41  43
ENDBRANCH  38  41
ENDBRANCH   7  38
TORSDOF 10
ENDMDL
MODEL 4
REMARK VINA RESULT:      -5.1      1.661      2.477
REMARK  10 active torsions:
REMARK  status: ('A' for Active; 'I' for Inactive)
REMARK    1  A    between atoms: C_1  and  C_2 
REMARK    2  A    between atoms: C_2  and  C_3 
REMARK    3  A    between atoms: N_6  and  S_16 
REMARK    4  A    between atoms: C_9  and  C_11 
REMARK    5  A    between atoms: C_11  and  C_12 
REMARK    6  A    between atoms: C_12  and  O_14 
REMARK    7  A    between atoms: O_14  and  C_15 
REMARK    8  A    between atoms: S_16  and  C_19 
REMARK    9  A    between atoms: C_20  and  C_25 
REMARK   10  A    between atoms: C_23  and  C_24 
ROOT
ATOM      1  C   LIG d   1       4.311  -0.948  -7.443  0.00  0.00    -0.024 C 
ATOM      2  H   LIG d   1       4.321  -1.381  -8.444  0.00  0.00     0.032 H 
ATOM      3  C   LIG d   1       4.470  -2.061  -6.403  0.00  0.00     0.024 C 
ATOM      4  N   LIG d   1       4.325  -1.479  -5.062  0.00  0.00    -0.176 N 
ATOM      5  C   LIG d   1       3.127  -0.684  -4.762  0.00  0.00     0.021 C 
ATOM      6  C   LIG d   1       2.982   0.415  -5.819  0.00  0.00    -0.035 C 
ATOM      7  C   LIG d   1       2.984  -0.223  -7.212  0.00  0.00    -0.026 C 
ATOM      8  H   LIG d   1       2.163  -0.937  -7.286  0.00  0.00     0.031 H 
ATOM      9  H   LIG d   1       5.456  -2.515  -6.500  0.00  0.00     0.045 H 
ATOM     10  H   LIG d   1       3.701  -2.819  -6.556  0.00  0.00     0.045 H 
ATOM     11  H   LIG d   1       2.247  -1.328  -4.782  0.00  0.00     0.044 H 
ATOM     12  H   LIG d   1       3.225  -0.232  -3.775  0.00  0.00     0.044 H 
ATOM     13  H   LIG d   1       2.046   0.950  -5.661  0.00  0.00     0.028 H 
ATOM     14  H   LIG d   1       3.818   1.111  -5.736  0.00  0.00     0.028 H 
ENDROOT
BRANCH   4  15
ATOM     15  S   LIG d   1       5.493  -1.713  -3.910  0.00  0.00     0.066 S 
ATOM     16  O   LIG d   1       4.813  -1.940  -2.684  0.00  0.00    -0.153 OA
ATOM     17  O   LIG d   1       6.417  -2.646  -4.453  0.00  0.00    -0.153 OA
BRANCH  15  18
ATOM     18  C   LIG d   1       6.361  -0.191  -3.731  0.00  0.00     0.170 A 
ATOM     19  C   LIG d   1       5.996   0.898  -3.012  0.00  0.00     0.161 A 
ATOM     20  O   LIG d   1       6.970   1.805  -3.177  0.00  0.00    -0.358 OA
ATOM     21  N   LIG d   1       7.845   1.391  -3.901  0.00  0.00    -0.081 NA
ATOM     22  C   LIG d   1       7.597   0.181  -4.310  0.00  0.00     0.107 A 
BRANCH  19  23
ATOM     23  C   LIG d   1       4.745   1.057  -2.188  0.00  0.00    -0.002 C 
ATOM     24  H   LIG d   1       4.999   1.015  -1.130  0.00  0.00     0.031 H 
ATOM     25  H   LIG d   1       4.281   2.018  -2.413  0.00  0.00     0.031 H 
ATOM     26  H   LIG d   1       4.048   0.254  -2.428  0.00  0.00     0.031 H 
ENDBRANCH  19  23
BRANCH  22  27
ATOM     27  C   LIG d   1       8.455  -0.660  -5.220  0.00  0.00    -0.017 C 
ATOM     28  H   LIG d   1       8.236  -0.410  -6.258  0.00  0.00     0.029 H 
ATOM     29  H   LIG d   1       9.506  -0.461  -5.013  0.00  0.00     0.029 H 
ATOM     30  H   LIG d   1       8.243  -1.715  -5.049  0.00  0.00     0.029 H 
ENDBRANCH  22  27
ENDBRANCH  15  18
ENDBRANCH   4  15
BRANCH   1  31
ATOM     31  C   LIG d   1       5.466   0.046  -7.308  0.00  0.00    -0.052 C 
ATOM     32  H   LIG d   1       5.075   1.063  -7.320  0.00  0.00     0.027 H 
ATOM     33  H   LIG d   1       5.990  -0.131  -6.368  0.00  0.00     0.027 H 
BRANCH  31  34
ATOM     34  C   LIG d   1       6.439  -0.141  -8.474  0.00  0.00    -0.065 C 
ATOM     35  H   LIG d   1       6.261   0.632  -9.223  0.00  0.00     0.023 H 
ATOM     36  H   LIG d   1       7.463  -0.064  -8.110  0.00  0.00     0.023 H 
ATOM     37  H   LIG d   1       6.285  -1.122  -8.923  0.00  0.00     0.023 H 
ENDBRANCH  31  34
ENDBRANCH   1  31
BRANCH   7  38
ATOM     38  C   LIG d   1       2.807   0.867  -8.272  0.00  0.00     0.048 C 
ATOM     39  H   LIG d   1       1.996   1.532  -7.976  0.00  0.00     0.038 H 
ATOM     40  H   LIG d   1       3.730   1.437  -8.365  0.00  0.00     0.038 H 
BRANCH  38  41
ATOM     41  C   LIG d   1       2.474   0.229  -9.597  0.00  0.00     0.307 C 
ATOM     42  O   LIG d   1       1.536  -0.528  -9.684  0.00  0.00    -0.251 OA
BRANCH  41  43
ATOM     43  O   LIG d   1       3.220   0.501 -10.678  0.00  0.00    -0.468 OA
BRANCH  43  44
ATOM     44  C   LIG d   1       3.940  -0.607 -11.279  0.00  0.00     0.082 C 
ATOM     45  H   LIG d   1       4.787  -0.225 -11.848  0.00  0.00     0.066 H 
ATOM     46  H   LIG d   1       4.300  -1.273 -10.495  0.00  0.00     0.066 H 
ATOM     47  H   LIG d   1       3.273  -1.156 -11.944  0.00  0.00     0.066 H 
ENDBRANCH  43  44
ENDBRANCH  41  43
ENDBRANCH  38  41
ENDBRANCH   7  38
TORSDOF 10
ENDMDL
MODEL 5
REMARK VINA RESULT:      -5.0      2.708      5.720
REMARK  10 active torsions:
REMARK  status: ('A' for Active; 'I' for Inactive)
REMARK    1  A    between atoms: C_1  and  C_2 
REMARK    2  A    between atoms: C_2  and  C_3 
REMARK    3  A    between atoms: N_6  and  S_16 
REMARK    4  A    between atoms: C_9  and  C_11 
REMARK    5  A    between atoms: C_11  and  C_12 
REMARK    6  A    between atoms: C_12  and  O_14 
REMARK    7  A    between atoms: O_14  and  C_15 
REMARK    8  A    between atoms: S_16  and  C_19 
REMARK    9  A    between atoms: C_20  and  C_25 
REMARK   10  A    between atoms: C_23  and  C_24 
ROOT
ATOM      1  C   LIG d   1       4.882  -0.839  -4.885  0.00  0.00    -0.024 C 
ATOM      2  H   LIG d   1       5.262  -0.414  -3.956  0.00  0.00     0.032 H 
ATOM      3  C   LIG d   1       6.042  -1.049  -5.863  0.00  0.00     0.024 C 
ATOM      4  N   LIG d   1       5.498  -1.499  -7.152  0.00  0.00    -0.176 N 
ATOM      5  C   LIG d   1       4.446  -0.697  -7.793  0.00  0.00     0.021 C 
ATOM      6  C   LIG d   1       3.302  -0.491  -6.795  0.00  0.00    -0.035 C 
ATOM      7  C   LIG d   1       3.863   0.120  -5.506  0.00  0.00    -0.026 C 
ATOM      8  H   LIG d   1       4.350   1.069  -5.735  0.00  0.00     0.031 H 
ATOM      9  H   LIG d   1       6.720  -1.806  -5.469  0.00  0.00     0.045 H 
ATOM     10  H   LIG d   1       6.581  -0.112  -6.002  0.00  0.00     0.045 H 
ATOM     11  H   LIG d   1       4.853   0.270  -8.088  0.00  0.00     0.044 H 
ATOM     12  H   LIG d   1       4.074  -1.221  -8.674  0.00  0.00     0.044 H 
ATOM     13  H   LIG d   1       2.560   0.181  -7.227  0.00  0.00     0.028 H 
ATOM     14  H   LIG d   1       2.837  -1.451  -6.571  0.00  0.00     0.028 H 
ENDROOT
BRANCH   4  15
ATOM     15  S   LIG d   1       6.059  -2.882  -7.868  0.00  0.00     0.066 S 
ATOM     16  O   LIG d   1       5.987  -2.670  -9.272  0.00  0.00    -0.153 OA
ATOM     17  O   LIG d   1       7.274  -3.217  -7.210  0.00  0.00    -0.153 OA
BRANCH  15  18
ATOM     18  C   LIG d   1       4.913  -4.166  -7.492  0.00  0.00     0.170 A 
ATOM     19  C   LIG d   1       3.732  -4.434  -8.099  0.00  0.00     0.161 A 
ATOM     20  O   LIG d   1       3.216  -5.500  -7.472  0.00  0.00    -0.358 OA
ATOM     21  N   LIG d   1       3.936  -5.881  -6.578  0.00  0.00    -0.081 NA
ATOM     22  C   LIG d   1       5.009  -5.151  -6.482  0.00  0.00     0.107 A 
BRANCH  19  23
ATOM     23  C   LIG d   1       3.120  -3.683  -9.254  0.00  0.00    -0.002 C 
ATOM     24  H   LIG d   1       2.064  -3.505  -9.053  0.00  0.00     0.031 H 
ATOM     25  H   LIG d   1       3.632  -2.729  -9.379  0.00  0.00     0.031 H 
ATOM     26  H   LIG d   1       3.224  -4.271 -10.165  0.00  0.00     0.031 H 
ENDBRANCH  19  23
BRANCH  22  27
ATOM     27  C   LIG d   1       6.133  -5.321  -5.493  0.00  0.00    -0.017 C 
ATOM     28  H   LIG d   1       6.736  -4.414  -5.469  0.00  0.00     0.029 H 
ATOM     29  H   LIG d   1       5.718  -5.508  -4.502  0.00  0.00     0.029 H 
ATOM     30  H   LIG d   1       6.757  -6.164  -5.791  0.00  0.00     0.029 H 
ENDBRANCH  22  27
ENDBRANCH  15  18
ENDBRANCH   4  15
BRANCH   1  31
ATOM     31  C   LIG d   1       4.209  -2.181  -4.594  0.00  0.00    -0.052 C 
ATOM     32  H   LIG d   1       3.142  -2.107  -4.806  0.00  0.00     0.027 H 
ATOM     33  H   LIG d   1       4.652  -2.954  -5.223  0.00  0.00     0.027 H 
BRANCH  31  34
ATOM     34  C   LIG d   1       4.413  -2.545  -3.122  0.00  0.00    -0.065 C 
ATOM     35  H   LIG d   1       5.477  -2.668  -2.922  0.00  0.00     0.023 H 
ATOM     36  H   LIG d   1       4.015  -1.749  -2.492  0.00  0.00     0.023 H 
ATOM     37  H   LIG d   1       3.893  -3.477  -2.902  0.00  0.00     0.023 H 
ENDBRANCH  31  34
ENDBRANCH   1  31
BRANCH   7  38
ATOM     38  C   LIG d   1       2.720   0.359  -4.517  0.00  0.00     0.048 C 
ATOM     39  H   LIG d   1       1.899   0.863  -5.026  0.00  0.00     0.038 H 
ATOM     40  H   LIG d   1       2.374  -0.596  -4.124  0.00  0.00     0.038 H 
BRANCH  38  41
ATOM     41  C   LIG d   1       3.211   1.222  -3.382  0.00  0.00     0.307 C 
ATOM     42  O   LIG d   1       3.484   2.382  -3.580  0.00  0.00    -0.251 OA
BRANCH  41  43
ATOM     43  O   LIG d   1       3.347   0.700  -2.153  0.00  0.00    -0.468 OA
BRANCH  43  44
ATOM     44  C   LIG d   1       4.654   0.807  -1.532  0.00  0.00     0.082 C 
ATOM     45  H   LIG d   1       4.672   0.216  -0.617  0.00  0.00     0.066 H 
ATOM     46  H   LIG d   1       5.415   0.436  -2.220  0.00  0.00     0.066 H 
ATOM     47  H   LIG d   1       4.859   1.851  -1.293  0.00  0.00     0.066 H 
ENDBRANCH  43  44
ENDBRANCH  41  43
ENDBRANCH  38  41
ENDBRANCH   7  38
TORSDOF 10
ENDMDL
MODEL 6
REMARK VINA RESULT:      -4.9      2.554      3.592
REMARK  10 active torsions:
REMARK  status: ('A' for Active; 'I' for Inactive)
REMARK    1  A    between atoms: C_1  and  C_2 
REMARK    2  A    between atoms: C_2  and  C_3 
REMARK    3  A    between atoms: N_6  and  S_16 
REMARK    4  A    between atoms: C_9  and  C_11 
REMARK    5  A    between atoms: C_11  and  C_12 
REMARK    6  A    between atoms: C_12  and  O_14 
REMARK    7  A    between atoms: O_14  and  C_15 
REMARK    8  A    between atoms: S_16  and  C_19 
REMARK    9  A    between atoms: C_20  and  C_25 
REMARK   10  A    between atoms: C_23  and  C_24 
ROOT
ATOM      1  C   LIG d   1       4.206   0.360  -9.844  0.00  0.00    -0.024 C 
ATOM      2  H   LIG d   1       4.774   0.726 -10.700  0.00  0.00     0.032 H 
ATOM      3  C   LIG d   1       5.171  -0.083  -8.741  0.00  0.00     0.024 C 
ATOM      4  N   LIG d   1       4.396  -0.692  -7.652  0.00  0.00    -0.176 N 
ATOM      5  C   LIG d   1       3.469  -1.786  -7.970  0.00  0.00     0.021 C 
ATOM      6  C   LIG d   1       2.520  -1.326  -9.081  0.00  0.00    -0.035 C 
ATOM      7  C   LIG d   1       3.345  -0.831 -10.274  0.00  0.00    -0.026 C 
ATOM      8  H   LIG d   1       3.991  -1.635 -10.628  0.00  0.00     0.031 H 
ATOM      9  H   LIG d   1       5.716   0.782  -8.363  0.00  0.00     0.045 H 
ATOM     10  H   LIG d   1       5.875  -0.813  -9.140  0.00  0.00     0.045 H 
ATOM     11  H   LIG d   1       4.033  -2.656  -8.308  0.00  0.00     0.044 H 
ATOM     12  H   LIG d   1       2.894  -2.047  -7.082  0.00  0.00     0.044 H 
ATOM     13  H   LIG d   1       1.891  -2.160  -9.390  0.00  0.00     0.028 H 
ATOM     14  H   LIG d   1       1.893  -0.514  -8.710  0.00  0.00     0.028 H 
ENDROOT
BRANCH   4  15
ATOM     15  S   LIG d   1       4.565  -0.155  -6.094  0.00  0.00     0.066 S 
ATOM     16  O   LIG d   1       5.885   0.360  -5.983  0.00  0.00    -0.153 OA
ATOM     17  O   LIG d   1       3.415   0.630  -5.808  0.00  0.00    -0.153 OA
BRANCH  15  18
ATOM     18  C   LIG d   1       4.485  -1.567  -5.044  0.00  0.00     0.170 A 
ATOM     19  C   LIG d   1       3.727  -1.741  -3.935  0.00  0.00     0.161 A 
ATOM     20  O   LIG d   1       4.001  -2.970  -3.476  0.00  0.00    -0.358 OA
ATOM     21  N   LIG d   1       4.822  -3.529  -4.166  0.00  0.00    -0.081 NA
ATOM     22  C   LIG d   1       5.202  -2.781  -5.161  0.00  0.00     0.107 A 
BRANCH  19  23
ATOM     23  C   LIG d   1       2.763  -0.749  -3.337  0.00  0.00    -0.002 C 
ATOM     24  H   LIG d   1       2.255  -0.209  -4.136  0.00  0.00     0.031 H 
ATOM     25  H   LIG d   1       2.028  -1.277  -2.730  0.00  0.00     0.031 H 
ATOM     26  H   LIG d   1       3.310  -0.043  -2.712  0.00  0.00     0.031 H 
ENDBRANCH  19  23
BRANCH  22  27
ATOM     27  C   LIG d   1       6.207  -3.136  -6.226  0.00  0.00    -0.017 C 
ATOM     28  H   LIG d   1       6.871  -3.915  -5.854  0.00  0.00     0.029 H 
ATOM     29  H   LIG d   1       5.684  -3.496  -7.112  0.00  0.00     0.029 H 
ATOM     30  H   LIG d   1       6.792  -2.253  -6.484  0.00  0.00     0.029 H 
ENDBRANCH  22  27
ENDBRANCH  15  18
ENDBRANCH   4  15
BRANCH   1  31
ATOM     31  C   LIG d   1       3.304   1.477  -9.316  0.00  0.00    -0.052 C 
ATOM     32  H   LIG d   1       2.457   1.611  -9.989  0.00  0.00     0.027 H 
ATOM     33  H   LIG d   1       2.940   1.212  -8.323  0.00  0.00     0.027 H 
BRANCH  31  34
ATOM     34  C   LIG d   1       4.102   2.780  -9.234  0.00  0.00    -0.065 C 
ATOM     35  H   LIG d   1       3.431   3.602  -8.982  0.00  0.00     0.023 H 
ATOM     36  H   LIG d   1       4.868   2.690  -8.465  0.00  0.00     0.023 H 
ATOM     37  H   LIG d   1       4.573   2.979 -10.196  0.00  0.00     0.023 H 
ENDBRANCH  31  34
ENDBRANCH   1  31
BRANCH   7  38
ATOM     38  C   LIG d   1       2.404  -0.399 -11.400  0.00  0.00     0.048 C 
ATOM     39  H   LIG d   1       1.478  -0.016 -10.972  0.00  0.00     0.038 H 
ATOM     40  H   LIG d   1       2.880   0.380 -11.994  0.00  0.00     0.038 H 
BRANCH  38  41
ATOM     41  C   LIG d   1       2.097  -1.585 -12.279  0.00  0.00     0.307 C 
ATOM     42  O   LIG d   1       2.951  -2.036 -13.005  0.00  0.00    -0.251 OA
BRANCH  41  43
ATOM     43  O   LIG d   1       0.875  -2.139 -12.256  0.00  0.00    -0.468 OA
BRANCH  43  44
ATOM     44  C   LIG d   1       0.755  -3.445 -11.635  0.00  0.00     0.082 C 
ATOM     45  H   LIG d   1       0.188  -4.108 -12.289  0.00  0.00     0.066 H 
ATOM     46  H   LIG d   1       1.748  -3.861 -11.469  0.00  0.00     0.066 H 
ATOM     47  H   LIG d   1       0.237  -3.347 -10.680  0.00  0.00     0.066 H 
ENDBRANCH  43  44
ENDBRANCH  41  43
ENDBRANCH  38  41
ENDBRANCH   7  38
TORSDOF 10
ENDMDL
MODEL 7
REMARK VINA RESULT:      -4.9      3.059      5.353
REMARK  10 active torsions:
REMARK  status: ('A' for Active; 'I' for Inactive)
REMARK    1  A    between atoms: C_1  and  C_2 
REMARK    2  A    between atoms: C_2  and  C_3 
REMARK    3  A    between atoms: N_6  and  S_16 
REMARK    4  A    between atoms: C_9  and  C_11 
REMARK    5  A    between atoms: C_11  and  C_12 
REMARK    6  A    between atoms: C_12  and  O_14 
REMARK    7  A    between atoms: O_14  and  C_15 
REMARK    8  A    between atoms: S_16  and  C_19 
REMARK    9  A    between atoms: C_20  and  C_25 
REMARK   10  A    between atoms: C_23  and  C_24 
ROOT
ATOM      1  C   LIG d   1       5.736  -4.041  -4.647  0.00  0.00    -0.024 C 
ATOM      2  H   LIG d   1       5.770  -4.676  -3.762  0.00  0.00     0.032 H 
ATOM      3  C   LIG d   1       4.855  -2.820  -4.368  0.00  0.00     0.024 C 
ATOM      4  N   LIG d   1       4.717  -2.044  -5.607  0.00  0.00    -0.176 N 
ATOM      5  C   LIG d   1       4.249  -2.727  -6.821  0.00  0.00     0.021 C 
ATOM      6  C   LIG d   1       5.137  -3.949  -7.076  0.00  0.00    -0.035 C 
ATOM      7  C   LIG d   1       5.152  -4.830  -5.821  0.00  0.00    -0.026 C 
ATOM      8  H   LIG d   1       4.134  -5.138  -5.581  0.00  0.00     0.031 H 
ATOM      9  H   LIG d   1       5.320  -2.201  -3.600  0.00  0.00     0.045 H 
ATOM     10  H   LIG d   1       3.871  -3.146  -4.030  0.00  0.00     0.045 H 
ATOM     11  H   LIG d   1       3.216  -3.048  -6.684  0.00  0.00     0.044 H 
ATOM     12  H   LIG d   1       4.310  -2.047  -7.670  0.00  0.00     0.044 H 
ATOM     13  H   LIG d   1       4.741  -4.517  -7.918  0.00  0.00     0.028 H 
ATOM     14  H   LIG d   1       6.152  -3.621  -7.302  0.00  0.00     0.028 H 
ENDROOT
BRANCH   4  15
ATOM     15  S   LIG d   1       5.081  -0.428  -5.637  0.00  0.00     0.066 S 
ATOM     16  O   LIG d   1       6.453  -0.328  -5.993  0.00  0.00    -0.153 OA
ATOM     17  O   LIG d   1       4.052   0.207  -6.383  0.00  0.00    -0.153 OA
BRANCH  15  18
ATOM     18  C   LIG d   1       4.945   0.167  -3.984  0.00  0.00     0.170 A 
ATOM     19  C   LIG d   1       5.904   0.746  -3.224  0.00  0.00     0.161 A 
ATOM     20  O   LIG d   1       5.335   1.031  -2.044  0.00  0.00    -0.358 OA
ATOM     21  N   LIG d   1       4.175   0.687  -2.017  0.00  0.00    -0.081 NA
ATOM     22  C   LIG d   1       3.809   0.144  -3.141  0.00  0.00     0.107 A 
BRANCH  19  23
ATOM     23  C   LIG d   1       7.331   1.019  -3.626  0.00  0.00    -0.002 C 
ATOM     24  H   LIG d   1       7.683   0.222  -4.281  0.00  0.00     0.031 H 
ATOM     25  H   LIG d   1       7.384   1.972  -4.152  0.00  0.00     0.031 H 
ATOM     26  H   LIG d   1       7.957   1.061  -2.735  0.00  0.00     0.031 H 
ENDBRANCH  19  23
BRANCH  22  27
ATOM     27  C   LIG d   1       2.446  -0.403  -3.479  0.00  0.00    -0.017 C 
ATOM     28  H   LIG d   1       2.226  -0.206  -4.528  0.00  0.00     0.029 H 
ATOM     29  H   LIG d   1       2.432  -1.478  -3.300  0.00  0.00     0.029 H 
ATOM     30  H   LIG d   1       1.695   0.080  -2.854  0.00  0.00     0.029 H 
ENDBRANCH  22  27
ENDBRANCH  15  18
ENDBRANCH   4  15
BRANCH   1  31
ATOM     31  C   LIG d   1       7.153  -3.580  -4.996  0.00  0.00    -0.052 C 
ATOM     32  H   LIG d   1       7.775  -4.448  -5.215  0.00  0.00     0.027 H 
ATOM     33  H   LIG d   1       7.118  -2.928  -5.869  0.00  0.00     0.027 H 
BRANCH  31  34
ATOM     34  C   LIG d   1       7.745  -2.813  -3.812  0.00  0.00    -0.065 C 
ATOM     35  H   LIG d   1       8.718  -2.408  -4.091  0.00  0.00     0.023 H 
ATOM     36  H   LIG d   1       7.078  -1.997  -3.537  0.00  0.00     0.023 H 
ATOM     37  H   LIG d   1       7.864  -3.487  -2.964  0.00  0.00     0.023 H 
ENDBRANCH  31  34
ENDBRANCH   1  31
BRANCH   7  38
ATOM     38  C   LIG d   1       6.012  -6.069  -6.080  0.00  0.00     0.048 C 
ATOM     39  H   LIG d   1       6.351  -6.065  -7.116  0.00  0.00     0.038 H 
ATOM     40  H   LIG d   1       6.874  -6.060  -5.414  0.00  0.00     0.038 H 
BRANCH  38  41
ATOM     41  C   LIG d   1       5.193  -7.309  -5.825  0.00  0.00     0.307 C 
ATOM     42  O   LIG d   1       4.087  -7.412  -6.301  0.00  0.00    -0.251 OA
BRANCH  41  43
ATOM     43  O   LIG d   1       5.692  -8.299  -5.069  0.00  0.00    -0.468 OA
BRANCH  43  44
ATOM     44  C   LIG d   1       7.104  -8.229  -4.740  0.00  0.00     0.082 C 
ATOM     45  H   LIG d   1       7.696  -8.385  -5.641  0.00  0.00     0.066 H 
ATOM     46  H   LIG d   1       7.332  -7.249  -4.321  0.00  0.00     0.066 H 
ATOM     47  H   LIG d   1       7.346  -9.001  -4.009  0.00  0.00     0.066 H 
ENDBRANCH  43  44
ENDBRANCH  41  43
ENDBRANCH  38  41
ENDBRANCH   7  38
TORSDOF 10
ENDMDL
MODEL 8
REMARK VINA RESULT:      -4.8      2.917      4.948
REMARK  10 active torsions:
REMARK  status: ('A' for Active; 'I' for Inactive)
REMARK    1  A    between atoms: C_1  and  C_2 
REMARK    2  A    between atoms: C_2  and  C_3 
REMARK    3  A    between atoms: N_6  and  S_16 
REMARK    4  A    between atoms: C_9  and  C_11 
REMARK    5  A    between atoms: C_11  and  C_12 
REMARK    6  A    between atoms: C_12  and  O_14 
REMARK    7  A    between atoms: O_14  and  C_15 
REMARK    8  A    between atoms: S_16  and  C_19 
REMARK    9  A    between atoms: C_20  and  C_25 
REMARK   10  A    between atoms: C_23  and  C_24 
ROOT
ATOM      1  C   LIG d   1       7.290  -3.984  -5.377  0.00  0.00    -0.024 C 
ATOM      2  H   LIG d   1       8.177  -4.618  -5.369  0.00  0.00     0.032 H 
ATOM      3  C   LIG d   1       7.342  -3.017  -4.191  0.00  0.00     0.024 C 
ATOM      4  N   LIG d   1       6.084  -2.261  -4.142  0.00  0.00    -0.176 N 
ATOM      5  C   LIG d   1       4.815  -3.001  -4.125  0.00  0.00     0.021 C 
ATOM      6  C   LIG d   1       4.788  -3.968  -5.313  0.00  0.00    -0.035 C 
ATOM      7  C   LIG d   1       6.037  -4.855  -5.267  0.00  0.00    -0.026 C 
ATOM      8  H   LIG d   1       6.059  -5.404  -4.325  0.00  0.00     0.031 H 
ATOM      9  H   LIG d   1       8.177  -2.328  -4.317  0.00  0.00     0.045 H 
ATOM     10  H   LIG d   1       7.467  -3.578  -3.265  0.00  0.00     0.045 H 
ATOM     11  H   LIG d   1       4.732  -3.562  -3.195  0.00  0.00     0.044 H 
ATOM     12  H   LIG d   1       3.982  -2.301  -4.204  0.00  0.00     0.044 H 
ATOM     13  H   LIG d   1       3.894  -4.589  -5.256  0.00  0.00     0.028 H 
ATOM     14  H   LIG d   1       4.779  -3.400  -6.244  0.00  0.00     0.028 H 
ENDROOT
BRANCH   4  15
ATOM     15  S   LIG d   1       6.095  -0.605  -4.107  0.00  0.00     0.066 S 
ATOM     16  O   LIG d   1       6.247  -0.228  -2.745  0.00  0.00    -0.153 OA
ATOM     17  O   LIG d   1       7.000  -0.183  -5.119  0.00  0.00    -0.153 OA
BRANCH  15  18
ATOM     18  C   LIG d   1       4.495  -0.062  -4.606  0.00  0.00     0.170 A 
ATOM     19  C   LIG d   1       3.539   0.524  -3.847  0.00  0.00     0.161 A 
ATOM     20  O   LIG d   1       2.498   0.758  -4.659  0.00  0.00    -0.358 OA
ATOM     21  N   LIG d   1       2.721   0.379  -5.786  0.00  0.00    -0.081 NA
ATOM     22  C   LIG d   1       3.909  -0.143  -5.890  0.00  0.00     0.107 A 
BRANCH  19  23
ATOM     23  C   LIG d   1       3.627   0.851  -2.378  0.00  0.00    -0.002 C 
ATOM     24  H   LIG d   1       2.879   1.603  -2.127  0.00  0.00     0.031 H 
ATOM     25  H   LIG d   1       3.447  -0.051  -1.794  0.00  0.00     0.031 H 
ATOM     26  H   LIG d   1       4.621   1.237  -2.152  0.00  0.00     0.031 H 
ENDBRANCH  19  23
BRANCH  22  27
ATOM     27  C   LIG d   1       4.536  -0.721  -7.133  0.00  0.00    -0.017 C 
ATOM     28  H   LIG d   1       5.443  -1.261  -6.864  0.00  0.00     0.029 H 
ATOM     29  H   LIG d   1       3.833  -1.404  -7.610  0.00  0.00     0.029 H 
ATOM     30  H   LIG d   1       4.785   0.085  -7.823  0.00  0.00     0.029 H 
ENDBRANCH  22  27
ENDBRANCH  15  18
ENDBRANCH   4  15
BRANCH   1  31
ATOM     31  C   LIG d   1       7.245  -3.188  -6.684  0.00  0.00    -0.052 C 
ATOM     32  H   LIG d   1       6.889  -3.830  -7.489  0.00  0.00     0.027 H 
ATOM     33  H   LIG d   1       6.571  -2.340  -6.569  0.00  0.00     0.027 H 
BRANCH  31  34
ATOM     34  C   LIG d   1       8.649  -2.681  -7.019  0.00  0.00    -0.065 C 
ATOM     35  H   LIG d   1       8.915  -1.871  -6.340  0.00  0.00     0.023 H 
ATOM     36  H   LIG d   1       9.366  -3.494  -6.912  0.00  0.00     0.023 H 
ATOM     37  H   LIG d   1       8.668  -2.313  -8.045  0.00  0.00     0.023 H 
ENDBRANCH  31  34
ENDBRANCH   1  31
BRANCH   7  38
ATOM     38  C   LIG d   1       6.001  -5.846  -6.433  0.00  0.00     0.048 C 
ATOM     39  H   LIG d   1       5.977  -5.297  -7.374  0.00  0.00     0.038 H 
ATOM     40  H   LIG d   1       6.888  -6.477  -6.401  0.00  0.00     0.038 H 
BRANCH  38  41
ATOM     41  C   LIG d   1       4.768  -6.706  -6.322  0.00  0.00     0.307 C 
ATOM     42  O   LIG d   1       4.582  -7.371  -5.331  0.00  0.00    -0.251 OA
BRANCH  41  43
ATOM     43  O   LIG d   1       3.877  -6.733  -7.325  0.00  0.00    -0.468 OA
BRANCH  43  44
ATOM     44  C   LIG d   1       4.200  -5.967  -8.515  0.00  0.00     0.082 C 
ATOM     45  H   LIG d   1       5.165  -6.289  -8.904  0.00  0.00     0.066 H 
ATOM     46  H   LIG d   1       3.431  -6.128  -9.271  0.00  0.00     0.066 H 
ATOM     47  H   LIG d   1       4.245  -4.907  -8.264  0.00  0.00     0.066 H 
ENDBRANCH  43  44
ENDBRANCH  41  43
ENDBRANCH  38  41
ENDBRANCH   7  38
TORSDOF 10
ENDMDL
MODEL 9
REMARK VINA RESULT:      -4.8      2.811      5.459
REMARK  10 active torsions:
REMARK  status: ('A' for Active; 'I' for Inactive)
REMARK    1  A    between atoms: C_1  and  C_2 
REMARK    2  A    between atoms: C_2  and  C_3 
REMARK    3  A    between atoms: N_6  and  S_16 
REMARK    4  A    between atoms: C_9  and  C_11 
REMARK    5  A    between atoms: C_11  and  C_12 
REMARK    6  A    between atoms: C_12  and  O_14 
REMARK    7  A    between atoms: O_14  and  C_15 
REMARK    8  A    between atoms: S_16  and  C_19 
REMARK    9  A    between atoms: C_20  and  C_25 
REMARK   10  A    between atoms: C_23  and  C_24 
ROOT
ATOM      1  C   LIG d   1       7.944  -0.641  -4.166  0.00  0.00    -0.024 C 
ATOM      2  H   LIG d   1       8.661  -0.236  -3.451  0.00  0.00     0.032 H 
ATOM      3  C   LIG d   1       7.093  -1.716  -3.484  0.00  0.00     0.024 C 
ATOM      4  N   LIG d   1       6.224  -2.339  -4.491  0.00  0.00    -0.176 N 
ATOM      5  C   LIG d   1       6.835  -2.888  -5.709  0.00  0.00     0.021 C 
ATOM      6  C   LIG d   1       7.689  -1.801  -6.369  0.00  0.00    -0.035 C 
ATOM      7  C   LIG d   1       8.695  -1.262  -5.346  0.00  0.00    -0.026 C 
ATOM      8  H   LIG d   1       9.322  -2.079  -4.988  0.00  0.00     0.031 H 
ATOM      9  H   LIG d   1       6.481  -1.259  -2.706  0.00  0.00     0.045 H 
ATOM     10  H   LIG d   1       7.741  -2.473  -3.042  0.00  0.00     0.045 H 
ATOM     11  H   LIG d   1       7.464  -3.740  -5.451  0.00  0.00     0.044 H 
ATOM     12  H   LIG d   1       6.053  -3.208  -6.398  0.00  0.00     0.044 H 
ATOM     13  H   LIG d   1       8.222  -2.224  -7.221  0.00  0.00     0.028 H 
ATOM     14  H   LIG d   1       7.045  -0.989  -6.709  0.00  0.00     0.028 H 
ENDROOT
BRANCH   4  15
ATOM     15  S   LIG d   1       4.586  -2.423  -4.257  0.00  0.00     0.066 S 
ATOM     16  O   LIG d   1       4.106  -3.452  -5.112  0.00  0.00    -0.153 OA
ATOM     17  O   LIG d   1       4.377  -2.441  -2.851  0.00  0.00    -0.153 OA
BRANCH  15  18
ATOM     18  C   LIG d   1       3.898  -0.913  -4.849  0.00  0.00     0.170 A 
ATOM     19  C   LIG d   1       3.378   0.107  -4.126  0.00  0.00     0.161 A 
ATOM     20  O   LIG d   1       2.982   1.036  -5.009  0.00  0.00    -0.358 OA
ATOM     21  N   LIG d   1       3.197   0.686  -6.147  0.00  0.00    -0.081 NA
ATOM     22  C   LIG d   1       3.755  -0.488  -6.191  0.00  0.00     0.107 A 
BRANCH  19  23
ATOM     23  C   LIG d   1       3.268   0.185  -2.625  0.00  0.00    -0.002 C 
ATOM     24  H   LIG d   1       2.220   0.125  -2.334  0.00  0.00     0.031 H 
ATOM     25  H   LIG d   1       3.818  -0.643  -2.178  0.00  0.00     0.031 H 
ATOM     26  H   LIG d   1       3.690   1.128  -2.279  0.00  0.00     0.031 H 
ENDBRANCH  19  23
BRANCH  22  27
ATOM     27  C   LIG d   1       4.167  -1.247  -7.426  0.00  0.00    -0.017 C 
ATOM     28  H   LIG d   1       4.189  -0.569  -8.279  0.00  0.00     0.029 H 
ATOM     29  H   LIG d   1       5.159  -1.673  -7.276  0.00  0.00     0.029 H 
ATOM     30  H   LIG d   1       3.453  -2.048  -7.617  0.00  0.00     0.029 H 
ENDBRANCH  22  27
ENDBRANCH  15  18
ENDBRANCH   4  15
BRANCH   1  31
ATOM     31  C   LIG d   1       7.039   0.484  -4.671  0.00  0.00    -0.052 C 
ATOM     32  H   LIG d   1       7.541   1.022  -5.475  0.00  0.00     0.027 H 
ATOM     33  H   LIG d   1       6.107   0.060  -5.045  0.00  0.00     0.027 H 
BRANCH  31  34
ATOM     34  C   LIG d   1       6.735   1.449  -3.523  0.00  0.00    -0.065 C 
ATOM     35  H   LIG d   1       6.742   0.904  -2.579  0.00  0.00     0.023 H 
ATOM     36  H   LIG d   1       7.493   2.231  -3.495  0.00  0.00     0.023 H 
ATOM     37  H   LIG d   1       5.754   1.898  -3.675  0.00  0.00     0.023 H 
ENDBRANCH  31  34
ENDBRANCH   1  31
BRANCH   7  38
ATOM     38  C   LIG d   1       9.573  -0.198  -6.008  0.00  0.00     0.048 C 
ATOM     39  H   LIG d   1       9.922  -0.565  -6.973  0.00  0.00     0.038 H 
ATOM     40  H   LIG d   1       8.994   0.713  -6.153  0.00  0.00     0.038 H 
BRANCH  38  41
ATOM     41  C   LIG d   1      10.759   0.095  -5.124  0.00  0.00     0.307 C 
ATOM     42  O   LIG d   1      11.636  -0.727  -4.997  0.00  0.00    -0.251 OA
BRANCH  41  43
ATOM     43  O   LIG d   1      10.839   1.267  -4.477  0.00  0.00    -0.468 OA
BRANCH  43  44
ATOM     44  C   LIG d   1      10.247   2.422  -5.127  0.00  0.00     0.082 C 
ATOM     45  H   LIG d   1       9.677   2.097  -5.998  0.00  0.00     0.066 H 
ATOM     46  H   LIG d   1       9.583   2.932  -4.429  0.00  0.00     0.066 H 
ATOM     47  H   LIG d   1      11.035   3.105  -5.444  0.00  0.00     0.066 H 
ENDBRANCH  43  44
ENDBRANCH  41  43
ENDBRANCH  38  41
ENDBRANCH   7  38
TORSDOF 10
ENDMDL
MODEL 10
REMARK VINA RESULT:      -4.8      2.516      3.689
REMARK  10 active torsions:
REMARK  status: ('A' for Active; 'I' for Inactive)
REMARK    1  A    between atoms: C_1  and  C_2 
REMARK    2  A    between atoms: C_2  and  C_3 
REMARK    3  A    between atoms: N_6  and  S_16 
REMARK    4  A    between atoms: C_9  and  C_11 
REMARK    5  A    between atoms: C_11  and  C_12 
REMARK    6  A    between atoms: C_12  and  O_14 
REMARK    7  A    between atoms: O_14  and  C_15 
REMARK    8  A    between atoms: S_16  and  C_19 
REMARK    9  A    between atoms: C_20  and  C_25 
REMARK   10  A    between atoms: C_23  and  C_24 
ROOT
ATOM      1  C   LIG d   1       3.505  -1.969  -9.901  0.00  0.00    -0.024 C 
ATOM      2  H   LIG d   1       3.336  -2.844 -10.528  0.00  0.00     0.032 H 
ATOM      3  C   LIG d   1       3.629  -2.404  -8.437  0.00  0.00     0.024 C 
ATOM      4  N   LIG d   1       3.727  -1.204  -7.595  0.00  0.00    -0.176 N 
ATOM      5  C   LIG d   1       2.695  -0.166  -7.719  0.00  0.00     0.021 C 
ATOM      6  C   LIG d   1       2.582   0.246  -9.190  0.00  0.00    -0.035 C 
ATOM      7  C   LIG d   1       2.329  -1.001 -10.045  0.00  0.00    -0.026 C 
ATOM      8  H   LIG d   1       1.413  -1.491  -9.711  0.00  0.00     0.031 H 
ATOM      9  H   LIG d   1       4.523  -3.013  -8.311  0.00  0.00     0.045 H 
ATOM     10  H   LIG d   1       2.750  -2.980  -8.150  0.00  0.00     0.045 H 
ATOM     11  H   LIG d   1       1.738  -0.560  -7.375  0.00  0.00     0.044 H 
ATOM     12  H   LIG d   1       2.972   0.699  -7.117  0.00  0.00     0.044 H 
ATOM     13  H   LIG d   1       1.754   0.947  -9.309  0.00  0.00     0.028 H 
ATOM     14  H   LIG d   1       3.510   0.722  -9.507  0.00  0.00     0.028 H 
ENDROOT
BRANCH   4  15
ATOM     15  S   LIG d   1       4.978  -1.026  -6.524  0.00  0.00     0.066 S 
ATOM     16  O   LIG d   1       6.036  -1.850  -6.994  0.00  0.00    -0.153 OA
ATOM     17  O   LIG d   1       5.137   0.371  -6.314  0.00  0.00    -0.153 OA
BRANCH  15  18
ATOM     18  C   LIG d   1       4.451  -1.709  -4.988  0.00  0.00     0.170 A 
ATOM     19  C   LIG d   1       4.745  -2.926  -4.471  0.00  0.00     0.161 A 
ATOM     20  O   LIG d   1       4.122  -2.996  -3.286  0.00  0.00    -0.358 OA
ATOM     21  N   LIG d   1       3.499  -1.986  -3.051  0.00  0.00    -0.081 NA
ATOM     22  C   LIG d   1       3.616  -1.116  -4.012  0.00  0.00     0.107 A 
BRANCH  19  23
ATOM     23  C   LIG d   1       5.605  -3.990  -5.102  0.00  0.00    -0.002 C 
ATOM     24  H   LIG d   1       5.717  -4.824  -4.411  0.00  0.00     0.031 H 
ATOM     25  H   LIG d   1       5.135  -4.339  -6.021  0.00  0.00     0.031 H 
ATOM     26  H   LIG d   1       6.586  -3.574  -5.333  0.00  0.00     0.031 H 
ENDBRANCH  19  23
BRANCH  22  27
ATOM     27  C   LIG d   1       2.987   0.252  -4.074  0.00  0.00    -0.017 C 
ATOM     28  H   LIG d   1       2.749   0.496  -5.109  0.00  0.00     0.029 H 
ATOM     29  H   LIG d   1       2.073   0.258  -3.480  0.00  0.00     0.029 H 
ATOM     30  H   LIG d   1       3.683   0.991  -3.678  0.00  0.00     0.029 H 
ENDBRANCH  22  27
ENDBRANCH  15  18
ENDBRANCH   4  15
BRANCH   1  31
ATOM     31  C   LIG d   1       4.796  -1.272 -10.337  0.00  0.00    -0.052 C 
ATOM     32  H   LIG d   1       4.612  -0.700 -11.246  0.00  0.00     0.027 H 
ATOM     33  H   LIG d   1       5.132  -0.601  -9.547  0.00  0.00     0.027 H 
BRANCH  31  34
ATOM     34  C   LIG d   1       5.876  -2.322 -10.606  0.00  0.00    -0.065 C 
ATOM     35  H   LIG d   1       6.243  -2.214 -11.626  0.00  0.00     0.023 H 
ATOM     36  H   LIG d   1       6.701  -2.183  -9.907  0.00  0.00     0.023 H 
ATOM     37  H   LIG d   1       5.455  -3.319 -10.476  0.00  0.00     0.023 H 
ENDBRANCH  31  34
ENDBRANCH   1  31
BRANCH   7  38
ATOM     38  C   LIG d   1       2.182  -0.592 -11.512  0.00  0.00     0.048 C 
ATOM     39  H   LIG d   1       1.506   0.260 -11.585  0.00  0.00     0.038 H 
ATOM     40  H   LIG d   1       3.157  -0.318 -11.912  0.00  0.00     0.038 H 
BRANCH  38  41
ATOM     41  C   LIG d   1       1.621  -1.747 -12.301  0.00  0.00     0.307 C 
ATOM     42  O   LIG d   1       0.526  -2.185 -12.036  0.00  0.00    -0.251 OA
BRANCH  41  43
ATOM     43  O   LIG d   1       2.337  -2.289 -13.297  0.00  0.00    -0.468 OA
BRANCH  43  44
ATOM     44  C   LIG d   1       3.441  -1.504 -13.820  0.00  0.00     0.082 C 
ATOM     45  H   LIG d   1       4.372  -1.835 -13.360  0.00  0.00     0.066 H 
ATOM     46  H   LIG d   1       3.502  -1.637 -14.900  0.00  0.00     0.066 H 
ATOM     47  H   LIG d   1       3.277  -0.451 -13.592  0.00  0.00     0.066 H 
ENDBRANCH  43  44
ENDBRANCH  41  43
ENDBRANCH  38  41
ENDBRANCH   7  38
TORSDOF 10
ENDMDL
