MODEL 1
REMARK VINA RESULT:      -7.9      0.000      0.000
REMARK  13 active torsions:
REMARK  status: ('A' for Active; 'I' for Inactive)
REMARK    1  A    between atoms: C_1  and  C_2 
REMARK    2  A    between atoms: C_2  and  C_4 
REMARK    3  A    between atoms: C_2  and  C_18 
REMARK    4  A    between atoms: C_4  and  C_5 
REMARK    5  A    between atoms: C_5  and  C_6 
REMARK       I    between atoms: C_6  and  N_8 
REMARK    6  A    between atoms: N_8  and  C_9 
REMARK    7  A    between atoms: C_12  and  C_15 
REMARK    8  A    between atoms: C_15  and  C_16 
REMARK    9  A    between atoms: C_15  and  C_17 
REMARK   10  A    between atoms: C_24  and  C_45 
REMARK   11  A    between atoms: C_31  and  O_44 
REMARK   12  A    between atoms: C_36  and  C_43 
REMARK   13  A    between atoms: C_39  and  O_42 
ROOT
ATOM      1  C   LIG d   1       9.986   4.386  -4.880  0.00  0.00    -0.033 C 
ATOM      2  H   LIG d   1       9.074   4.466  -5.470  0.00  0.00     0.031 H 
ATOM      3  C   LIG d   1       9.680   3.748  -3.501  0.00  0.00    -0.049 C 
ATOM      4  C   LIG d   1       9.990   4.835  -2.437  0.00  0.00    -0.049 C 
ATOM      5  C   LIG d   1       9.847   6.140  -3.227  0.00  0.00    -0.030 C 
ATOM      6  H   LIG d   1       8.794   6.370  -3.393  0.00  0.00     0.031 H 
ATOM      7  C   LIG d   1      10.539   5.773  -4.569  0.00  0.00    -0.026 C 
ATOM      8  C   LIG d   1      10.214   6.870  -5.565  0.00  0.00    -0.047 C 
ATOM      9  C   LIG d   1      10.861   8.165  -5.045  0.00  0.00    -0.049 C 
ATOM     10  C   LIG d   1      10.365   8.509  -3.645  0.00  0.00    -0.030 C 
ATOM     11  H   LIG d   1       9.296   8.721  -3.691  0.00  0.00     0.031 H 
ATOM     12  C   LIG d   1      10.567   7.346  -2.652  0.00  0.00    -0.008 C 
ATOM     13  H   LIG d   1      11.631   7.130  -2.560  0.00  0.00     0.033 H 
ATOM     14  C   LIG d   1       9.976   7.718  -1.292  0.00  0.00     0.059 C 
ATOM     15  H   LIG d   1       8.910   7.920  -1.401  0.00  0.00     0.060 H 
ATOM     16  C   LIG d   1      10.678   8.966  -0.754  0.00  0.00    -0.023 C 
ATOM     17  C   LIG d   1      10.477  10.126  -1.731  0.00  0.00    -0.031 C 
ATOM     18  H   LIG d   1      10.976  11.016  -1.347  0.00  0.00     0.031 H 
ATOM     19  C   LIG d   1      11.092   9.748  -3.121  0.00  0.00    -0.026 C 
ATOM     20  C   LIG d   1      10.886  10.909  -4.096  0.00  0.00    -0.045 C 
ATOM     21  C   LIG d   1       9.391  11.199  -4.233  0.00  0.00    -0.026 C 
ATOM     22  C   LIG d   1       8.817  11.575  -2.866  0.00  0.00     0.056 C 
ATOM     23  H   LIG d   1       9.324  12.463  -2.491  0.00  0.00     0.059 H 
ATOM     24  C   LIG d   1       8.980  10.406  -1.887  0.00  0.00    -0.023 C 
ATOM     25  H   LIG d   1       8.630   3.460  -3.447  0.00  0.00     0.027 H 
ATOM     26  H   LIG d   1      10.316   2.877  -3.343  0.00  0.00     0.027 H 
ATOM     27  H   LIG d   1       9.266   4.796  -1.623  0.00  0.00     0.027 H 
ATOM     28  H   LIG d   1      11.006   4.724  -2.056  0.00  0.00     0.027 H 
ATOM     29  H   LIG d   1      10.625   6.617  -6.543  0.00  0.00     0.027 H 
ATOM     30  H   LIG d   1       9.135   6.997  -5.638  0.00  0.00     0.027 H 
ATOM     31  H   LIG d   1      11.943   8.039  -5.020  0.00  0.00     0.027 H 
ATOM     32  H   LIG d   1      10.613   8.984  -5.722  0.00  0.00     0.027 H 
ATOM     33  H   LIG d   1      10.259   9.230   0.216  0.00  0.00     0.029 H 
ATOM     34  H   LIG d   1      11.745   8.764  -0.646  0.00  0.00     0.029 H 
ATOM     35  H   LIG d   1      11.396  11.796  -3.719  0.00  0.00     0.027 H 
ATOM     36  H   LIG d   1      11.296  10.642  -5.070  0.00  0.00     0.027 H 
ATOM     37  H   LIG d   1       9.242  12.024  -4.929  0.00  0.00     0.029 H 
ATOM     38  H   LIG d   1       8.882  10.311  -4.609  0.00  0.00     0.029 H 
ATOM     39  H   LIG d   1       8.482   9.516  -2.269  0.00  0.00     0.029 H 
ATOM     40  H   LIG d   1       8.558  10.671  -0.917  0.00  0.00     0.029 H 
ENDROOT
BRANCH   1  41
ATOM     41  C   LIG d   1      11.029   3.555  -5.629  0.00  0.00    -0.040 C 
ATOM     42  H   LIG d   1      12.018   3.989  -5.476  0.00  0.00     0.030 H 
BRANCH  41  43
ATOM     43  C   LIG d   1      10.700   3.549  -7.123  0.00  0.00    -0.062 C 
ATOM     44  H   LIG d   1      10.630   2.520  -7.476  0.00  0.00     0.023 H 
ATOM     45  H   LIG d   1       9.749   4.055  -7.288  0.00  0.00     0.023 H 
ATOM     46  H   LIG d   1      11.487   4.068  -7.671  0.00  0.00     0.023 H 
ENDBRANCH  41  43
BRANCH  41  47
ATOM     47  C   LIG d   1      11.015   2.120  -5.099  0.00  0.00    -0.042 C 
ATOM     48  H   LIG d   1      12.039   1.768  -4.974  0.00  0.00     0.027 H 
ATOM     49  H   LIG d   1      10.503   2.094  -4.136  0.00  0.00     0.027 H 
BRANCH  47  50
ATOM     50  C   LIG d   1      10.282   1.216  -6.091  0.00  0.00     0.025 C 
ATOM     51  H   LIG d   1      10.193   1.725  -7.051  0.00  0.00     0.036 H 
ATOM     52  H   LIG d   1      10.842   0.290  -6.221  0.00  0.00     0.036 H 
BRANCH  50  53
ATOM     53  C   LIG d   1       8.907   0.899  -5.562  0.00  0.00     0.217 C 
ATOM     54  O   LIG d   1       7.956   0.885  -6.315  0.00  0.00    -0.276 OA
ATOM     55  N   LIG d   1       8.734   0.631  -4.252  0.00  0.00    -0.285 N 
ATOM     56  H   LIG d   1       9.479   0.715  -3.638  0.00  0.00     0.155 HD
BRANCH  55  57
ATOM     57  C   LIG d   1       7.480   0.230  -3.780  0.00  0.00     0.033 A 
ATOM     58  C   LIG d   1       6.552   1.181  -3.374  0.00  0.00    -0.040 A 
ATOM     59  C   LIG d   1       5.312   0.782  -2.914  0.00  0.00    -0.057 A 
ATOM     60  H   LIG d   1       6.798   2.232  -3.422  0.00  0.00     0.064 H 
ATOM     61  C   LIG d   1       4.998  -0.563  -2.845  0.00  0.00    -0.045 A 
ATOM     62  H   LIG d   1       4.589   1.521  -2.603  0.00  0.00     0.062 H 
ATOM     63  C   LIG d   1       5.922  -1.512  -3.243  0.00  0.00    -0.057 A 
ATOM     64  C   LIG d   1       7.161  -1.119  -3.710  0.00  0.00    -0.040 A 
ATOM     65  H   LIG d   1       5.673  -2.562  -3.189  0.00  0.00     0.062 H 
ATOM     66  H   LIG d   1       7.882  -1.862  -4.021  0.00  0.00     0.064 H 
BRANCH  61  67
ATOM     67  C   LIG d   1       3.648  -0.995  -2.337  0.00  0.00    -0.021 C 
ATOM     68  H   LIG d   1       3.470  -0.554  -1.356  0.00  0.00     0.034 H 
BRANCH  67  69
ATOM     69  C   LIG d   1       2.563  -0.526  -3.310  0.00  0.00    -0.059 C 
ATOM     70  H   LIG d   1       2.121  -1.391  -3.805  0.00  0.00     0.024 H 
ATOM     71  H   LIG d   1       1.790   0.012  -2.761  0.00  0.00     0.024 H 
ATOM     72  H   LIG d   1       3.006   0.133  -4.057  0.00  0.00     0.024 H 
ENDBRANCH  67  69
BRANCH  67  73
ATOM     73  C   LIG d   1       3.608  -2.520  -2.226  0.00  0.00    -0.059 C 
ATOM     74  H   LIG d   1       4.011  -2.824  -1.260  0.00  0.00     0.024 H 
ATOM     75  H   LIG d   1       2.577  -2.864  -2.314  0.00  0.00     0.024 H 
ATOM     76  H   LIG d   1       4.206  -2.959  -3.024  0.00  0.00     0.024 H 
ENDBRANCH  67  73
ENDBRANCH  61  67
ENDBRANCH  55  57
ENDBRANCH  50  53
ENDBRANCH  47  50
ENDBRANCH  41  47
ENDBRANCH   1  41
BRANCH   7  77
ATOM     77  C   LIG d   1      12.053   5.693  -4.365  0.00  0.00    -0.059 C 
ATOM     78  H   LIG d   1      12.556   5.793  -5.327  0.00  0.00     0.024 H 
ATOM     79  H   LIG d   1      12.374   6.496  -3.702  0.00  0.00     0.024 H 
ATOM     80  H   LIG d   1      12.309   4.731  -3.920  0.00  0.00     0.024 H 
ENDBRANCH   7  77
BRANCH  14  81
ATOM     81  O   LIG d   1      10.164   6.635  -0.378  0.00  0.00    -0.392 OA
ATOM     82  H   LIG d   1      10.874   6.779   0.261  0.00  0.00     0.210 HD
ENDBRANCH  14  81
BRANCH  19  83
ATOM     83  C   LIG d   1      12.587   9.445  -2.987  0.00  0.00    -0.059 C 
ATOM     84  H   LIG d   1      13.054  10.197  -2.350  0.00  0.00     0.024 H 
ATOM     85  H   LIG d   1      12.720   8.460  -2.543  0.00  0.00     0.024 H 
ATOM     86  H   LIG d   1      13.051   9.466  -3.973  0.00  0.00     0.024 H 
ENDBRANCH  19  83
BRANCH  22  87
ATOM     87  O   LIG d   1       7.419  11.842  -2.993  0.00  0.00    -0.392 OA
ATOM     88  H   LIG d   1       7.196  12.425  -3.733  0.00  0.00     0.210 HD
ENDBRANCH  22  87
TORSDOF 13
ENDMDL
MODEL 2
REMARK VINA RESULT:      -7.1      1.634      2.923
REMARK  13 active torsions:
REMARK  status: ('A' for Active; 'I' for Inactive)
REMARK    1  A    between atoms: C_1  and  C_2 
REMARK    2  A    between atoms: C_2  and  C_4 
REMARK    3  A    between atoms: C_2  and  C_18 
REMARK    4  A    between atoms: C_4  and  C_5 
REMARK    5  A    between atoms: C_5  and  C_6 
REMARK       I    between atoms: C_6  and  N_8 
REMARK    6  A    between atoms: N_8  and  C_9 
REMARK    7  A    between atoms: C_12  and  C_15 
REMARK    8  A    between atoms: C_15  and  C_16 
REMARK    9  A    between atoms: C_15  and  C_17 
REMARK   10  A    between atoms: C_24  and  C_45 
REMARK   11  A    between atoms: C_31  and  O_44 
REMARK   12  A    between atoms: C_36  and  C_43 
REMARK   13  A    between atoms: C_39  and  O_42 
ROOT
ATOM      1  C   LIG d   1      11.273   5.686  -4.410  0.00  0.00    -0.033 C 
ATOM      2  H   LIG d   1      12.360   5.618  -4.415  0.00  0.00     0.031 H 
ATOM      3  C   LIG d   1      10.770   6.333  -5.726  0.00  0.00    -0.049 C 
ATOM      4  C   LIG d   1      10.099   7.675  -5.325  0.00  0.00    -0.049 C 
ATOM      5  C   LIG d   1      10.771   8.010  -3.989  0.00  0.00    -0.030 C 
ATOM      6  H   LIG d   1      11.784   8.378  -4.155  0.00  0.00     0.031 H 
ATOM      7  C   LIG d   1      10.807   6.619  -3.297  0.00  0.00    -0.026 C 
ATOM      8  C   LIG d   1      11.713   6.735  -2.087  0.00  0.00    -0.047 C 
ATOM      9  C   LIG d   1      11.050   7.724  -1.113  0.00  0.00    -0.049 C 
ATOM     10  C   LIG d   1      10.814   9.078  -1.773  0.00  0.00    -0.030 C 
ATOM     11  H   LIG d   1      11.779   9.523  -2.021  0.00  0.00     0.031 H 
ATOM     12  C   LIG d   1      10.007   8.957  -3.082  0.00  0.00    -0.008 C 
ATOM     13  H   LIG d   1       9.023   8.543  -2.863  0.00  0.00     0.033 H 
ATOM     14  C   LIG d   1       9.877  10.331  -3.739  0.00  0.00     0.059 C 
ATOM     15  H   LIG d   1      10.869  10.725  -3.961  0.00  0.00     0.060 H 
ATOM     16  C   LIG d   1       9.151  11.285  -2.787  0.00  0.00    -0.023 C 
ATOM     17  C   LIG d   1       9.950  11.415  -1.489  0.00  0.00    -0.031 C 
ATOM     18  H   LIG d   1       9.435  12.096  -0.811  0.00  0.00     0.031 H 
ATOM     19  C   LIG d   1      10.075  10.008  -0.812  0.00  0.00    -0.026 C 
ATOM     20  C   LIG d   1      10.876  10.142   0.485  0.00  0.00    -0.045 C 
ATOM     21  C   LIG d   1      12.261  10.709   0.170  0.00  0.00    -0.026 C 
ATOM     22  C   LIG d   1      12.113  12.086  -0.481  0.00  0.00     0.056 C 
ATOM     23  H   LIG d   1      11.594  12.757   0.204  0.00  0.00     0.059 H 
ATOM     24  C   LIG d   1      11.344  11.964  -1.802  0.00  0.00    -0.023 C 
ATOM     25  H   LIG d   1      11.609   6.520  -6.396  0.00  0.00     0.027 H 
ATOM     26  H   LIG d   1      10.043   5.680  -6.208  0.00  0.00     0.027 H 
ATOM     27  H   LIG d   1      10.307   8.447  -6.066  0.00  0.00     0.027 H 
ATOM     28  H   LIG d   1       9.024   7.545  -5.194  0.00  0.00     0.027 H 
ATOM     29  H   LIG d   1      11.820   5.761  -1.609  0.00  0.00     0.027 H 
ATOM     30  H   LIG d   1      12.690   7.110  -2.390  0.00  0.00     0.027 H 
ATOM     31  H   LIG d   1      10.095   7.316  -0.784  0.00  0.00     0.027 H 
ATOM     32  H   LIG d   1      11.698   7.859  -0.246  0.00  0.00     0.027 H 
ATOM     33  H   LIG d   1       9.056  12.264  -3.256  0.00  0.00     0.029 H 
ATOM     34  H   LIG d   1       8.159  10.891  -2.564  0.00  0.00     0.029 H 
ATOM     35  H   LIG d   1      10.355  10.813   1.168  0.00  0.00     0.027 H 
ATOM     36  H   LIG d   1      10.981   9.161   0.949  0.00  0.00     0.027 H 
ATOM     37  H   LIG d   1      12.834  10.804   1.092  0.00  0.00     0.029 H 
ATOM     38  H   LIG d   1      12.781  10.039  -0.514  0.00  0.00     0.029 H 
ATOM     39  H   LIG d   1      11.858  11.284  -2.480  0.00  0.00     0.029 H 
ATOM     40  H   LIG d   1      11.251  12.944  -2.271  0.00  0.00     0.029 H 
ENDROOT
BRANCH   1  41
ATOM     41  C   LIG d   1      10.656   4.298  -4.232  0.00  0.00    -0.040 C 
ATOM     42  H   LIG d   1       9.889   4.338  -3.459  0.00  0.00     0.030 H 
BRANCH  41  43
ATOM     43  C   LIG d   1      11.745   3.305  -3.820  0.00  0.00    -0.062 C 
ATOM     44  H   LIG d   1      11.283   2.422  -3.379  0.00  0.00     0.023 H 
ATOM     45  H   LIG d   1      12.322   3.013  -4.698  0.00  0.00     0.023 H 
ATOM     46  H   LIG d   1      12.405   3.772  -3.090  0.00  0.00     0.023 H 
ENDBRANCH  41  43
BRANCH  41  47
ATOM     47  C   LIG d   1      10.027   3.846  -5.551  0.00  0.00    -0.042 C 
ATOM     48  H   LIG d   1       9.003   4.215  -5.612  0.00  0.00     0.027 H 
ATOM     49  H   LIG d   1      10.606   4.245  -6.385  0.00  0.00     0.027 H 
BRANCH  47  50
ATOM     50  C   LIG d   1      10.023   2.318  -5.619  0.00  0.00     0.025 C 
ATOM     51  H   LIG d   1      10.209   1.998  -6.644  0.00  0.00     0.036 H 
ATOM     52  H   LIG d   1      10.805   1.924  -4.968  0.00  0.00     0.036 H 
BRANCH  50  53
ATOM     53  C   LIG d   1       8.684   1.798  -5.165  0.00  0.00     0.217 C 
ATOM     54  O   LIG d   1       7.737   1.818  -5.924  0.00  0.00    -0.276 OA
ATOM     55  N   LIG d   1       8.538   1.308  -3.918  0.00  0.00    -0.285 N 
ATOM     56  H   LIG d   1       9.273   1.360  -3.288  0.00  0.00     0.155 HD
BRANCH  55  57
ATOM     57  C   LIG d   1       7.326   0.726  -3.533  0.00  0.00     0.033 A 
ATOM     58  C   LIG d   1       6.280   1.524  -3.087  0.00  0.00    -0.040 A 
ATOM     59  C   LIG d   1       5.082   0.945  -2.713  0.00  0.00    -0.057 A 
ATOM     60  H   LIG d   1       6.401   2.596  -3.037  0.00  0.00     0.064 H 
ATOM     61  C   LIG d   1       4.928  -0.428  -2.770  0.00  0.00    -0.045 A 
ATOM     62  H   LIG d   1       4.267   1.566  -2.372  0.00  0.00     0.062 H 
ATOM     63  C   LIG d   1       5.970  -1.226  -3.208  0.00  0.00    -0.057 A 
ATOM     64  C   LIG d   1       7.167  -0.653  -3.589  0.00  0.00    -0.040 A 
ATOM     65  H   LIG d   1       5.846  -2.298  -3.252  0.00  0.00     0.062 H 
ATOM     66  H   LIG d   1       7.981  -1.277  -3.931  0.00  0.00     0.064 H 
BRANCH  61  67
ATOM     67  C   LIG d   1       3.623  -1.056  -2.356  0.00  0.00    -0.021 C 
ATOM     68  H   LIG d   1       3.379  -0.749  -1.339  0.00  0.00     0.034 H 
BRANCH  67  69
ATOM     69  C   LIG d   1       2.513  -0.601  -3.307  0.00  0.00    -0.059 C 
ATOM     70  H   LIG d   1       1.794  -1.410  -3.438  0.00  0.00     0.024 H 
ATOM     71  H   LIG d   1       2.009   0.269  -2.887  0.00  0.00     0.024 H 
ATOM     72  H   LIG d   1       2.947  -0.341  -4.272  0.00  0.00     0.024 H 
ENDBRANCH  67  69
BRANCH  67  73
ATOM     73  C   LIG d   1       3.749  -2.579  -2.413  0.00  0.00    -0.059 C 
ATOM     74  H   LIG d   1       4.206  -2.941  -1.491  0.00  0.00     0.024 H 
ATOM     75  H   LIG d   1       2.759  -3.023  -2.524  0.00  0.00     0.024 H 
ATOM     76  H   LIG d   1       4.371  -2.862  -3.262  0.00  0.00     0.024 H 
ENDBRANCH  67  73
ENDBRANCH  61  67
ENDBRANCH  55  57
ENDBRANCH  50  53
ENDBRANCH  47  50
ENDBRANCH  41  47
ENDBRANCH   1  41
BRANCH   7  77
ATOM     77  C   LIG d   1       9.397   6.227  -2.851  0.00  0.00    -0.059 C 
ATOM     78  H   LIG d   1       8.731   7.083  -2.954  0.00  0.00     0.024 H 
ATOM     79  H   LIG d   1       9.034   5.408  -3.472  0.00  0.00     0.024 H 
ATOM     80  H   LIG d   1       9.421   5.908  -1.809  0.00  0.00     0.024 H 
ENDBRANCH   7  77
BRANCH  14  81
ATOM     81  O   LIG d   1       9.130  10.211  -4.952  0.00  0.00    -0.392 OA
ATOM     82  H   LIG d   1       8.192  10.021  -4.819  0.00  0.00     0.210 HD
ENDBRANCH  14  81
BRANCH  19  83
ATOM     83  C   LIG d   1       8.690   9.431  -0.505  0.00  0.00    -0.059 C 
ATOM     84  H   LIG d   1       8.384   9.734   0.497  0.00  0.00     0.024 H 
ATOM     85  H   LIG d   1       7.972   9.805  -1.233  0.00  0.00     0.024 H 
ATOM     86  H   LIG d   1       8.730   8.343  -0.559  0.00  0.00     0.024 H 
ENDBRANCH  19  83
BRANCH  22  87
ATOM     87  O   LIG d   1      13.406  12.615  -0.778  0.00  0.00    -0.392 OA
ATOM     88  H   LIG d   1      14.020  12.598  -0.029  0.00  0.00     0.210 HD
ENDBRANCH  22  87
TORSDOF 13
ENDMDL
MODEL 3
REMARK VINA RESULT:      -6.9      7.626     10.714
REMARK  13 active torsions:
REMARK  status: ('A' for Active; 'I' for Inactive)
REMARK    1  A    between atoms: C_1  and  C_2 
REMARK    2  A    between atoms: C_2  and  C_4 
REMARK    3  A    between atoms: C_2  and  C_18 
REMARK    4  A    between atoms: C_4  and  C_5 
REMARK    5  A    between atoms: C_5  and  C_6 
REMARK       I    between atoms: C_6  and  N_8 
REMARK    6  A    between atoms: N_8  and  C_9 
REMARK    7  A    between atoms: C_12  and  C_15 
REMARK    8  A    between atoms: C_15  and  C_16 
REMARK    9  A    between atoms: C_15  and  C_17 
REMARK   10  A    between atoms: C_24  and  C_45 
REMARK   11  A    between atoms: C_31  and  O_44 
REMARK   12  A    between atoms: C_36  and  C_43 
REMARK   13  A    between atoms: C_39  and  O_42 
ROOT
ATOM      1  C   LIG d   1       4.903  -0.964  -3.011  0.00  0.00    -0.033 C 
ATOM      2  H   LIG d   1       5.215  -0.869  -1.971  0.00  0.00     0.031 H 
ATOM      3  C   LIG d   1       4.011  -2.218  -3.192  0.00  0.00    -0.049 C 
ATOM      4  C   LIG d   1       4.790  -3.178  -4.131  0.00  0.00    -0.049 C 
ATOM      5  C   LIG d   1       6.247  -2.745  -3.932  0.00  0.00    -0.030 C 
ATOM      6  H   LIG d   1       6.624  -3.110  -2.977  0.00  0.00     0.031 H 
ATOM      7  C   LIG d   1       6.114  -1.197  -3.908  0.00  0.00    -0.026 C 
ATOM      8  C   LIG d   1       7.435  -0.634  -3.421  0.00  0.00    -0.047 C 
ATOM      9  C   LIG d   1       8.501  -0.995  -4.470  0.00  0.00    -0.049 C 
ATOM     10  C   LIG d   1       8.575  -2.502  -4.689  0.00  0.00    -0.030 C 
ATOM     11  H   LIG d   1       8.910  -2.977  -3.765  0.00  0.00     0.031 H 
ATOM     12  C   LIG d   1       7.204  -3.109  -5.052  0.00  0.00    -0.008 C 
ATOM     13  H   LIG d   1       6.855  -2.676  -5.989  0.00  0.00     0.033 H 
ATOM     14  C   LIG d   1       7.326  -4.628  -5.175  0.00  0.00     0.059 C 
ATOM     15  H   LIG d   1       7.666  -5.044  -4.225  0.00  0.00     0.060 H 
ATOM     16  C   LIG d   1       8.335  -4.972  -6.272  0.00  0.00    -0.023 C 
ATOM     17  C   LIG d   1       9.700  -4.379  -5.915  0.00  0.00    -0.031 C 
ATOM     18  H   LIG d   1      10.420  -4.626  -6.695  0.00  0.00     0.031 H 
ATOM     19  C   LIG d   1       9.576  -2.822  -5.799  0.00  0.00    -0.026 C 
ATOM     20  C   LIG d   1      10.942  -2.233  -5.439  0.00  0.00    -0.045 C 
ATOM     21  C   LIG d   1      11.420  -2.832  -4.116  0.00  0.00    -0.026 C 
ATOM     22  C   LIG d   1      11.542  -4.350  -4.257  0.00  0.00     0.056 C 
ATOM     23  H   LIG d   1      12.262  -4.585  -5.041  0.00  0.00     0.059 H 
ATOM     24  C   LIG d   1      10.173  -4.961  -4.580  0.00  0.00    -0.023 C 
ATOM     25  H   LIG d   1       3.837  -2.696  -2.228  0.00  0.00     0.027 H 
ATOM     26  H   LIG d   1       3.061  -1.938  -3.648  0.00  0.00     0.027 H 
ATOM     27  H   LIG d   1       4.651  -4.215  -3.824  0.00  0.00     0.027 H 
ATOM     28  H   LIG d   1       4.484  -3.037  -5.168  0.00  0.00     0.027 H 
ATOM     29  H   LIG d   1       7.364   0.449  -3.323  0.00  0.00     0.027 H 
ATOM     30  H   LIG d   1       7.696  -1.077  -2.460  0.00  0.00     0.027 H 
ATOM     31  H   LIG d   1       8.251  -0.510  -5.413  0.00  0.00     0.027 H 
ATOM     32  H   LIG d   1       9.473  -0.636  -4.130  0.00  0.00     0.027 H 
ATOM     33  H   LIG d   1       8.421  -6.054  -6.361  0.00  0.00     0.029 H 
ATOM     34  H   LIG d   1       7.996  -4.555  -7.221  0.00  0.00     0.029 H 
ATOM     35  H   LIG d   1      11.659  -2.469  -6.226  0.00  0.00     0.027 H 
ATOM     36  H   LIG d   1      10.855  -1.151  -5.339  0.00  0.00     0.027 H 
ATOM     37  H   LIG d   1      12.392  -2.412  -3.857  0.00  0.00     0.029 H 
ATOM     38  H   LIG d   1      10.702  -2.597  -3.330  0.00  0.00     0.029 H 
ATOM     39  H   LIG d   1       9.453  -4.715  -3.801  0.00  0.00     0.029 H 
ATOM     40  H   LIG d   1      10.259  -6.044  -4.667  0.00  0.00     0.029 H 
ENDROOT
BRANCH   1  41
ATOM     41  C   LIG d   1       4.149   0.292  -3.454  0.00  0.00    -0.040 C 
ATOM     42  H   LIG d   1       4.698   0.779  -4.260  0.00  0.00     0.030 H 
BRANCH  41  43
ATOM     43  C   LIG d   1       4.020   1.253  -2.270  0.00  0.00    -0.062 C 
ATOM     44  H   LIG d   1       2.969   1.506  -2.121  0.00  0.00     0.023 H 
ATOM     45  H   LIG d   1       4.409   0.776  -1.370  0.00  0.00     0.023 H 
ATOM     46  H   LIG d   1       4.587   2.160  -2.475  0.00  0.00     0.023 H 
ENDBRANCH  41  43
BRANCH  41  47
ATOM     47  C   LIG d   1       2.755  -0.098  -3.949  0.00  0.00    -0.042 C 
ATOM     48  H   LIG d   1       2.794  -1.088  -4.403  0.00  0.00     0.027 H 
ATOM     49  H   LIG d   1       2.062  -0.111  -3.108  0.00  0.00     0.027 H 
BRANCH  47  50
ATOM     50  C   LIG d   1       2.279   0.920  -4.987  0.00  0.00     0.025 C 
ATOM     51  H   LIG d   1       1.190   0.973  -4.972  0.00  0.00     0.036 H 
ATOM     52  H   LIG d   1       2.694   1.901  -4.750  0.00  0.00     0.036 H 
BRANCH  50  53
ATOM     53  C   LIG d   1       2.742   0.497  -6.357  0.00  0.00     0.217 C 
ATOM     54  O   LIG d   1       2.965  -0.673  -6.586  0.00  0.00    -0.276 OA
ATOM     55  N   LIG d   1       2.909   1.419  -7.326  0.00  0.00    -0.285 N 
ATOM     56  H   LIG d   1       2.804   2.361  -7.123  0.00  0.00     0.155 HD
BRANCH  55  57
ATOM     57  C   LIG d   1       3.232   1.015  -8.626  0.00  0.00     0.033 A 
ATOM     58  C   LIG d   1       4.464   1.354  -9.174  0.00  0.00    -0.040 A 
ATOM     59  C   LIG d   1       4.782   0.948 -10.456  0.00  0.00    -0.057 A 
ATOM     60  H   LIG d   1       5.172   1.929  -8.597  0.00  0.00     0.064 H 
ATOM     61  C   LIG d   1       3.872   0.218 -11.198  0.00  0.00    -0.045 A 
ATOM     62  H   LIG d   1       5.741   1.207 -10.880  0.00  0.00     0.062 H 
ATOM     63  C   LIG d   1       2.644  -0.115 -10.657  0.00  0.00    -0.057 A 
ATOM     64  C   LIG d   1       2.322   0.281  -9.374  0.00  0.00    -0.040 A 
ATOM     65  H   LIG d   1       1.936  -0.687 -11.240  0.00  0.00     0.062 H 
ATOM     66  H   LIG d   1       1.362   0.020  -8.952  0.00  0.00     0.064 H 
BRANCH  61  67
ATOM     67  C   LIG d   1       4.221  -0.217 -12.597  0.00  0.00    -0.021 C 
ATOM     68  H   LIG d   1       4.208   0.648 -13.260  0.00  0.00     0.034 H 
BRANCH  67  69
ATOM     69  C   LIG d   1       5.617  -0.844 -12.604  0.00  0.00    -0.059 C 
ATOM     70  H   LIG d   1       6.286  -0.235 -13.212  0.00  0.00     0.024 H 
ATOM     71  H   LIG d   1       5.998  -0.896 -11.585  0.00  0.00     0.024 H 
ATOM     72  H   LIG d   1       5.560  -1.849 -13.024  0.00  0.00     0.024 H 
ENDBRANCH  67  69
BRANCH  67  73
ATOM     73  C   LIG d   1       3.198  -1.246 -13.082  0.00  0.00    -0.059 C 
ATOM     74  H   LIG d   1       3.269  -2.145 -12.469  0.00  0.00     0.024 H 
ATOM     75  H   LIG d   1       2.194  -0.829 -12.998  0.00  0.00     0.024 H 
ATOM     76  H   LIG d   1       3.401  -1.498 -14.122  0.00  0.00     0.024 H 
ENDBRANCH  67  73
ENDBRANCH  61  67
ENDBRANCH  55  57
ENDBRANCH  50  53
ENDBRANCH  47  50
ENDBRANCH  41  47
ENDBRANCH   1  41
BRANCH   7  77
ATOM     77  C   LIG d   1       5.821  -0.681  -5.317  0.00  0.00    -0.059 C 
ATOM     78  H   LIG d   1       6.063  -1.453  -6.046  0.00  0.00     0.024 H 
ATOM     79  H   LIG d   1       4.764  -0.424  -5.398  0.00  0.00     0.024 H 
ATOM     80  H   LIG d   1       6.425   0.206  -5.513  0.00  0.00     0.024 H 
ENDBRANCH   7  77
BRANCH  14  81
ATOM     81  O   LIG d   1       6.052  -5.183  -5.509  0.00  0.00    -0.392 OA
ATOM     82  H   LIG d   1       5.420  -5.185  -4.778  0.00  0.00     0.210 HD
ENDBRANCH  14  81
BRANCH  19  83
ATOM     83  C   LIG d   1       9.086  -2.219  -7.118  0.00  0.00    -0.059 C 
ATOM     84  H   LIG d   1       9.938  -2.040  -7.774  0.00  0.00     0.024 H 
ATOM     85  H   LIG d   1       8.396  -2.911  -7.600  0.00  0.00     0.024 H 
ATOM     86  H   LIG d   1       8.576  -1.276  -6.920  0.00  0.00     0.024 H 
ENDBRANCH  19  83
BRANCH  22  87
ATOM     87  O   LIG d   1      11.986  -4.910  -3.020  0.00  0.00    -0.392 OA
ATOM     88  H   LIG d   1      11.313  -5.433  -2.561  0.00  0.00     0.210 HD
ENDBRANCH  22  87
TORSDOF 13
ENDMDL
MODEL 4
REMARK VINA RESULT:      -6.9      1.554      1.966
REMARK  13 active torsions:
REMARK  status: ('A' for Active; 'I' for Inactive)
REMARK    1  A    between atoms: C_1  and  C_2 
REMARK    2  A    between atoms: C_2  and  C_4 
REMARK    3  A    between atoms: C_2  and  C_18 
REMARK    4  A    between atoms: C_4  and  C_5 
REMARK    5  A    between atoms: C_5  and  C_6 
REMARK       I    between atoms: C_6  and  N_8 
REMARK    6  A    between atoms: N_8  and  C_9 
REMARK    7  A    between atoms: C_12  and  C_15 
REMARK    8  A    between atoms: C_15  and  C_16 
REMARK    9  A    between atoms: C_15  and  C_17 
REMARK   10  A    between atoms: C_24  and  C_45 
REMARK   11  A    between atoms: C_31  and  O_44 
REMARK   12  A    between atoms: C_36  and  C_43 
REMARK   13  A    between atoms: C_39  and  O_42 
ROOT
ATOM      1  C   LIG d   1       9.875   5.841  -4.809  0.00  0.00    -0.033 C 
ATOM      2  H   LIG d   1       9.070   6.440  -5.233  0.00  0.00     0.031 H 
ATOM      3  C   LIG d   1       9.302   4.795  -3.819  0.00  0.00    -0.049 C 
ATOM      4  C   LIG d   1       9.862   5.164  -2.419  0.00  0.00    -0.049 C 
ATOM      5  C   LIG d   1      10.174   6.658  -2.556  0.00  0.00    -0.030 C 
ATOM      6  H   LIG d   1       9.255   7.243  -2.524  0.00  0.00     0.031 H 
ATOM      7  C   LIG d   1      10.804   6.719  -3.975  0.00  0.00    -0.026 C 
ATOM      8  C   LIG d   1      10.893   8.179  -4.373  0.00  0.00    -0.047 C 
ATOM      9  C   LIG d   1      11.870   8.859  -3.399  0.00  0.00    -0.049 C 
ATOM     10  C   LIG d   1      11.416   8.694  -1.953  0.00  0.00    -0.030 C 
ATOM     11  H   LIG d   1      10.468   9.217  -1.819  0.00  0.00     0.031 H 
ATOM     12  C   LIG d   1      11.190   7.215  -1.577  0.00  0.00    -0.008 C 
ATOM     13  H   LIG d   1      12.129   6.671  -1.671  0.00  0.00     0.033 H 
ATOM     14  C   LIG d   1      10.656   7.121  -0.147  0.00  0.00     0.059 C 
ATOM     15  H   LIG d   1       9.712   7.662  -0.074  0.00  0.00     0.060 H 
ATOM     16  C   LIG d   1      11.671   7.737   0.819  0.00  0.00    -0.023 C 
ATOM     17  C   LIG d   1      11.896   9.206   0.455  0.00  0.00    -0.031 C 
ATOM     18  H   LIG d   1      12.617   9.645   1.144  0.00  0.00     0.031 H 
ATOM     19  C   LIG d   1      12.452   9.301  -1.006  0.00  0.00    -0.026 C 
ATOM     20  C   LIG d   1      12.673  10.771  -1.367  0.00  0.00    -0.045 C 
ATOM     21  C   LIG d   1      11.349  11.528  -1.248  0.00  0.00    -0.026 C 
ATOM     22  C   LIG d   1      10.832  11.429   0.189  0.00  0.00     0.056 C 
ATOM     23  H   LIG d   1      11.562  11.868   0.869  0.00  0.00     0.059 H 
ATOM     24  C   LIG d   1      10.569   9.963   0.553  0.00  0.00    -0.023 C 
ATOM     25  H   LIG d   1       8.214   4.844  -3.812  0.00  0.00     0.027 H 
ATOM     26  H   LIG d   1       9.631   3.795  -4.102  0.00  0.00     0.027 H 
ATOM     27  H   LIG d   1       9.110   4.997  -1.647  0.00  0.00     0.027 H 
ATOM     28  H   LIG d   1      10.769   4.599  -2.204  0.00  0.00     0.027 H 
ATOM     29  H   LIG d   1      11.269   8.264  -5.393  0.00  0.00     0.027 H 
ATOM     30  H   LIG d   1       9.911   8.644  -4.299  0.00  0.00     0.027 H 
ATOM     31  H   LIG d   1      12.858   8.414  -3.516  0.00  0.00     0.027 H 
ATOM     32  H   LIG d   1      11.928   9.922  -3.635  0.00  0.00     0.027 H 
ATOM     33  H   LIG d   1      11.292   7.668   1.837  0.00  0.00     0.029 H 
ATOM     34  H   LIG d   1      12.616   7.196   0.745  0.00  0.00     0.029 H 
ATOM     35  H   LIG d   1      13.404  11.207  -0.686  0.00  0.00     0.027 H 
ATOM     36  H   LIG d   1      13.042  10.842  -2.390  0.00  0.00     0.027 H 
ATOM     37  H   LIG d   1      11.504  12.575  -1.506  0.00  0.00     0.029 H 
ATOM     38  H   LIG d   1      10.618  11.090  -1.927  0.00  0.00     0.029 H 
ATOM     39  H   LIG d   1       9.848   9.522  -0.134  0.00  0.00     0.029 H 
ATOM     40  H   LIG d   1      10.187   9.895   1.573  0.00  0.00     0.029 H 
ENDROOT
BRANCH   1  41
ATOM     41  C   LIG d   1      10.660   5.145  -5.922  0.00  0.00    -0.040 C 
ATOM     42  H   LIG d   1      11.697   5.480  -5.900  0.00  0.00     0.030 H 
BRANCH  41  43
ATOM     43  C   LIG d   1      10.040   5.492  -7.277  0.00  0.00    -0.062 C 
ATOM     44  H   LIG d   1      10.791   5.965  -7.910  0.00  0.00     0.023 H 
ATOM     45  H   LIG d   1       9.681   4.582  -7.757  0.00  0.00     0.023 H 
ATOM     46  H   LIG d   1       9.206   6.178  -7.130  0.00  0.00     0.023 H 
ENDBRANCH  41  43
BRANCH  41  47
ATOM     47  C   LIG d   1      10.609   3.631  -5.711  0.00  0.00    -0.042 C 
ATOM     48  H   LIG d   1      11.619   3.223  -5.752  0.00  0.00     0.027 H 
ATOM     49  H   LIG d   1      10.170   3.415  -4.736  0.00  0.00     0.027 H 
BRANCH  47  50
ATOM     50  C   LIG d   1       9.756   2.991  -6.807  0.00  0.00     0.025 C 
ATOM     51  H   LIG d   1       9.299   3.771  -7.416  0.00  0.00     0.036 H 
ATOM     52  H   LIG d   1      10.385   2.361  -7.437  0.00  0.00     0.036 H 
BRANCH  50  53
ATOM     53  C   LIG d   1       8.676   2.149  -6.177  0.00  0.00     0.217 C 
ATOM     54  O   LIG d   1       7.666   1.895  -6.799  0.00  0.00    -0.276 OA
ATOM     55  N   LIG d   1       8.833   1.679  -4.924  0.00  0.00    -0.285 N 
ATOM     56  H   LIG d   1       9.604   1.944  -4.400  0.00  0.00     0.155 HD
BRANCH  55  57
ATOM     57  C   LIG d   1       7.882   0.809  -4.379  0.00  0.00     0.033 A 
ATOM     58  C   LIG d   1       6.859   1.307  -3.581  0.00  0.00    -0.040 A 
ATOM     59  C   LIG d   1       5.919   0.445  -3.050  0.00  0.00    -0.057 A 
ATOM     60  H   LIG d   1       6.797   2.366  -3.380  0.00  0.00     0.064 H 
ATOM     61  C   LIG d   1       6.002  -0.912  -3.301  0.00  0.00    -0.045 A 
ATOM     62  H   LIG d   1       5.120   0.832  -2.435  0.00  0.00     0.062 H 
ATOM     63  C   LIG d   1       7.023  -1.411  -4.090  0.00  0.00    -0.057 A 
ATOM     64  C   LIG d   1       7.962  -0.554  -4.629  0.00  0.00    -0.040 A 
ATOM     65  H   LIG d   1       7.084  -2.471  -4.284  0.00  0.00     0.062 H 
ATOM     66  H   LIG d   1       8.759  -0.944  -5.246  0.00  0.00     0.064 H 
BRANCH  61  67
ATOM     67  C   LIG d   1       4.979  -1.849  -2.715  0.00  0.00    -0.021 C 
ATOM     68  H   LIG d   1       5.417  -2.387  -1.874  0.00  0.00     0.034 H 
BRANCH  67  69
ATOM     69  C   LIG d   1       3.769  -1.045  -2.231  0.00  0.00    -0.059 C 
ATOM     70  H   LIG d   1       3.866  -0.010  -2.559  0.00  0.00     0.024 H 
ATOM     71  H   LIG d   1       2.858  -1.474  -2.647  0.00  0.00     0.024 H 
ATOM     72  H   LIG d   1       3.724  -1.079  -1.142  0.00  0.00     0.024 H 
ENDBRANCH  67  69
BRANCH  67  73
ATOM     73  C   LIG d   1       4.531  -2.849  -3.783  0.00  0.00    -0.059 C 
ATOM     74  H   LIG d   1       4.224  -2.309  -4.680  0.00  0.00     0.024 H 
ATOM     75  H   LIG d   1       5.358  -3.516  -4.026  0.00  0.00     0.024 H 
ATOM     76  H   LIG d   1       3.692  -3.433  -3.405  0.00  0.00     0.024 H 
ENDBRANCH  67  73
ENDBRANCH  61  67
ENDBRANCH  55  57
ENDBRANCH  50  53
ENDBRANCH  47  50
ENDBRANCH  41  47
ENDBRANCH   1  41
BRANCH   7  77
ATOM     77  C   LIG d   1      12.205   6.105  -3.946  0.00  0.00    -0.059 C 
ATOM     78  H   LIG d   1      12.127   5.018  -3.962  0.00  0.00     0.024 H 
ATOM     79  H   LIG d   1      12.768   6.441  -4.817  0.00  0.00     0.024 H 
ATOM     80  H   LIG d   1      12.721   6.419  -3.038  0.00  0.00     0.024 H 
ENDBRANCH   7  77
BRANCH  14  81
ATOM     81  O   LIG d   1      10.446   5.749   0.194  0.00  0.00    -0.392 OA
ATOM     82  H   LIG d   1       9.524   5.467   0.141  0.00  0.00     0.210 HD
ENDBRANCH  14  81
BRANCH  19  83
ATOM     83  C   LIG d   1      13.771   8.535  -1.133  0.00  0.00    -0.059 C 
ATOM     84  H   LIG d   1      14.330   8.617  -0.200  0.00  0.00     0.024 H 
ATOM     85  H   LIG d   1      13.564   7.486  -1.341  0.00  0.00     0.024 H 
ATOM     86  H   LIG d   1      14.360   8.958  -1.947  0.00  0.00     0.024 H 
ENDBRANCH  19  83
BRANCH  22  87
ATOM     87  O   LIG d   1       9.594  12.133   0.300  0.00  0.00    -0.392 OA
ATOM     88  H   LIG d   1       8.975  11.956  -0.424  0.00  0.00     0.210 HD
ENDBRANCH  22  87
TORSDOF 13
ENDMDL
MODEL 5
REMARK VINA RESULT:      -6.5      1.893      3.223
REMARK  13 active torsions:
REMARK  status: ('A' for Active; 'I' for Inactive)
REMARK    1  A    between atoms: C_1  and  C_2 
REMARK    2  A    between atoms: C_2  and  C_4 
REMARK    3  A    between atoms: C_2  and  C_18 
REMARK    4  A    between atoms: C_4  and  C_5 
REMARK    5  A    between atoms: C_5  and  C_6 
REMARK       I    between atoms: C_6  and  N_8 
REMARK    6  A    between atoms: N_8  and  C_9 
REMARK    7  A    between atoms: C_12  and  C_15 
REMARK    8  A    between atoms: C_15  and  C_16 
REMARK    9  A    between atoms: C_15  and  C_17 
REMARK   10  A    between atoms: C_24  and  C_45 
REMARK   11  A    between atoms: C_31  and  O_44 
REMARK   12  A    between atoms: C_36  and  C_43 
REMARK   13  A    between atoms: C_39  and  O_42 
ROOT
ATOM      1  C   LIG d   1      12.013   3.462  -5.798  0.00  0.00    -0.033 C 
ATOM      2  H   LIG d   1      12.951   3.778  -6.254  0.00  0.00     0.031 H 
ATOM      3  C   LIG d   1      10.811   4.057  -6.575  0.00  0.00    -0.049 C 
ATOM      4  C   LIG d   1      10.087   5.018  -5.594  0.00  0.00    -0.049 C 
ATOM      5  C   LIG d   1      11.192   5.392  -4.600  0.00  0.00    -0.030 C 
ATOM      6  H   LIG d   1      11.880   6.107  -5.050  0.00  0.00     0.031 H 
ATOM      7  C   LIG d   1      11.897   4.024  -4.384  0.00  0.00    -0.026 C 
ATOM      8  C   LIG d   1      13.198   4.291  -3.653  0.00  0.00    -0.047 C 
ATOM      9  C   LIG d   1      12.836   4.855  -2.268  0.00  0.00    -0.049 C 
ATOM     10  C   LIG d   1      11.985   6.114  -2.387  0.00  0.00    -0.030 C 
ATOM     11  H   LIG d   1      12.576   6.895  -2.868  0.00  0.00     0.031 H 
ATOM     12  C   LIG d   1      10.724   5.888  -3.245  0.00  0.00    -0.008 C 
ATOM     13  H   LIG d   1      10.096   5.133  -2.773  0.00  0.00     0.033 H 
ATOM     14  C   LIG d   1       9.959   7.204  -3.397  0.00  0.00     0.059 C 
ATOM     15  H   LIG d   1      10.598   7.943  -3.880  0.00  0.00     0.060 H 
ATOM     16  C   LIG d   1       9.543   7.715  -2.016  0.00  0.00    -0.023 C 
ATOM     17  C   LIG d   1      10.790   7.947  -1.161  0.00  0.00    -0.031 C 
ATOM     18  H   LIG d   1      10.494   8.313  -0.177  0.00  0.00     0.031 H 
ATOM     19  C   LIG d   1      11.568   6.597  -0.998  0.00  0.00    -0.026 C 
ATOM     20  C   LIG d   1      12.815   6.834  -0.144  0.00  0.00    -0.045 C 
ATOM     21  C   LIG d   1      13.700   7.884  -0.818  0.00  0.00    -0.026 C 
ATOM     22  C   LIG d   1      12.923   9.194  -0.957  0.00  0.00     0.056 C 
ATOM     23  H   LIG d   1      12.630   9.549   0.031  0.00  0.00     0.059 H 
ATOM     24  C   LIG d   1      11.689   8.982  -1.842  0.00  0.00    -0.023 C 
ATOM     25  H   LIG d   1      11.165   4.608  -7.446  0.00  0.00     0.027 H 
ATOM     26  H   LIG d   1      10.136   3.259  -6.885  0.00  0.00     0.027 H 
ATOM     27  H   LIG d   1       9.724   5.902  -6.118  0.00  0.00     0.027 H 
ATOM     28  H   LIG d   1       9.268   4.506  -5.086  0.00  0.00     0.027 H 
ATOM     29  H   LIG d   1      13.758   3.363  -3.540  0.00  0.00     0.027 H 
ATOM     30  H   LIG d   1      13.791   5.019  -4.206  0.00  0.00     0.027 H 
ATOM     31  H   LIG d   1      12.282   4.101  -1.710  0.00  0.00     0.027 H 
ATOM     32  H   LIG d   1      13.754   5.094  -1.729  0.00  0.00     0.027 H 
ATOM     33  H   LIG d   1       8.996   8.650  -2.124  0.00  0.00     0.029 H 
ATOM     34  H   LIG d   1       8.904   6.975  -1.532  0.00  0.00     0.029 H 
ATOM     35  H   LIG d   1      12.519   7.188   0.843  0.00  0.00     0.027 H 
ATOM     36  H   LIG d   1      13.369   5.901  -0.044  0.00  0.00     0.027 H 
ATOM     37  H   LIG d   1      14.590   8.052  -0.213  0.00  0.00     0.029 H 
ATOM     38  H   LIG d   1      13.994   7.530  -1.807  0.00  0.00     0.029 H 
ATOM     39  H   LIG d   1      11.983   8.616  -2.825  0.00  0.00     0.029 H 
ATOM     40  H   LIG d   1      11.143   9.920  -1.952  0.00  0.00     0.029 H 
ENDROOT
BRANCH   1  41
ATOM     41  C   LIG d   1      11.925   1.936  -5.771  0.00  0.00    -0.040 C 
ATOM     42  H   LIG d   1      11.444   1.615  -4.847  0.00  0.00     0.030 H 
BRANCH  41  43
ATOM     43  C   LIG d   1      13.333   1.342  -5.847  0.00  0.00    -0.062 C 
ATOM     44  H   LIG d   1      13.267   0.276  -6.065  0.00  0.00     0.023 H 
ATOM     45  H   LIG d   1      13.896   1.840  -6.636  0.00  0.00     0.023 H 
ATOM     46  H   LIG d   1      13.839   1.486  -4.893  0.00  0.00     0.023 H 
ENDBRANCH  41  43
BRANCH  41  47
ATOM     47  C   LIG d   1      11.103   1.451  -6.967  0.00  0.00    -0.042 C 
ATOM     48  H   LIG d   1      10.268   2.132  -7.135  0.00  0.00     0.027 H 
ATOM     49  H   LIG d   1      11.734   1.426  -7.855  0.00  0.00     0.027 H 
BRANCH  47  50
ATOM     50  C   LIG d   1      10.567   0.047  -6.683  0.00  0.00     0.025 C 
ATOM     51  H   LIG d   1      10.451  -0.495  -7.622  0.00  0.00     0.036 H 
ATOM     52  H   LIG d   1      11.268  -0.486  -6.040  0.00  0.00     0.036 H 
BRANCH  50  53
ATOM     53  C   LIG d   1       9.231   0.148  -5.993  0.00  0.00     0.217 C 
ATOM     54  O   LIG d   1       8.240   0.438  -6.630  0.00  0.00    -0.276 OA
ATOM     55  N   LIG d   1       9.137  -0.085  -4.669  0.00  0.00    -0.285 N 
ATOM     56  H   LIG d   1       9.938  -0.243  -4.147  0.00  0.00     0.155 HD
BRANCH  55  57
ATOM     57  C   LIG d   1       7.883  -0.099  -4.049  0.00  0.00     0.033 A 
ATOM     58  C   LIG d   1       7.237  -1.306  -3.812  0.00  0.00    -0.040 A 
ATOM     59  C   LIG d   1       6.001  -1.316  -3.194  0.00  0.00    -0.057 A 
ATOM     60  H   LIG d   1       7.702  -2.235  -4.107  0.00  0.00     0.064 H 
ATOM     61  C   LIG d   1       5.402  -0.127  -2.822  0.00  0.00    -0.045 A 
ATOM     62  H   LIG d   1       5.501  -2.254  -3.005  0.00  0.00     0.062 H 
ATOM     63  C   LIG d   1       6.041   1.076  -3.062  0.00  0.00    -0.057 A 
ATOM     64  C   LIG d   1       7.279   1.093  -3.674  0.00  0.00    -0.040 A 
ATOM     65  H   LIG d   1       5.570   2.004  -2.769  0.00  0.00     0.062 H 
ATOM     66  H   LIG d   1       7.777   2.034  -3.860  0.00  0.00     0.064 H 
BRANCH  61  67
ATOM     67  C   LIG d   1       4.052  -0.142  -2.154  0.00  0.00    -0.021 C 
ATOM     68  H   LIG d   1       4.174  -0.366  -1.094  0.00  0.00     0.034 H 
BRANCH  67  69
ATOM     69  C   LIG d   1       3.389   1.229  -2.312  0.00  0.00    -0.059 C 
ATOM     70  H   LIG d   1       2.319   1.138  -2.124  0.00  0.00     0.024 H 
ATOM     71  H   LIG d   1       3.825   1.928  -1.599  0.00  0.00     0.024 H 
ATOM     72  H   LIG d   1       3.550   1.594  -3.327  0.00  0.00     0.024 H 
ENDBRANCH  67  69
BRANCH  67  73
ATOM     73  C   LIG d   1       3.173  -1.211  -2.805  0.00  0.00    -0.059 C 
ATOM     74  H   LIG d   1       2.132  -0.885  -2.786  0.00  0.00     0.024 H 
ATOM     75  H   LIG d   1       3.487  -1.362  -3.838  0.00  0.00     0.024 H 
ATOM     76  H   LIG d   1       3.271  -2.147  -2.255  0.00  0.00     0.024 H 
ENDBRANCH  67  73
ENDBRANCH  61  67
ENDBRANCH  55  57
ENDBRANCH  50  53
ENDBRANCH  47  50
ENDBRANCH  41  47
ENDBRANCH   1  41
BRANCH   7  77
ATOM     77  C   LIG d   1      11.007   3.111  -3.538  0.00  0.00    -0.059 C 
ATOM     78  H   LIG d   1      10.033   3.579  -3.399  0.00  0.00     0.024 H 
ATOM     79  H   LIG d   1      10.881   2.154  -4.045  0.00  0.00     0.024 H 
ATOM     80  H   LIG d   1      11.474   2.948  -2.566  0.00  0.00     0.024 H 
ENDBRANCH   7  77
BRANCH  14  81
ATOM     81  O   LIG d   1       8.793   6.988  -4.195  0.00  0.00    -0.392 OA
ATOM     82  H   LIG d   1       8.250   6.243  -3.905  0.00  0.00     0.210 HD
ENDBRANCH  14  81
BRANCH  19  83
ATOM     83  C   LIG d   1      10.682   5.540  -0.333  0.00  0.00    -0.059 C 
ATOM     84  H   LIG d   1      10.940   5.461   0.723  0.00  0.00     0.024 H 
ATOM     85  H   LIG d   1       9.636   5.829  -0.432  0.00  0.00     0.024 H 
ATOM     86  H   LIG d   1      10.840   4.576  -0.819  0.00  0.00     0.024 H 
ENDBRANCH  19  83
BRANCH  22  87
ATOM     87  O   LIG d   1      13.748  10.173  -1.590  0.00  0.00    -0.392 OA
ATOM     88  H   LIG d   1      13.708  10.156  -2.557  0.00  0.00     0.210 HD
ENDBRANCH  22  87
TORSDOF 13
ENDMDL
MODEL 6
REMARK VINA RESULT:      -6.4      3.786      4.249
REMARK  13 active torsions:
REMARK  status: ('A' for Active; 'I' for Inactive)
REMARK    1  A    between atoms: C_1  and  C_2 
REMARK    2  A    between atoms: C_2  and  C_4 
REMARK    3  A    between atoms: C_2  and  C_18 
REMARK    4  A    between atoms: C_4  and  C_5 
REMARK    5  A    between atoms: C_5  and  C_6 
REMARK       I    between atoms: C_6  and  N_8 
REMARK    6  A    between atoms: N_8  and  C_9 
REMARK    7  A    between atoms: C_12  and  C_15 
REMARK    8  A    between atoms: C_15  and  C_16 
REMARK    9  A    between atoms: C_15  and  C_17 
REMARK   10  A    between atoms: C_24  and  C_45 
REMARK   11  A    between atoms: C_31  and  O_44 
REMARK   12  A    between atoms: C_36  and  C_43 
REMARK   13  A    between atoms: C_39  and  O_42 
ROOT
ATOM      1  C   LIG d   1       9.085   3.833  -5.283  0.00  0.00    -0.033 C 
ATOM      2  H   LIG d   1       8.048   4.143  -5.414  0.00  0.00     0.031 H 
ATOM      3  C   LIG d   1       9.185   2.744  -4.185  0.00  0.00    -0.049 C 
ATOM      4  C   LIG d   1      10.019   3.362  -3.031  0.00  0.00    -0.049 C 
ATOM      5  C   LIG d   1       9.819   4.868  -3.230  0.00  0.00    -0.030 C 
ATOM      6  H   LIG d   1       8.827   5.167  -2.891  0.00  0.00     0.031 H 
ATOM      7  C   LIG d   1       9.926   4.999  -4.774  0.00  0.00    -0.026 C 
ATOM      8  C   LIG d   1       9.452   6.389  -5.149  0.00  0.00    -0.047 C 
ATOM      9  C   LIG d   1      10.439   7.392  -4.526  0.00  0.00    -0.049 C 
ATOM     10  C   LIG d   1      10.530   7.214  -3.014  0.00  0.00    -0.030 C 
ATOM     11  H   LIG d   1       9.562   7.453  -2.572  0.00  0.00     0.031 H 
ATOM     12  C   LIG d   1      10.879   5.764  -2.616  0.00  0.00    -0.008 C 
ATOM     13  H   LIG d   1      11.857   5.506  -3.019  0.00  0.00     0.033 H 
ATOM     14  C   LIG d   1      10.871   5.630  -1.094  0.00  0.00     0.059 C 
ATOM     15  H   LIG d   1       9.882   5.883  -0.710  0.00  0.00     0.060 H 
ATOM     16  C   LIG d   1      11.909   6.581  -0.492  0.00  0.00    -0.023 C 
ATOM     17  C   LIG d   1      11.566   8.021  -0.878  0.00  0.00    -0.031 C 
ATOM     18  H   LIG d   1      12.303   8.699  -0.448  0.00  0.00     0.031 H 
ATOM     19  C   LIG d   1      11.583   8.160  -2.438  0.00  0.00    -0.026 C 
ATOM     20  C   LIG d   1      11.237   9.601  -2.819  0.00  0.00    -0.045 C 
ATOM     21  C   LIG d   1       9.856   9.955  -2.265  0.00  0.00    -0.026 C 
ATOM     22  C   LIG d   1       9.867   9.821  -0.741  0.00  0.00     0.056 C 
ATOM     23  H   LIG d   1      10.610  10.500  -0.323  0.00  0.00     0.059 H 
ATOM     24  C   LIG d   1      10.175   8.373  -0.342  0.00  0.00    -0.023 C 
ATOM     25  H   LIG d   1       8.190   2.481  -3.827  0.00  0.00     0.027 H 
ATOM     26  H   LIG d   1       9.687   1.861  -4.579  0.00  0.00     0.027 H 
ATOM     27  H   LIG d   1       9.631   3.046  -2.062  0.00  0.00     0.027 H 
ATOM     28  H   LIG d   1      11.072   3.097  -3.130  0.00  0.00     0.027 H 
ATOM     29  H   LIG d   1       9.447   6.500  -6.233  0.00  0.00     0.027 H 
ATOM     30  H   LIG d   1       8.451   6.559  -4.753  0.00  0.00     0.027 H 
ATOM     31  H   LIG d   1      11.426   7.239  -4.963  0.00  0.00     0.027 H 
ATOM     32  H   LIG d   1      10.104   8.406  -4.746  0.00  0.00     0.027 H 
ATOM     33  H   LIG d   1      11.905   6.484   0.593  0.00  0.00     0.029 H 
ATOM     34  H   LIG d   1      12.898   6.328  -0.876  0.00  0.00     0.029 H 
ATOM     35  H   LIG d   1      11.981  10.277  -2.400  0.00  0.00     0.027 H 
ATOM     36  H   LIG d   1      11.229   9.697  -3.905  0.00  0.00     0.027 H 
ATOM     37  H   LIG d   1       9.607  10.980  -2.538  0.00  0.00     0.029 H 
ATOM     38  H   LIG d   1       9.112   9.277  -2.683  0.00  0.00     0.029 H 
ATOM     39  H   LIG d   1       9.439   7.695  -0.772  0.00  0.00     0.029 H 
ATOM     40  H   LIG d   1      10.170   8.276   0.743  0.00  0.00     0.029 H 
ENDROOT
BRANCH   1  41
ATOM     41  C   LIG d   1       9.650   3.307  -6.604  0.00  0.00    -0.040 C 
ATOM     42  H   LIG d   1      10.631   2.866  -6.429  0.00  0.00     0.030 H 
BRANCH  41  43
ATOM     43  C   LIG d   1       9.778   4.462  -7.599  0.00  0.00    -0.062 C 
ATOM     44  H   LIG d   1       8.785   4.822  -7.868  0.00  0.00     0.023 H 
ATOM     45  H   LIG d   1      10.348   5.272  -7.144  0.00  0.00     0.023 H 
ATOM     46  H   LIG d   1      10.293   4.114  -8.495  0.00  0.00     0.023 H 
ENDBRANCH  41  43
BRANCH  41  47
ATOM     47  C   LIG d   1       8.709   2.244  -7.174  0.00  0.00    -0.042 C 
ATOM     48  H   LIG d   1       9.275   1.343  -7.407  0.00  0.00     0.027 H 
ATOM     49  H   LIG d   1       7.939   2.009  -6.439  0.00  0.00     0.027 H 
BRANCH  47  50
ATOM     50  C   LIG d   1       8.050   2.776  -8.449  0.00  0.00     0.025 C 
ATOM     51  H   LIG d   1       7.644   3.770  -8.261  0.00  0.00     0.036 H 
ATOM     52  H   LIG d   1       8.793   2.832  -9.245  0.00  0.00     0.036 H 
BRANCH  50  53
ATOM     53  C   LIG d   1       6.938   1.849  -8.865  0.00  0.00     0.217 C 
ATOM     54  O   LIG d   1       7.166   0.671  -9.044  0.00  0.00    -0.276 OA
ATOM     55  N   LIG d   1       5.690   2.329  -9.037  0.00  0.00    -0.285 N 
ATOM     56  H   LIG d   1       5.523   3.281  -8.967  0.00  0.00     0.155 HD
BRANCH  55  57
ATOM     57  C   LIG d   1       4.636   1.452  -9.316  0.00  0.00     0.033 A 
ATOM     58  C   LIG d   1       3.904   0.890  -8.277  0.00  0.00    -0.040 A 
ATOM     59  C   LIG d   1       2.860   0.029  -8.557  0.00  0.00    -0.057 A 
ATOM     60  H   LIG d   1       4.147   1.130  -7.252  0.00  0.00     0.064 H 
ATOM     61  C   LIG d   1       2.552  -0.284  -9.868  0.00  0.00    -0.045 A 
ATOM     62  H   LIG d   1       2.287  -0.403  -7.750  0.00  0.00     0.062 H 
ATOM     63  C   LIG d   1       3.283   0.269 -10.903  0.00  0.00    -0.057 A 
ATOM     64  C   LIG d   1       4.323   1.135 -10.631  0.00  0.00    -0.040 A 
ATOM     65  H   LIG d   1       3.039   0.022 -11.926  0.00  0.00     0.062 H 
ATOM     66  H   LIG d   1       4.894   1.567 -11.441  0.00  0.00     0.064 H 
BRANCH  61  67
ATOM     67  C   LIG d   1       1.418  -1.228 -10.168  0.00  0.00    -0.021 C 
ATOM     68  H   LIG d   1       0.576  -1.006  -9.511  0.00  0.00     0.034 H 
BRANCH  67  69
ATOM     69  C   LIG d   1       0.984  -1.058 -11.626  0.00  0.00    -0.059 C 
ATOM     70  H   LIG d   1       0.126  -1.700 -11.827  0.00  0.00     0.024 H 
ATOM     71  H   LIG d   1       0.710  -0.019 -11.805  0.00  0.00     0.024 H 
ATOM     72  H   LIG d   1       1.808  -1.336 -12.284  0.00  0.00     0.024 H 
ENDBRANCH  67  69
BRANCH  67  73
ATOM     73  C   LIG d   1       1.878  -2.669  -9.939  0.00  0.00    -0.059 C 
ATOM     74  H   LIG d   1       2.953  -2.682  -9.756  0.00  0.00     0.024 H 
ATOM     75  H   LIG d   1       1.358  -3.085  -9.076  0.00  0.00     0.024 H 
ATOM     76  H   LIG d   1       1.653  -3.267 -10.821  0.00  0.00     0.024 H 
ENDBRANCH  67  73
ENDBRANCH  61  67
ENDBRANCH  55  57
ENDBRANCH  50  53
ENDBRANCH  47  50
ENDBRANCH  41  47
ENDBRANCH   1  41
BRANCH   7  77
ATOM     77  C   LIG d   1      11.381   4.814  -5.209  0.00  0.00    -0.059 C 
ATOM     78  H   LIG d   1      12.041   5.007  -4.364  0.00  0.00     0.024 H 
ATOM     79  H   LIG d   1      11.529   3.792  -5.559  0.00  0.00     0.024 H 
ATOM     80  H   LIG d   1      11.610   5.510  -6.016  0.00  0.00     0.024 H 
ENDBRANCH   7  77
BRANCH  14  81
ATOM     81  O   LIG d   1      11.193   4.285  -0.732  0.00  0.00    -0.392 OA
ATOM     82  H   LIG d   1      11.471   3.734  -1.475  0.00  0.00     0.210 HD
ENDBRANCH  14  81
BRANCH  19  83
ATOM     83  C   LIG d   1      12.960   7.795  -2.998  0.00  0.00    -0.059 C 
ATOM     84  H   LIG d   1      13.684   7.752  -2.183  0.00  0.00     0.024 H 
ATOM     85  H   LIG d   1      12.907   6.824  -3.488  0.00  0.00     0.024 H 
ATOM     86  H   LIG d   1      13.271   8.551  -3.720  0.00  0.00     0.024 H 
ENDBRANCH  19  83
BRANCH  22  87
ATOM     87  O   LIG d   1       8.577  10.149  -0.224  0.00  0.00    -0.392 OA
ATOM     88  H   LIG d   1       8.203   9.473   0.360  0.00  0.00     0.210 HD
ENDBRANCH  22  87
TORSDOF 13
ENDMDL
MODEL 7
REMARK VINA RESULT:      -6.3      8.634     14.131
REMARK  13 active torsions:
REMARK  status: ('A' for Active; 'I' for Inactive)
REMARK    1  A    between atoms: C_1  and  C_2 
REMARK    2  A    between atoms: C_2  and  C_4 
REMARK    3  A    between atoms: C_2  and  C_18 
REMARK    4  A    between atoms: C_4  and  C_5 
REMARK    5  A    between atoms: C_5  and  C_6 
REMARK       I    between atoms: C_6  and  N_8 
REMARK    6  A    between atoms: N_8  and  C_9 
REMARK    7  A    between atoms: C_12  and  C_15 
REMARK    8  A    between atoms: C_15  and  C_16 
REMARK    9  A    between atoms: C_15  and  C_17 
REMARK   10  A    between atoms: C_24  and  C_45 
REMARK   11  A    between atoms: C_31  and  O_44 
REMARK   12  A    between atoms: C_36  and  C_43 
REMARK   13  A    between atoms: C_39  and  O_42 
ROOT
ATOM      1  C   LIG d   1       9.351  -7.418  -3.554  0.00  0.00    -0.033 C 
ATOM      2  H   LIG d   1       9.183  -6.404  -3.193  0.00  0.00     0.031 H 
ATOM      3  C   LIG d   1       8.058  -8.260  -3.413  0.00  0.00    -0.049 C 
ATOM      4  C   LIG d   1       8.376  -9.384  -2.390  0.00  0.00    -0.049 C 
ATOM      5  C   LIG d   1       9.531  -8.790  -1.576  0.00  0.00    -0.030 C 
ATOM      6  H   LIG d   1       9.158  -8.038  -0.881  0.00  0.00     0.031 H 
ATOM      7  C   LIG d   1      10.389  -8.123  -2.687  0.00  0.00    -0.026 C 
ATOM      8  C   LIG d   1      11.413  -7.239  -2.003  0.00  0.00    -0.047 C 
ATOM      9  C   LIG d   1      12.338  -8.158  -1.187  0.00  0.00    -0.049 C 
ATOM     10  C   LIG d   1      11.548  -8.989  -0.182  0.00  0.00    -0.030 C 
ATOM     11  H   LIG d   1      11.093  -8.319   0.549  0.00  0.00     0.031 H 
ATOM     12  C   LIG d   1      10.412  -9.790  -0.851  0.00  0.00    -0.008 C 
ATOM     13  H   LIG d   1      10.839 -10.492  -1.567  0.00  0.00     0.033 H 
ATOM     14  C   LIG d   1       9.606 -10.533   0.215  0.00  0.00     0.059 C 
ATOM     15  H   LIG d   1       9.179  -9.815   0.915  0.00  0.00     0.060 H 
ATOM     16  C   LIG d   1      10.525 -11.497   0.970  0.00  0.00    -0.023 C 
ATOM     17  C   LIG d   1      11.651 -10.708   1.641  0.00  0.00    -0.031 C 
ATOM     18  H   LIG d   1      12.304 -11.394   2.181  0.00  0.00     0.031 H 
ATOM     19  C   LIG d   1      12.482  -9.955   0.548  0.00  0.00    -0.026 C 
ATOM     20  C   LIG d   1      13.605  -9.165   1.224  0.00  0.00    -0.045 C 
ATOM     21  C   LIG d   1      13.001  -8.171   2.216  0.00  0.00    -0.026 C 
ATOM     22  C   LIG d   1      12.203  -8.931   3.278  0.00  0.00     0.056 C 
ATOM     23  H   LIG d   1      12.865  -9.615   3.809  0.00  0.00     0.059 H 
ATOM     24  C   LIG d   1      11.049  -9.697   2.621  0.00  0.00    -0.023 C 
ATOM     25  H   LIG d   1       7.244  -7.636  -3.043  0.00  0.00     0.027 H 
ATOM     26  H   LIG d   1       7.788  -8.694  -4.376  0.00  0.00     0.027 H 
ATOM     27  H   LIG d   1       7.514  -9.579  -1.751  0.00  0.00     0.027 H 
ATOM     28  H   LIG d   1       8.692 -10.293  -2.902  0.00  0.00     0.027 H 
ATOM     29  H   LIG d   1      11.994  -6.697  -2.750  0.00  0.00     0.027 H 
ATOM     30  H   LIG d   1      10.911  -6.534  -1.340  0.00  0.00     0.027 H 
ATOM     31  H   LIG d   1      12.866  -8.827  -1.866  0.00  0.00     0.027 H 
ATOM     32  H   LIG d   1      13.066  -7.547  -0.651  0.00  0.00     0.027 H 
ATOM     33  H   LIG d   1       9.950 -12.028   1.727  0.00  0.00     0.029 H 
ATOM     34  H   LIG d   1      10.953 -12.215   0.269  0.00  0.00     0.029 H 
ATOM     35  H   LIG d   1      14.265  -9.852   1.753  0.00  0.00     0.027 H 
ATOM     36  H   LIG d   1      14.174  -8.624   0.467  0.00  0.00     0.027 H 
ATOM     37  H   LIG d   1      13.799  -7.606   2.697  0.00  0.00     0.029 H 
ATOM     38  H   LIG d   1      12.339  -7.486   1.687  0.00  0.00     0.029 H 
ATOM     39  H   LIG d   1      10.396  -9.013   2.081  0.00  0.00     0.029 H 
ATOM     40  H   LIG d   1      10.474 -10.227   3.380  0.00  0.00     0.029 H 
ENDROOT
BRANCH   1  41
ATOM     41  C   LIG d   1       9.809  -7.390  -5.013  0.00  0.00    -0.040 C 
ATOM     42  H   LIG d   1      10.435  -8.260  -5.214  0.00  0.00     0.030 H 
BRANCH  41  43
ATOM     43  C   LIG d   1      10.611  -6.113  -5.272  0.00  0.00    -0.062 C 
ATOM     44  H   LIG d   1      10.080  -5.259  -4.851  0.00  0.00     0.023 H 
ATOM     45  H   LIG d   1      11.592  -6.198  -4.803  0.00  0.00     0.023 H 
ATOM     46  H   LIG d   1      10.733  -5.972  -6.346  0.00  0.00     0.023 H 
ENDBRANCH  41  43
BRANCH  41  47
ATOM     47  C   LIG d   1       8.587  -7.420  -5.933  0.00  0.00    -0.042 C 
ATOM     48  H   LIG d   1       8.737  -8.165  -6.714  0.00  0.00     0.027 H 
ATOM     49  H   LIG d   1       7.702  -7.677  -5.351  0.00  0.00     0.027 H 
BRANCH  47  50
ATOM     50  C   LIG d   1       8.394  -6.042  -6.570  0.00  0.00     0.025 C 
ATOM     51  H   LIG d   1       9.343  -5.506  -6.573  0.00  0.00     0.036 H 
ATOM     52  H   LIG d   1       8.043  -6.163  -7.596  0.00  0.00     0.036 H 
BRANCH  50  53
ATOM     53  C   LIG d   1       7.377  -5.260  -5.781  0.00  0.00     0.217 C 
ATOM     54  O   LIG d   1       6.406  -5.822  -5.319  0.00  0.00    -0.276 OA
ATOM     55  N   LIG d   1       7.547  -3.937  -5.587  0.00  0.00    -0.285 N 
ATOM     56  H   LIG d   1       8.282  -3.475  -6.018  0.00  0.00     0.155 HD
BRANCH  55  57
ATOM     57  C   LIG d   1       6.663  -3.232  -4.763  0.00  0.00     0.033 A 
ATOM     58  C   LIG d   1       5.291  -3.370  -4.934  0.00  0.00    -0.040 A 
ATOM     59  C   LIG d   1       4.422  -2.677  -4.114  0.00  0.00    -0.057 A 
ATOM     60  H   LIG d   1       4.905  -4.023  -5.703  0.00  0.00     0.064 H 
ATOM     61  C   LIG d   1       4.915  -1.836  -3.133  0.00  0.00    -0.045 A 
ATOM     62  H   LIG d   1       3.355  -2.789  -4.243  0.00  0.00     0.062 H 
ATOM     63  C   LIG d   1       6.280  -1.692  -2.965  0.00  0.00    -0.057 A 
ATOM     64  C   LIG d   1       7.155  -2.387  -3.777  0.00  0.00    -0.040 A 
ATOM     65  H   LIG d   1       6.661  -1.035  -2.197  0.00  0.00     0.062 H 
ATOM     66  H   LIG d   1       8.221  -2.274  -3.644  0.00  0.00     0.064 H 
BRANCH  61  67
ATOM     67  C   LIG d   1       3.963  -1.077  -2.246  0.00  0.00    -0.021 C 
ATOM     68  H   LIG d   1       3.733  -1.675  -1.364  0.00  0.00     0.034 H 
BRANCH  67  69
ATOM     69  C   LIG d   1       4.610   0.241  -1.814  0.00  0.00    -0.059 C 
ATOM     70  H   LIG d   1       4.573   0.952  -2.639  0.00  0.00     0.024 H 
ATOM     71  H   LIG d   1       4.069   0.648  -0.960  0.00  0.00     0.024 H 
ATOM     72  H   LIG d   1       5.649   0.061  -1.536  0.00  0.00     0.024 H 
ENDBRANCH  67  69
BRANCH  67  73
ATOM     73  C   LIG d   1       2.674  -0.783  -3.014  0.00  0.00    -0.059 C 
ATOM     74  H   LIG d   1       2.094  -0.032  -2.477  0.00  0.00     0.024 H 
ATOM     75  H   LIG d   1       2.919  -0.409  -4.009  0.00  0.00     0.024 H 
ATOM     76  H   LIG d   1       2.087  -1.698  -3.105  0.00  0.00     0.024 H 
ENDBRANCH  67  73
ENDBRANCH  61  67
ENDBRANCH  55  57
ENDBRANCH  50  53
ENDBRANCH  47  50
ENDBRANCH  41  47
ENDBRANCH   1  41
BRANCH   7  77
ATOM     77  C   LIG d   1      11.102  -9.200  -3.507  0.00  0.00    -0.059 C 
ATOM     78  H   LIG d   1      10.384  -9.962  -3.809  0.00  0.00     0.024 H 
ATOM     79  H   LIG d   1      11.545  -8.747  -4.394  0.00  0.00     0.024 H 
ATOM     80  H   LIG d   1      11.886  -9.657  -2.903  0.00  0.00     0.024 H 
ENDBRANCH   7  77
BRANCH  14  81
ATOM     81  O   LIG d   1       8.554 -11.271  -0.411  0.00  0.00    -0.392 OA
ATOM     82  H   LIG d   1       7.669 -10.940  -0.212  0.00  0.00     0.210 HD
ENDBRANCH  14  81
BRANCH  19  83
ATOM     83  C   LIG d   1      13.079 -10.945  -0.455  0.00  0.00    -0.059 C 
ATOM     84  H   LIG d   1      14.107 -11.173  -0.172  0.00  0.00     0.024 H 
ATOM     85  H   LIG d   1      12.490 -11.862  -0.455  0.00  0.00     0.024 H 
ATOM     86  H   LIG d   1      13.066 -10.505  -1.452  0.00  0.00     0.024 H 
ENDBRANCH  19  83
BRANCH  22  87
ATOM     87  O   LIG d   1      11.636  -8.002   4.204  0.00  0.00    -0.392 OA
ATOM     88  H   LIG d   1      10.668  -7.982   4.199  0.00  0.00     0.210 HD
ENDBRANCH  22  87
TORSDOF 13
ENDMDL
MODEL 8
REMARK VINA RESULT:      -6.3      7.323     11.402
REMARK  13 active torsions:
REMARK  status: ('A' for Active; 'I' for Inactive)
REMARK    1  A    between atoms: C_1  and  C_2 
REMARK    2  A    between atoms: C_2  and  C_4 
REMARK    3  A    between atoms: C_2  and  C_18 
REMARK    4  A    between atoms: C_4  and  C_5 
REMARK    5  A    between atoms: C_5  and  C_6 
REMARK       I    between atoms: C_6  and  N_8 
REMARK    6  A    between atoms: N_8  and  C_9 
REMARK    7  A    between atoms: C_12  and  C_15 
REMARK    8  A    between atoms: C_15  and  C_16 
REMARK    9  A    between atoms: C_15  and  C_17 
REMARK   10  A    between atoms: C_24  and  C_45 
REMARK   11  A    between atoms: C_31  and  O_44 
REMARK   12  A    between atoms: C_36  and  C_43 
REMARK   13  A    between atoms: C_39  and  O_42 
ROOT
ATOM      1  C   LIG d   1       3.445  -0.204  -9.815  0.00  0.00    -0.033 C 
ATOM      2  H   LIG d   1       4.010   0.637 -10.217  0.00  0.00     0.031 H 
ATOM      3  C   LIG d   1       2.090   0.284  -9.243  0.00  0.00    -0.049 C 
ATOM      4  C   LIG d   1       2.132   0.006  -7.717  0.00  0.00    -0.049 C 
ATOM      5  C   LIG d   1       3.635  -0.023  -7.415  0.00  0.00    -0.030 C 
ATOM      6  H   LIG d   1       4.041   0.989  -7.407  0.00  0.00     0.031 H 
ATOM      7  C   LIG d   1       4.184  -0.819  -8.631  0.00  0.00    -0.026 C 
ATOM      8  C   LIG d   1       5.694  -0.674  -8.626  0.00  0.00    -0.047 C 
ATOM      9  C   LIG d   1       6.214  -1.355  -7.348  0.00  0.00    -0.049 C 
ATOM     10  C   LIG d   1       5.584  -0.747  -6.100  0.00  0.00    -0.030 C 
ATOM     11  H   LIG d   1       5.898   0.294  -6.018  0.00  0.00     0.031 H 
ATOM     12  C   LIG d   1       4.043  -0.765  -6.155  0.00  0.00    -0.008 C 
ATOM     13  H   LIG d   1       3.696  -1.797  -6.207  0.00  0.00     0.033 H 
ATOM     14  C   LIG d   1       3.472  -0.068  -4.920  0.00  0.00     0.059 C 
ATOM     15  H   LIG d   1       3.822   0.965  -4.891  0.00  0.00     0.060 H 
ATOM     16  C   LIG d   1       3.939  -0.799  -3.660  0.00  0.00    -0.023 C 
ATOM     17  C   LIG d   1       5.468  -0.780  -3.595  0.00  0.00    -0.031 C 
ATOM     18  H   LIG d   1       5.801  -1.299  -2.696  0.00  0.00     0.031 H 
ATOM     19  C   LIG d   1       6.051  -1.503  -4.856  0.00  0.00    -0.026 C 
ATOM     20  C   LIG d   1       7.580  -1.479  -4.789  0.00  0.00    -0.045 C 
ATOM     21  C   LIG d   1       8.063  -0.029  -4.732  0.00  0.00    -0.026 C 
ATOM     22  C   LIG d   1       7.489   0.651  -3.488  0.00  0.00     0.056 C 
ATOM     23  H   LIG d   1       7.825   0.123  -2.597  0.00  0.00     0.059 H 
ATOM     24  C   LIG d   1       5.957   0.670  -3.558  0.00  0.00    -0.023 C 
ATOM     25  H   LIG d   1       1.969   1.351  -9.426  0.00  0.00     0.027 H 
ATOM     26  H   LIG d   1       1.271  -0.270  -9.702  0.00  0.00     0.027 H 
ATOM     27  H   LIG d   1       1.644   0.810  -7.165  0.00  0.00     0.027 H 
ATOM     28  H   LIG d   1       1.674  -0.956  -7.486  0.00  0.00     0.027 H 
ATOM     29  H   LIG d   1       6.116  -1.163  -9.504  0.00  0.00     0.027 H 
ATOM     30  H   LIG d   1       5.965   0.381  -8.621  0.00  0.00     0.027 H 
ATOM     31  H   LIG d   1       5.975  -2.418  -7.388  0.00  0.00     0.027 H 
ATOM     32  H   LIG d   1       7.297  -1.236  -7.296  0.00  0.00     0.027 H 
ATOM     33  H   LIG d   1       3.532  -0.304  -2.780  0.00  0.00     0.029 H 
ATOM     34  H   LIG d   1       3.591  -1.833  -3.690  0.00  0.00     0.029 H 
ATOM     35  H   LIG d   1       7.913  -2.009  -3.897  0.00  0.00     0.027 H 
ATOM     36  H   LIG d   1       7.989  -1.965  -5.675  0.00  0.00     0.027 H 
ATOM     37  H   LIG d   1       9.151  -0.010  -4.686  0.00  0.00     0.029 H 
ATOM     38  H   LIG d   1       7.727   0.501  -5.623  0.00  0.00     0.029 H 
ATOM     39  H   LIG d   1       5.623   1.189  -4.456  0.00  0.00     0.029 H 
ATOM     40  H   LIG d   1       5.550   1.168  -2.678  0.00  0.00     0.029 H 
ENDROOT
BRANCH   1  41
ATOM     41  C   LIG d   1       3.215  -1.255 -10.901  0.00  0.00    -0.040 C 
ATOM     42  H   LIG d   1       3.521  -2.234 -10.530  0.00  0.00     0.030 H 
BRANCH  41  43
ATOM     43  C   LIG d   1       4.040  -0.898 -12.139  0.00  0.00    -0.062 C 
ATOM     44  H   LIG d   1       4.373  -1.813 -12.631  0.00  0.00     0.023 H 
ATOM     45  H   LIG d   1       3.428  -0.317 -12.829  0.00  0.00     0.023 H 
ATOM     46  H   LIG d   1       4.908  -0.311 -11.841  0.00  0.00     0.023 H 
ENDBRANCH  41  43
BRANCH  41  47
ATOM     47  C   LIG d   1       1.731  -1.292 -11.270  0.00  0.00    -0.042 C 
ATOM     48  H   LIG d   1       1.172  -1.796 -10.483  0.00  0.00     0.027 H 
ATOM     49  H   LIG d   1       1.361  -0.272 -11.383  0.00  0.00     0.027 H 
BRANCH  47  50
ATOM     50  C   LIG d   1       1.551  -2.047 -12.589  0.00  0.00     0.025 C 
ATOM     51  H   LIG d   1       1.087  -1.390 -13.324  0.00  0.00     0.036 H 
ATOM     52  H   LIG d   1       2.525  -2.373 -12.956  0.00  0.00     0.036 H 
BRANCH  50  53
ATOM     53  C   LIG d   1       0.672  -3.249 -12.363  0.00  0.00     0.217 C 
ATOM     54  O   LIG d   1       0.474  -4.033 -13.268  0.00  0.00    -0.276 OA
ATOM     55  N   LIG d   1       0.106  -3.454 -11.157  0.00  0.00    -0.285 N 
ATOM     56  H   LIG d   1       0.202  -2.790 -10.458  0.00  0.00     0.155 HD
BRANCH  55  57
ATOM     57  C   LIG d   1      -0.620  -4.625 -10.915  0.00  0.00     0.033 A 
ATOM     58  C   LIG d   1      -1.989  -4.658 -11.155  0.00  0.00    -0.040 A 
ATOM     59  C   LIG d   1      -2.701  -5.818 -10.920  0.00  0.00    -0.057 A 
ATOM     60  H   LIG d   1      -2.494  -3.779 -11.528  0.00  0.00     0.064 H 
ATOM     61  C   LIG d   1      -2.057  -6.942 -10.435  0.00  0.00    -0.045 A 
ATOM     62  H   LIG d   1      -3.764  -5.846 -11.111  0.00  0.00     0.062 H 
ATOM     63  C   LIG d   1      -0.696  -6.910 -10.191  0.00  0.00    -0.057 A 
ATOM     64  C   LIG d   1       0.023  -5.755 -10.429  0.00  0.00    -0.040 A 
ATOM     65  H   LIG d   1      -0.196  -7.790  -9.813  0.00  0.00     0.062 H 
ATOM     66  H   LIG d   1       1.087  -5.731 -10.238  0.00  0.00     0.064 H 
BRANCH  61  67
ATOM     67  C   LIG d   1      -2.838  -8.202 -10.175  0.00  0.00    -0.021 C 
ATOM     68  H   LIG d   1      -3.036  -8.294  -9.107  0.00  0.00     0.034 H 
BRANCH  67  69
ATOM     69  C   LIG d   1      -4.166  -8.147 -10.936  0.00  0.00    -0.059 C 
ATOM     70  H   LIG d   1      -4.129  -7.344 -11.672  0.00  0.00     0.024 H 
ATOM     71  H   LIG d   1      -4.334  -9.097 -11.442  0.00  0.00     0.024 H 
ATOM     72  H   LIG d   1      -4.978  -7.959 -10.233  0.00  0.00     0.024 H 
ENDBRANCH  67  69
BRANCH  67  73
ATOM     73  C   LIG d   1      -2.030  -9.411 -10.650  0.00  0.00    -0.059 C 
ATOM     74  H   LIG d   1      -1.805  -9.304 -11.712  0.00  0.00     0.024 H 
ATOM     75  H   LIG d   1      -1.099  -9.471 -10.086  0.00  0.00     0.024 H 
ATOM     76  H   LIG d   1      -2.609 -10.321 -10.492  0.00  0.00     0.024 H 
ENDBRANCH  67  73
ENDBRANCH  61  67
ENDBRANCH  55  57
ENDBRANCH  50  53
ENDBRANCH  47  50
ENDBRANCH  41  47
ENDBRANCH   1  41
BRANCH   7  77
ATOM     77  C   LIG d   1       3.807  -2.295  -8.497  0.00  0.00    -0.059 C 
ATOM     78  H   LIG d   1       3.644  -2.721  -9.486  0.00  0.00     0.024 H 
ATOM     79  H   LIG d   1       4.613  -2.833  -7.998  0.00  0.00     0.024 H 
ATOM     80  H   LIG d   1       2.893  -2.385  -7.908  0.00  0.00     0.024 H 
ENDBRANCH   7  77
BRANCH  14  81
ATOM     81  O   LIG d   1       2.044  -0.086  -4.979  0.00  0.00    -0.392 OA
ATOM     82  H   LIG d   1       1.672   0.476  -5.671  0.00  0.00     0.210 HD
ENDBRANCH  14  81
BRANCH  19  83
ATOM     83  C   LIG d   1       5.560  -2.952  -4.924  0.00  0.00    -0.059 C 
ATOM     84  H   LIG d   1       4.472  -2.964  -4.996  0.00  0.00     0.024 H 
ATOM     85  H   LIG d   1       5.988  -3.440  -5.799  0.00  0.00     0.024 H 
ATOM     86  H   LIG d   1       5.871  -3.483  -4.024  0.00  0.00     0.024 H 
ENDBRANCH  19  83
BRANCH  22  87
ATOM     87  O   LIG d   1       7.937   2.007  -3.436  0.00  0.00    -0.392 OA
ATOM     88  H   LIG d   1       7.885   2.405  -2.555  0.00  0.00     0.210 HD
ENDBRANCH  22  87
TORSDOF 13
ENDMDL
MODEL 9
REMARK VINA RESULT:      -6.3      6.669      9.090
REMARK  13 active torsions:
REMARK  status: ('A' for Active; 'I' for Inactive)
REMARK    1  A    between atoms: C_1  and  C_2 
REMARK    2  A    between atoms: C_2  and  C_4 
REMARK    3  A    between atoms: C_2  and  C_18 
REMARK    4  A    between atoms: C_4  and  C_5 
REMARK    5  A    between atoms: C_5  and  C_6 
REMARK       I    between atoms: C_6  and  N_8 
REMARK    6  A    between atoms: N_8  and  C_9 
REMARK    7  A    between atoms: C_12  and  C_15 
REMARK    8  A    between atoms: C_15  and  C_16 
REMARK    9  A    between atoms: C_15  and  C_17 
REMARK   10  A    between atoms: C_24  and  C_45 
REMARK   11  A    between atoms: C_31  and  O_44 
REMARK   12  A    between atoms: C_36  and  C_43 
REMARK   13  A    between atoms: C_39  and  O_42 
ROOT
ATOM      1  C   LIG d   1       5.347   0.634 -10.890  0.00  0.00    -0.033 C 
ATOM      2  H   LIG d   1       5.646   1.148 -11.803  0.00  0.00     0.031 H 
ATOM      3  C   LIG d   1       4.897   1.660  -9.819  0.00  0.00    -0.049 C 
ATOM      4  C   LIG d   1       5.912   1.546  -8.650  0.00  0.00    -0.049 C 
ATOM      5  C   LIG d   1       7.160   0.975  -9.332  0.00  0.00    -0.030 C 
ATOM      6  H   LIG d   1       7.664   1.749  -9.910  0.00  0.00     0.031 H 
ATOM      7  C   LIG d   1       6.541  -0.092 -10.277  0.00  0.00    -0.026 C 
ATOM      8  C   LIG d   1       7.628  -0.536 -11.236  0.00  0.00    -0.047 C 
ATOM      9  C   LIG d   1       8.719  -1.229 -10.401  0.00  0.00    -0.049 C 
ATOM     10  C   LIG d   1       9.264  -0.300  -9.322  0.00  0.00    -0.030 C 
ATOM     11  H   LIG d   1       9.762   0.544  -9.800  0.00  0.00     0.031 H 
ATOM     12  C   LIG d   1       8.147   0.268  -8.422  0.00  0.00    -0.008 C 
ATOM     13  H   LIG d   1       7.649  -0.551  -7.904  0.00  0.00     0.033 H 
ATOM     14  C   LIG d   1       8.743   1.254  -7.417  0.00  0.00     0.059 C 
ATOM     15  H   LIG d   1       9.228   2.071  -7.952  0.00  0.00     0.060 H 
ATOM     16  C   LIG d   1       9.774   0.534  -6.545  0.00  0.00    -0.023 C 
ATOM     17  C   LIG d   1      10.889  -0.027  -7.431  0.00  0.00    -0.031 C 
ATOM     18  H   LIG d   1      11.625  -0.538  -6.810  0.00  0.00     0.031 H 
ATOM     19  C   LIG d   1      10.278  -1.045  -8.454  0.00  0.00    -0.026 C 
ATOM     20  C   LIG d   1      11.395  -1.601  -9.339  0.00  0.00    -0.045 C 
ATOM     21  C   LIG d   1      12.082  -0.449 -10.075  0.00  0.00    -0.026 C 
ATOM     22  C   LIG d   1      12.677   0.524  -9.056  0.00  0.00     0.056 C 
ATOM     23  H   LIG d   1      13.409   0.002  -8.440  0.00  0.00     0.059 H 
ATOM     24  C   LIG d   1      11.565   1.121  -8.185  0.00  0.00    -0.023 C 
ATOM     25  H   LIG d   1       4.916   2.667 -10.235  0.00  0.00     0.027 H 
ATOM     26  H   LIG d   1       3.894   1.417  -9.469  0.00  0.00     0.027 H 
ATOM     27  H   LIG d   1       6.121   2.528  -8.224  0.00  0.00     0.027 H 
ATOM     28  H   LIG d   1       5.544   0.863  -7.884  0.00  0.00     0.027 H 
ATOM     29  H   LIG d   1       7.218  -1.237 -11.963  0.00  0.00     0.027 H 
ATOM     30  H   LIG d   1       8.046   0.329 -11.750  0.00  0.00     0.027 H 
ATOM     31  H   LIG d   1       8.298  -2.116  -9.930  0.00  0.00     0.027 H 
ATOM     32  H   LIG d   1       9.536  -1.528 -11.059  0.00  0.00     0.027 H 
ATOM     33  H   LIG d   1      10.198   1.236  -5.828  0.00  0.00     0.029 H 
ATOM     34  H   LIG d   1       9.290  -0.284  -6.011  0.00  0.00     0.029 H 
ATOM     35  H   LIG d   1      12.125  -2.123  -8.720  0.00  0.00     0.027 H 
ATOM     36  H   LIG d   1      10.971  -2.295 -10.065  0.00  0.00     0.027 H 
ATOM     37  H   LIG d   1      12.876  -0.844 -10.707  0.00  0.00     0.029 H 
ATOM     38  H   LIG d   1      11.351   0.074 -10.692  0.00  0.00     0.029 H 
ATOM     39  H   LIG d   1      10.829   1.632  -8.804  0.00  0.00     0.029 H 
ATOM     40  H   LIG d   1      11.990   1.824  -7.469  0.00  0.00     0.029 H 
ENDROOT
BRANCH   1  41
ATOM     41  C   LIG d   1       4.219  -0.356 -11.184  0.00  0.00    -0.040 C 
ATOM     42  H   LIG d   1       4.396  -1.282 -10.637  0.00  0.00     0.030 H 
BRANCH  41  43
ATOM     43  C   LIG d   1       4.176  -0.649 -12.685  0.00  0.00    -0.062 C 
ATOM     44  H   LIG d   1       3.444   0.002 -13.162  0.00  0.00     0.023 H 
ATOM     45  H   LIG d   1       5.160  -0.469 -13.119  0.00  0.00     0.023 H 
ATOM     46  H   LIG d   1       3.894  -1.690 -12.844  0.00  0.00     0.023 H 
ENDBRANCH  41  43
BRANCH  41  47
ATOM     47  C   LIG d   1       2.884   0.247 -10.744  0.00  0.00    -0.042 C 
ATOM     48  H   LIG d   1       3.067   1.092 -10.080  0.00  0.00     0.027 H 
ATOM     49  H   LIG d   1       2.333   0.588 -11.622  0.00  0.00     0.027 H 
BRANCH  47  50
ATOM     50  C   LIG d   1       2.063  -0.813 -10.008  0.00  0.00     0.025 C 
ATOM     51  H   LIG d   1       1.015  -0.511  -9.986  0.00  0.00     0.036 H 
ATOM     52  H   LIG d   1       2.155  -1.768 -10.526  0.00  0.00     0.036 H 
BRANCH  50  53
ATOM     53  C   LIG d   1       2.574  -0.956  -8.598  0.00  0.00     0.217 C 
ATOM     54  O   LIG d   1       3.011  -2.021  -8.217  0.00  0.00    -0.276 OA
ATOM     55  N   LIG d   1       2.547   0.101  -7.761  0.00  0.00    -0.285 N 
ATOM     56  H   LIG d   1       2.131   0.930  -8.040  0.00  0.00     0.155 HD
BRANCH  55  57
ATOM     57  C   LIG d   1       3.122  -0.000  -6.489  0.00  0.00     0.033 A 
ATOM     58  C   LIG d   1       4.436  -0.430  -6.350  0.00  0.00    -0.040 A 
ATOM     59  C   LIG d   1       5.001  -0.522  -5.093  0.00  0.00    -0.057 A 
ATOM     60  H   LIG d   1       5.016  -0.686  -7.224  0.00  0.00     0.064 H 
ATOM     61  C   LIG d   1       4.257  -0.200  -3.973  0.00  0.00    -0.045 A 
ATOM     62  H   LIG d   1       6.024  -0.851  -4.985  0.00  0.00     0.062 H 
ATOM     63  C   LIG d   1       2.947   0.221  -4.108  0.00  0.00    -0.057 A 
ATOM     64  C   LIG d   1       2.378   0.322  -5.362  0.00  0.00    -0.040 A 
ATOM     65  H   LIG d   1       2.369   0.473  -3.230  0.00  0.00     0.062 H 
ATOM     66  H   LIG d   1       1.354   0.653  -5.466  0.00  0.00     0.064 H 
BRANCH  61  67
ATOM     67  C   LIG d   1       4.875  -0.309  -2.604  0.00  0.00    -0.021 C 
ATOM     68  H   LIG d   1       5.960  -0.354  -2.697  0.00  0.00     0.034 H 
BRANCH  67  69
ATOM     69  C   LIG d   1       4.485   0.914  -1.769  0.00  0.00    -0.059 C 
ATOM     70  H   LIG d   1       3.911   0.592  -0.900  0.00  0.00     0.024 H 
ATOM     71  H   LIG d   1       5.386   1.430  -1.439  0.00  0.00     0.024 H 
ATOM     72  H   LIG d   1       3.879   1.588  -2.375  0.00  0.00     0.024 H 
ENDBRANCH  67  69
BRANCH  67  73
ATOM     73  C   LIG d   1       4.369  -1.577  -1.914  0.00  0.00    -0.059 C 
ATOM     74  H   LIG d   1       4.832  -2.451  -2.376  0.00  0.00     0.024 H 
ATOM     75  H   LIG d   1       4.630  -1.546  -0.856  0.00  0.00     0.024 H 
ATOM     76  H   LIG d   1       3.287  -1.642  -2.019  0.00  0.00     0.024 H 
ENDBRANCH  67  73
ENDBRANCH  61  67
ENDBRANCH  55  57
ENDBRANCH  50  53
ENDBRANCH  47  50
ENDBRANCH  41  47
ENDBRANCH   1  41
BRANCH   7  77
ATOM     77  C   LIG d   1       6.054  -1.288  -9.458  0.00  0.00    -0.059 C 
ATOM     78  H   LIG d   1       5.762  -0.954  -8.463  0.00  0.00     0.024 H 
ATOM     79  H   LIG d   1       5.195  -1.743  -9.954  0.00  0.00     0.024 H 
ATOM     80  H   LIG d   1       6.855  -2.023  -9.375  0.00  0.00     0.024 H 
ENDBRANCH   7  77
BRANCH  14  81
ATOM     81  O   LIG d   1       7.703   1.778  -6.588  0.00  0.00    -0.392 OA
ATOM     82  H   LIG d   1       6.980   1.159  -6.427  0.00  0.00     0.210 HD
ENDBRANCH  14  81
BRANCH  19  83
ATOM     83  C   LIG d   1       9.580  -2.193  -7.721  0.00  0.00    -0.059 C 
ATOM     84  H   LIG d   1       9.124  -2.864  -8.450  0.00  0.00     0.024 H 
ATOM     85  H   LIG d   1      10.310  -2.743  -7.128  0.00  0.00     0.024 H 
ATOM     86  H   LIG d   1       8.808  -1.790  -7.066  0.00  0.00     0.024 H 
ENDBRANCH  19  83
BRANCH  22  87
ATOM     87  O   LIG d   1      13.316   1.602  -9.743  0.00  0.00    -0.392 OA
ATOM     88  H   LIG d   1      14.036   2.015  -9.244  0.00  0.00     0.210 HD
ENDBRANCH  22  87
TORSDOF 13
ENDMDL
MODEL 10
REMARK VINA RESULT:      -6.2      8.247     14.531
REMARK  13 active torsions:
REMARK  status: ('A' for Active; 'I' for Inactive)
REMARK    1  A    between atoms: C_1  and  C_2 
REMARK    2  A    between atoms: C_2  and  C_4 
REMARK    3  A    between atoms: C_2  and  C_18 
REMARK    4  A    between atoms: C_4  and  C_5 
REMARK    5  A    between atoms: C_5  and  C_6 
REMARK       I    between atoms: C_6  and  N_8 
REMARK    6  A    between atoms: N_8  and  C_9 
REMARK    7  A    between atoms: C_12  and  C_15 
REMARK    8  A    between atoms: C_15  and  C_16 
REMARK    9  A    between atoms: C_15  and  C_17 
REMARK   10  A    between atoms: C_24  and  C_45 
REMARK   11  A    between atoms: C_31  and  O_44 
REMARK   12  A    between atoms: C_36  and  C_43 
REMARK   13  A    between atoms: C_39  and  O_42 
ROOT
ATOM      1  C   LIG d   1       9.009  -7.574  -4.805  0.00  0.00    -0.033 C 
ATOM      2  H   LIG d   1       9.764  -7.701  -5.581  0.00  0.00     0.031 H 
ATOM      3  C   LIG d   1       9.221  -6.229  -4.065  0.00  0.00    -0.049 C 
ATOM      4  C   LIG d   1       9.577  -6.587  -2.597  0.00  0.00    -0.049 C 
ATOM      5  C   LIG d   1      10.144  -8.006  -2.718  0.00  0.00    -0.030 C 
ATOM      6  H   LIG d   1      11.154  -7.978  -3.129  0.00  0.00     0.031 H 
ATOM      7  C   LIG d   1       9.163  -8.651  -3.736  0.00  0.00    -0.026 C 
ATOM      8  C   LIG d   1       9.770  -9.967  -4.184  0.00  0.00    -0.047 C 
ATOM      9  C   LIG d   1       9.833 -10.884  -2.950  0.00  0.00    -0.049 C 
ATOM     10  C   LIG d   1      10.638 -10.244  -1.824  0.00  0.00    -0.030 C 
ATOM     11  H   LIG d   1      11.673 -10.131  -2.150  0.00  0.00     0.031 H 
ATOM     12  C   LIG d   1      10.111  -8.842  -1.453  0.00  0.00    -0.008 C 
ATOM     13  H   LIG d   1       9.087  -8.926  -1.093  0.00  0.00     0.033 H 
ATOM     14  C   LIG d   1      11.008  -8.220  -0.382  0.00  0.00     0.059 C 
ATOM     15  H   LIG d   1      12.026  -8.135  -0.763  0.00  0.00     0.060 H 
ATOM     16  C   LIG d   1      11.003  -9.106   0.866  0.00  0.00    -0.023 C 
ATOM     17  C   LIG d   1      11.530 -10.497   0.506  0.00  0.00    -0.031 C 
ATOM     18  H   LIG d   1      11.529 -11.128   1.395  0.00  0.00     0.031 H 
ATOM     19  C   LIG d   1      10.606 -11.138  -0.584  0.00  0.00    -0.026 C 
ATOM     20  C   LIG d   1      11.138 -12.527  -0.943  0.00  0.00    -0.045 C 
ATOM     21  C   LIG d   1      12.571 -12.403  -1.462  0.00  0.00    -0.026 C 
ATOM     22  C   LIG d   1      13.455 -11.785  -0.377  0.00  0.00     0.056 C 
ATOM     23  H   LIG d   1      13.444 -12.422   0.507  0.00  0.00     0.059 H 
ATOM     24  C   LIG d   1      12.958 -10.376  -0.033  0.00  0.00    -0.023 C 
ATOM     25  H   LIG d   1      10.038  -5.673  -4.524  0.00  0.00     0.027 H 
ATOM     26  H   LIG d   1       8.305  -5.639  -4.095  0.00  0.00     0.027 H 
ATOM     27  H   LIG d   1      10.331  -5.903  -2.205  0.00  0.00     0.027 H 
ATOM     28  H   LIG d   1       8.685  -6.581  -1.970  0.00  0.00     0.027 H 
ATOM     29  H   LIG d   1       9.144 -10.422  -4.952  0.00  0.00     0.027 H 
ATOM     30  H   LIG d   1      10.774  -9.799  -4.573  0.00  0.00     0.027 H 
ATOM     31  H   LIG d   1       8.820 -11.079  -2.598  0.00  0.00     0.027 H 
ATOM     32  H   LIG d   1      10.301 -11.828  -3.231  0.00  0.00     0.027 H 
ATOM     33  H   LIG d   1      11.640  -8.662   1.629  0.00  0.00     0.029 H 
ATOM     34  H   LIG d   1       9.985  -9.192   1.246  0.00  0.00     0.029 H 
ATOM     35  H   LIG d   1      11.125 -13.162  -0.057  0.00  0.00     0.027 H 
ATOM     36  H   LIG d   1      10.508 -12.968  -1.716  0.00  0.00     0.027 H 
ATOM     37  H   LIG d   1      12.951 -13.392  -1.720  0.00  0.00     0.029 H 
ATOM     38  H   LIG d   1      12.584 -11.767  -2.347  0.00  0.00     0.029 H 
ATOM     39  H   LIG d   1      12.959  -9.744  -0.921  0.00  0.00     0.029 H 
ATOM     40  H   LIG d   1      13.597  -9.931   0.730  0.00  0.00     0.029 H 
ENDROOT
BRANCH   1  41
ATOM     41  C   LIG d   1       7.608  -7.629  -5.417  0.00  0.00    -0.040 C 
ATOM     42  H   LIG d   1       6.903  -8.006  -4.676  0.00  0.00     0.030 H 
BRANCH  41  43
ATOM     43  C   LIG d   1       7.618  -8.559  -6.632  0.00  0.00    -0.062 C 
ATOM     44  H   LIG d   1       6.957  -9.406  -6.446  0.00  0.00     0.023 H 
ATOM     45  H   LIG d   1       7.272  -8.013  -7.510  0.00  0.00     0.023 H 
ATOM     46  H   LIG d   1       8.632  -8.921  -6.804  0.00  0.00     0.023 H 
ENDBRANCH  41  43
BRANCH  41  47
ATOM     47  C   LIG d   1       7.186  -6.225  -5.852  0.00  0.00    -0.042 C 
ATOM     48  H   LIG d   1       7.418  -5.513  -5.060  0.00  0.00     0.027 H 
ATOM     49  H   LIG d   1       7.727  -5.948  -6.758  0.00  0.00     0.027 H 
BRANCH  47  50
ATOM     50  C   LIG d   1       5.682  -6.207  -6.131  0.00  0.00     0.025 C 
ATOM     51  H   LIG d   1       5.511  -6.258  -7.207  0.00  0.00     0.036 H 
ATOM     52  H   LIG d   1       5.213  -7.065  -5.648  0.00  0.00     0.036 H 
BRANCH  50  53
ATOM     53  C   LIG d   1       5.085  -4.936  -5.587  0.00  0.00     0.217 C 
ATOM     54  O   LIG d   1       3.902  -4.711  -5.734  0.00  0.00    -0.276 OA
ATOM     55  N   LIG d   1       5.864  -4.049  -4.936  0.00  0.00    -0.285 N 
ATOM     56  H   LIG d   1       6.821  -4.192  -4.884  0.00  0.00     0.155 HD
BRANCH  55  57
ATOM     57  C   LIG d   1       5.291  -2.923  -4.336  0.00  0.00     0.033 A 
ATOM     58  C   LIG d   1       5.646  -1.649  -4.763  0.00  0.00    -0.040 A 
ATOM     59  C   LIG d   1       5.074  -0.540  -4.172  0.00  0.00    -0.057 A 
ATOM     60  H   LIG d   1       6.366  -1.527  -5.559  0.00  0.00     0.064 H 
ATOM     61  C   LIG d   1       4.157  -0.695  -3.148  0.00  0.00    -0.045 A 
ATOM     62  H   LIG d   1       5.346   0.450  -4.507  0.00  0.00     0.062 H 
ATOM     63  C   LIG d   1       3.807  -1.961  -2.717  0.00  0.00    -0.057 A 
ATOM     64  C   LIG d   1       4.370  -3.075  -3.308  0.00  0.00    -0.040 A 
ATOM     65  H   LIG d   1       3.090  -2.078  -1.917  0.00  0.00     0.062 H 
ATOM     66  H   LIG d   1       4.095  -4.064  -2.970  0.00  0.00     0.064 H 
BRANCH  61  67
ATOM     67  C   LIG d   1       3.540   0.517  -2.502  0.00  0.00    -0.021 C 
ATOM     68  H   LIG d   1       2.660   0.218  -1.933  0.00  0.00     0.034 H 
BRANCH  67  69
ATOM     69  C   LIG d   1       4.557   1.169  -1.561  0.00  0.00    -0.059 C 
ATOM     70  H   LIG d   1       4.869   0.446  -0.807  0.00  0.00     0.024 H 
ATOM     71  H   LIG d   1       5.426   1.494  -2.134  0.00  0.00     0.024 H 
ATOM     72  H   LIG d   1       4.100   2.030  -1.073  0.00  0.00     0.024 H 
ENDBRANCH  67  69
BRANCH  67  73
ATOM     73  C   LIG d   1       3.132   1.520  -3.583  0.00  0.00    -0.059 C 
ATOM     74  H   LIG d   1       2.883   2.475  -3.118  0.00  0.00     0.024 H 
ATOM     75  H   LIG d   1       3.958   1.661  -4.280  0.00  0.00     0.024 H 
ATOM     76  H   LIG d   1       2.263   1.141  -4.121  0.00  0.00     0.024 H 
ENDBRANCH  67  73
ENDBRANCH  61  67
ENDBRANCH  55  57
ENDBRANCH  50  53
ENDBRANCH  47  50
ENDBRANCH  41  47
ENDBRANCH   1  41
BRANCH   7  77
ATOM     77  C   LIG d   1       7.814  -8.907  -3.063  0.00  0.00    -0.059 C 
ATOM     78  H   LIG d   1       7.230  -9.599  -3.670  0.00  0.00     0.024 H 
ATOM     79  H   LIG d   1       7.976  -9.339  -2.075  0.00  0.00     0.024 H 
ATOM     80  H   LIG d   1       7.273  -7.966  -2.962  0.00  0.00     0.024 H 
ENDBRANCH   7  77
BRANCH  14  81
ATOM     81  O   LIG d   1      10.516  -6.921  -0.044  0.00  0.00    -0.392 OA
ATOM     82  H   LIG d   1       9.553  -6.847  -0.068  0.00  0.00     0.210 HD
ENDBRANCH  14  81
BRANCH  19  83
ATOM     83  C   LIG d   1       9.167 -11.252  -0.073  0.00  0.00    -0.059 C 
ATOM     84  H   LIG d   1       9.171 -11.290   1.016  0.00  0.00     0.024 H 
ATOM     85  H   LIG d   1       8.594 -10.387  -0.405  0.00  0.00     0.024 H 
ATOM     86  H   LIG d   1       8.713 -12.162  -0.467  0.00  0.00     0.024 H 
ENDBRANCH  19  83
BRANCH  22  87
ATOM     87  O   LIG d   1      14.794 -11.667  -0.863  0.00  0.00    -0.392 OA
ATOM     88  H   LIG d   1      15.457 -12.087  -0.295  0.00  0.00     0.210 HD
ENDBRANCH  22  87
TORSDOF 13
ENDMDL
