MODEL 1
REMARK VINA RESULT:      -6.3      0.000      0.000
REMARK  7 active torsions:
REMARK  status: ('A' for Active; 'I' for Inactive)
REMARK    1  A    between atoms: C_1  and  C_2 
REMARK    2  A    between atoms: C_2  and  C_3 
REMARK    3  A    between atoms: C_2  and  C_4 
REMARK    4  A    between atoms: C_4  and  N_5 
REMARK       I    between atoms: N_5  and  C_6 
REMARK    5  A    between atoms: C_6  and  C_8 
REMARK    6  A    between atoms: C_8  and  C_9 
REMARK    7  A    between atoms: C_8  and  C_13 
ROOT
ATOM      1  N   LIG d   1       3.421  -0.653  -5.501  0.00  0.00    -0.314 N 
ATOM      2  C   LIG d   1       4.327  -0.178  -4.623  0.00  0.00     0.234 C 
ATOM      3  O   LIG d   1       5.396   0.235  -5.020  0.00  0.00    -0.275 OA
ATOM      4  H   LIG d   1       2.566  -0.983  -5.185  0.00  0.00     0.149 HD
ENDROOT
BRANCH   1   5
ATOM      5  C   LIG d   1       3.729  -0.673  -6.933  0.00  0.00     0.014 C 
ATOM      6  H   LIG d   1       4.661  -0.137  -7.112  0.00  0.00     0.046 H 
ATOM      7  H   LIG d   1       3.834  -1.705  -7.269  0.00  0.00     0.046 H 
BRANCH   5   8
ATOM      8  C   LIG d   1       2.596   0.002  -7.708  0.00  0.00    -0.031 C 
ATOM      9  H   LIG d   1       1.706   0.053  -7.080  0.00  0.00     0.031 H 
BRANCH   8  10
ATOM     10  C   LIG d   1       3.021   1.418  -8.104  0.00  0.00    -0.061 C 
ATOM     11  H   LIG d   1       2.193   1.919  -8.603  0.00  0.00     0.023 H 
ATOM     12  H   LIG d   1       3.299   1.977  -7.210  0.00  0.00     0.023 H 
ATOM     13  H   LIG d   1       3.876   1.364  -8.779  0.00  0.00     0.023 H 
ENDBRANCH   8  10
BRANCH   8  14
ATOM     14  C   LIG d   1       2.286  -0.808  -8.968  0.00  0.00    -0.061 C 
ATOM     15  H   LIG d   1       2.006  -1.824  -8.687  0.00  0.00     0.023 H 
ATOM     16  H   LIG d   1       1.462  -0.341  -9.508  0.00  0.00     0.023 H 
ATOM     17  H   LIG d   1       3.168  -0.838  -9.607  0.00  0.00     0.023 H 
ENDBRANCH   8  14
ENDBRANCH   5   8
ENDBRANCH   1   5
BRANCH   2  18
ATOM     18  C   LIG d   1       4.009  -0.158  -3.150  0.00  0.00     0.224 C 
ATOM     19  H   LIG d   1       2.929  -0.110  -3.012  0.00  0.00     0.057 H 
BRANCH  18  20
ATOM     20  C   LIG d   1       4.552  -1.428  -2.494  0.00  0.00     0.409 C 
ATOM     21  F   LIG d   1       3.739  -2.514  -2.836  0.00  0.00    -0.170 F 
ATOM     22  F   LIG d   1       4.559  -1.269  -1.104  0.00  0.00    -0.170 F 
ATOM     23  F   LIG d   1       5.857  -1.663  -2.943  0.00  0.00    -0.170 F 
ENDBRANCH  18  20
BRANCH  18  24
ATOM     24  C   LIG d   1       4.660   1.068  -2.505  0.00  0.00     0.409 C 
ATOM     25  F   LIG d   1       4.350   1.096  -1.141  0.00  0.00    -0.170 F 
ATOM     26  F   LIG d   1       6.048   0.998  -2.666  0.00  0.00    -0.170 F 
ATOM     27  F   LIG d   1       4.176   2.229  -3.118  0.00  0.00    -0.170 F 
ENDBRANCH  18  24
ENDBRANCH   2  18
TORSDOF 7
ENDMDL
MODEL 2
REMARK VINA RESULT:      -6.1      1.402      2.451
REMARK  7 active torsions:
REMARK  status: ('A' for Active; 'I' for Inactive)
REMARK    1  A    between atoms: C_1  and  C_2 
REMARK    2  A    between atoms: C_2  and  C_3 
REMARK    3  A    between atoms: C_2  and  C_4 
REMARK    4  A    between atoms: C_4  and  N_5 
REMARK       I    between atoms: N_5  and  C_6 
REMARK    5  A    between atoms: C_6  and  C_8 
REMARK    6  A    between atoms: C_8  and  C_9 
REMARK    7  A    between atoms: C_8  and  C_13 
ROOT
ATOM      1  N   LIG d   1       3.240  -0.442  -5.736  0.00  0.00    -0.314 N 
ATOM      2  C   LIG d   1       3.830  -0.190  -4.550  0.00  0.00     0.234 C 
ATOM      3  O   LIG d   1       3.848   0.940  -4.110  0.00  0.00    -0.275 OA
ATOM      4  H   LIG d   1       3.225  -1.344  -6.089  0.00  0.00     0.149 HD
ENDROOT
BRANCH   1   5
ATOM      5  C   LIG d   1       2.622   0.650  -6.493  0.00  0.00     0.014 C 
ATOM      6  H   LIG d   1       1.538   0.541  -6.469  0.00  0.00     0.046 H 
ATOM      7  H   LIG d   1       2.900   1.606  -6.047  0.00  0.00     0.046 H 
BRANCH   5   8
ATOM      8  C   LIG d   1       3.107   0.604  -7.943  0.00  0.00    -0.031 C 
ATOM      9  H   LIG d   1       4.162   0.325  -7.965  0.00  0.00     0.031 H 
BRANCH   8  10
ATOM     10  C   LIG d   1       2.291  -0.429  -8.722  0.00  0.00    -0.061 C 
ATOM     11  H   LIG d   1       2.252  -0.144  -9.773  0.00  0.00     0.023 H 
ATOM     12  H   LIG d   1       2.760  -1.409  -8.628  0.00  0.00     0.023 H 
ATOM     13  H   LIG d   1       1.279  -0.471  -8.318  0.00  0.00     0.023 H 
ENDBRANCH   8  10
BRANCH   8  14
ATOM     14  C   LIG d   1       2.931   1.982  -8.584  0.00  0.00    -0.061 C 
ATOM     15  H   LIG d   1       3.704   2.656  -8.215  0.00  0.00     0.023 H 
ATOM     16  H   LIG d   1       3.014   1.893  -9.667  0.00  0.00     0.023 H 
ATOM     17  H   LIG d   1       1.949   2.379  -8.327  0.00  0.00     0.023 H 
ENDBRANCH   8  14
ENDBRANCH   5   8
ENDBRANCH   1   5
BRANCH   2  18
ATOM     18  C   LIG d   1       4.465  -1.313  -3.772  0.00  0.00     0.224 C 
ATOM     19  H   LIG d   1       4.451  -2.224  -4.372  0.00  0.00     0.057 H 
BRANCH  18  20
ATOM     20  C   LIG d   1       5.911  -0.946  -3.435  0.00  0.00     0.409 C 
ATOM     21  F   LIG d   1       6.532  -2.030  -2.804  0.00  0.00    -0.170 F 
ATOM     22  F   LIG d   1       5.925   0.161  -2.580  0.00  0.00    -0.170 F 
ATOM     23  F   LIG d   1       6.600  -0.636  -4.613  0.00  0.00    -0.170 F 
ENDBRANCH  18  20
BRANCH  18  24
ATOM     24  C   LIG d   1       3.682  -1.543  -2.478  0.00  0.00     0.409 C 
ATOM     25  F   LIG d   1       2.361  -1.115  -2.650  0.00  0.00    -0.170 F 
ATOM     26  F   LIG d   1       3.693  -2.906  -2.162  0.00  0.00    -0.170 F 
ATOM     27  F   LIG d   1       4.276  -0.817  -1.439  0.00  0.00    -0.170 F 
ENDBRANCH  18  24
ENDBRANCH   2  18
TORSDOF 7
ENDMDL
MODEL 3
REMARK VINA RESULT:      -6.1      0.990      2.505
REMARK  7 active torsions:
REMARK  status: ('A' for Active; 'I' for Inactive)
REMARK    1  A    between atoms: C_1  and  C_2 
REMARK    2  A    between atoms: C_2  and  C_3 
REMARK    3  A    between atoms: C_2  and  C_4 
REMARK    4  A    between atoms: C_4  and  N_5 
REMARK       I    between atoms: N_5  and  C_6 
REMARK    5  A    between atoms: C_6  and  C_8 
REMARK    6  A    between atoms: C_8  and  C_9 
REMARK    7  A    between atoms: C_8  and  C_13 
ROOT
ATOM      1  N   LIG d   1       3.753  -0.798  -5.589  0.00  0.00    -0.314 N 
ATOM      2  C   LIG d   1       4.739  -0.214  -4.879  0.00  0.00     0.234 C 
ATOM      3  O   LIG d   1       5.714   0.230  -5.447  0.00  0.00    -0.275 OA
ATOM      4  H   LIG d   1       2.973  -1.153  -5.136  0.00  0.00     0.149 HD
ENDROOT
BRANCH   1   5
ATOM      5  C   LIG d   1       3.861  -0.897  -7.047  0.00  0.00     0.014 C 
ATOM      6  H   LIG d   1       4.802  -0.454  -7.373  0.00  0.00     0.046 H 
ATOM      7  H   LIG d   1       3.832  -1.946  -7.343  0.00  0.00     0.046 H 
BRANCH   5   8
ATOM      8  C   LIG d   1       2.694  -0.151  -7.697  0.00  0.00    -0.031 C 
ATOM      9  H   LIG d   1       1.847  -0.133  -7.010  0.00  0.00     0.031 H 
BRANCH   8  10
ATOM     10  C   LIG d   1       3.121   1.283  -8.017  0.00  0.00    -0.061 C 
ATOM     11  H   LIG d   1       2.554   1.647  -8.873  0.00  0.00     0.023 H 
ATOM     12  H   LIG d   1       2.927   1.921  -7.155  0.00  0.00     0.023 H 
ATOM     13  H   LIG d   1       4.186   1.301  -8.250  0.00  0.00     0.023 H 
ENDBRANCH   8  10
BRANCH   8  14
ATOM     14  C   LIG d   1       2.289  -0.863  -8.988  0.00  0.00    -0.061 C 
ATOM     15  H   LIG d   1       2.535  -1.923  -8.911  0.00  0.00     0.023 H 
ATOM     16  H   LIG d   1       1.217  -0.750  -9.146  0.00  0.00     0.023 H 
ATOM     17  H   LIG d   1       2.827  -0.426  -9.829  0.00  0.00     0.023 H 
ENDBRANCH   8  14
ENDBRANCH   5   8
ENDBRANCH   1   5
BRANCH   2  18
ATOM     18  C   LIG d   1       4.627  -0.112  -3.379  0.00  0.00     0.224 C 
ATOM     19  H   LIG d   1       5.457   0.479  -2.992  0.00  0.00     0.057 H 
BRANCH  18  20
ATOM     20  C   LIG d   1       3.305   0.562  -3.011  0.00  0.00     0.409 C 
ATOM     21  F   LIG d   1       3.480   1.334  -1.857  0.00  0.00    -0.170 F 
ATOM     22  F   LIG d   1       2.332  -0.416  -2.773  0.00  0.00    -0.170 F 
ATOM     23  F   LIG d   1       2.891   1.386  -4.064  0.00  0.00    -0.170 F 
ENDBRANCH  18  20
BRANCH  18  24
ATOM     24  C   LIG d   1       4.672  -1.515  -2.769  0.00  0.00     0.409 C 
ATOM     25  F   LIG d   1       3.661  -2.300  -3.332  0.00  0.00    -0.170 F 
ATOM     26  F   LIG d   1       5.916  -2.098  -3.032  0.00  0.00    -0.170 F 
ATOM     27  F   LIG d   1       4.480  -1.428  -1.385  0.00  0.00    -0.170 F 
ENDBRANCH  18  24
ENDBRANCH   2  18
TORSDOF 7
ENDMDL
MODEL 4
REMARK VINA RESULT:      -5.9      1.423      1.906
REMARK  7 active torsions:
REMARK  status: ('A' for Active; 'I' for Inactive)
REMARK    1  A    between atoms: C_1  and  C_2 
REMARK    2  A    between atoms: C_2  and  C_3 
REMARK    3  A    between atoms: C_2  and  C_4 
REMARK    4  A    between atoms: C_4  and  N_5 
REMARK       I    between atoms: N_5  and  C_6 
REMARK    5  A    between atoms: C_6  and  C_8 
REMARK    6  A    between atoms: C_8  and  C_9 
REMARK    7  A    between atoms: C_8  and  C_13 
ROOT
ATOM      1  N   LIG d   1       3.894   0.013  -5.072  0.00  0.00    -0.314 N 
ATOM      2  C   LIG d   1       3.014  -0.097  -4.057  0.00  0.00     0.234 C 
ATOM      3  O   LIG d   1       1.828  -0.195  -4.290  0.00  0.00    -0.275 OA
ATOM      4  H   LIG d   1       4.842   0.092  -4.887  0.00  0.00     0.149 HD
ENDROOT
BRANCH   1   5
ATOM      5  C   LIG d   1       3.417   0.014  -6.458  0.00  0.00     0.014 C 
ATOM      6  H   LIG d   1       2.628  -0.730  -6.571  0.00  0.00     0.046 H 
ATOM      7  H   LIG d   1       3.022   1.000  -6.706  0.00  0.00     0.046 H 
BRANCH   5   8
ATOM      8  C   LIG d   1       4.576  -0.323  -7.397  0.00  0.00    -0.031 C 
ATOM      9  H   LIG d   1       4.393  -1.291  -7.866  0.00  0.00     0.031 H 
BRANCH   8  10
ATOM     10  C   LIG d   1       4.687   0.754  -8.478  0.00  0.00    -0.061 C 
ATOM     11  H   LIG d   1       5.272   0.371  -9.313  0.00  0.00     0.023 H 
ATOM     12  H   LIG d   1       3.690   1.023  -8.826  0.00  0.00     0.023 H 
ATOM     13  H   LIG d   1       5.177   1.635  -8.063  0.00  0.00     0.023 H 
ENDBRANCH   8  10
BRANCH   8  14
ATOM     14  C   LIG d   1       5.879  -0.381  -6.599  0.00  0.00    -0.061 C 
ATOM     15  H   LIG d   1       6.367   0.594  -6.627  0.00  0.00     0.023 H 
ATOM     16  H   LIG d   1       5.661  -0.648  -5.564  0.00  0.00     0.023 H 
ATOM     17  H   LIG d   1       6.540  -1.131  -7.035  0.00  0.00     0.023 H 
ENDBRANCH   8  14
ENDBRANCH   5   8
ENDBRANCH   1   5
BRANCH   2  18
ATOM     18  C   LIG d   1       3.506  -0.098  -2.632  0.00  0.00     0.224 C 
ATOM     19  H   LIG d   1       2.655  -0.044  -1.953  0.00  0.00     0.057 H 
BRANCH  18  20
ATOM     20  C   LIG d   1       4.292  -1.382  -2.365  0.00  0.00     0.409 C 
ATOM     21  F   LIG d   1       3.485  -2.490  -2.646  0.00  0.00    -0.170 F 
ATOM     22  F   LIG d   1       4.683  -1.420  -1.022  0.00  0.00    -0.170 F 
ATOM     23  F   LIG d   1       5.427  -1.414  -3.183  0.00  0.00    -0.170 F 
ENDBRANCH  18  20
BRANCH  18  24
ATOM     24  C   LIG d   1       4.415   1.113  -2.406  0.00  0.00     0.409 C 
ATOM     25  F   LIG d   1       3.814   2.254  -2.946  0.00  0.00    -0.170 F 
ATOM     26  F   LIG d   1       4.614   1.296  -1.033  0.00  0.00    -0.170 F 
ATOM     27  F   LIG d   1       5.648   0.893  -3.032  0.00  0.00    -0.170 F 
ENDBRANCH  18  24
ENDBRANCH   2  18
TORSDOF 7
ENDMDL
MODEL 5
REMARK VINA RESULT:      -5.8      1.271      2.768
REMARK  7 active torsions:
REMARK  status: ('A' for Active; 'I' for Inactive)
REMARK    1  A    between atoms: C_1  and  C_2 
REMARK    2  A    between atoms: C_2  and  C_3 
REMARK    3  A    between atoms: C_2  and  C_4 
REMARK    4  A    between atoms: C_4  and  N_5 
REMARK       I    between atoms: N_5  and  C_6 
REMARK    5  A    between atoms: C_6  and  C_8 
REMARK    6  A    between atoms: C_8  and  C_9 
REMARK    7  A    between atoms: C_8  and  C_13 
ROOT
ATOM      1  N   LIG d   1       3.532  -0.428  -5.744  0.00  0.00    -0.314 N 
ATOM      2  C   LIG d   1       3.483   0.283  -4.599  0.00  0.00     0.234 C 
ATOM      3  O   LIG d   1       2.778   1.267  -4.526  0.00  0.00    -0.275 OA
ATOM      4  H   LIG d   1       4.094  -1.215  -5.802  0.00  0.00     0.149 HD
ENDROOT
BRANCH   1   5
ATOM      5  C   LIG d   1       2.735  -0.010  -6.900  0.00  0.00     0.014 C 
ATOM      6  H   LIG d   1       1.740  -0.452  -6.835  0.00  0.00     0.046 H 
ATOM      7  H   LIG d   1       2.648   1.077  -6.908  0.00  0.00     0.046 H 
BRANCH   5   8
ATOM      8  C   LIG d   1       3.417  -0.478  -8.186  0.00  0.00    -0.031 C 
ATOM      9  H   LIG d   1       4.301   0.134  -8.372  0.00  0.00     0.031 H 
BRANCH   8  10
ATOM     10  C   LIG d   1       3.833  -1.943  -8.039  0.00  0.00    -0.061 C 
ATOM     11  H   LIG d   1       3.072  -2.481  -7.474  0.00  0.00     0.023 H 
ATOM     12  H   LIG d   1       3.937  -2.392  -9.027  0.00  0.00     0.023 H 
ATOM     13  H   LIG d   1       4.786  -1.998  -7.512  0.00  0.00     0.023 H 
ENDBRANCH   8  10
BRANCH   8  14
ATOM     14  C   LIG d   1       2.445  -0.339  -9.359  0.00  0.00    -0.061 C 
ATOM     15  H   LIG d   1       1.524  -0.878  -9.134  0.00  0.00     0.023 H 
ATOM     16  H   LIG d   1       2.218   0.715  -9.520  0.00  0.00     0.023 H 
ATOM     17  H   LIG d   1       2.899  -0.754 -10.259  0.00  0.00     0.023 H 
ENDBRANCH   8  14
ENDBRANCH   5   8
ENDBRANCH   1   5
BRANCH   2  18
ATOM     18  C   LIG d   1       4.303  -0.148  -3.410  0.00  0.00     0.224 C 
ATOM     19  H   LIG d   1       5.310  -0.406  -3.738  0.00  0.00     0.057 H 
BRANCH  18  20
ATOM     20  C   LIG d   1       4.372   0.995  -2.397  0.00  0.00     0.409 C 
ATOM     21  F   LIG d   1       3.076   1.396  -2.056  0.00  0.00    -0.170 F 
ATOM     22  F   LIG d   1       5.061   2.076  -2.959  0.00  0.00    -0.170 F 
ATOM     23  F   LIG d   1       5.043   0.560  -1.248  0.00  0.00    -0.170 F 
ENDBRANCH  18  20
BRANCH  18  24
ATOM     24  C   LIG d   1       3.651  -1.369  -2.757  0.00  0.00     0.409 C 
ATOM     25  F   LIG d   1       3.938  -2.511  -3.514  0.00  0.00    -0.170 F 
ATOM     26  F   LIG d   1       4.156  -1.531  -1.462  0.00  0.00    -0.170 F 
ATOM     27  F   LIG d   1       2.266  -1.183  -2.699  0.00  0.00    -0.170 F 
ENDBRANCH  18  24
ENDBRANCH   2  18
TORSDOF 7
ENDMDL
MODEL 6
REMARK VINA RESULT:      -5.7      3.884      6.226
REMARK  7 active torsions:
REMARK  status: ('A' for Active; 'I' for Inactive)
REMARK    1  A    between atoms: C_1  and  C_2 
REMARK    2  A    between atoms: C_2  and  C_3 
REMARK    3  A    between atoms: C_2  and  C_4 
REMARK    4  A    between atoms: C_4  and  N_5 
REMARK       I    between atoms: N_5  and  C_6 
REMARK    5  A    between atoms: C_6  and  C_8 
REMARK    6  A    between atoms: C_8  and  C_9 
REMARK    7  A    between atoms: C_8  and  C_13 
ROOT
ATOM      1  N   LIG d   1       3.145  -0.494  -5.492  0.00  0.00    -0.314 N 
ATOM      2  C   LIG d   1       3.593  -0.050  -6.683  0.00  0.00     0.234 C 
ATOM      3  O   LIG d   1       4.782   0.110  -6.863  0.00  0.00    -0.275 OA
ATOM      4  H   LIG d   1       2.195  -0.622  -5.348  0.00  0.00     0.149 HD
ENDROOT
BRANCH   1   5
ATOM      5  C   LIG d   1       4.094  -0.783  -4.414  0.00  0.00     0.014 C 
ATOM      6  H   LIG d   1       4.574  -1.744  -4.600  0.00  0.00     0.046 H 
ATOM      7  H   LIG d   1       4.852  -0.000  -4.377  0.00  0.00     0.046 H 
BRANCH   5   8
ATOM      8  C   LIG d   1       3.349  -0.837  -3.079  0.00  0.00    -0.031 C 
ATOM      9  H   LIG d   1       2.278  -0.921  -3.264  0.00  0.00     0.031 H 
BRANCH   8  10
ATOM     10  C   LIG d   1       3.825  -2.050  -2.278  0.00  0.00    -0.061 C 
ATOM     11  H   LIG d   1       3.198  -2.909  -2.515  0.00  0.00     0.023 H 
ATOM     12  H   LIG d   1       4.860  -2.273  -2.536  0.00  0.00     0.023 H 
ATOM     13  H   LIG d   1       3.755  -1.831  -1.212  0.00  0.00     0.023 H 
ENDBRANCH   8  10
BRANCH   8  14
ATOM     14  C   LIG d   1       3.631   0.441  -2.286  0.00  0.00    -0.061 C 
ATOM     15  H   LIG d   1       3.576   0.226  -1.219  0.00  0.00     0.023 H 
ATOM     16  H   LIG d   1       4.628   0.808  -2.531  0.00  0.00     0.023 H 
ATOM     17  H   LIG d   1       2.892   1.199  -2.544  0.00  0.00     0.023 H 
ENDBRANCH   8  14
ENDBRANCH   5   8
ENDBRANCH   1   5
BRANCH   2  18
ATOM     18  C   LIG d   1       2.616   0.248  -7.792  0.00  0.00     0.224 C 
ATOM     19  H   LIG d   1       1.600   0.217  -7.398  0.00  0.00     0.057 H 
BRANCH  18  20
ATOM     20  C   LIG d   1       2.901   1.637  -8.364  0.00  0.00     0.409 C 
ATOM     21  F   LIG d   1       2.511   2.611  -7.439  0.00  0.00    -0.170 F 
ATOM     22  F   LIG d   1       2.183   1.808  -9.552  0.00  0.00    -0.170 F 
ATOM     23  F   LIG d   1       4.270   1.763  -8.624  0.00  0.00    -0.170 F 
ENDBRANCH  18  20
BRANCH  18  24
ATOM     24  C   LIG d   1       2.766  -0.800  -8.897  0.00  0.00     0.409 C 
ATOM     25  F   LIG d   1       1.561  -0.912  -9.599  0.00  0.00    -0.170 F 
ATOM     26  F   LIG d   1       3.782  -0.408  -9.776  0.00  0.00    -0.170 F 
ATOM     27  F   LIG d   1       3.092  -2.036  -8.327  0.00  0.00    -0.170 F 
ENDBRANCH  18  24
ENDBRANCH   2  18
TORSDOF 7
ENDMDL
MODEL 7
REMARK VINA RESULT:      -5.6      1.989      3.436
REMARK  7 active torsions:
REMARK  status: ('A' for Active; 'I' for Inactive)
REMARK    1  A    between atoms: C_1  and  C_2 
REMARK    2  A    between atoms: C_2  and  C_3 
REMARK    3  A    between atoms: C_2  and  C_4 
REMARK    4  A    between atoms: C_4  and  N_5 
REMARK       I    between atoms: N_5  and  C_6 
REMARK    5  A    between atoms: C_6  and  C_8 
REMARK    6  A    between atoms: C_8  and  C_9 
REMARK    7  A    between atoms: C_8  and  C_13 
ROOT
ATOM      1  N   LIG d   1       4.197  -1.796  -5.266  0.00  0.00    -0.314 N 
ATOM      2  C   LIG d   1       4.759  -0.670  -4.784  0.00  0.00     0.234 C 
ATOM      3  O   LIG d   1       5.456   0.016  -5.501  0.00  0.00    -0.275 OA
ATOM      4  H   LIG d   1       3.640  -2.344  -4.693  0.00  0.00     0.149 HD
ENDROOT
BRANCH   1   5
ATOM      5  C   LIG d   1       4.429  -2.192  -6.658  0.00  0.00     0.014 C 
ATOM      6  H   LIG d   1       3.472  -2.322  -7.163  0.00  0.00     0.046 H 
ATOM      7  H   LIG d   1       5.004  -1.417  -7.165  0.00  0.00     0.046 H 
BRANCH   5   8
ATOM      8  C   LIG d   1       5.206  -3.509  -6.691  0.00  0.00    -0.031 C 
ATOM      9  H   LIG d   1       4.881  -4.101  -7.547  0.00  0.00     0.031 H 
BRANCH   8  10
ATOM     10  C   LIG d   1       6.702  -3.216  -6.812  0.00  0.00    -0.061 C 
ATOM     11  H   LIG d   1       7.190  -4.031  -7.345  0.00  0.00     0.023 H 
ATOM     12  H   LIG d   1       6.847  -2.285  -7.361  0.00  0.00     0.023 H 
ATOM     13  H   LIG d   1       7.135  -3.120  -5.816  0.00  0.00     0.023 H 
ENDBRANCH   8  10
BRANCH   8  14
ATOM     14  C   LIG d   1       4.942  -4.289  -5.402  0.00  0.00    -0.061 C 
ATOM     15  H   LIG d   1       3.868  -4.432  -5.276  0.00  0.00     0.023 H 
ATOM     16  H   LIG d   1       5.432  -5.261  -5.458  0.00  0.00     0.023 H 
ATOM     17  H   LIG d   1       5.336  -3.732  -4.552  0.00  0.00     0.023 H 
ENDBRANCH   8  14
ENDBRANCH   5   8
ENDBRANCH   1   5
BRANCH   2  18
ATOM     18  C   LIG d   1       4.520  -0.263  -3.352  0.00  0.00     0.224 C 
ATOM     19  H   LIG d   1       5.236   0.509  -3.069  0.00  0.00     0.057 H 
BRANCH  18  20
ATOM     20  C   LIG d   1       3.099   0.281  -3.207  0.00  0.00     0.409 C 
ATOM     21  F   LIG d   1       2.708   0.892  -4.404  0.00  0.00    -0.170 F 
ATOM     22  F   LIG d   1       3.062   1.221  -2.171  0.00  0.00    -0.170 F 
ATOM     23  F   LIG d   1       2.224  -0.771  -2.914  0.00  0.00    -0.170 F 
ENDBRANCH  18  20
BRANCH  18  24
ATOM     24  C   LIG d   1       4.696  -1.480  -2.441  0.00  0.00     0.409 C 
ATOM     25  F   LIG d   1       4.539  -1.089  -1.107  0.00  0.00    -0.170 F 
ATOM     26  F   LIG d   1       3.734  -2.444  -2.760  0.00  0.00    -0.170 F 
ATOM     27  F   LIG d   1       5.975  -2.017  -2.623  0.00  0.00    -0.170 F 
ENDBRANCH  18  24
ENDBRANCH   2  18
TORSDOF 7
ENDMDL
MODEL 8
REMARK VINA RESULT:      -5.5      2.865      3.784
REMARK  7 active torsions:
REMARK  status: ('A' for Active; 'I' for Inactive)
REMARK    1  A    between atoms: C_1  and  C_2 
REMARK    2  A    between atoms: C_2  and  C_3 
REMARK    3  A    between atoms: C_2  and  C_4 
REMARK    4  A    between atoms: C_4  and  N_5 
REMARK       I    between atoms: N_5  and  C_6 
REMARK    5  A    between atoms: C_6  and  C_8 
REMARK    6  A    between atoms: C_8  and  C_9 
REMARK    7  A    between atoms: C_8  and  C_13 
ROOT
ATOM      1  N   LIG d   1       6.522   0.243  -4.656  0.00  0.00    -0.314 N 
ATOM      2  C   LIG d   1       5.874  -0.440  -3.691  0.00  0.00     0.234 C 
ATOM      3  O   LIG d   1       6.445  -1.321  -3.084  0.00  0.00    -0.275 OA
ATOM      4  H   LIG d   1       6.066   0.948  -5.141  0.00  0.00     0.149 HD
ENDROOT
BRANCH   1   5
ATOM      5  C   LIG d   1       7.915  -0.080  -4.971  0.00  0.00     0.014 C 
ATOM      6  H   LIG d   1       8.331  -0.709  -4.183  0.00  0.00     0.046 H 
ATOM      7  H   LIG d   1       7.959  -0.613  -5.922  0.00  0.00     0.046 H 
BRANCH   5   8
ATOM      8  C   LIG d   1       8.728   1.212  -5.073  0.00  0.00    -0.031 C 
ATOM      9  H   LIG d   1       9.791   0.971  -5.107  0.00  0.00     0.031 H 
BRANCH   8  10
ATOM     10  C   LIG d   1       8.335   1.963  -6.347  0.00  0.00    -0.061 C 
ATOM     11  H   LIG d   1       8.303   1.265  -7.184  0.00  0.00     0.023 H 
ATOM     12  H   LIG d   1       7.353   2.416  -6.214  0.00  0.00     0.023 H 
ATOM     13  H   LIG d   1       9.070   2.742  -6.550  0.00  0.00     0.023 H 
ENDBRANCH   8  10
BRANCH   8  14
ATOM     14  C   LIG d   1       8.443   2.092  -3.855  0.00  0.00    -0.061 C 
ATOM     15  H   LIG d   1       9.354   2.612  -3.560  0.00  0.00     0.023 H 
ATOM     16  H   LIG d   1       7.673   2.822  -4.105  0.00  0.00     0.023 H 
ATOM     17  H   LIG d   1       8.097   1.469  -3.030  0.00  0.00     0.023 H 
ENDBRANCH   8  14
ENDBRANCH   5   8
ENDBRANCH   1   5
BRANCH   2  18
ATOM     18  C   LIG d   1       4.440  -0.107  -3.367  0.00  0.00     0.224 C 
ATOM     19  H   LIG d   1       3.966   0.345  -4.238  0.00  0.00     0.057 H 
BRANCH  18  20
ATOM     20  C   LIG d   1       3.693  -1.386  -2.985  0.00  0.00     0.409 C 
ATOM     21  F   LIG d   1       3.829  -2.329  -4.010  0.00  0.00    -0.170 F 
ATOM     22  F   LIG d   1       2.337  -1.096  -2.795  0.00  0.00    -0.170 F 
ATOM     23  F   LIG d   1       4.230  -1.904  -1.801  0.00  0.00    -0.170 F 
ENDBRANCH  18  20
BRANCH  18  24
ATOM     24  C   LIG d   1       4.398   0.877  -2.196  0.00  0.00     0.409 C 
ATOM     25  F   LIG d   1       5.414   1.826  -2.348  0.00  0.00    -0.170 F 
ATOM     26  F   LIG d   1       3.157   1.524  -2.175  0.00  0.00    -0.170 F 
ATOM     27  F   LIG d   1       4.583   0.182  -0.996  0.00  0.00    -0.170 F 
ENDBRANCH  18  24
ENDBRANCH   2  18
TORSDOF 7
ENDMDL
MODEL 9
REMARK VINA RESULT:      -5.5      2.709      3.951
REMARK  7 active torsions:
REMARK  status: ('A' for Active; 'I' for Inactive)
REMARK    1  A    between atoms: C_1  and  C_2 
REMARK    2  A    between atoms: C_2  and  C_3 
REMARK    3  A    between atoms: C_2  and  C_4 
REMARK    4  A    between atoms: C_4  and  N_5 
REMARK       I    between atoms: N_5  and  C_6 
REMARK    5  A    between atoms: C_6  and  C_8 
REMARK    6  A    between atoms: C_8  and  C_9 
REMARK    7  A    between atoms: C_8  and  C_13 
ROOT
ATOM      1  N   LIG d   1       5.480  -1.246  -3.359  0.00  0.00    -0.314 N 
ATOM      2  C   LIG d   1       4.206  -1.459  -2.970  0.00  0.00     0.234 C 
ATOM      3  O   LIG d   1       3.826  -2.586  -2.731  0.00  0.00    -0.275 OA
ATOM      4  H   LIG d   1       5.785  -0.345  -3.549  0.00  0.00     0.149 HD
ENDROOT
BRANCH   1   5
ATOM      5  C   LIG d   1       6.403  -2.375  -3.494  0.00  0.00     0.014 C 
ATOM      6  H   LIG d   1       7.311  -2.173  -2.926  0.00  0.00     0.046 H 
ATOM      7  H   LIG d   1       5.930  -3.280  -3.111  0.00  0.00     0.046 H 
BRANCH   5   8
ATOM      8  C   LIG d   1       6.757  -2.570  -4.969  0.00  0.00    -0.031 C 
ATOM      9  H   LIG d   1       7.760  -2.993  -5.049  0.00  0.00     0.031 H 
BRANCH   8  10
ATOM     10  C   LIG d   1       5.749  -3.524  -5.614  0.00  0.00    -0.061 C 
ATOM     11  H   LIG d   1       6.256  -4.139  -6.357  0.00  0.00     0.023 H 
ATOM     12  H   LIG d   1       5.314  -4.165  -4.848  0.00  0.00     0.023 H 
ATOM     13  H   LIG d   1       4.960  -2.946  -6.096  0.00  0.00     0.023 H 
ENDBRANCH   8  10
BRANCH   8  14
ATOM     14  C   LIG d   1       6.714  -1.220  -5.687  0.00  0.00    -0.061 C 
ATOM     15  H   LIG d   1       6.718  -0.417  -4.950  0.00  0.00     0.023 H 
ATOM     16  H   LIG d   1       7.586  -1.124  -6.334  0.00  0.00     0.023 H 
ATOM     17  H   LIG d   1       5.807  -1.157  -6.288  0.00  0.00     0.023 H 
ENDBRANCH   8  14
ENDBRANCH   5   8
ENDBRANCH   1   5
BRANCH   2  18
ATOM     18  C   LIG d   1       3.257  -0.297  -2.830  0.00  0.00     0.224 C 
ATOM     19  H   LIG d   1       2.444  -0.570  -2.157  0.00  0.00     0.057 H 
BRANCH  18  20
ATOM     20  C   LIG d   1       4.007   0.909  -2.262  0.00  0.00     0.409 C 
ATOM     21  F   LIG d   1       4.670   0.534  -1.088  0.00  0.00    -0.170 F 
ATOM     22  F   LIG d   1       3.097   1.933  -1.977  0.00  0.00    -0.170 F 
ATOM     23  F   LIG d   1       4.942   1.362  -3.200  0.00  0.00    -0.170 F 
ENDBRANCH  18  20
BRANCH  18  24
ATOM     24  C   LIG d   1       2.684   0.060  -4.204  0.00  0.00     0.409 C 
ATOM     25  F   LIG d   1       1.371  -0.413  -4.298  0.00  0.00    -0.170 F 
ATOM     26  F   LIG d   1       2.691   1.450  -4.365  0.00  0.00    -0.170 F 
ATOM     27  F   LIG d   1       3.466  -0.530  -5.203  0.00  0.00    -0.170 F 
ENDBRANCH  18  24
ENDBRANCH   2  18
TORSDOF 7
ENDMDL
MODEL 10
REMARK VINA RESULT:      -5.5      1.639      2.308
REMARK  7 active torsions:
REMARK  status: ('A' for Active; 'I' for Inactive)
REMARK    1  A    between atoms: C_1  and  C_2 
REMARK    2  A    between atoms: C_2  and  C_3 
REMARK    3  A    between atoms: C_2  and  C_4 
REMARK    4  A    between atoms: C_4  and  N_5 
REMARK       I    between atoms: N_5  and  C_6 
REMARK    5  A    between atoms: C_6  and  C_8 
REMARK    6  A    between atoms: C_8  and  C_9 
REMARK    7  A    between atoms: C_8  and  C_13 
ROOT
ATOM      1  N   LIG d   1       3.456  -0.431  -5.347  0.00  0.00    -0.314 N 
ATOM      2  C   LIG d   1       3.842   0.182  -4.209  0.00  0.00     0.234 C 
ATOM      3  O   LIG d   1       3.462   1.308  -3.968  0.00  0.00    -0.275 OA
ATOM      4  H   LIG d   1       3.759  -1.331  -5.540  0.00  0.00     0.149 HD
ENDROOT
BRANCH   1   5
ATOM      5  C   LIG d   1       2.579   0.265  -6.292  0.00  0.00     0.014 C 
ATOM      6  H   LIG d   1       1.632  -0.270  -6.370  0.00  0.00     0.046 H 
ATOM      7  H   LIG d   1       2.394   1.280  -5.937  0.00  0.00     0.046 H 
BRANCH   5   8
ATOM      8  C   LIG d   1       3.249   0.319  -7.665  0.00  0.00    -0.031 C 
ATOM      9  H   LIG d   1       4.326   0.191  -7.549  0.00  0.00     0.031 H 
BRANCH   8  10
ATOM     10  C   LIG d   1       2.694  -0.800  -8.548  0.00  0.00    -0.061 C 
ATOM     11  H   LIG d   1       2.384  -1.636  -7.922  0.00  0.00     0.023 H 
ATOM     12  H   LIG d   1       1.838  -0.429  -9.110  0.00  0.00     0.023 H 
ATOM     13  H   LIG d   1       3.468  -1.132  -9.242  0.00  0.00     0.023 H 
ENDBRANCH   8  10
BRANCH   8  14
ATOM     14  C   LIG d   1       2.965   1.673  -8.319  0.00  0.00    -0.061 C 
ATOM     15  H   LIG d   1       2.014   2.061  -7.953  0.00  0.00     0.023 H 
ATOM     16  H   LIG d   1       3.763   2.373  -8.068  0.00  0.00     0.023 H 
ATOM     17  H   LIG d   1       2.916   1.551  -9.401  0.00  0.00     0.023 H 
ENDBRANCH   8  14
ENDBRANCH   5   8
ENDBRANCH   1   5
BRANCH   2  18
ATOM     18  C   LIG d   1       4.744  -0.535  -3.238  0.00  0.00     0.224 C 
ATOM     19  H   LIG d   1       5.091   0.167  -2.479  0.00  0.00     0.057 H 
BRANCH  18  20
ATOM     20  C   LIG d   1       3.972  -1.671  -2.567  0.00  0.00     0.409 C 
ATOM     21  F   LIG d   1       2.606  -1.365  -2.557  0.00  0.00    -0.170 F 
ATOM     22  F   LIG d   1       4.423  -1.831  -1.252  0.00  0.00    -0.170 F 
ATOM     23  F   LIG d   1       4.177  -2.858  -3.279  0.00  0.00    -0.170 F 
ENDBRANCH  18  20
BRANCH  18  24
ATOM     24  C   LIG d   1       5.948  -1.109  -3.989  0.00  0.00     0.409 C 
ATOM     25  F   LIG d   1       6.812  -1.727  -3.079  0.00  0.00    -0.170 F 
ATOM     26  F   LIG d   1       5.506  -2.051  -4.925  0.00  0.00    -0.170 F 
ATOM     27  F   LIG d   1       6.623  -0.076  -4.648  0.00  0.00    -0.170 F 
ENDBRANCH  18  24
ENDBRANCH   2  18
TORSDOF 7
ENDMDL
