MODEL 1
REMARK VINA RESULT:      -7.7      0.000      0.000
REMARK  7 active torsions:
REMARK  status: ('A' for Active; 'I' for Inactive)
REMARK    1  A    between atoms: C_1  and  C_2 
REMARK    2  A    between atoms: C_2  and  C_28 
REMARK    3  A    between atoms: C_8  and  O_19 
REMARK    4  A    between atoms: O_19  and  C_20 
REMARK    5  A    between atoms: C_20  and  C_21 
REMARK       I    between atoms: C_21  and  N_23 
REMARK    6  A    between atoms: N_23  and  C_24 
REMARK    7  A    between atoms: C_24  and  C_25 
ROOT
ATOM      1  C   LIG d   1       2.803  -0.493 -10.459  0.00  0.00     0.105 C 
ATOM      2  C   LIG d   1       3.140   0.917  -9.957  0.00  0.00    -0.009 C 
ATOM      3  C   LIG d   1       2.813   0.986  -8.463  0.00  0.00    -0.017 C 
ATOM      4  C   LIG d   1       3.400  -0.211  -7.759  0.00  0.00     0.038 A 
ATOM      5  C   LIG d   1       3.787  -1.342  -8.457  0.00  0.00     0.131 A 
ATOM      6  C   LIG d   1       4.318  -2.440  -7.778  0.00  0.00     0.023 A 
ATOM      7  C   LIG d   1       4.463  -2.415  -6.407  0.00  0.00     0.136 A 
ATOM      8  C   LIG d   1       4.075  -1.269  -5.690  0.00  0.00     0.063 A 
ATOM      9  C   LIG d   1       3.544  -0.165  -6.379  0.00  0.00     0.149 A 
ATOM     10  O   LIG d   1       3.174   0.939  -5.692  0.00  0.00    -0.421 OA
ATOM     11  C   LIG d   1       3.302   0.997  -4.356  0.00  0.00     0.341 A 
ATOM     12  O   LIG d   1       2.960   2.005  -3.766  0.00  0.00    -0.245 OA
ATOM     13  C   LIG d   1       3.826  -0.092  -3.624  0.00  0.00     0.041 A 
ATOM     14  C   LIG d   1       4.211  -1.217  -4.279  0.00  0.00    -0.023 A 
ATOM     15  C   LIG d   1       4.735  -2.240  -3.296  0.00  0.00    -0.026 C 
ATOM     16  C   LIG d   1       4.225  -1.771  -1.917  0.00  0.00    -0.045 C 
ATOM     17  C   LIG d   1       4.057  -0.252  -2.136  0.00  0.00    -0.020 C 
ATOM     18  O   LIG d   1       3.671  -1.421  -9.807  0.00  0.00    -0.486 OA
ATOM     19  H   LIG d   1       4.200   1.119 -10.111  0.00  0.00     0.031 H 
ATOM     20  H   LIG d   1       2.544   1.652 -10.498  0.00  0.00     0.031 H 
ATOM     21  H   LIG d   1       3.234   1.898  -8.042  0.00  0.00     0.032 H 
ATOM     22  H   LIG d   1       1.731   0.989  -8.329  0.00  0.00     0.032 H 
ATOM     23  H   LIG d   1       4.617  -3.318  -8.331  0.00  0.00     0.069 H 
ATOM     24  H   LIG d   1       4.338  -3.228  -3.530  0.00  0.00     0.031 H 
ATOM     25  H   LIG d   1       5.825  -2.256  -3.311  0.00  0.00     0.031 H 
ATOM     26  H   LIG d   1       4.962  -1.972  -1.140  0.00  0.00     0.027 H 
ATOM     27  H   LIG d   1       3.269  -2.237  -1.676  0.00  0.00     0.027 H 
ATOM     28  H   LIG d   1       4.961   0.277  -1.835  0.00  0.00     0.032 H 
ATOM     29  H   LIG d   1       3.196   0.119  -1.579  0.00  0.00     0.032 H 
ENDROOT
BRANCH   7  30
ATOM     30  O   LIG d   1       4.978  -3.488  -5.753  0.00  0.00    -0.482 OA
BRANCH  30  31
ATOM     31  C   LIG d   1       5.569  -4.513  -6.555  0.00  0.00     0.165 C 
ATOM     32  H   LIG d   1       5.535  -4.219  -7.604  0.00  0.00     0.080 H 
ATOM     33  H   LIG d   1       6.605  -4.659  -6.252  0.00  0.00     0.080 H 
BRANCH  31  34
ATOM     34  C   LIG d   1       4.805  -5.798  -6.370  0.00  0.00     0.251 C 
ATOM     35  O   LIG d   1       3.629  -5.768  -6.074  0.00  0.00    -0.272 OA
ATOM     36  N   LIG d   1       5.428  -6.982  -6.533  0.00  0.00    -0.307 N 
ATOM     37  H   LIG d   1       6.369  -7.007  -6.769  0.00  0.00     0.149 HD
BRANCH  36  38
ATOM     38  C   LIG d   1       4.686  -8.232  -6.352  0.00  0.00     0.051 C 
ATOM     39  H   LIG d   1       3.619  -8.042  -6.470  0.00  0.00     0.052 H 
ATOM     40  H   LIG d   1       5.010  -8.958  -7.097  0.00  0.00     0.052 H 
BRANCH  38  41
ATOM     41  C   LIG d   1       4.949  -8.777  -4.972  0.00  0.00     0.059 C 
ATOM     42  O   LIG d   1       6.080  -8.840  -4.552  0.00  0.00    -0.548 OA
ATOM     43  O   LIG d   1       3.925  -9.195  -4.209  0.00  0.00    -0.548 OA
ENDBRANCH  38  41
ENDBRANCH  36  38
ENDBRANCH  31  34
ENDBRANCH  30  31
ENDBRANCH   7  30
BRANCH   1  44
ATOM     44  C   LIG d   1       1.347  -0.825 -10.124  0.00  0.00    -0.025 C 
ATOM     45  H   LIG d   1       1.173  -1.890 -10.278  0.00  0.00     0.027 H 
ATOM     46  H   LIG d   1       1.147  -0.571  -9.083  0.00  0.00     0.027 H 
ATOM     47  H   LIG d   1       0.685  -0.250 -10.772  0.00  0.00     0.027 H 
ENDBRANCH   1  44
BRANCH   1  48
ATOM     48  C   LIG d   1       3.014  -0.565 -11.973  0.00  0.00    -0.025 C 
ATOM     49  H   LIG d   1       4.062  -0.376 -12.202  0.00  0.00     0.027 H 
ATOM     50  H   LIG d   1       2.736  -1.555 -12.331  0.00  0.00     0.027 H 
ATOM     51  H   LIG d   1       2.395   0.187 -12.462  0.00  0.00     0.027 H 
ENDBRANCH   1  48
TORSDOF 7
ENDMDL
MODEL 2
REMARK VINA RESULT:      -7.1      2.741      7.443
REMARK  7 active torsions:
REMARK  status: ('A' for Active; 'I' for Inactive)
REMARK    1  A    between atoms: C_1  and  C_2 
REMARK    2  A    between atoms: C_2  and  C_28 
REMARK    3  A    between atoms: C_8  and  O_19 
REMARK    4  A    between atoms: O_19  and  C_20 
REMARK    5  A    between atoms: C_20  and  C_21 
REMARK       I    between atoms: C_21  and  N_23 
REMARK    6  A    between atoms: N_23  and  C_24 
REMARK    7  A    between atoms: C_24  and  C_25 
ROOT
ATOM      1  C   LIG d   1       4.268  -0.057  -2.639  0.00  0.00     0.105 C 
ATOM      2  C   LIG d   1       4.451  -1.411  -1.940  0.00  0.00    -0.009 C 
ATOM      3  C   LIG d   1       4.147  -2.518  -2.952  0.00  0.00    -0.017 C 
ATOM      4  C   LIG d   1       4.880  -2.245  -4.241  0.00  0.00     0.038 A 
ATOM      5  C   LIG d   1       5.381  -0.988  -4.535  0.00  0.00     0.131 A 
ATOM      6  C   LIG d   1       6.046  -0.760  -5.741  0.00  0.00     0.023 A 
ATOM      7  C   LIG d   1       6.213  -1.780  -6.654  0.00  0.00     0.136 A 
ATOM      8  C   LIG d   1       5.710  -3.060  -6.363  0.00  0.00     0.063 A 
ATOM      9  C   LIG d   1       5.044  -3.285  -5.146  0.00  0.00     0.149 A 
ATOM     10  O   LIG d   1       4.563  -4.516  -4.861  0.00  0.00    -0.421 OA
ATOM     11  C   LIG d   1       4.709  -5.531  -5.729  0.00  0.00     0.341 A 
ATOM     12  O   LIG d   1       4.265  -6.629  -5.445  0.00  0.00    -0.245 OA
ATOM     13  C   LIG d   1       5.367  -5.348  -6.965  0.00  0.00     0.041 A 
ATOM     14  C   LIG d   1       5.866  -4.127  -7.286  0.00  0.00    -0.023 A 
ATOM     15  C   LIG d   1       6.522  -4.169  -8.647  0.00  0.00    -0.026 C 
ATOM     16  C   LIG d   1       5.987  -5.458  -9.310  0.00  0.00    -0.045 C 
ATOM     17  C   LIG d   1       5.643  -6.330  -8.084  0.00  0.00    -0.020 C 
ATOM     18  O   LIG d   1       5.249   0.052  -3.672  0.00  0.00    -0.486 OA
ATOM     19  H   LIG d   1       5.478  -1.507  -1.588  0.00  0.00     0.031 H 
ATOM     20  H   LIG d   1       3.765  -1.484  -1.097  0.00  0.00     0.031 H 
ATOM     21  H   LIG d   1       4.469  -3.477  -2.548  0.00  0.00     0.032 H 
ATOM     22  H   LIG d   1       3.075  -2.547  -3.146  0.00  0.00     0.032 H 
ATOM     23  H   LIG d   1       6.433   0.223  -5.961  0.00  0.00     0.069 H 
ATOM     24  H   LIG d   1       6.236  -3.296  -9.233  0.00  0.00     0.031 H 
ATOM     25  H   LIG d   1       7.606  -4.219  -8.544  0.00  0.00     0.031 H 
ATOM     26  H   LIG d   1       6.757  -5.930  -9.920  0.00  0.00     0.027 H 
ATOM     27  H   LIG d   1       5.096  -5.249  -9.903  0.00  0.00     0.027 H 
ATOM     28  H   LIG d   1       6.486  -6.971  -7.826  0.00  0.00     0.032 H 
ATOM     29  H   LIG d   1       4.756  -6.933  -8.285  0.00  0.00     0.032 H 
ENDROOT
BRANCH   7  30
ATOM     30  O   LIG d   1       6.859  -1.550  -7.825  0.00  0.00    -0.482 OA
BRANCH  30  31
ATOM     31  C   LIG d   1       7.313  -0.216  -8.065  0.00  0.00     0.165 C 
ATOM     32  H   LIG d   1       7.420   0.308  -7.114  0.00  0.00     0.080 H 
ATOM     33  H   LIG d   1       8.276  -0.245  -8.574  0.00  0.00     0.080 H 
BRANCH  31  34
ATOM     34  C   LIG d   1       6.311   0.508  -8.926  0.00  0.00     0.251 C 
ATOM     35  O   LIG d   1       6.112   0.140 -10.064  0.00  0.00    -0.272 OA
ATOM     36  N   LIG d   1       5.636   1.565  -8.432  0.00  0.00    -0.307 N 
ATOM     37  H   LIG d   1       5.795   1.860  -7.522  0.00  0.00     0.149 HD
BRANCH  36  38
ATOM     38  C   LIG d   1       4.662   2.269  -9.270  0.00  0.00     0.051 C 
ATOM     39  H   LIG d   1       4.786   3.345  -9.145  0.00  0.00     0.052 H 
ATOM     40  H   LIG d   1       4.823   2.004 -10.314  0.00  0.00     0.052 H 
BRANCH  38  41
ATOM     41  C   LIG d   1       3.267   1.874  -8.860  0.00  0.00     0.059 C 
ATOM     42  O   LIG d   1       2.671   1.029  -9.484  0.00  0.00    -0.548 OA
ATOM     43  O   LIG d   1       2.687   2.461  -7.801  0.00  0.00    -0.548 OA
ENDBRANCH  38  41
ENDBRANCH  36  38
ENDBRANCH  31  34
ENDBRANCH  30  31
ENDBRANCH   7  30
BRANCH   1  44
ATOM     44  C   LIG d   1       2.867   0.023  -3.248  0.00  0.00    -0.025 C 
ATOM     45  H   LIG d   1       2.854   0.782  -4.030  0.00  0.00     0.027 H 
ATOM     46  H   LIG d   1       2.600  -0.944  -3.673  0.00  0.00     0.027 H 
ATOM     47  H   LIG d   1       2.149   0.290  -2.471  0.00  0.00     0.027 H 
ENDBRANCH   1  44
BRANCH   1  48
ATOM     48  C   LIG d   1       4.458   1.074  -1.627  0.00  0.00    -0.025 C 
ATOM     49  H   LIG d   1       4.018   0.785  -0.672  0.00  0.00     0.027 H 
ATOM     50  H   LIG d   1       5.522   1.267  -1.492  0.00  0.00     0.027 H 
ATOM     51  H   LIG d   1       3.968   1.976  -1.994  0.00  0.00     0.027 H 
ENDBRANCH   1  48
TORSDOF 7
ENDMDL
MODEL 3
REMARK VINA RESULT:      -7.1      2.596      4.091
REMARK  7 active torsions:
REMARK  status: ('A' for Active; 'I' for Inactive)
REMARK    1  A    between atoms: C_1  and  C_2 
REMARK    2  A    between atoms: C_2  and  C_28 
REMARK    3  A    between atoms: C_8  and  O_19 
REMARK    4  A    between atoms: O_19  and  C_20 
REMARK    5  A    between atoms: C_20  and  C_21 
REMARK       I    between atoms: C_21  and  N_23 
REMARK    6  A    between atoms: N_23  and  C_24 
REMARK    7  A    between atoms: C_24  and  C_25 
ROOT
ATOM      1  C   LIG d   1       3.487  -0.260 -10.940  0.00  0.00     0.105 C 
ATOM      2  C   LIG d   1       3.625   1.153 -10.358  0.00  0.00    -0.009 C 
ATOM      3  C   LIG d   1       3.071   1.140  -8.932  0.00  0.00    -0.017 C 
ATOM      4  C   LIG d   1       3.642  -0.032  -8.174  0.00  0.00     0.038 A 
ATOM      5  C   LIG d   1       4.223  -1.103  -8.831  0.00  0.00     0.131 A 
ATOM      6  C   LIG d   1       4.734  -2.180  -8.105  0.00  0.00     0.023 A 
ATOM      7  C   LIG d   1       4.667  -2.194  -6.728  0.00  0.00     0.136 A 
ATOM      8  C   LIG d   1       4.080  -1.109  -6.052  0.00  0.00     0.063 A 
ATOM      9  C   LIG d   1       3.570  -0.025  -6.788  0.00  0.00     0.149 A 
ATOM     10  O   LIG d   1       3.009   1.020  -6.140  0.00  0.00    -0.421 OA
ATOM     11  C   LIG d   1       2.928   1.038  -4.799  0.00  0.00     0.341 A 
ATOM     12  O   LIG d   1       2.417   1.994  -4.244  0.00  0.00    -0.245 OA
ATOM     13  C   LIG d   1       3.423  -0.032  -4.022  0.00  0.00     0.041 A 
ATOM     14  C   LIG d   1       3.995  -1.099  -4.636  0.00  0.00    -0.023 A 
ATOM     15  C   LIG d   1       4.448  -2.113  -3.610  0.00  0.00    -0.026 C 
ATOM     16  C   LIG d   1       3.697  -1.736  -2.314  0.00  0.00    -0.045 C 
ATOM     17  C   LIG d   1       3.438  -0.228  -2.520  0.00  0.00    -0.020 C 
ATOM     18  O   LIG d   1       4.320  -1.141 -10.185  0.00  0.00    -0.486 OA
ATOM     19  H   LIG d   1       4.675   1.443 -10.342  0.00  0.00     0.031 H 
ATOM     20  H   LIG d   1       3.059   1.858 -10.967  0.00  0.00     0.031 H 
ATOM     21  H   LIG d   1       3.345   2.066  -8.428  0.00  0.00     0.032 H 
ATOM     22  H   LIG d   1       1.984   1.054  -8.966  0.00  0.00     0.032 H 
ATOM     23  H   LIG d   1       5.186  -3.010  -8.627  0.00  0.00     0.069 H 
ATOM     24  H   LIG d   1       4.174  -3.120  -3.926  0.00  0.00     0.031 H 
ATOM     25  H   LIG d   1       5.525  -2.042  -3.457  0.00  0.00     0.031 H 
ATOM     26  H   LIG d   1       4.321  -1.907  -1.438  0.00  0.00     0.027 H 
ATOM     27  H   LIG d   1       2.758  -2.285  -2.235  0.00  0.00     0.027 H 
ATOM     28  H   LIG d   1       4.239   0.359  -2.070  0.00  0.00     0.032 H 
ATOM     29  H   LIG d   1       2.475   0.053  -2.094  0.00  0.00     0.032 H 
ENDROOT
BRANCH   7  30
ATOM     30  O   LIG d   1       5.164  -3.246  -6.030  0.00  0.00    -0.482 OA
BRANCH  30  31
ATOM     31  C   LIG d   1       6.546  -3.557  -6.222  0.00  0.00     0.165 C 
ATOM     32  H   LIG d   1       6.727  -4.594  -5.937  0.00  0.00     0.080 H 
ATOM     33  H   LIG d   1       6.807  -3.418  -7.270  0.00  0.00     0.080 H 
BRANCH  31  34
ATOM     34  C   LIG d   1       7.389  -2.647  -5.368  0.00  0.00     0.251 C 
ATOM     35  O   LIG d   1       7.786  -3.026  -4.286  0.00  0.00    -0.272 OA
ATOM     36  N   LIG d   1       7.703  -1.412  -5.806  0.00  0.00    -0.307 N 
ATOM     37  H   LIG d   1       7.386  -1.108  -6.670  0.00  0.00     0.149 HD
BRANCH  36  38
ATOM     38  C   LIG d   1       8.523  -0.527  -4.975  0.00  0.00     0.051 C 
ATOM     39  H   LIG d   1       8.972  -1.101  -4.164  0.00  0.00     0.052 H 
ATOM     40  H   LIG d   1       9.311  -0.083  -5.584  0.00  0.00     0.052 H 
BRANCH  38  41
ATOM     41  C   LIG d   1       7.659   0.565  -4.399  0.00  0.00     0.059 C 
ATOM     42  O   LIG d   1       6.961   0.339  -3.439  0.00  0.00    -0.548 OA
ATOM     43  O   LIG d   1       7.664   1.788  -4.953  0.00  0.00    -0.548 OA
ENDBRANCH  38  41
ENDBRANCH  36  38
ENDBRANCH  31  34
ENDBRANCH  30  31
ENDBRANCH   7  30
BRANCH   1  44
ATOM     44  C   LIG d   1       2.030  -0.718 -10.842  0.00  0.00    -0.025 C 
ATOM     45  H   LIG d   1       1.373   0.087 -11.171  0.00  0.00     0.027 H 
ATOM     46  H   LIG d   1       1.880  -1.592 -11.476  0.00  0.00     0.027 H 
ATOM     47  H   LIG d   1       1.799  -0.975  -9.808  0.00  0.00     0.027 H 
ENDBRANCH   1  44
BRANCH   1  48
ATOM     48  C   LIG d   1       3.930  -0.259 -12.404  0.00  0.00    -0.025 C 
ATOM     49  H   LIG d   1       3.275  -0.911 -12.982  0.00  0.00     0.027 H 
ATOM     50  H   LIG d   1       3.875   0.754 -12.800  0.00  0.00     0.027 H 
ATOM     51  H   LIG d   1       4.956  -0.622 -12.473  0.00  0.00     0.027 H 
ENDBRANCH   1  48
TORSDOF 7
ENDMDL
MODEL 4
REMARK VINA RESULT:      -7.0      2.393      7.459
REMARK  7 active torsions:
REMARK  status: ('A' for Active; 'I' for Inactive)
REMARK    1  A    between atoms: C_1  and  C_2 
REMARK    2  A    between atoms: C_2  and  C_28 
REMARK    3  A    between atoms: C_8  and  O_19 
REMARK    4  A    between atoms: O_19  and  C_20 
REMARK    5  A    between atoms: C_20  and  C_21 
REMARK       I    between atoms: C_21  and  N_23 
REMARK    6  A    between atoms: N_23  and  C_24 
REMARK    7  A    between atoms: C_24  and  C_25 
ROOT
ATOM      1  C   LIG d   1       4.244  -0.268  -3.310  0.00  0.00     0.105 C 
ATOM      2  C   LIG d   1       5.111  -1.382  -2.709  0.00  0.00    -0.009 C 
ATOM      3  C   LIG d   1       4.649  -2.718  -3.296  0.00  0.00    -0.017 C 
ATOM      4  C   LIG d   1       4.528  -2.600  -4.795  0.00  0.00     0.038 A 
ATOM      5  C   LIG d   1       4.452  -1.367  -5.419  0.00  0.00     0.131 A 
ATOM      6  C   LIG d   1       4.329  -1.287  -6.807  0.00  0.00     0.023 A 
ATOM      7  C   LIG d   1       4.281  -2.432  -7.574  0.00  0.00     0.136 A 
ATOM      8  C   LIG d   1       4.359  -3.689  -6.949  0.00  0.00     0.063 A 
ATOM      9  C   LIG d   1       4.486  -3.764  -5.551  0.00  0.00     0.149 A 
ATOM     10  O   LIG d   1       4.565  -4.971  -4.948  0.00  0.00    -0.421 OA
ATOM     11  C   LIG d   1       4.521  -6.105  -5.667  0.00  0.00     0.341 A 
ATOM     12  O   LIG d   1       4.595  -7.178  -5.095  0.00  0.00    -0.245 OA
ATOM     13  C   LIG d   1       4.389  -6.076  -7.073  0.00  0.00     0.041 A 
ATOM     14  C   LIG d   1       4.309  -4.883  -7.715  0.00  0.00    -0.023 A 
ATOM     15  C   LIG d   1       4.172  -5.098  -9.205  0.00  0.00    -0.026 C 
ATOM     16  C   LIG d   1       3.746  -6.574  -9.360  0.00  0.00    -0.045 C 
ATOM     17  C   LIG d   1       4.316  -7.210  -8.074  0.00  0.00    -0.020 C 
ATOM     18  O   LIG d   1       4.499  -0.207  -4.713  0.00  0.00    -0.486 OA
ATOM     19  H   LIG d   1       6.157  -1.212  -2.962  0.00  0.00     0.031 H 
ATOM     20  H   LIG d   1       4.993  -1.396  -1.626  0.00  0.00     0.031 H 
ATOM     21  H   LIG d   1       5.375  -3.493  -3.051  0.00  0.00     0.032 H 
ATOM     22  H   LIG d   1       3.679  -2.983  -2.875  0.00  0.00     0.032 H 
ATOM     23  H   LIG d   1       4.272  -0.320  -7.284  0.00  0.00     0.069 H 
ATOM     24  H   LIG d   1       3.407  -4.438  -9.614  0.00  0.00     0.031 H 
ATOM     25  H   LIG d   1       5.127  -4.926  -9.701  0.00  0.00     0.031 H 
ATOM     26  H   LIG d   1       4.197  -7.018 -10.247  0.00  0.00     0.027 H 
ATOM     27  H   LIG d   1       2.660  -6.664  -9.391  0.00  0.00     0.027 H 
ATOM     28  H   LIG d   1       5.310  -7.615  -8.260  0.00  0.00     0.032 H 
ATOM     29  H   LIG d   1       3.649  -7.992  -7.710  0.00  0.00     0.032 H 
ENDROOT
BRANCH   7  30
ATOM     30  O   LIG d   1       4.159  -2.346  -8.923  0.00  0.00    -0.482 OA
BRANCH  30  31
ATOM     31  C   LIG d   1       2.866  -2.019  -9.438  0.00  0.00     0.165 C 
ATOM     32  H   LIG d   1       2.663  -2.625 -10.321  0.00  0.00     0.080 H 
ATOM     33  H   LIG d   1       2.111  -2.219  -8.679  0.00  0.00     0.080 H 
BRANCH  31  34
ATOM     34  C   LIG d   1       2.829  -0.560  -9.811  0.00  0.00     0.251 C 
ATOM     35  O   LIG d   1       1.784   0.053  -9.760  0.00  0.00    -0.272 OA
ATOM     36  N   LIG d   1       3.958   0.065 -10.202  0.00  0.00    -0.307 N 
ATOM     37  H   LIG d   1       4.794  -0.425 -10.243  0.00  0.00     0.149 HD
BRANCH  36  38
ATOM     38  C   LIG d   1       3.922   1.484 -10.565  0.00  0.00     0.051 C 
ATOM     39  H   LIG d   1       4.552   1.651 -11.439  0.00  0.00     0.052 H 
ATOM     40  H   LIG d   1       2.897   1.774 -10.796  0.00  0.00     0.052 H 
BRANCH  38  41
ATOM     41  C   LIG d   1       4.430   2.311  -9.413  0.00  0.00     0.059 C 
ATOM     42  O   LIG d   1       3.660   2.721  -8.577  0.00  0.00    -0.548 OA
ATOM     43  O   LIG d   1       5.739   2.593  -9.316  0.00  0.00    -0.548 OA
ENDBRANCH  38  41
ENDBRANCH  36  38
ENDBRANCH  31  34
ENDBRANCH  30  31
ENDBRANCH   7  30
BRANCH   1  44
ATOM     44  C   LIG d   1       2.766  -0.577  -3.067  0.00  0.00    -0.025 C 
ATOM     45  H   LIG d   1       2.652  -1.069  -2.101  0.00  0.00     0.027 H 
ATOM     46  H   LIG d   1       2.195   0.352  -3.072  0.00  0.00     0.027 H 
ATOM     47  H   LIG d   1       2.398  -1.234  -3.856  0.00  0.00     0.027 H 
ENDBRANCH   1  44
BRANCH   1  48
ATOM     48  C   LIG d   1       4.606   1.071  -2.662  0.00  0.00    -0.025 C 
ATOM     49  H   LIG d   1       5.657   1.062  -2.373  0.00  0.00     0.027 H 
ATOM     50  H   LIG d   1       4.431   1.877  -3.373  0.00  0.00     0.027 H 
ATOM     51  H   LIG d   1       3.988   1.225  -1.778  0.00  0.00     0.027 H 
ENDBRANCH   1  48
TORSDOF 7
ENDMDL
MODEL 5
REMARK VINA RESULT:      -6.9      2.344      6.947
REMARK  7 active torsions:
REMARK  status: ('A' for Active; 'I' for Inactive)
REMARK    1  A    between atoms: C_1  and  C_2 
REMARK    2  A    between atoms: C_2  and  C_28 
REMARK    3  A    between atoms: C_8  and  O_19 
REMARK    4  A    between atoms: O_19  and  C_20 
REMARK    5  A    between atoms: C_20  and  C_21 
REMARK       I    between atoms: C_21  and  N_23 
REMARK    6  A    between atoms: N_23  and  C_24 
REMARK    7  A    between atoms: C_24  and  C_25 
ROOT
ATOM      1  C   LIG d   1       4.219  -0.137  -2.760  0.00  0.00     0.105 C 
ATOM      2  C   LIG d   1       4.791  -1.486  -2.307  0.00  0.00    -0.009 C 
ATOM      3  C   LIG d   1       4.291  -2.567  -3.269  0.00  0.00    -0.017 C 
ATOM      4  C   LIG d   1       4.497  -2.115  -4.693  0.00  0.00     0.038 A 
ATOM      5  C   LIG d   1       4.712  -0.784  -5.005  0.00  0.00     0.131 A 
ATOM      6  C   LIG d   1       4.889  -0.392  -6.333  0.00  0.00     0.023 A 
ATOM      7  C   LIG d   1       4.852  -1.323  -7.350  0.00  0.00     0.136 A 
ATOM      8  C   LIG d   1       4.636  -2.678  -7.042  0.00  0.00     0.063 A 
ATOM      9  C   LIG d   1       4.462  -3.067  -5.703  0.00  0.00     0.149 A 
ATOM     10  O   LIG d   1       4.259  -4.370  -5.404  0.00  0.00    -0.421 OA
ATOM     11  C   LIG d   1       4.217  -5.301  -6.371  0.00  0.00     0.341 A 
ATOM     12  O   LIG d   1       4.033  -6.467  -6.070  0.00  0.00    -0.245 OA
ATOM     13  C   LIG d   1       4.382  -4.953  -7.730  0.00  0.00     0.041 A 
ATOM     14  C   LIG d   1       4.591  -3.655  -8.069  0.00  0.00    -0.023 A 
ATOM     15  C   LIG d   1       4.737  -3.524  -9.568  0.00  0.00    -0.026 C 
ATOM     16  C   LIG d   1       4.165  -4.837 -10.145  0.00  0.00    -0.045 C 
ATOM     17  C   LIG d   1       4.370  -5.819  -8.972  0.00  0.00    -0.020 C 
ATOM     18  O   LIG d   1       4.763   0.174  -4.044  0.00  0.00    -0.486 OA
ATOM     19  H   LIG d   1       5.880  -1.450  -2.329  0.00  0.00     0.031 H 
ATOM     20  H   LIG d   1       4.452  -1.708  -1.296  0.00  0.00     0.031 H 
ATOM     21  H   LIG d   1       4.844  -3.489  -3.097  0.00  0.00     0.032 H 
ATOM     22  H   LIG d   1       3.229  -2.743  -3.096  0.00  0.00     0.032 H 
ATOM     23  H   LIG d   1       5.057   0.648  -6.566  0.00  0.00     0.069 H 
ATOM     24  H   LIG d   1       4.165  -2.670  -9.931  0.00  0.00     0.031 H 
ATOM     25  H   LIG d   1       5.788  -3.419  -9.838  0.00  0.00     0.031 H 
ATOM     26  H   LIG d   1       4.728  -5.155 -11.022  0.00  0.00     0.027 H 
ATOM     27  H   LIG d   1       3.106  -4.729 -10.381  0.00  0.00     0.027 H 
ATOM     28  H   LIG d   1       5.321  -6.342  -9.078  0.00  0.00     0.032 H 
ATOM     29  H   LIG d   1       3.548  -6.533  -8.927  0.00  0.00     0.032 H 
ENDROOT
BRANCH   7  30
ATOM     30  O   LIG d   1       5.023  -0.934  -8.639  0.00  0.00    -0.482 OA
BRANCH  30  31
ATOM     31  C   LIG d   1       4.268   0.197  -9.080  0.00  0.00     0.165 C 
ATOM     32  H   LIG d   1       4.161   0.905  -8.258  0.00  0.00     0.080 H 
ATOM     33  H   LIG d   1       4.787   0.679  -9.909  0.00  0.00     0.080 H 
BRANCH  31  34
ATOM     34  C   LIG d   1       2.905  -0.255  -9.536  0.00  0.00     0.251 C 
ATOM     35  O   LIG d   1       1.972  -0.242  -8.762  0.00  0.00    -0.272 OA
ATOM     36  N   LIG d   1       2.723  -0.672 -10.805  0.00  0.00    -0.307 N 
ATOM     37  H   LIG d   1       3.469  -0.682 -11.424  0.00  0.00     0.149 HD
BRANCH  36  38
ATOM     38  C   LIG d   1       1.398  -1.112 -11.248  0.00  0.00     0.051 C 
ATOM     39  H   LIG d   1       0.641  -0.736 -10.560  0.00  0.00     0.052 H 
ATOM     40  H   LIG d   1       1.203  -0.726 -12.248  0.00  0.00     0.052 H 
BRANCH  38  41
ATOM     41  C   LIG d   1       1.351  -2.618 -11.273  0.00  0.00     0.059 C 
ATOM     42  O   LIG d   1       0.907  -3.224 -10.327  0.00  0.00    -0.548 OA
ATOM     43  O   LIG d   1       1.802  -3.285 -12.347  0.00  0.00    -0.548 OA
ENDBRANCH  38  41
ENDBRANCH  36  38
ENDBRANCH  31  34
ENDBRANCH  30  31
ENDBRANCH   7  30
BRANCH   1  44
ATOM     44  C   LIG d   1       2.694  -0.229  -2.855  0.00  0.00    -0.025 C 
ATOM     45  H   LIG d   1       2.281  -0.432  -1.867  0.00  0.00     0.027 H 
ATOM     46  H   LIG d   1       2.296   0.713  -3.230  0.00  0.00     0.027 H 
ATOM     47  H   LIG d   1       2.422  -1.036  -3.537  0.00  0.00     0.027 H 
ENDBRANCH   1  44
BRANCH   1  48
ATOM     48  C   LIG d   1       4.609   0.951  -1.758  0.00  0.00    -0.025 C 
ATOM     49  H   LIG d   1       3.946   0.903  -0.894  0.00  0.00     0.027 H 
ATOM     50  H   LIG d   1       5.638   0.795  -1.434  0.00  0.00     0.027 H 
ATOM     51  H   LIG d   1       4.520   1.929  -2.230  0.00  0.00     0.027 H 
ENDBRANCH   1  48
TORSDOF 7
ENDMDL
MODEL 6
REMARK VINA RESULT:      -6.8      8.183     10.967
REMARK  7 active torsions:
REMARK  status: ('A' for Active; 'I' for Inactive)
REMARK    1  A    between atoms: C_1  and  C_2 
REMARK    2  A    between atoms: C_2  and  C_28 
REMARK    3  A    between atoms: C_8  and  O_19 
REMARK    4  A    between atoms: O_19  and  C_20 
REMARK    5  A    between atoms: C_20  and  C_21 
REMARK       I    between atoms: C_21  and  N_23 
REMARK    6  A    between atoms: N_23  and  C_24 
REMARK    7  A    between atoms: C_24  and  C_25 
ROOT
ATOM      1  C   LIG d   1      11.149   6.567   0.148  0.00  0.00     0.105 C 
ATOM      2  C   LIG d   1      10.294   7.778  -0.246  0.00  0.00    -0.009 C 
ATOM      3  C   LIG d   1      10.500   8.046  -1.738  0.00  0.00    -0.017 C 
ATOM      4  C   LIG d   1      10.360   6.758  -2.510  0.00  0.00     0.038 A 
ATOM      5  C   LIG d   1      10.450   5.527  -1.883  0.00  0.00     0.131 A 
ATOM      6  C   LIG d   1      10.327   4.350  -2.624  0.00  0.00     0.023 A 
ATOM      7  C   LIG d   1      10.116   4.396  -3.986  0.00  0.00     0.136 A 
ATOM      8  C   LIG d   1      10.021   5.642  -4.630  0.00  0.00     0.063 A 
ATOM      9  C   LIG d   1      10.142   6.824  -3.880  0.00  0.00     0.149 A 
ATOM     10  O   LIG d   1      10.047   8.024  -4.496  0.00  0.00    -0.421 OA
ATOM     11  C   LIG d   1       9.842   8.104  -5.821  0.00  0.00     0.341 A 
ATOM     12  O   LIG d   1       9.760   9.199  -6.348  0.00  0.00    -0.245 OA
ATOM     13  C   LIG d   1       9.720   6.942  -6.615  0.00  0.00     0.041 A 
ATOM     14  C   LIG d   1       9.807   5.719  -6.031  0.00  0.00    -0.023 A 
ATOM     15  C   LIG d   1       9.648   4.631  -7.069  0.00  0.00    -0.026 C 
ATOM     16  C   LIG d   1       9.883   5.332  -8.425  0.00  0.00    -0.045 C 
ATOM     17  C   LIG d   1       9.492   6.791  -8.104  0.00  0.00    -0.020 C 
ATOM     18  O   LIG d   1      10.653   5.421  -0.545  0.00  0.00    -0.486 OA
ATOM     19  H   LIG d   1       9.243   7.565  -0.052  0.00  0.00     0.031 H 
ATOM     20  H   LIG d   1      10.604   8.649   0.331  0.00  0.00     0.031 H 
ATOM     21  H   LIG d   1       9.754   8.760  -2.085  0.00  0.00     0.032 H 
ATOM     22  H   LIG d   1      11.497   8.456  -1.899  0.00  0.00     0.032 H 
ATOM     23  H   LIG d   1      10.398   3.395  -2.126  0.00  0.00     0.069 H 
ATOM     24  H   LIG d   1      10.392   3.849  -6.915  0.00  0.00     0.031 H 
ATOM     25  H   LIG d   1       8.643   4.213  -7.029  0.00  0.00     0.031 H 
ATOM     26  H   LIG d   1       9.235   4.917  -9.195  0.00  0.00     0.027 H 
ATOM     27  H   LIG d   1      10.930   5.266  -8.721  0.00  0.00     0.027 H 
ATOM     28  H   LIG d   1       8.443   6.964  -8.345  0.00  0.00     0.032 H 
ATOM     29  H   LIG d   1      10.128   7.484  -8.655  0.00  0.00     0.032 H 
ENDROOT
BRANCH   7  30
ATOM     30  O   LIG d   1      10.000   3.248  -4.700  0.00  0.00    -0.482 OA
BRANCH  30  31
ATOM     31  C   LIG d   1       9.744   2.049  -3.964  0.00  0.00     0.165 C 
ATOM     32  H   LIG d   1      10.486   1.295  -4.228  0.00  0.00     0.080 H 
ATOM     33  H   LIG d   1       9.805   2.259  -2.896  0.00  0.00     0.080 H 
BRANCH  31  34
ATOM     34  C   LIG d   1       8.367   1.539  -4.298  0.00  0.00     0.251 C 
ATOM     35  O   LIG d   1       7.709   2.087  -5.156  0.00  0.00    -0.272 OA
ATOM     36  N   LIG d   1       7.866   0.473  -3.643  0.00  0.00    -0.307 N 
ATOM     37  H   LIG d   1       8.392   0.034  -2.956  0.00  0.00     0.149 HD
BRANCH  36  38
ATOM     38  C   LIG d   1       6.526  -0.024  -3.968  0.00  0.00     0.051 C 
ATOM     39  H   LIG d   1       6.142   0.509  -4.838  0.00  0.00     0.052 H 
ATOM     40  H   LIG d   1       6.578  -1.090  -4.188  0.00  0.00     0.052 H 
BRANCH  38  41
ATOM     41  C   LIG d   1       5.609   0.203  -2.794  0.00  0.00     0.059 C 
ATOM     42  O   LIG d   1       5.019  -0.729  -2.300  0.00  0.00    -0.548 OA
ATOM     43  O   LIG d   1       5.447   1.440  -2.298  0.00  0.00    -0.548 OA
ENDBRANCH  38  41
ENDBRANCH  36  38
ENDBRANCH  31  34
ENDBRANCH  30  31
ENDBRANCH   7  30
BRANCH   1  44
ATOM     44  C   LIG d   1      12.607   6.815  -0.245  0.00  0.00    -0.025 C 
ATOM     45  H   LIG d   1      12.651   7.155  -1.279  0.00  0.00     0.027 H 
ATOM     46  H   LIG d   1      13.034   7.577   0.407  0.00  0.00     0.027 H 
ATOM     47  H   LIG d   1      13.173   5.889  -0.141  0.00  0.00     0.027 H 
ENDBRANCH   1  44
BRANCH   1  48
ATOM     48  C   LIG d   1      11.053   6.338   1.658  0.00  0.00    -0.025 C 
ATOM     49  H   LIG d   1      11.947   5.818   2.004  0.00  0.00     0.027 H 
ATOM     50  H   LIG d   1      10.971   7.298   2.167  0.00  0.00     0.027 H 
ATOM     51  H   LIG d   1      10.174   5.732   1.878  0.00  0.00     0.027 H 
ENDBRANCH   1  48
TORSDOF 7
ENDMDL
MODEL 7
REMARK VINA RESULT:      -6.6      4.180      5.432
REMARK  7 active torsions:
REMARK  status: ('A' for Active; 'I' for Inactive)
REMARK    1  A    between atoms: C_1  and  C_2 
REMARK    2  A    between atoms: C_2  and  C_28 
REMARK    3  A    between atoms: C_8  and  O_19 
REMARK    4  A    between atoms: O_19  and  C_20 
REMARK    5  A    between atoms: C_20  and  C_21 
REMARK       I    between atoms: C_21  and  N_23 
REMARK    6  A    between atoms: N_23  and  C_24 
REMARK    7  A    between atoms: C_24  and  C_25 
ROOT
ATOM      1  C   LIG d   1      10.386   2.655  -5.905  0.00  0.00     0.105 C 
ATOM      2  C   LIG d   1      10.109   3.189  -4.494  0.00  0.00    -0.009 C 
ATOM      3  C   LIG d   1       8.669   2.830  -4.118  0.00  0.00    -0.017 C 
ATOM      4  C   LIG d   1       8.411   1.376  -4.424  0.00  0.00     0.038 A 
ATOM      5  C   LIG d   1       9.233   0.661  -5.278  0.00  0.00     0.131 A 
ATOM      6  C   LIG d   1       8.965  -0.682  -5.551  0.00  0.00     0.023 A 
ATOM      7  C   LIG d   1       7.880  -1.312  -4.977  0.00  0.00     0.136 A 
ATOM      8  C   LIG d   1       7.042  -0.593  -4.107  0.00  0.00     0.063 A 
ATOM      9  C   LIG d   1       7.319   0.757  -3.832  0.00  0.00     0.149 A 
ATOM     10  O   LIG d   1       6.516   1.449  -2.993  0.00  0.00    -0.421 OA
ATOM     11  C   LIG d   1       5.452   0.865  -2.417  0.00  0.00     0.341 A 
ATOM     12  O   LIG d   1       4.749   1.514  -1.665  0.00  0.00    -0.245 OA
ATOM     13  C   LIG d   1       5.135  -0.488  -2.669  0.00  0.00     0.041 A 
ATOM     14  C   LIG d   1       5.918  -1.217  -3.505  0.00  0.00    -0.023 A 
ATOM     15  C   LIG d   1       5.388  -2.628  -3.623  0.00  0.00    -0.026 C 
ATOM     16  C   LIG d   1       3.938  -2.557  -3.096  0.00  0.00    -0.045 C 
ATOM     17  C   LIG d   1       4.001  -1.344  -2.143  0.00  0.00    -0.020 C 
ATOM     18  O   LIG d   1      10.316   1.229  -5.867  0.00  0.00    -0.486 OA
ATOM     19  H   LIG d   1      10.799   2.731  -3.785  0.00  0.00     0.031 H 
ATOM     20  H   LIG d   1      10.234   4.272  -4.480  0.00  0.00     0.031 H 
ATOM     21  H   LIG d   1       8.516   3.011  -3.055  0.00  0.00     0.032 H 
ATOM     22  H   LIG d   1       7.980   3.448  -4.694  0.00  0.00     0.032 H 
ATOM     23  H   LIG d   1       9.611  -1.231  -6.218  0.00  0.00     0.069 H 
ATOM     24  H   LIG d   1       5.397  -2.950  -4.664  0.00  0.00     0.031 H 
ATOM     25  H   LIG d   1       5.981  -3.307  -3.010  0.00  0.00     0.031 H 
ATOM     26  H   LIG d   1       3.677  -3.465  -2.552  0.00  0.00     0.027 H 
ATOM     27  H   LIG d   1       3.236  -2.376  -3.910  0.00  0.00     0.027 H 
ATOM     28  H   LIG d   1       4.215  -1.671  -1.126  0.00  0.00     0.032 H 
ATOM     29  H   LIG d   1       3.064  -0.788  -2.174  0.00  0.00     0.032 H 
ENDROOT
BRANCH   7  30
ATOM     30  O   LIG d   1       7.625  -2.617  -5.250  0.00  0.00    -0.482 OA
BRANCH  30  31
ATOM     31  C   LIG d   1       8.062  -3.112  -6.518  0.00  0.00     0.165 C 
ATOM     32  H   LIG d   1       8.576  -2.318  -7.060  0.00  0.00     0.080 H 
ATOM     33  H   LIG d   1       8.743  -3.949  -6.366  0.00  0.00     0.080 H 
BRANCH  31  34
ATOM     34  C   LIG d   1       6.869  -3.573  -7.315  0.00  0.00     0.251 C 
ATOM     35  O   LIG d   1       7.030  -4.129  -8.380  0.00  0.00    -0.272 OA
ATOM     36  N   LIG d   1       5.623  -3.367  -6.844  0.00  0.00    -0.307 N 
ATOM     37  H   LIG d   1       5.494  -2.922  -5.992  0.00  0.00     0.149 HD
BRANCH  36  38
ATOM     38  C   LIG d   1       4.463  -3.815  -7.619  0.00  0.00     0.051 C 
ATOM     39  H   LIG d   1       3.711  -3.026  -7.635  0.00  0.00     0.052 H 
ATOM     40  H   LIG d   1       4.774  -4.041  -8.639  0.00  0.00     0.052 H 
BRANCH  38  41
ATOM     41  C   LIG d   1       3.882  -5.051  -6.984  0.00  0.00     0.059 C 
ATOM     42  O   LIG d   1       3.731  -5.102  -5.787  0.00  0.00    -0.548 OA
ATOM     43  O   LIG d   1       3.532  -6.097  -7.750  0.00  0.00    -0.548 OA
ENDBRANCH  38  41
ENDBRANCH  36  38
ENDBRANCH  31  34
ENDBRANCH  30  31
ENDBRANCH   7  30
BRANCH   1  44
ATOM     44  C   LIG d   1       9.335   3.197  -6.876  0.00  0.00    -0.025 C 
ATOM     45  H   LIG d   1       8.484   2.517  -6.907  0.00  0.00     0.027 H 
ATOM     46  H   LIG d   1       9.004   4.180  -6.542  0.00  0.00     0.027 H 
ATOM     47  H   LIG d   1       9.771   3.280  -7.872  0.00  0.00     0.027 H 
ENDBRANCH   1  44
BRANCH   1  48
ATOM     48  C   LIG d   1      11.781   3.091  -6.356  0.00  0.00    -0.025 C 
ATOM     49  H   LIG d   1      11.955   2.751  -7.377  0.00  0.00     0.027 H 
ATOM     50  H   LIG d   1      11.852   4.178  -6.318  0.00  0.00     0.027 H 
ATOM     51  H   LIG d   1      12.530   2.654  -5.696  0.00  0.00     0.027 H 
ENDBRANCH   1  48
TORSDOF 7
ENDMDL
MODEL 8
REMARK VINA RESULT:      -6.1      3.242      5.001
REMARK  7 active torsions:
REMARK  status: ('A' for Active; 'I' for Inactive)
REMARK    1  A    between atoms: C_1  and  C_2 
REMARK    2  A    between atoms: C_2  and  C_28 
REMARK    3  A    between atoms: C_8  and  O_19 
REMARK    4  A    between atoms: O_19  and  C_20 
REMARK    5  A    between atoms: C_20  and  C_21 
REMARK       I    between atoms: C_21  and  N_23 
REMARK    6  A    between atoms: N_23  and  C_24 
REMARK    7  A    between atoms: C_24  and  C_25 
ROOT
ATOM      1  C   LIG d   1       4.000  -2.574  -9.876  0.00  0.00     0.105 C 
ATOM      2  C   LIG d   1       3.676  -1.079  -9.994  0.00  0.00    -0.009 C 
ATOM      3  C   LIG d   1       3.120  -0.601  -8.650  0.00  0.00    -0.017 C 
ATOM      4  C   LIG d   1       4.012  -1.080  -7.532  0.00  0.00     0.038 A 
ATOM      5  C   LIG d   1       4.914  -2.113  -7.719  0.00  0.00     0.131 A 
ATOM      6  C   LIG d   1       5.720  -2.543  -6.664  0.00  0.00     0.023 A 
ATOM      7  C   LIG d   1       5.628  -1.948  -5.423  0.00  0.00     0.136 A 
ATOM      8  C   LIG d   1       4.716  -0.897  -5.225  0.00  0.00     0.063 A 
ATOM      9  C   LIG d   1       3.910  -0.465  -6.292  0.00  0.00     0.149 A 
ATOM     10  O   LIG d   1       3.035   0.549  -6.105  0.00  0.00    -0.421 OA
ATOM     11  C   LIG d   1       2.921   1.150  -4.909  0.00  0.00     0.341 A 
ATOM     12  O   LIG d   1       2.125   2.060  -4.771  0.00  0.00    -0.245 OA
ATOM     13  C   LIG d   1       3.708   0.745  -3.808  0.00  0.00     0.041 A 
ATOM     14  C   LIG d   1       4.600  -0.268  -3.958  0.00  0.00    -0.023 A 
ATOM     15  C   LIG d   1       5.323  -0.526  -2.655  0.00  0.00    -0.026 C 
ATOM     16  C   LIG d   1       4.462   0.164  -1.574  0.00  0.00    -0.045 C 
ATOM     17  C   LIG d   1       3.749   1.266  -2.387  0.00  0.00    -0.020 C 
ATOM     18  O   LIG d   1       5.049  -2.733  -8.920  0.00  0.00    -0.486 OA
ATOM     19  H   LIG d   1       4.582  -0.524 -10.235  0.00  0.00     0.031 H 
ATOM     20  H   LIG d   1       2.932  -0.925 -10.775  0.00  0.00     0.031 H 
ATOM     21  H   LIG d   1       3.079   0.487  -8.642  0.00  0.00     0.032 H 
ATOM     22  H   LIG d   1       2.117  -1.003  -8.510  0.00  0.00     0.032 H 
ATOM     23  H   LIG d   1       6.420  -3.349  -6.820  0.00  0.00     0.069 H 
ATOM     24  H   LIG d   1       5.385  -1.597  -2.462  0.00  0.00     0.031 H 
ATOM     25  H   LIG d   1       6.320  -0.086  -2.682  0.00  0.00     0.031 H 
ATOM     26  H   LIG d   1       5.088   0.598  -0.796  0.00  0.00     0.027 H 
ATOM     27  H   LIG d   1       3.740  -0.534  -1.148  0.00  0.00     0.027 H 
ATOM     28  H   LIG d   1       4.315   2.196  -2.342  0.00  0.00     0.032 H 
ATOM     29  H   LIG d   1       2.737   1.419  -2.012  0.00  0.00     0.032 H 
ENDROOT
BRANCH   7  30
ATOM     30  O   LIG d   1       6.413  -2.374  -4.401  0.00  0.00    -0.482 OA
BRANCH  30  31
ATOM     31  C   LIG d   1       7.719  -2.846  -4.739  0.00  0.00     0.165 C 
ATOM     32  H   LIG d   1       8.101  -3.470  -3.930  0.00  0.00     0.080 H 
ATOM     33  H   LIG d   1       7.668  -3.432  -5.656  0.00  0.00     0.080 H 
BRANCH  31  34
ATOM     34  C   LIG d   1       8.640  -1.671  -4.944  0.00  0.00     0.251 C 
ATOM     35  O   LIG d   1       9.712  -1.829  -5.488  0.00  0.00    -0.272 OA
ATOM     36  N   LIG d   1       8.272  -0.445  -4.523  0.00  0.00    -0.307 N 
ATOM     37  H   LIG d   1       7.415  -0.318  -4.088  0.00  0.00     0.149 HD
BRANCH  36  38
ATOM     38  C   LIG d   1       9.168   0.698  -4.722  0.00  0.00     0.051 C 
ATOM     39  H   LIG d   1       9.610   0.984  -3.767  0.00  0.00     0.052 H 
ATOM     40  H   LIG d   1       9.958   0.422  -5.420  0.00  0.00     0.052 H 
BRANCH  38  41
ATOM     41  C   LIG d   1       8.386   1.858  -5.281  0.00  0.00     0.059 C 
ATOM     42  O   LIG d   1       8.561   2.971  -4.846  0.00  0.00    -0.548 OA
ATOM     43  O   LIG d   1       7.493   1.654  -6.264  0.00  0.00    -0.548 OA
ENDBRANCH  38  41
ENDBRANCH  36  38
ENDBRANCH  31  34
ENDBRANCH  30  31
ENDBRANCH   7  30
BRANCH   1  44
ATOM     44  C   LIG d   1       2.758  -3.336  -9.409  0.00  0.00    -0.025 C 
ATOM     45  H   LIG d   1       1.899  -3.033 -10.009  0.00  0.00     0.027 H 
ATOM     46  H   LIG d   1       2.923  -4.407  -9.526  0.00  0.00     0.027 H 
ATOM     47  H   LIG d   1       2.567  -3.110  -8.360  0.00  0.00     0.027 H 
ENDBRANCH   1  44
BRANCH   1  48
ATOM     48  C   LIG d   1       4.455  -3.111 -11.235  0.00  0.00    -0.025 C 
ATOM     49  H   LIG d   1       5.433  -2.697 -11.479  0.00  0.00     0.027 H 
ATOM     50  H   LIG d   1       4.521  -4.198 -11.192  0.00  0.00     0.027 H 
ATOM     51  H   LIG d   1       3.736  -2.820 -12.000  0.00  0.00     0.027 H 
ENDBRANCH   1  48
TORSDOF 7
ENDMDL
MODEL 9
REMARK VINA RESULT:      -6.0      5.397      8.729
REMARK  7 active torsions:
REMARK  status: ('A' for Active; 'I' for Inactive)
REMARK    1  A    between atoms: C_1  and  C_2 
REMARK    2  A    between atoms: C_2  and  C_28 
REMARK    3  A    between atoms: C_8  and  O_19 
REMARK    4  A    between atoms: O_19  and  C_20 
REMARK    5  A    between atoms: C_20  and  C_21 
REMARK       I    between atoms: C_21  and  N_23 
REMARK    6  A    between atoms: N_23  and  C_24 
REMARK    7  A    between atoms: C_24  and  C_25 
ROOT
ATOM      1  C   LIG d   1       9.803  -4.448  -6.079  0.00  0.00     0.105 C 
ATOM      2  C   LIG d   1       8.395  -4.988  -6.359  0.00  0.00    -0.009 C 
ATOM      3  C   LIG d   1       7.467  -4.510  -5.240  0.00  0.00    -0.017 C 
ATOM      4  C   LIG d   1       7.663  -3.032  -5.013  0.00  0.00     0.038 A 
ATOM      5  C   LIG d   1       8.791  -2.374  -5.473  0.00  0.00     0.131 A 
ATOM      6  C   LIG d   1       8.951  -1.007  -5.239  0.00  0.00     0.023 A 
ATOM      7  C   LIG d   1       7.993  -0.295  -4.548  0.00  0.00     0.136 A 
ATOM      8  C   LIG d   1       6.843  -0.955  -4.080  0.00  0.00     0.063 A 
ATOM      9  C   LIG d   1       6.684  -2.331  -4.321  0.00  0.00     0.149 A 
ATOM     10  O   LIG d   1       5.578  -2.967  -3.875  0.00  0.00    -0.421 OA
ATOM     11  C   LIG d   1       4.626  -2.304  -3.199  0.00  0.00     0.341 A 
ATOM     12  O   LIG d   1       3.641  -2.904  -2.810  0.00  0.00    -0.245 OA
ATOM     13  C   LIG d   1       4.747  -0.922  -2.930  0.00  0.00     0.041 A 
ATOM     14  C   LIG d   1       5.843  -0.248  -3.364  0.00  0.00    -0.023 A 
ATOM     15  C   LIG d   1       5.755   1.207  -2.963  0.00  0.00    -0.026 C 
ATOM     16  C   LIG d   1       4.678   1.255  -1.858  0.00  0.00    -0.045 C 
ATOM     17  C   LIG d   1       3.816   0.019  -2.196  0.00  0.00    -0.020 C 
ATOM     18  O   LIG d   1       9.764  -3.023  -6.161  0.00  0.00    -0.486 OA
ATOM     19  H   LIG d   1       8.040  -4.609  -7.318  0.00  0.00     0.031 H 
ATOM     20  H   LIG d   1       8.416  -6.077  -6.380  0.00  0.00     0.031 H 
ATOM     21  H   LIG d   1       6.432  -4.700  -5.521  0.00  0.00     0.032 H 
ATOM     22  H   LIG d   1       7.699  -5.050  -4.322  0.00  0.00     0.032 H 
ATOM     23  H   LIG d   1       9.834  -0.502  -5.602  0.00  0.00     0.069 H 
ATOM     24  H   LIG d   1       6.713   1.551  -2.572  0.00  0.00     0.031 H 
ATOM     25  H   LIG d   1       5.451   1.817  -3.814  0.00  0.00     0.031 H 
ATOM     26  H   LIG d   1       4.090   2.170  -1.927  0.00  0.00     0.027 H 
ATOM     27  H   LIG d   1       5.129   1.156  -0.870  0.00  0.00     0.027 H 
ATOM     28  H   LIG d   1       2.982   0.303  -2.838  0.00  0.00     0.032 H 
ATOM     29  H   LIG d   1       3.450  -0.449  -1.282  0.00  0.00     0.032 H 
ENDROOT
BRANCH   7  30
ATOM     30  O   LIG d   1       8.157   1.033  -4.323  0.00  0.00    -0.482 OA
BRANCH  30  31
ATOM     31  C   LIG d   1       9.499   1.505  -4.177  0.00  0.00     0.165 C 
ATOM     32  H   LIG d   1       9.996   0.947  -3.383  0.00  0.00     0.080 H 
ATOM     33  H   LIG d   1      10.038   1.362  -5.113  0.00  0.00     0.080 H 
BRANCH  31  34
ATOM     34  C   LIG d   1       9.481   2.970  -3.826  0.00  0.00     0.251 C 
ATOM     35  O   LIG d   1       8.939   3.764  -4.566  0.00  0.00    -0.272 OA
ATOM     36  N   LIG d   1      10.066   3.398  -2.690  0.00  0.00    -0.307 N 
ATOM     37  H   LIG d   1      10.500   2.763  -2.099  0.00  0.00     0.149 HD
BRANCH  36  38
ATOM     38  C   LIG d   1      10.049   4.823  -2.349  0.00  0.00     0.051 C 
ATOM     39  H   LIG d   1       9.457   5.366  -3.086  0.00  0.00     0.052 H 
ATOM     40  H   LIG d   1       9.609   4.954  -1.361  0.00  0.00     0.052 H 
BRANCH  38  41
ATOM     41  C   LIG d   1      11.459   5.355  -2.345  0.00  0.00     0.059 C 
ATOM     42  O   LIG d   1      12.392   4.595  -2.450  0.00  0.00    -0.548 OA
ATOM     43  O   LIG d   1      11.677   6.675  -2.226  0.00  0.00    -0.548 OA
ENDBRANCH  38  41
ENDBRANCH  36  38
ENDBRANCH  31  34
ENDBRANCH  30  31
ENDBRANCH   7  30
BRANCH   1  44
ATOM     44  C   LIG d   1      10.249  -4.872  -4.678  0.00  0.00    -0.025 C 
ATOM     45  H   LIG d   1      11.325  -4.731  -4.581  0.00  0.00     0.027 H 
ATOM     46  H   LIG d   1       9.734  -4.265  -3.934  0.00  0.00     0.027 H 
ATOM     47  H   LIG d   1      10.004  -5.923  -4.522  0.00  0.00     0.027 H 
ENDBRANCH   1  44
BRANCH   1  48
ATOM     48  C   LIG d   1      10.782  -4.998  -7.120  0.00  0.00    -0.025 C 
ATOM     49  H   LIG d   1      10.240  -5.618  -7.834  0.00  0.00     0.027 H 
ATOM     50  H   LIG d   1      11.256  -4.169  -7.646  0.00  0.00     0.027 H 
ATOM     51  H   LIG d   1      11.543  -5.597  -6.622  0.00  0.00     0.027 H 
ENDBRANCH   1  48
TORSDOF 7
ENDMDL
