MODEL 1
REMARK VINA RESULT:      -7.1      0.000      0.000
REMARK  12 active torsions:
REMARK  status: ('A' for Active; 'I' for Inactive)
REMARK    1  A    between atoms: C_1  and  C_2 
REMARK    2  A    between atoms: C_3  and  C_29 
REMARK    3  A    between atoms: C_4  and  O_28 
REMARK    4  A    between atoms: C_5  and  C_10 
REMARK    5  A    between atoms: C_6  and  O_9 
REMARK    6  A    between atoms: C_10  and  C_11 
REMARK    7  A    between atoms: C_12  and  C_13 
REMARK    8  A    between atoms: C_12  and  C_14 
REMARK    9  A    between atoms: C_15  and  C_16 
REMARK   10  A    between atoms: C_16  and  C_27 
REMARK   11  A    between atoms: C_17  and  C_26 
REMARK   12  A    between atoms: C_23  and  C_25 
ROOT
ATOM      1  C   LIG d   1       9.275   2.506  -3.455  0.00  0.00    -0.077 C 
ATOM      2  C   LIG d   1       9.076   1.526  -4.328  0.00  0.00    -0.054 C 
ATOM      3  H   LIG d   1       8.465   2.841  -2.824  0.00  0.00     0.058 H 
ENDROOT
BRANCH   2   4
ATOM      4  C   LIG d   1      10.236   0.961  -5.107  0.00  0.00    -0.040 C 
ATOM      5  H   LIG d   1      11.169   1.352  -4.703  0.00  0.00     0.028 H 
ATOM      6  H   LIG d   1      10.233  -0.126  -5.027  0.00  0.00     0.028 H 
ATOM      7  H   LIG d   1      10.145   1.249  -6.154  0.00  0.00     0.028 H 
ENDBRANCH   2   4
BRANCH   2   8
ATOM      8  C   LIG d   1       7.721   0.990  -4.536  0.00  0.00    -0.062 C 
ATOM      9  C   LIG d   1       7.074   0.410  -3.529  0.00  0.00    -0.077 C 
ATOM     10  H   LIG d   1       7.506   0.412  -2.539  0.00  0.00     0.058 H 
ATOM     11  H   LIG d   1       7.252   1.068  -5.505  0.00  0.00     0.062 H 
BRANCH   9  12
ATOM     12  C   LIG d   1       5.741  -0.249  -3.771  0.00  0.00     0.002 C 
ATOM     13  C   LIG d   1       4.614   0.694  -3.327  0.00  0.00     0.028 C 
ATOM     14  C   LIG d   1       3.301   0.002  -3.633  0.00  0.00     0.159 C 
ATOM     15  H   LIG d   1       4.684   1.557  -3.827  0.00  0.00     0.039 H 
ATOM     16  C   LIG d   1       3.199  -1.430  -3.336  0.00  0.00    -0.023 C 
ATOM     17  O   LIG d   1       2.367   0.613  -4.109  0.00  0.00    -0.292 OA
ATOM     18  C   LIG d   1       4.282  -2.136  -3.031  0.00  0.00    -0.077 C 
ATOM     19  H   LIG d   1       2.234  -1.915  -3.365  0.00  0.00     0.065 H 
ATOM     20  C   LIG d   1       5.656  -1.541  -2.960  0.00  0.00    -0.016 C 
ATOM     21  H   LIG d   1       4.166  -3.190  -2.826  0.00  0.00     0.058 H 
ATOM     22  H   LIG d   1       5.899  -1.328  -1.919  0.00  0.00     0.035 H 
BRANCH  13  23
ATOM     23  C   LIG d   1       4.723   0.966  -1.825  0.00  0.00    -0.055 C 
ATOM     24  H   LIG d   1       4.246   1.918  -1.592  0.00  0.00     0.024 H 
ATOM     25  H   LIG d   1       4.227   0.167  -1.274  0.00  0.00     0.024 H 
ATOM     26  H   LIG d   1       5.774   1.008  -1.539  0.00  0.00     0.024 H 
ENDBRANCH  13  23
BRANCH  20  27
ATOM     27  C   LIG d   1       6.668  -2.548  -3.514  0.00  0.00    -0.058 C 
ATOM     28  H   LIG d   1       6.204  -3.532  -3.576  0.00  0.00     0.024 H 
ATOM     29  H   LIG d   1       6.986  -2.233  -4.508  0.00  0.00     0.024 H 
ATOM     30  H   LIG d   1       7.534  -2.594  -2.854  0.00  0.00     0.024 H 
ENDBRANCH  20  27
BRANCH  12  31
ATOM     31  C   LIG d   1       5.589  -0.565  -5.260  0.00  0.00    -0.055 C 
ATOM     32  H   LIG d   1       5.395   0.356  -5.809  0.00  0.00     0.024 H 
ATOM     33  H   LIG d   1       6.507  -1.023  -5.630  0.00  0.00     0.024 H 
ATOM     34  H   LIG d   1       4.757  -1.254  -5.401  0.00  0.00     0.024 H 
ENDBRANCH  12  31
ENDBRANCH   9  12
ENDBRANCH   2   8
BRANCH   1  35
ATOM     35  C   LIG d   1      10.633   3.152  -3.345  0.00  0.00    -0.002 C 
ATOM     36  H   LIG d   1      11.173   3.024  -4.283  0.00  0.00     0.036 H 
ATOM     37  H   LIG d   1      11.194   2.684  -2.536  0.00  0.00     0.036 H 
BRANCH  35  38
ATOM     38  C   LIG d   1      10.467   4.623  -3.057  0.00  0.00     0.041 A 
ATOM     39  C   LIG d   1      10.743   5.116  -1.793  0.00  0.00     0.134 A 
ATOM     40  C   LIG d   1      10.579   6.488  -1.532  0.00  0.00     0.060 A 
ATOM     41  C   LIG d   1      10.143   7.342  -2.555  0.00  0.00    -0.015 A 
ATOM     42  C   LIG d   1       9.882   6.842  -3.798  0.00  0.00     0.086 A 
ATOM     43  C   LIG d   1      10.043   5.483  -4.059  0.00  0.00     0.142 A 
ATOM     44 CL   LIG d   1       9.344   7.905  -5.060  0.00  0.00    -0.080 Cl
BRANCH  39  45
ATOM     45  O   LIG d   1      11.163   4.280  -0.811  0.00  0.00    -0.506 OA
ATOM     46  H   LIG d   1      11.352   3.382  -1.114  0.00  0.00     0.292 HD
ENDBRANCH  39  45
BRANCH  40  47
ATOM     47  C   LIG d   1      10.862   7.022  -0.197  0.00  0.00     0.154 C 
ATOM     48  O   LIG d   1      10.492   6.419   0.789  0.00  0.00    -0.296 OA
ATOM     49  H   LIG d   1      11.400   7.953  -0.091  0.00  0.00     0.108 H 
ENDBRANCH  40  47
BRANCH  41  50
ATOM     50  C   LIG d   1       9.966   8.814  -2.282  0.00  0.00    -0.037 C 
ATOM     51  H   LIG d   1       9.386   9.264  -3.088  0.00  0.00     0.028 H 
ATOM     52  H   LIG d   1       9.441   8.948  -1.337  0.00  0.00     0.028 H 
ATOM     53  H   LIG d   1      10.943   9.293  -2.226  0.00  0.00     0.028 H 
ENDBRANCH  41  50
BRANCH  43  54
ATOM     54  O   LIG d   1       9.779   4.998  -5.298  0.00  0.00    -0.505 OA
ATOM     55  H   LIG d   1       9.919   4.045  -5.387  0.00  0.00     0.292 HD
ENDBRANCH  43  54
ENDBRANCH  35  38
ENDBRANCH   1  35
TORSDOF 12
ENDMDL
MODEL 2
REMARK VINA RESULT:      -6.9      1.717      2.417
REMARK  12 active torsions:
REMARK  status: ('A' for Active; 'I' for Inactive)
REMARK    1  A    between atoms: C_1  and  C_2 
REMARK    2  A    between atoms: C_3  and  C_29 
REMARK    3  A    between atoms: C_4  and  O_28 
REMARK    4  A    between atoms: C_5  and  C_10 
REMARK    5  A    between atoms: C_6  and  O_9 
REMARK    6  A    between atoms: C_10  and  C_11 
REMARK    7  A    between atoms: C_12  and  C_13 
REMARK    8  A    between atoms: C_12  and  C_14 
REMARK    9  A    between atoms: C_15  and  C_16 
REMARK   10  A    between atoms: C_16  and  C_27 
REMARK   11  A    between atoms: C_17  and  C_26 
REMARK   12  A    between atoms: C_23  and  C_25 
ROOT
ATOM      1  C   LIG d   1       9.006   3.544  -4.276  0.00  0.00    -0.077 C 
ATOM      2  C   LIG d   1       8.933   2.220  -4.350  0.00  0.00    -0.054 C 
ATOM      3  H   LIG d   1       8.103   4.133  -4.222  0.00  0.00     0.058 H 
ENDROOT
BRANCH   2   4
ATOM      4  C   LIG d   1      10.190   1.390  -4.282  0.00  0.00    -0.040 C 
ATOM      5  H   LIG d   1      10.405   1.141  -3.244  0.00  0.00     0.028 H 
ATOM      6  H   LIG d   1      10.051   0.473  -4.854  0.00  0.00     0.028 H 
ATOM      7  H   LIG d   1      11.022   1.957  -4.701  0.00  0.00     0.028 H 
ENDBRANCH   2   4
BRANCH   2   8
ATOM      8  C   LIG d   1       7.625   1.563  -4.497  0.00  0.00    -0.062 C 
ATOM      9  C   LIG d   1       7.227   0.666  -3.601  0.00  0.00    -0.077 C 
ATOM     10  H   LIG d   1       7.823   0.485  -2.718  0.00  0.00     0.058 H 
ATOM     11  H   LIG d   1       6.988   1.810  -5.333  0.00  0.00     0.062 H 
BRANCH   9  12
ATOM     12  C   LIG d   1       5.947  -0.098  -3.817  0.00  0.00     0.002 C 
ATOM     13  C   LIG d   1       4.757   0.750  -3.345  0.00  0.00     0.028 C 
ATOM     14  C   LIG d   1       3.498  -0.045  -3.625  0.00  0.00     0.159 C 
ATOM     15  H   LIG d   1       4.747   1.617  -3.842  0.00  0.00     0.039 H 
ATOM     16  C   LIG d   1       3.518  -1.482  -3.334  0.00  0.00    -0.023 C 
ATOM     17  O   LIG d   1       2.507   0.490  -4.078  0.00  0.00    -0.292 OA
ATOM     18  C   LIG d   1       4.660  -2.100  -3.056  0.00  0.00    -0.077 C 
ATOM     19  H   LIG d   1       2.595  -2.043  -3.344  0.00  0.00     0.065 H 
ATOM     20  C   LIG d   1       5.984  -1.396  -3.011  0.00  0.00    -0.016 C 
ATOM     21  H   LIG d   1       4.635  -3.160  -2.853  0.00  0.00     0.058 H 
ATOM     22  H   LIG d   1       6.232  -1.167  -1.975  0.00  0.00     0.035 H 
BRANCH  13  23
ATOM     23  C   LIG d   1       4.876   1.025  -1.844  0.00  0.00    -0.055 C 
ATOM     24  H   LIG d   1       4.683   2.080  -1.651  0.00  0.00     0.024 H 
ATOM     25  H   LIG d   1       4.150   0.417  -1.304  0.00  0.00     0.024 H 
ATOM     26  H   LIG d   1       5.882   0.773  -1.508  0.00  0.00     0.024 H 
ENDBRANCH  13  23
BRANCH  20  27
ATOM     27  C   LIG d   1       7.060  -2.315  -3.592  0.00  0.00    -0.058 C 
ATOM     28  H   LIG d   1       7.547  -2.861  -2.784  0.00  0.00     0.024 H 
ATOM     29  H   LIG d   1       6.600  -3.023  -4.282  0.00  0.00     0.024 H 
ATOM     30  H   LIG d   1       7.800  -1.718  -4.126  0.00  0.00     0.024 H 
ENDBRANCH  20  27
BRANCH  12  31
ATOM     31  C   LIG d   1       5.787  -0.420  -5.304  0.00  0.00    -0.055 C 
ATOM     32  H   LIG d   1       5.703  -1.499  -5.435  0.00  0.00     0.024 H 
ATOM     33  H   LIG d   1       4.889   0.064  -5.686  0.00  0.00     0.024 H 
ATOM     34  H   LIG d   1       6.657  -0.055  -5.849  0.00  0.00     0.024 H 
ENDBRANCH  12  31
ENDBRANCH   9  12
ENDBRANCH   2   8
BRANCH   1  35
ATOM     35  C   LIG d   1      10.352   4.225  -4.270  0.00  0.00    -0.002 C 
ATOM     36  H   LIG d   1      10.523   4.701  -5.235  0.00  0.00     0.036 H 
ATOM     37  H   LIG d   1      11.131   3.486  -4.085  0.00  0.00     0.036 H 
BRANCH  35  38
ATOM     38  C   LIG d   1      10.380   5.269  -3.182  0.00  0.00     0.041 A 
ATOM     39  C   LIG d   1      10.064   6.584  -3.477  0.00  0.00     0.134 A 
ATOM     40  C   LIG d   1      10.100   7.552  -2.457  0.00  0.00     0.060 A 
ATOM     41  C   LIG d   1      10.450   7.174  -1.154  0.00  0.00    -0.015 A 
ATOM     42  C   LIG d   1      10.753   5.873  -0.877  0.00  0.00     0.086 A 
ATOM     43  C   LIG d   1      10.719   4.912  -1.886  0.00  0.00     0.142 A 
ATOM     44 CL   LIG d   1      11.184   5.412   0.739  0.00  0.00    -0.080 Cl
BRANCH  39  45
ATOM     45  O   LIG d   1       9.727   6.938  -4.742  0.00  0.00    -0.506 OA
ATOM     46  H   LIG d   1      10.163   6.413  -5.427  0.00  0.00     0.292 HD
ENDBRANCH  39  45
BRANCH  40  47
ATOM     47  C   LIG d   1       9.773   8.949  -2.757  0.00  0.00     0.154 C 
ATOM     48  O   LIG d   1      10.400   9.551  -3.604  0.00  0.00    -0.296 OA
ATOM     49  H   LIG d   1       8.973   9.442  -2.225  0.00  0.00     0.108 H 
ENDBRANCH  40  47
BRANCH  41  50
ATOM     50  C   LIG d   1      10.490   8.207  -0.056  0.00  0.00    -0.037 C 
ATOM     51  H   LIG d   1       9.562   8.165   0.515  0.00  0.00     0.028 H 
ATOM     52  H   LIG d   1      11.333   8.004   0.604  0.00  0.00     0.028 H 
ATOM     53  H   LIG d   1      10.602   9.198  -0.495  0.00  0.00     0.028 H 
ENDBRANCH  41  50
BRANCH  43  54
ATOM     54  O   LIG d   1      11.022   3.621  -1.599  0.00  0.00    -0.505 OA
ATOM     55  H   LIG d   1      11.706   3.241  -2.167  0.00  0.00     0.292 HD
ENDBRANCH  43  54
ENDBRANCH  35  38
ENDBRANCH   1  35
TORSDOF 12
ENDMDL
MODEL 3
REMARK VINA RESULT:      -6.8      6.514     11.748
REMARK  12 active torsions:
REMARK  status: ('A' for Active; 'I' for Inactive)
REMARK    1  A    between atoms: C_1  and  C_2 
REMARK    2  A    between atoms: C_3  and  C_29 
REMARK    3  A    between atoms: C_4  and  O_28 
REMARK    4  A    between atoms: C_5  and  C_10 
REMARK    5  A    between atoms: C_6  and  O_9 
REMARK    6  A    between atoms: C_10  and  C_11 
REMARK    7  A    between atoms: C_12  and  C_13 
REMARK    8  A    between atoms: C_12  and  C_14 
REMARK    9  A    between atoms: C_15  and  C_16 
REMARK   10  A    between atoms: C_16  and  C_27 
REMARK   11  A    between atoms: C_17  and  C_26 
REMARK   12  A    between atoms: C_23  and  C_25 
ROOT
ATOM      1  C   LIG d   1       6.516  -5.989  -5.661  0.00  0.00    -0.077 C 
ATOM      2  C   LIG d   1       5.532  -5.180  -6.040  0.00  0.00    -0.054 C 
ATOM      3  H   LIG d   1       7.305  -5.618  -5.024  0.00  0.00     0.058 H 
ENDROOT
BRANCH   2   4
ATOM      4  C   LIG d   1       4.358  -5.729  -6.809  0.00  0.00    -0.040 C 
ATOM      5  H   LIG d   1       4.666  -5.953  -7.830  0.00  0.00     0.028 H 
ATOM      6  H   LIG d   1       4.004  -6.641  -6.329  0.00  0.00     0.028 H 
ATOM      7  H   LIG d   1       3.557  -4.991  -6.824  0.00  0.00     0.028 H 
ENDBRANCH   2   4
BRANCH   2   8
ATOM      8  C   LIG d   1       5.589  -3.747  -5.708  0.00  0.00    -0.062 C 
ATOM      9  C   LIG d   1       5.333  -3.342  -4.468  0.00  0.00    -0.077 C 
ATOM     10  H   LIG d   1       5.172  -4.069  -3.685  0.00  0.00     0.058 H 
ATOM     11  H   LIG d   1       5.839  -3.026  -6.471  0.00  0.00     0.062 H 
BRANCH   9  12
ATOM     12  C   LIG d   1       5.268  -1.870  -4.156  0.00  0.00     0.002 C 
ATOM     13  C   LIG d   1       6.617  -1.215  -4.482  0.00  0.00     0.028 C 
ATOM     14  C   LIG d   1       6.481   0.266  -4.193  0.00  0.00     0.159 C 
ATOM     15  H   LIG d   1       6.838  -1.369  -5.445  0.00  0.00     0.039 H 
ATOM     16  C   LIG d   1       5.766   0.661  -2.975  0.00  0.00    -0.023 C 
ATOM     17  O   LIG d   1       6.946   1.097  -4.945  0.00  0.00    -0.292 OA
ATOM     18  C   LIG d   1       5.070  -0.231  -2.280  0.00  0.00    -0.077 C 
ATOM     19  H   LIG d   1       5.807   1.687  -2.639  0.00  0.00     0.065 H 
ATOM     20  C   LIG d   1       4.967  -1.676  -2.670  0.00  0.00    -0.016 C 
ATOM     21  H   LIG d   1       4.551   0.100  -1.393  0.00  0.00     0.058 H 
ATOM     22  H   LIG d   1       5.679  -2.255  -2.082  0.00  0.00     0.035 H 
BRANCH  13  23
ATOM     23  C   LIG d   1       7.715  -1.819  -3.605  0.00  0.00    -0.055 C 
ATOM     24  H   LIG d   1       8.314  -1.019  -3.169  0.00  0.00     0.024 H 
ATOM     25  H   LIG d   1       7.261  -2.408  -2.808  0.00  0.00     0.024 H 
ATOM     26  H   LIG d   1       8.354  -2.460  -4.212  0.00  0.00     0.024 H 
ENDBRANCH  13  23
BRANCH  20  27
ATOM     27  C   LIG d   1       3.551  -2.175  -2.376  0.00  0.00    -0.058 C 
ATOM     28  H   LIG d   1       2.896  -1.924  -3.210  0.00  0.00     0.024 H 
ATOM     29  H   LIG d   1       3.567  -3.257  -2.241  0.00  0.00     0.024 H 
ATOM     30  H   LIG d   1       3.180  -1.703  -1.466  0.00  0.00     0.024 H 
ENDBRANCH  20  27
BRANCH  12  31
ATOM     31  C   LIG d   1       4.165  -1.217  -4.993  0.00  0.00    -0.055 C 
ATOM     32  H   LIG d   1       3.191  -1.513  -4.605  0.00  0.00     0.024 H 
ATOM     33  H   LIG d   1       4.263  -0.133  -4.940  0.00  0.00     0.024 H 
ATOM     34  H   LIG d   1       4.258  -1.540  -6.029  0.00  0.00     0.024 H 
ENDBRANCH  12  31
ENDBRANCH   9  12
ENDBRANCH   2   8
BRANCH   1  35
ATOM     35  C   LIG d   1       6.530  -7.424  -6.122  0.00  0.00    -0.002 C 
ATOM     36  H   LIG d   1       7.476  -7.636  -6.619  0.00  0.00     0.036 H 
ATOM     37  H   LIG d   1       5.708  -7.590  -6.818  0.00  0.00     0.036 H 
BRANCH  35  38
ATOM     38  C   LIG d   1       6.372  -8.335  -4.931  0.00  0.00     0.041 A 
ATOM     39  C   LIG d   1       5.163  -8.968  -4.700  0.00  0.00     0.134 A 
ATOM     40  C   LIG d   1       5.023  -9.811  -3.583  0.00  0.00     0.060 A 
ATOM     41  C   LIG d   1       6.110 -10.004  -2.719  0.00  0.00    -0.015 A 
ATOM     42  C   LIG d   1       7.297  -9.378  -2.963  0.00  0.00     0.086 A 
ATOM     43  C   LIG d   1       7.438  -8.542  -4.070  0.00  0.00     0.142 A 
ATOM     44 CL   LIG d   1       8.639  -9.623  -1.890  0.00  0.00    -0.080 Cl
BRANCH  39  45
ATOM     45  O   LIG d   1       4.118  -8.773  -5.542  0.00  0.00    -0.506 OA
ATOM     46  H   LIG d   1       4.274  -8.092  -6.211  0.00  0.00     0.292 HD
ENDBRANCH  39  45
BRANCH  40  47
ATOM     47  C   LIG d   1       3.746 -10.483  -3.323  0.00  0.00     0.154 C 
ATOM     48  O   LIG d   1       2.736  -9.829  -3.172  0.00  0.00    -0.296 OA
ATOM     49  H   LIG d   1       3.706 -11.561  -3.268  0.00  0.00     0.108 H 
ENDBRANCH  40  47
BRANCH  41  50
ATOM     50  C   LIG d   1       5.966 -10.907  -1.520  0.00  0.00    -0.037 C 
ATOM     51  H   LIG d   1       6.844 -10.803  -0.881  0.00  0.00     0.028 H 
ATOM     52  H   LIG d   1       5.074 -10.628  -0.959  0.00  0.00     0.028 H 
ATOM     53  H   LIG d   1       5.879 -11.941  -1.852  0.00  0.00     0.028 H 
ENDBRANCH  41  50
BRANCH  43  54
ATOM     54  O   LIG d   1       8.624  -7.925  -4.301  0.00  0.00    -0.505 OA
ATOM     55  H   LIG d   1       8.992  -7.475  -3.529  0.00  0.00     0.292 HD
ENDBRANCH  43  54
ENDBRANCH  35  38
ENDBRANCH   1  35
TORSDOF 12
ENDMDL
MODEL 4
REMARK VINA RESULT:      -6.5      2.225      3.750
REMARK  12 active torsions:
REMARK  status: ('A' for Active; 'I' for Inactive)
REMARK    1  A    between atoms: C_1  and  C_2 
REMARK    2  A    between atoms: C_3  and  C_29 
REMARK    3  A    between atoms: C_4  and  O_28 
REMARK    4  A    between atoms: C_5  and  C_10 
REMARK    5  A    between atoms: C_6  and  O_9 
REMARK    6  A    between atoms: C_10  and  C_11 
REMARK    7  A    between atoms: C_12  and  C_13 
REMARK    8  A    between atoms: C_12  and  C_14 
REMARK    9  A    between atoms: C_15  and  C_16 
REMARK   10  A    between atoms: C_16  and  C_27 
REMARK   11  A    between atoms: C_17  and  C_26 
REMARK   12  A    between atoms: C_23  and  C_25 
ROOT
ATOM      1  C   LIG d   1       8.657   3.656  -4.536  0.00  0.00    -0.077 C 
ATOM      2  C   LIG d   1       8.721   2.336  -4.397  0.00  0.00    -0.054 C 
ATOM      3  H   LIG d   1       7.701   4.139  -4.675  0.00  0.00     0.058 H 
ENDROOT
BRANCH   2   4
ATOM      4  C   LIG d   1      10.034   1.676  -4.061  0.00  0.00    -0.040 C 
ATOM      5  H   LIG d   1       9.853   0.651  -3.740  0.00  0.00     0.028 H 
ATOM      6  H   LIG d   1      10.675   1.673  -4.943  0.00  0.00     0.028 H 
ATOM      7  H   LIG d   1      10.522   2.228  -3.258  0.00  0.00     0.028 H 
ENDBRANCH   2   4
BRANCH   2   8
ATOM      8  C   LIG d   1       7.509   1.519  -4.570  0.00  0.00    -0.062 C 
ATOM      9  C   LIG d   1       6.959   0.916  -3.521  0.00  0.00    -0.077 C 
ATOM     10  H   LIG d   1       7.348   1.096  -2.529  0.00  0.00     0.058 H 
ATOM     11  H   LIG d   1       7.067   1.410  -5.548  0.00  0.00     0.062 H 
BRANCH   9  12
ATOM     12  C   LIG d   1       5.795  -0.021  -3.716  0.00  0.00     0.002 C 
ATOM     13  C   LIG d   1       4.501   0.666  -3.257  0.00  0.00     0.028 C 
ATOM     14  C   LIG d   1       3.363  -0.299  -3.516  0.00  0.00     0.159 C 
ATOM     15  H   LIG d   1       4.372   1.513  -3.773  0.00  0.00     0.039 H 
ATOM     16  C   LIG d   1       3.580  -1.713  -3.194  0.00  0.00    -0.023 C 
ATOM     17  O   LIG d   1       2.307   0.085  -3.977  0.00  0.00    -0.292 OA
ATOM     18  C   LIG d   1       4.796  -2.163  -2.908  0.00  0.00    -0.077 C 
ATOM     19  H   LIG d   1       2.742  -2.395  -3.189  0.00  0.00     0.065 H 
ATOM     20  C   LIG d   1       6.011  -1.284  -2.883  0.00  0.00    -0.016 C 
ATOM     21  H   LIG d   1       4.916  -3.212  -2.683  0.00  0.00     0.058 H 
ATOM     22  H   LIG d   1       6.226  -1.001  -1.853  0.00  0.00     0.035 H 
BRANCH  13  23
ATOM     23  C   LIG d   1       4.583   0.987  -1.763  0.00  0.00    -0.055 C 
ATOM     24  H   LIG d   1       4.824   0.080  -1.209  0.00  0.00     0.024 H 
ATOM     25  H   LIG d   1       5.359   1.734  -1.594  0.00  0.00     0.024 H 
ATOM     26  H   LIG d   1       3.624   1.376  -1.422  0.00  0.00     0.024 H 
ENDBRANCH  13  23
BRANCH  20  27
ATOM     27  C   LIG d   1       7.202  -2.060  -3.448  0.00  0.00    -0.058 C 
ATOM     28  H   LIG d   1       7.358  -2.965  -2.862  0.00  0.00     0.024 H 
ATOM     29  H   LIG d   1       7.003  -2.328  -4.486  0.00  0.00     0.024 H 
ATOM     30  H   LIG d   1       8.096  -1.438  -3.402  0.00  0.00     0.024 H 
ENDBRANCH  20  27
BRANCH  12  31
ATOM     31  C   LIG d   1       5.681  -0.394  -5.195  0.00  0.00    -0.055 C 
ATOM     32  H   LIG d   1       4.650  -0.665  -5.423  0.00  0.00     0.024 H 
ATOM     33  H   LIG d   1       5.977   0.458  -5.809  0.00  0.00     0.024 H 
ATOM     34  H   LIG d   1       6.335  -1.239  -5.408  0.00  0.00     0.024 H 
ENDBRANCH  12  31
ENDBRANCH   9  12
ENDBRANCH   2   8
BRANCH   1  35
ATOM     35  C   LIG d   1       9.919   4.479  -4.500  0.00  0.00    -0.002 C 
ATOM     36  H   LIG d   1      10.767   3.856  -4.786  0.00  0.00     0.036 H 
ATOM     37  H   LIG d   1      10.074   4.864  -3.492  0.00  0.00     0.036 H 
BRANCH  35  38
ATOM     38  C   LIG d   1       9.794   5.631  -5.464  0.00  0.00     0.041 A 
ATOM     39  C   LIG d   1       9.910   5.410  -6.826  0.00  0.00     0.134 A 
ATOM     40  C   LIG d   1       9.798   6.492  -7.718  0.00  0.00     0.060 A 
ATOM     41  C   LIG d   1       9.566   7.781  -7.219  0.00  0.00    -0.015 A 
ATOM     42  C   LIG d   1       9.449   7.983  -5.874  0.00  0.00     0.086 A 
ATOM     43  C   LIG d   1       9.560   6.912  -4.989  0.00  0.00     0.142 A 
ATOM     44 CL   LIG d   1       9.161   9.581  -5.263  0.00  0.00    -0.080 Cl
BRANCH  39  45
ATOM     45  O   LIG d   1      10.134   4.158  -7.298  0.00  0.00    -0.506 OA
ATOM     46  H   LIG d   1      10.577   4.135  -8.157  0.00  0.00     0.292 HD
ENDBRANCH  39  45
BRANCH  40  47
ATOM     47  C   LIG d   1       9.924   6.272  -9.161  0.00  0.00     0.154 C 
ATOM     48  O   LIG d   1      10.944   5.800  -9.617  0.00  0.00    -0.296 OA
ATOM     49  H   LIG d   1       9.107   6.531  -9.820  0.00  0.00     0.108 H 
ENDBRANCH  40  47
BRANCH  41  50
ATOM     50  C   LIG d   1       9.446   8.946  -8.169  0.00  0.00    -0.037 C 
ATOM     51  H   LIG d   1      10.423   9.410  -8.298  0.00  0.00     0.028 H 
ATOM     52  H   LIG d   1       9.080   8.592  -9.133  0.00  0.00     0.028 H 
ATOM     53  H   LIG d   1       8.747   9.676  -7.760  0.00  0.00     0.028 H 
ENDBRANCH  41  50
BRANCH  43  54
ATOM     54  O   LIG d   1       9.441   7.125  -3.654  0.00  0.00    -0.505 OA
ATOM     55  H   LIG d   1       9.942   6.503  -3.109  0.00  0.00     0.292 HD
ENDBRANCH  43  54
ENDBRANCH  35  38
ENDBRANCH   1  35
TORSDOF 12
ENDMDL
MODEL 5
REMARK VINA RESULT:      -6.5      6.321     10.086
REMARK  12 active torsions:
REMARK  status: ('A' for Active; 'I' for Inactive)
REMARK    1  A    between atoms: C_1  and  C_2 
REMARK    2  A    between atoms: C_3  and  C_29 
REMARK    3  A    between atoms: C_4  and  O_28 
REMARK    4  A    between atoms: C_5  and  C_10 
REMARK    5  A    between atoms: C_6  and  O_9 
REMARK    6  A    between atoms: C_10  and  C_11 
REMARK    7  A    between atoms: C_12  and  C_13 
REMARK    8  A    between atoms: C_12  and  C_14 
REMARK    9  A    between atoms: C_15  and  C_16 
REMARK   10  A    between atoms: C_16  and  C_27 
REMARK   11  A    between atoms: C_17  and  C_26 
REMARK   12  A    between atoms: C_23  and  C_25 
ROOT
ATOM      1  C   LIG d   1       8.693  -4.387  -3.923  0.00  0.00    -0.077 C 
ATOM      2  C   LIG d   1       7.687  -3.832  -4.588  0.00  0.00    -0.054 C 
ATOM      3  H   LIG d   1       9.004  -3.978  -2.973  0.00  0.00     0.058 H 
ENDROOT
BRANCH   2   4
ATOM      4  C   LIG d   1       7.159  -4.485  -5.840  0.00  0.00    -0.040 C 
ATOM      5  H   LIG d   1       7.002  -5.547  -5.657  0.00  0.00     0.028 H 
ATOM      6  H   LIG d   1       6.214  -4.021  -6.121  0.00  0.00     0.028 H 
ATOM      7  H   LIG d   1       7.881  -4.357  -6.647  0.00  0.00     0.028 H 
ENDBRANCH   2   4
BRANCH   2   8
ATOM      8  C   LIG d   1       7.086  -2.579  -4.103  0.00  0.00    -0.062 C 
ATOM      9  C   LIG d   1       5.812  -2.307  -4.366  0.00  0.00    -0.077 C 
ATOM     10  H   LIG d   1       5.194  -3.044  -4.857  0.00  0.00     0.058 H 
ATOM     11  H   LIG d   1       7.680  -1.881  -3.532  0.00  0.00     0.062 H 
BRANCH   9  12
ATOM     12  C   LIG d   1       5.232  -0.972  -3.978  0.00  0.00     0.002 C 
ATOM     13  C   LIG d   1       4.971  -0.945  -2.466  0.00  0.00     0.028 C 
ATOM     14  C   LIG d   1       4.432   0.430  -2.126  0.00  0.00     0.159 C 
ATOM     15  H   LIG d   1       5.824  -1.121  -1.977  0.00  0.00     0.039 H 
ATOM     16  C   LIG d   1       3.446   1.021  -3.038  0.00  0.00    -0.023 C 
ATOM     17  O   LIG d   1       4.805   1.023  -1.135  0.00  0.00    -0.292 OA
ATOM     18  C   LIG d   1       3.212   0.477  -4.226  0.00  0.00    -0.077 C 
ATOM     19  H   LIG d   1       2.905   1.907  -2.739  0.00  0.00     0.065 H 
ATOM     20  C   LIG d   1       3.911  -0.756  -4.715  0.00  0.00    -0.016 C 
ATOM     21  H   LIG d   1       2.484   0.946  -4.871  0.00  0.00     0.058 H 
ATOM     22  H   LIG d   1       3.266  -1.620  -4.554  0.00  0.00     0.035 H 
BRANCH  13  23
ATOM     23  C   LIG d   1       3.941  -2.014  -2.096  0.00  0.00    -0.055 C 
ATOM     24  H   LIG d   1       3.800  -2.025  -1.015  0.00  0.00     0.024 H 
ATOM     25  H   LIG d   1       2.992  -1.791  -2.583  0.00  0.00     0.024 H 
ATOM     26  H   LIG d   1       4.297  -2.990  -2.424  0.00  0.00     0.024 H 
ENDBRANCH  13  23
BRANCH  20  27
ATOM     27  C   LIG d   1       4.190  -0.613  -6.213  0.00  0.00    -0.058 C 
ATOM     28  H   LIG d   1       3.405  -1.113  -6.779  0.00  0.00     0.024 H 
ATOM     29  H   LIG d   1       4.212   0.444  -6.480  0.00  0.00     0.024 H 
ATOM     30  H   LIG d   1       5.153  -1.066  -6.449  0.00  0.00     0.024 H 
ENDBRANCH  20  27
BRANCH  12  31
ATOM     31  C   LIG d   1       6.215   0.140  -4.349  0.00  0.00    -0.055 C 
ATOM     32  H   LIG d   1       7.198  -0.093  -3.942  0.00  0.00     0.024 H 
ATOM     33  H   LIG d   1       6.280   0.220  -5.434  0.00  0.00     0.024 H 
ATOM     34  H   LIG d   1       5.865   1.086  -3.936  0.00  0.00     0.024 H 
ENDBRANCH  12  31
ENDBRANCH   9  12
ENDBRANCH   2   8
BRANCH   1  35
ATOM     35  C   LIG d   1       9.402  -5.589  -4.494  0.00  0.00    -0.002 C 
ATOM     36  H   LIG d   1      10.440  -5.332  -4.705  0.00  0.00     0.036 H 
ATOM     37  H   LIG d   1       8.909  -5.897  -5.416  0.00  0.00     0.036 H 
BRANCH  35  38
ATOM     38  C   LIG d   1       9.356  -6.719  -3.497  0.00  0.00     0.041 A 
ATOM     39  C   LIG d   1      10.253  -6.750  -2.443  0.00  0.00     0.134 A 
ATOM     40  C   LIG d   1      10.207  -7.812  -1.522  0.00  0.00     0.060 A 
ATOM     41  C   LIG d   1       9.250  -8.824  -1.678  0.00  0.00    -0.015 A 
ATOM     42  C   LIG d   1       8.368  -8.777  -2.718  0.00  0.00     0.086 A 
ATOM     43  C   LIG d   1       8.412  -7.726  -3.632  0.00  0.00     0.142 A 
ATOM     44 CL   LIG d   1       7.184 -10.033  -2.904  0.00  0.00    -0.080 Cl
BRANCH  39  45
ATOM     45  O   LIG d   1      11.175  -5.765  -2.303  0.00  0.00    -0.506 OA
ATOM     46  H   LIG d   1      11.493  -5.650  -1.397  0.00  0.00     0.292 HD
ENDBRANCH  39  45
BRANCH  40  47
ATOM     47  C   LIG d   1      11.155  -7.859  -0.406  0.00  0.00     0.154 C 
ATOM     48  O   LIG d   1      12.346  -7.946  -0.624  0.00  0.00    -0.296 OA
ATOM     49  H   LIG d   1      10.794  -7.817   0.611  0.00  0.00     0.108 H 
ENDBRANCH  40  47
BRANCH  41  50
ATOM     50  C   LIG d   1       9.195  -9.965  -0.694  0.00  0.00    -0.037 C 
ATOM     51  H   LIG d   1       8.360 -10.620  -0.945  0.00  0.00     0.028 H 
ATOM     52  H   LIG d   1      10.126 -10.529  -0.738  0.00  0.00     0.028 H 
ATOM     53  H   LIG d   1       9.056  -9.570   0.312  0.00  0.00     0.028 H 
ENDBRANCH  41  50
BRANCH  43  54
ATOM     54  O   LIG d   1       7.530  -7.690  -4.663  0.00  0.00    -0.505 OA
ATOM     55  H   LIG d   1       6.624  -7.921  -4.414  0.00  0.00     0.292 HD
ENDBRANCH  43  54
ENDBRANCH  35  38
ENDBRANCH   1  35
TORSDOF 12
ENDMDL
MODEL 6
REMARK VINA RESULT:      -6.4      6.601     11.359
REMARK  12 active torsions:
REMARK  status: ('A' for Active; 'I' for Inactive)
REMARK    1  A    between atoms: C_1  and  C_2 
REMARK    2  A    between atoms: C_3  and  C_29 
REMARK    3  A    between atoms: C_4  and  O_28 
REMARK    4  A    between atoms: C_5  and  C_10 
REMARK    5  A    between atoms: C_6  and  O_9 
REMARK    6  A    between atoms: C_10  and  C_11 
REMARK    7  A    between atoms: C_12  and  C_13 
REMARK    8  A    between atoms: C_12  and  C_14 
REMARK    9  A    between atoms: C_15  and  C_16 
REMARK   10  A    between atoms: C_16  and  C_27 
REMARK   11  A    between atoms: C_17  and  C_26 
REMARK   12  A    between atoms: C_23  and  C_25 
ROOT
ATOM      1  C   LIG d   1       6.070  -5.679  -5.590  0.00  0.00    -0.077 C 
ATOM      2  C   LIG d   1       5.057  -4.957  -6.056  0.00  0.00    -0.054 C 
ATOM      3  H   LIG d   1       6.707  -5.279  -4.814  0.00  0.00     0.058 H 
ENDROOT
BRANCH   2   4
ATOM      4  C   LIG d   1       4.085  -5.566  -7.034  0.00  0.00    -0.040 C 
ATOM      5  H   LIG d   1       4.473  -5.458  -8.046  0.00  0.00     0.028 H 
ATOM      6  H   LIG d   1       3.954  -6.624  -6.805  0.00  0.00     0.028 H 
ATOM      7  H   LIG d   1       3.125  -5.055  -6.956  0.00  0.00     0.028 H 
ENDBRANCH   2   4
BRANCH   2   8
ATOM      8  C   LIG d   1       4.884  -3.563  -5.616  0.00  0.00    -0.062 C 
ATOM      9  C   LIG d   1       5.540  -3.116  -4.551  0.00  0.00    -0.077 C 
ATOM     10  H   LIG d   1       6.268  -3.747  -4.061  0.00  0.00     0.058 H 
ATOM     11  H   LIG d   1       4.224  -2.904  -6.160  0.00  0.00     0.062 H 
BRANCH   9  12
ATOM     12  C   LIG d   1       5.269  -1.730  -4.027  0.00  0.00     0.002 C 
ATOM     13  C   LIG d   1       6.535  -0.872  -4.162  0.00  0.00     0.028 C 
ATOM     14  C   LIG d   1       6.194   0.517  -3.664  0.00  0.00     0.159 C 
ATOM     15  H   LIG d   1       6.819  -0.845  -5.120  0.00  0.00     0.039 H 
ATOM     16  C   LIG d   1       5.378   0.626  -2.451  0.00  0.00    -0.023 C 
ATOM     17  O   LIG d   1       6.582   1.506  -4.251  0.00  0.00    -0.292 OA
ATOM     18  C   LIG d   1       4.772  -0.442  -1.945  0.00  0.00    -0.077 C 
ATOM     19  H   LIG d   1       5.269   1.584  -1.963  0.00  0.00     0.065 H 
ATOM     20  C   LIG d   1       4.877  -1.809  -2.552  0.00  0.00    -0.016 C 
ATOM     21  H   LIG d   1       4.174  -0.319  -1.054  0.00  0.00     0.058 H 
ATOM     22  H   LIG d   1       5.630  -2.382  -2.012  0.00  0.00     0.035 H 
BRANCH  13  23
ATOM     23  C   LIG d   1       7.661  -1.468  -3.314  0.00  0.00    -0.055 C 
ATOM     24  H   LIG d   1       7.295  -1.657  -2.305  0.00  0.00     0.024 H 
ATOM     25  H   LIG d   1       7.996  -2.405  -3.760  0.00  0.00     0.024 H 
ATOM     26  H   LIG d   1       8.494  -0.767  -3.272  0.00  0.00     0.024 H 
ENDBRANCH  13  23
BRANCH  20  27
ATOM     27  C   LIG d   1       3.526  -2.517  -2.430  0.00  0.00    -0.058 C 
ATOM     28  H   LIG d   1       3.209  -2.519  -1.387  0.00  0.00     0.024 H 
ATOM     29  H   LIG d   1       2.784  -1.992  -3.033  0.00  0.00     0.024 H 
ATOM     30  H   LIG d   1       3.619  -3.543  -2.785  0.00  0.00     0.024 H 
ENDBRANCH  20  27
BRANCH  12  31
ATOM     31  C   LIG d   1       4.131  -1.093  -4.828  0.00  0.00    -0.055 C 
ATOM     32  H   LIG d   1       4.039  -0.042  -4.555  0.00  0.00     0.024 H 
ATOM     33  H   LIG d   1       4.347  -1.175  -5.893  0.00  0.00     0.024 H 
ATOM     34  H   LIG d   1       3.198  -1.610  -4.606  0.00  0.00     0.024 H 
ENDBRANCH  12  31
ENDBRANCH   9  12
ENDBRANCH   2   8
BRANCH   1  35
ATOM     35  C   LIG d   1       6.332  -7.056  -6.145  0.00  0.00    -0.002 C 
ATOM     36  H   LIG d   1       7.291  -7.062  -6.663  0.00  0.00     0.036 H 
ATOM     37  H   LIG d   1       5.540  -7.322  -6.844  0.00  0.00     0.036 H 
BRANCH  35  38
ATOM     38  C   LIG d   1       6.364  -8.054  -5.016  0.00  0.00     0.041 A 
ATOM     39  C   LIG d   1       7.499  -8.178  -4.233  0.00  0.00     0.134 A 
ATOM     40  C   LIG d   1       7.521  -9.117  -3.186  0.00  0.00     0.060 A 
ATOM     41  C   LIG d   1       6.393  -9.914  -2.944  0.00  0.00    -0.015 A 
ATOM     42  C   LIG d   1       5.280  -9.776  -3.720  0.00  0.00     0.086 A 
ATOM     43  C   LIG d   1       5.255  -8.846  -4.759  0.00  0.00     0.142 A 
ATOM     44 CL   LIG d   1       3.886 -10.764  -3.414  0.00  0.00    -0.080 Cl
BRANCH  39  45
ATOM     45  O   LIG d   1       8.584  -7.403  -4.476  0.00  0.00    -0.506 OA
ATOM     46  H   LIG d   1       8.492  -6.490  -4.171  0.00  0.00     0.292 HD
ENDBRANCH  39  45
BRANCH  40  47
ATOM     47  C   LIG d   1       8.718  -9.262  -2.353  0.00  0.00     0.154 C 
ATOM     48  O   LIG d   1       9.193  -8.293  -1.798  0.00  0.00    -0.296 OA
ATOM     49  H   LIG d   1       9.178 -10.232  -2.233  0.00  0.00     0.108 H 
ENDBRANCH  40  47
BRANCH  41  50
ATOM     50  C   LIG d   1       6.411 -10.922  -1.823  0.00  0.00    -0.037 C 
ATOM     51  H   LIG d   1       7.386 -11.407  -1.788  0.00  0.00     0.028 H 
ATOM     52  H   LIG d   1       6.221 -10.417  -0.876  0.00  0.00     0.028 H 
ATOM     53  H   LIG d   1       5.638 -11.671  -1.997  0.00  0.00     0.028 H 
ENDBRANCH  41  50
BRANCH  43  54
ATOM     54  O   LIG d   1       4.142  -8.719  -5.524  0.00  0.00    -0.505 OA
ATOM     55  H   LIG d   1       3.934  -9.503  -6.050  0.00  0.00     0.292 HD
ENDBRANCH  43  54
ENDBRANCH  35  38
ENDBRANCH   1  35
TORSDOF 12
ENDMDL
MODEL 7
REMARK VINA RESULT:      -6.3      6.466     11.353
REMARK  12 active torsions:
REMARK  status: ('A' for Active; 'I' for Inactive)
REMARK    1  A    between atoms: C_1  and  C_2 
REMARK    2  A    between atoms: C_3  and  C_29 
REMARK    3  A    between atoms: C_4  and  O_28 
REMARK    4  A    between atoms: C_5  and  C_10 
REMARK    5  A    between atoms: C_6  and  O_9 
REMARK    6  A    between atoms: C_10  and  C_11 
REMARK    7  A    between atoms: C_12  and  C_13 
REMARK    8  A    between atoms: C_12  and  C_14 
REMARK    9  A    between atoms: C_15  and  C_16 
REMARK   10  A    between atoms: C_16  and  C_27 
REMARK   11  A    between atoms: C_17  and  C_26 
REMARK   12  A    between atoms: C_23  and  C_25 
ROOT
ATOM      1  C   LIG d   1       6.169  -5.221  -5.505  0.00  0.00    -0.077 C 
ATOM      2  C   LIG d   1       6.960  -4.156  -5.430  0.00  0.00    -0.054 C 
ATOM      3  H   LIG d   1       5.161  -5.173  -5.121  0.00  0.00     0.058 H 
ENDROOT
BRANCH   2   4
ATOM      4  C   LIG d   1       8.314  -4.175  -6.092  0.00  0.00    -0.040 C 
ATOM      5  H   LIG d   1       8.307  -4.890  -6.914  0.00  0.00     0.028 H 
ATOM      6  H   LIG d   1       8.543  -3.181  -6.478  0.00  0.00     0.028 H 
ATOM      7  H   LIG d   1       9.070  -4.465  -5.363  0.00  0.00     0.028 H 
ENDBRANCH   2   4
BRANCH   2   8
ATOM      8  C   LIG d   1       6.513  -2.958  -4.702  0.00  0.00    -0.062 C 
ATOM      9  C   LIG d   1       5.308  -2.449  -4.935  0.00  0.00    -0.077 C 
ATOM     10  H   LIG d   1       4.622  -2.965  -5.592  0.00  0.00     0.058 H 
ATOM     11  H   LIG d   1       7.164  -2.492  -3.978  0.00  0.00     0.062 H 
BRANCH   9  12
ATOM     12  C   LIG d   1       4.898  -1.154  -4.284  0.00  0.00     0.002 C 
ATOM     13  C   LIG d   1       4.750  -1.363  -2.771  0.00  0.00     0.028 C 
ATOM     14  C   LIG d   1       4.383  -0.024  -2.164  0.00  0.00     0.159 C 
ATOM     15  H   LIG d   1       5.613  -1.698  -2.394  0.00  0.00     0.039 H 
ATOM     16  C   LIG d   1       3.402   0.801  -2.875  0.00  0.00    -0.023 C 
ATOM     17  O   LIG d   1       4.885   0.352  -1.126  0.00  0.00    -0.292 OA
ATOM     18  C   LIG d   1       3.028   0.493  -4.112  0.00  0.00    -0.077 C 
ATOM     19  H   LIG d   1       2.978   1.668  -2.389  0.00  0.00     0.065 H 
ATOM     20  C   LIG d   1       3.558  -0.695  -4.857  0.00  0.00    -0.016 C 
ATOM     21  H   LIG d   1       2.308   1.130  -4.604  0.00  0.00     0.058 H 
ATOM     22  H   LIG d   1       2.839  -1.512  -4.784  0.00  0.00     0.035 H 
BRANCH  13  23
ATOM     23  C   LIG d   1       3.644  -2.383  -2.492  0.00  0.00    -0.055 C 
ATOM     24  H   LIG d   1       3.712  -2.721  -1.458  0.00  0.00     0.024 H 
ATOM     25  H   LIG d   1       2.671  -1.920  -2.660  0.00  0.00     0.024 H 
ATOM     26  H   LIG d   1       3.760  -3.236  -3.161  0.00  0.00     0.024 H 
ENDBRANCH  13  23
BRANCH  20  27
ATOM     27  C   LIG d   1       3.743  -0.322  -6.329  0.00  0.00    -0.058 C 
ATOM     28  H   LIG d   1       4.274  -1.123  -6.844  0.00  0.00     0.024 H 
ATOM     29  H   LIG d   1       2.767  -0.177  -6.793  0.00  0.00     0.024 H 
ATOM     30  H   LIG d   1       4.318   0.601  -6.401  0.00  0.00     0.024 H 
ENDBRANCH  20  27
BRANCH  12  31
ATOM     31  C   LIG d   1       5.963  -0.087  -4.552  0.00  0.00    -0.055 C 
ATOM     32  H   LIG d   1       6.909  -0.571  -4.793  0.00  0.00     0.024 H 
ATOM     33  H   LIG d   1       5.649   0.536  -5.389  0.00  0.00     0.024 H 
ATOM     34  H   LIG d   1       6.086   0.532  -3.664  0.00  0.00     0.024 H 
ENDBRANCH  12  31
ENDBRANCH   9  12
ENDBRANCH   2   8
BRANCH   1  35
ATOM     35  C   LIG d   1       6.679  -6.496  -6.126  0.00  0.00    -0.002 C 
ATOM     36  H   LIG d   1       7.725  -6.370  -6.405  0.00  0.00     0.036 H 
ATOM     37  H   LIG d   1       6.092  -6.728  -7.014  0.00  0.00     0.036 H 
BRANCH  35  38
ATOM     38  C   LIG d   1       6.556  -7.622  -5.132  0.00  0.00     0.041 A 
ATOM     39  C   LIG d   1       5.377  -8.345  -5.047  0.00  0.00     0.134 A 
ATOM     40  C   LIG d   1       5.269  -9.389  -4.112  0.00  0.00     0.060 A 
ATOM     41  C   LIG d   1       6.356  -9.692  -3.280  0.00  0.00    -0.015 A 
ATOM     42  C   LIG d   1       7.513  -8.975  -3.379  0.00  0.00     0.086 A 
ATOM     43  C   LIG d   1       7.623  -7.939  -4.305  0.00  0.00     0.142 A 
ATOM     44 CL   LIG d   1       8.855  -9.356  -2.347  0.00  0.00    -0.080 Cl
BRANCH  39  45
ATOM     45  O   LIG d   1       4.332  -8.043  -5.857  0.00  0.00    -0.506 OA
ATOM     46  H   LIG d   1       4.389  -7.167  -6.262  0.00  0.00     0.292 HD
ENDBRANCH  39  45
BRANCH  40  47
ATOM     47  C   LIG d   1       4.025 -10.158  -4.008  0.00  0.00     0.154 C 
ATOM     48  O   LIG d   1       3.591 -10.744  -4.978  0.00  0.00    -0.296 OA
ATOM     49  H   LIG d   1       3.495 -10.202  -3.068  0.00  0.00     0.108 H 
ENDBRANCH  40  47
BRANCH  41  50
ATOM     50  C   LIG d   1       6.246 -10.811  -2.276  0.00  0.00    -0.037 C 
ATOM     51  H   LIG d   1       5.638 -11.614  -2.693  0.00  0.00     0.028 H 
ATOM     52  H   LIG d   1       7.241 -11.191  -2.044  0.00  0.00     0.028 H 
ATOM     53  H   LIG d   1       5.779 -10.436  -1.365  0.00  0.00     0.028 H 
ENDBRANCH  41  50
BRANCH  43  54
ATOM     54  O   LIG d   1       8.778  -7.234  -4.394  0.00  0.00    -0.505 OA
ATOM     55  H   LIG d   1       9.244  -7.345  -5.234  0.00  0.00     0.292 HD
ENDBRANCH  43  54
ENDBRANCH  35  38
ENDBRANCH   1  35
TORSDOF 12
ENDMDL
MODEL 8
REMARK VINA RESULT:      -6.3      6.269     10.514
REMARK  12 active torsions:
REMARK  status: ('A' for Active; 'I' for Inactive)
REMARK    1  A    between atoms: C_1  and  C_2 
REMARK    2  A    between atoms: C_3  and  C_29 
REMARK    3  A    between atoms: C_4  and  O_28 
REMARK    4  A    between atoms: C_5  and  C_10 
REMARK    5  A    between atoms: C_6  and  O_9 
REMARK    6  A    between atoms: C_10  and  C_11 
REMARK    7  A    between atoms: C_12  and  C_13 
REMARK    8  A    between atoms: C_12  and  C_14 
REMARK    9  A    between atoms: C_15  and  C_16 
REMARK   10  A    between atoms: C_16  and  C_27 
REMARK   11  A    between atoms: C_17  and  C_26 
REMARK   12  A    between atoms: C_23  and  C_25 
ROOT
ATOM      1  C   LIG d   1       8.105  -4.502  -4.906  0.00  0.00    -0.077 C 
ATOM      2  C   LIG d   1       8.352  -3.710  -3.869  0.00  0.00    -0.054 C 
ATOM      3  H   LIG d   1       7.368  -4.215  -5.642  0.00  0.00     0.058 H 
ENDROOT
BRANCH   2   4
ATOM      4  C   LIG d   1       9.477  -4.038  -2.921  0.00  0.00    -0.040 C 
ATOM      5  H   LIG d   1       9.198  -3.742  -1.911  0.00  0.00     0.028 H 
ATOM      6  H   LIG d   1       9.671  -5.110  -2.945  0.00  0.00     0.028 H 
ATOM      7  H   LIG d   1      10.375  -3.499  -3.223  0.00  0.00     0.028 H 
ENDBRANCH   2   4
BRANCH   2   8
ATOM      8  C   LIG d   1       7.528  -2.511  -3.646  0.00  0.00    -0.062 C 
ATOM      9  C   LIG d   1       6.267  -2.485  -4.066  0.00  0.00    -0.077 C 
ATOM     10  H   LIG d   1       5.820  -3.372  -4.490  0.00  0.00     0.058 H 
ATOM     11  H   LIG d   1       7.947  -1.654  -3.141  0.00  0.00     0.062 H 
BRANCH   9  12
ATOM     12  C   LIG d   1       5.462  -1.216  -3.950  0.00  0.00     0.002 C 
ATOM     13  C   LIG d   1       4.857  -1.118  -2.543  0.00  0.00     0.028 C 
ATOM     14  C   LIG d   1       4.098   0.192  -2.469  0.00  0.00     0.159 C 
ATOM     15  H   LIG d   1       5.589  -1.142  -1.863  0.00  0.00     0.039 H 
ATOM     16  C   LIG d   1       3.289   0.578  -3.629  0.00  0.00    -0.023 C 
ATOM     17  O   LIG d   1       4.161   0.897  -1.484  0.00  0.00    -0.292 OA
ATOM     18  C   LIG d   1       3.400  -0.075  -4.779  0.00  0.00    -0.077 C 
ATOM     19  H   LIG d   1       2.594   1.401  -3.546  0.00  0.00     0.065 H 
ATOM     20  C   LIG d   1       4.331  -1.234  -4.978  0.00  0.00    -0.016 C 
ATOM     21  H   LIG d   1       2.791   0.244  -5.612  0.00  0.00     0.058 H 
ATOM     22  H   LIG d   1       3.771  -2.163  -4.878  0.00  0.00     0.035 H 
BRANCH  13  23
ATOM     23  C   LIG d   1       3.901  -2.289  -2.304  0.00  0.00    -0.055 C 
ATOM     24  H   LIG d   1       4.324  -3.197  -2.733  0.00  0.00     0.024 H 
ATOM     25  H   LIG d   1       3.754  -2.426  -1.233  0.00  0.00     0.024 H 
ATOM     26  H   LIG d   1       2.942  -2.077  -2.777  0.00  0.00     0.024 H 
ENDBRANCH  13  23
BRANCH  20  27
ATOM     27  C   LIG d   1       4.930  -1.160  -6.384  0.00  0.00    -0.058 C 
ATOM     28  H   LIG d   1       4.894  -0.131  -6.741  0.00  0.00     0.024 H 
ATOM     29  H   LIG d   1       5.967  -1.498  -6.356  0.00  0.00     0.024 H 
ATOM     30  H   LIG d   1       4.360  -1.800  -7.057  0.00  0.00     0.024 H 
ENDBRANCH  20  27
BRANCH  12  31
ATOM     31  C   LIG d   1       6.368  -0.010  -4.204  0.00  0.00    -0.055 C 
ATOM     32  H   LIG d   1       6.220   0.728  -3.416  0.00  0.00     0.024 H 
ATOM     33  H   LIG d   1       7.409  -0.333  -4.208  0.00  0.00     0.024 H 
ATOM     34  H   LIG d   1       6.121   0.432  -5.169  0.00  0.00     0.024 H 
ENDBRANCH  12  31
ENDBRANCH   9  12
ENDBRANCH   2   8
BRANCH   1  35
ATOM     35  C   LIG d   1       8.853  -5.802  -5.056  0.00  0.00    -0.002 C 
ATOM     36  H   LIG d   1       9.665  -5.840  -4.331  0.00  0.00     0.036 H 
ATOM     37  H   LIG d   1       9.262  -5.872  -6.064  0.00  0.00     0.036 H 
BRANCH  35  38
ATOM     38  C   LIG d   1       7.910  -6.954  -4.815  0.00  0.00     0.041 A 
ATOM     39  C   LIG d   1       8.105  -7.794  -3.732  0.00  0.00     0.134 A 
ATOM     40  C   LIG d   1       7.224  -8.869  -3.519  0.00  0.00     0.060 A 
ATOM     41  C   LIG d   1       6.156  -9.077  -4.403  0.00  0.00    -0.015 A 
ATOM     42  C   LIG d   1       5.973  -8.237  -5.463  0.00  0.00     0.086 A 
ATOM     43  C   LIG d   1       6.845  -7.171  -5.676  0.00  0.00     0.142 A 
ATOM     44 CL   LIG d   1       4.648  -8.499  -6.553  0.00  0.00    -0.080 Cl
BRANCH  39  45
ATOM     45  O   LIG d   1       9.142  -7.583  -2.884  0.00  0.00    -0.506 OA
ATOM     46  H   LIG d   1       9.921  -8.124  -3.073  0.00  0.00     0.292 HD
ENDBRANCH  39  45
BRANCH  40  47
ATOM     47  C   LIG d   1       7.423  -9.768  -2.379  0.00  0.00     0.154 C 
ATOM     48  O   LIG d   1       7.236  -9.367  -1.249  0.00  0.00    -0.296 OA
ATOM     49  H   LIG d   1       7.736 -10.789  -2.545  0.00  0.00     0.108 H 
ENDBRANCH  40  47
BRANCH  41  50
ATOM     50  C   LIG d   1       5.208 -10.227  -4.180  0.00  0.00    -0.037 C 
ATOM     51  H   LIG d   1       4.774 -10.151  -3.184  0.00  0.00     0.028 H 
ATOM     52  H   LIG d   1       4.414 -10.195  -4.926  0.00  0.00     0.028 H 
ATOM     53  H   LIG d   1       5.752 -11.167  -4.269  0.00  0.00     0.028 H 
ENDBRANCH  41  50
BRANCH  43  54
ATOM     54  O   LIG d   1       6.653  -6.343  -6.734  0.00  0.00    -0.505 OA
ATOM     55  H   LIG d   1       7.464  -5.938  -7.070  0.00  0.00     0.292 HD
ENDBRANCH  43  54
ENDBRANCH  35  38
ENDBRANCH   1  35
TORSDOF 12
ENDMDL
MODEL 9
REMARK VINA RESULT:      -6.0      1.402      2.174
REMARK  12 active torsions:
REMARK  status: ('A' for Active; 'I' for Inactive)
REMARK    1  A    between atoms: C_1  and  C_2 
REMARK    2  A    between atoms: C_3  and  C_29 
REMARK    3  A    between atoms: C_4  and  O_28 
REMARK    4  A    between atoms: C_5  and  C_10 
REMARK    5  A    between atoms: C_6  and  O_9 
REMARK    6  A    between atoms: C_10  and  C_11 
REMARK    7  A    between atoms: C_12  and  C_13 
REMARK    8  A    between atoms: C_12  and  C_14 
REMARK    9  A    between atoms: C_15  and  C_16 
REMARK   10  A    between atoms: C_16  and  C_27 
REMARK   11  A    between atoms: C_17  and  C_26 
REMARK   12  A    between atoms: C_23  and  C_25 
ROOT
ATOM      1  C   LIG d   1       9.887   1.514  -4.595  0.00  0.00    -0.077 C 
ATOM      2  C   LIG d   1       8.849   1.103  -5.315  0.00  0.00    -0.054 C 
ATOM      3  H   LIG d   1      10.093   1.060  -3.637  0.00  0.00     0.058 H 
ENDROOT
BRANCH   2   4
ATOM      4  C   LIG d   1       8.643   1.633  -6.711  0.00  0.00    -0.040 C 
ATOM      5  H   LIG d   1       8.954   2.676  -6.753  0.00  0.00     0.028 H 
ATOM      6  H   LIG d   1       9.239   1.049  -7.413  0.00  0.00     0.028 H 
ATOM      7  H   LIG d   1       7.589   1.556  -6.977  0.00  0.00     0.028 H 
ENDBRANCH   2   4
BRANCH   2   8
ATOM      8  C   LIG d   1       7.901   0.130  -4.750  0.00  0.00    -0.062 C 
ATOM      9  C   LIG d   1       6.658   0.503  -4.463  0.00  0.00    -0.077 C 
ATOM     10  H   LIG d   1       6.317   1.494  -4.727  0.00  0.00     0.058 H 
ATOM     11  H   LIG d   1       8.214  -0.887  -4.569  0.00  0.00     0.062 H 
BRANCH   9  12
ATOM     12  C   LIG d   1       5.725  -0.456  -3.770  0.00  0.00     0.002 C 
ATOM     13  C   LIG d   1       5.190  -1.476  -4.785  0.00  0.00     0.028 C 
ATOM     14  C   LIG d   1       4.296  -2.438  -4.028  0.00  0.00     0.159 C 
ATOM     15  H   LIG d   1       5.955  -1.960  -5.206  0.00  0.00     0.039 H 
ATOM     16  C   LIG d   1       3.387  -1.878  -3.023  0.00  0.00    -0.023 C 
ATOM     17  O   LIG d   1       4.333  -3.631  -4.246  0.00  0.00    -0.292 OA
ATOM     18  C   LIG d   1       3.508  -0.615  -2.630  0.00  0.00    -0.077 C 
ATOM     19  H   LIG d   1       2.612  -2.499  -2.598  0.00  0.00     0.065 H 
ATOM     20  C   LIG d   1       4.549   0.317  -3.173  0.00  0.00    -0.016 C 
ATOM     21  H   LIG d   1       2.824  -0.243  -1.882  0.00  0.00     0.058 H 
ATOM     22  H   LIG d   1       4.101   0.941  -3.947  0.00  0.00     0.035 H 
BRANCH  13  23
ATOM     23  C   LIG d   1       4.383  -0.758  -5.869  0.00  0.00    -0.055 C 
ATOM     24  H   LIG d   1       3.635  -0.116  -5.401  0.00  0.00     0.024 H 
ATOM     25  H   LIG d   1       5.052  -0.151  -6.478  0.00  0.00     0.024 H 
ATOM     26  H   LIG d   1       3.885  -1.494  -6.499  0.00  0.00     0.024 H 
ENDBRANCH  13  23
BRANCH  20  27
ATOM     27  C   LIG d   1       5.060   1.212  -2.042  0.00  0.00    -0.058 C 
ATOM     28  H   LIG d   1       4.278   1.913  -1.751  0.00  0.00     0.024 H 
ATOM     29  H   LIG d   1       5.332   0.596  -1.185  0.00  0.00     0.024 H 
ATOM     30  H   LIG d   1       5.936   1.765  -2.383  0.00  0.00     0.024 H 
ENDBRANCH  20  27
BRANCH  12  31
ATOM     31  C   LIG d   1       6.477  -1.187  -2.657  0.00  0.00    -0.055 C 
ATOM     32  H   LIG d   1       5.897  -1.143  -1.736  0.00  0.00     0.024 H 
ATOM     33  H   LIG d   1       6.627  -2.228  -2.943  0.00  0.00     0.024 H 
ATOM     34  H   LIG d   1       7.445  -0.711  -2.500  0.00  0.00     0.024 H 
ENDBRANCH  12  31
ENDBRANCH   9  12
ENDBRANCH   2   8
BRANCH   1  35
ATOM     35  C   LIG d   1      10.776   2.614  -5.115  0.00  0.00    -0.002 C 
ATOM     36  H   LIG d   1      10.580   2.768  -6.176  0.00  0.00     0.036 H 
ATOM     37  H   LIG d   1      11.820   2.334  -4.975  0.00  0.00     0.036 H 
BRANCH  35  38
ATOM     38  C   LIG d   1      10.492   3.888  -4.361  0.00  0.00     0.041 A 
ATOM     39  C   LIG d   1      10.765   3.966  -3.005  0.00  0.00     0.134 A 
ATOM     40  C   LIG d   1      10.491   5.156  -2.309  0.00  0.00     0.060 A 
ATOM     41  C   LIG d   1       9.949   6.252  -2.994  0.00  0.00    -0.015 A 
ATOM     42  C   LIG d   1       9.691   6.163  -4.331  0.00  0.00     0.086 A 
ATOM     43  C   LIG d   1       9.962   4.984  -5.024  0.00  0.00     0.142 A 
ATOM     44 CL   LIG d   1       9.022   7.524  -5.174  0.00  0.00    -0.080 Cl
BRANCH  39  45
ATOM     45  O   LIG d   1      11.289   2.898  -2.353  0.00  0.00    -0.506 OA
ATOM     46  H   LIG d   1      10.669   2.165  -2.237  0.00  0.00     0.292 HD
ENDBRANCH  39  45
BRANCH  40  47
ATOM     47  C   LIG d   1      10.770   5.249  -0.873  0.00  0.00     0.154 C 
ATOM     48  O   LIG d   1      11.911   5.171  -0.470  0.00  0.00    -0.296 OA
ATOM     49  H   LIG d   1       9.958   5.387  -0.173  0.00  0.00     0.108 H 
ENDBRANCH  40  47
BRANCH  41  50
ATOM     50  C   LIG d   1       9.653   7.531  -2.253  0.00  0.00    -0.037 C 
ATOM     51  H   LIG d   1      10.256   8.338  -2.668  0.00  0.00     0.028 H 
ATOM     52  H   LIG d   1       8.596   7.776  -2.358  0.00  0.00     0.028 H 
ATOM     53  H   LIG d   1       9.893   7.403  -1.198  0.00  0.00     0.028 H 
ENDBRANCH  41  50
BRANCH  43  54
ATOM     54  O   LIG d   1       9.701   4.908  -6.353  0.00  0.00    -0.505 OA
ATOM     55  H   LIG d   1       9.228   5.673  -6.706  0.00  0.00     0.292 HD
ENDBRANCH  43  54
ENDBRANCH  35  38
ENDBRANCH   1  35
TORSDOF 12
ENDMDL
MODEL 10
REMARK VINA RESULT:      -5.9      2.768      3.380
REMARK  12 active torsions:
REMARK  status: ('A' for Active; 'I' for Inactive)
REMARK    1  A    between atoms: C_1  and  C_2 
REMARK    2  A    between atoms: C_3  and  C_29 
REMARK    3  A    between atoms: C_4  and  O_28 
REMARK    4  A    between atoms: C_5  and  C_10 
REMARK    5  A    between atoms: C_6  and  O_9 
REMARK    6  A    between atoms: C_10  and  C_11 
REMARK    7  A    between atoms: C_12  and  C_13 
REMARK    8  A    between atoms: C_12  and  C_14 
REMARK    9  A    between atoms: C_15  and  C_16 
REMARK   10  A    between atoms: C_16  and  C_27 
REMARK   11  A    between atoms: C_17  and  C_26 
REMARK   12  A    between atoms: C_23  and  C_25 
ROOT
ATOM      1  C   LIG d   1       8.854   2.673  -5.741  0.00  0.00    -0.077 C 
ATOM      2  C   LIG d   1       8.794   1.381  -5.438  0.00  0.00    -0.054 C 
ATOM      3  H   LIG d   1       7.947   3.255  -5.811  0.00  0.00     0.058 H 
ENDROOT
BRANCH   2   4
ATOM      4  C   LIG d   1      10.063   0.603  -5.199  0.00  0.00    -0.040 C 
ATOM      5  H   LIG d   1       9.822  -0.347  -4.724  0.00  0.00     0.028 H 
ATOM      6  H   LIG d   1      10.559   0.416  -6.152  0.00  0.00     0.028 H 
ATOM      7  H   LIG d   1      10.724   1.177  -4.551  0.00  0.00     0.028 H 
ENDBRANCH   2   4
BRANCH   2   8
ATOM      8  C   LIG d   1       7.489   0.710  -5.334  0.00  0.00    -0.062 C 
ATOM      9  C   LIG d   1       6.978   0.430  -4.140  0.00  0.00    -0.077 C 
ATOM     10  H   LIG d   1       7.478   0.773  -3.245  0.00  0.00     0.058 H 
ATOM     11  H   LIG d   1       6.945   0.446  -6.229  0.00  0.00     0.062 H 
BRANCH   9  12
ATOM     12  C   LIG d   1       5.704  -0.367  -4.033  0.00  0.00     0.002 C 
ATOM     13  C   LIG d   1       4.552   0.559  -3.619  0.00  0.00     0.028 C 
ATOM     14  C   LIG d   1       3.293  -0.283  -3.571  0.00  0.00     0.159 C 
ATOM     15  H   LIG d   1       4.460   1.296  -4.288  0.00  0.00     0.039 H 
ATOM     16  C   LIG d   1       3.388  -1.621  -2.980  0.00  0.00    -0.023 C 
ATOM     17  O   LIG d   1       2.242   0.136  -4.010  0.00  0.00    -0.292 OA
ATOM     18  C   LIG d   1       4.572  -2.159  -2.710  0.00  0.00    -0.077 C 
ATOM     19  H   LIG d   1       2.487  -2.174  -2.760  0.00  0.00     0.065 H 
ATOM     20  C   LIG d   1       5.871  -1.458  -2.975  0.00  0.00    -0.016 C 
ATOM     21  H   LIG d   1       4.600  -3.149  -2.282  0.00  0.00     0.058 H 
ATOM     22  H   LIG d   1       6.228  -1.007  -2.050  0.00  0.00     0.035 H 
BRANCH  13  23
ATOM     23  C   LIG d   1       4.833   1.156  -2.239  0.00  0.00    -0.055 C 
ATOM     24  H   LIG d   1       4.962   0.351  -1.514  0.00  0.00     0.024 H 
ATOM     25  H   LIG d   1       5.742   1.756  -2.280  0.00  0.00     0.024 H 
ATOM     26  H   LIG d   1       3.995   1.784  -1.937  0.00  0.00     0.024 H 
ENDBRANCH  13  23
BRANCH  20  27
ATOM     27  C   LIG d   1       6.901  -2.478  -3.465  0.00  0.00    -0.058 C 
ATOM     28  H   LIG d   1       7.020  -3.262  -2.718  0.00  0.00     0.024 H 
ATOM     29  H   LIG d   1       6.559  -2.919  -4.402  0.00  0.00     0.024 H 
ATOM     30  H   LIG d   1       7.857  -1.981  -3.627  0.00  0.00     0.024 H 
ENDBRANCH  20  27
BRANCH  12  31
ATOM     31  C   LIG d   1       5.387  -1.008  -5.386  0.00  0.00    -0.055 C 
ATOM     32  H   LIG d   1       4.496  -0.544  -5.808  0.00  0.00     0.024 H 
ATOM     33  H   LIG d   1       6.228  -0.861  -6.063  0.00  0.00     0.024 H 
ATOM     34  H   LIG d   1       5.211  -2.074  -5.249  0.00  0.00     0.024 H 
ENDBRANCH  12  31
ENDBRANCH   9  12
ENDBRANCH   2   8
BRANCH   1  35
ATOM     35  C   LIG d   1      10.190   3.328  -5.987  0.00  0.00    -0.002 C 
ATOM     36  H   LIG d   1      10.797   2.684  -6.623  0.00  0.00     0.036 H 
ATOM     37  H   LIG d   1      10.699   3.484  -5.036  0.00  0.00     0.036 H 
BRANCH  35  38
ATOM     38  C   LIG d   1       9.979   4.656  -6.669  0.00  0.00     0.041 A 
ATOM     39  C   LIG d   1      10.146   5.833  -5.959  0.00  0.00     0.134 A 
ATOM     40  C   LIG d   1       9.941   7.066  -6.601  0.00  0.00     0.060 A 
ATOM     41  C   LIG d   1       9.576   7.092  -7.954  0.00  0.00    -0.015 A 
ATOM     42  C   LIG d   1       9.422   5.924  -8.643  0.00  0.00     0.086 A 
ATOM     43  C   LIG d   1       9.624   4.700  -8.008  0.00  0.00     0.142 A 
ATOM     44 CL   LIG d   1       8.971   5.963 -10.318  0.00  0.00    -0.080 Cl
BRANCH  39  45
ATOM     45  O   LIG d   1      10.498   5.795  -4.649  0.00  0.00    -0.506 OA
ATOM     46  H   LIG d   1      10.221   6.572  -4.145  0.00  0.00     0.292 HD
ENDBRANCH  39  45
BRANCH  40  47
ATOM     47  C   LIG d   1      10.108   8.319  -5.859  0.00  0.00     0.154 C 
ATOM     48  O   LIG d   1       9.536   8.479  -4.801  0.00  0.00    -0.296 OA
ATOM     49  H   LIG d   1      10.741   9.100  -6.254  0.00  0.00     0.108 H 
ENDBRANCH  40  47
BRANCH  41  50
ATOM     50  C   LIG d   1       9.355   8.412  -8.649  0.00  0.00    -0.037 C 
ATOM     51  H   LIG d   1       9.147   9.182  -7.906  0.00  0.00     0.028 H 
ATOM     52  H   LIG d   1      10.249   8.681  -9.211  0.00  0.00     0.028 H 
ATOM     53  H   LIG d   1       8.509   8.326  -9.331  0.00  0.00     0.028 H 
ENDBRANCH  41  50
BRANCH  43  54
ATOM     54  O   LIG d   1       9.467   3.546  -8.704  0.00  0.00    -0.505 OA
ATOM     55  H   LIG d   1       9.184   2.795  -8.164  0.00  0.00     0.292 HD
ENDBRANCH  43  54
ENDBRANCH  35  38
ENDBRANCH   1  35
TORSDOF 12
ENDMDL
