MODEL 1
REMARK VINA RESULT:      -7.6      0.000      0.000
REMARK  2 active torsions:
REMARK  status: ('A' for Active; 'I' for Inactive)
REMARK    1  A    between atoms: C_1  and  C_2 
REMARK    2  A    between atoms: C_7  and  N_8 
ROOT
ATOM      1  N   LIG d   1       3.960   0.114  -5.391  0.00  0.00    -0.293 NA
ATOM      2  C   LIG d   1       4.206  -0.870  -6.455  0.00  0.00     0.047 C 
ATOM      3  C   LIG d   1       3.886  -0.257  -7.794  0.00  0.00     0.054 A 
ATOM      4  C   LIG d   1       3.116   0.890  -7.884  0.00  0.00     0.131 A 
ATOM      5  C   LIG d   1       2.826   1.448  -9.130  0.00  0.00    -0.019 A 
ATOM      6  C   LIG d   1       3.296   0.875 -10.275  0.00  0.00    -0.047 A 
ATOM      7  C   LIG d   1       4.077  -0.284 -10.201  0.00  0.00     0.022 A 
ATOM      8  C   LIG d   1       4.372  -0.852  -8.950  0.00  0.00     0.147 A 
ATOM      9  O   LIG d   1       5.125  -1.970  -8.887  0.00  0.00    -0.421 OA
ATOM     10  C   LIG d   1       5.603  -2.552  -9.995  0.00  0.00     0.341 A 
ATOM     11  O   LIG d   1       6.279  -3.559  -9.888  0.00  0.00    -0.245 OA
ATOM     12  C   LIG d   1       5.348  -2.033 -11.289  0.00  0.00     0.041 A 
ATOM     13  C   LIG d   1       4.594  -0.919 -11.419  0.00  0.00    -0.027 A 
ATOM     14  C   LIG d   1       4.253  -0.307 -12.749  0.00  0.00    -0.026 C 
ATOM     15  C   LIG d   1       5.199  -0.818 -13.834  0.00  0.00    -0.049 C 
ATOM     16  C   LIG d   1       5.234  -2.349 -13.761  0.00  0.00    -0.049 C 
ATOM     17  C   LIG d   1       5.944  -2.753 -12.470  0.00  0.00    -0.021 C 
ATOM     18  O   LIG d   1       2.632   1.491  -6.766  0.00  0.00    -0.473 OA
ATOM     19  C   LIG d   1       2.630   0.723  -5.561  0.00  0.00     0.157 C 
ATOM     20  H   LIG d   1       5.252  -1.173  -6.435  0.00  0.00     0.052 H 
ATOM     21  H   LIG d   1       3.572  -1.743  -6.295  0.00  0.00     0.052 H 
ATOM     22  H   LIG d   1       2.222   2.342  -9.188  0.00  0.00     0.065 H 
ATOM     23  H   LIG d   1       3.066   1.313 -11.235  0.00  0.00     0.063 H 
ATOM     24  H   LIG d   1       4.340   0.777 -12.678  0.00  0.00     0.031 H 
ATOM     25  H   LIG d   1       3.228  -0.570 -13.013  0.00  0.00     0.031 H 
ATOM     26  H   LIG d   1       6.200  -0.419 -13.668  0.00  0.00     0.027 H 
ATOM     27  H   LIG d   1       4.838  -0.505 -14.815  0.00  0.00     0.027 H 
ATOM     28  H   LIG d   1       5.779  -2.746 -14.618  0.00  0.00     0.027 H 
ATOM     29  H   LIG d   1       4.216  -2.740 -13.758  0.00  0.00     0.027 H 
ATOM     30  H   LIG d   1       7.001  -2.502 -12.548  0.00  0.00     0.032 H 
ATOM     31  H   LIG d   1       5.839  -3.828 -12.324  0.00  0.00     0.032 H 
ATOM     32  H   LIG d   1       1.875  -0.061  -5.627  0.00  0.00     0.091 H 
ATOM     33  H   LIG d   1       2.414   1.372  -4.712  0.00  0.00     0.091 H 
ENDROOT
BRANCH   1  34
ATOM     34  C   LIG d   1       4.085  -0.472  -4.128  0.00  0.00     0.035 A 
ATOM     35  C   LIG d   1       4.309   0.322  -3.012  0.00  0.00    -0.029 A 
ATOM     36  C   LIG d   1       4.432  -0.261  -1.766  0.00  0.00    -0.057 A 
ATOM     37  C   LIG d   1       4.325  -1.633  -1.629  0.00  0.00    -0.061 A 
ATOM     38  H   LIG d   1       4.607   0.355  -0.896  0.00  0.00     0.062 H 
ATOM     39  C   LIG d   1       4.107  -2.427  -2.739  0.00  0.00    -0.060 A 
ATOM     40  H   LIG d   1       4.416  -2.085  -0.652  0.00  0.00     0.062 H 
ATOM     41  C   LIG d   1       3.983  -1.851  -3.988  0.00  0.00    -0.040 A 
ATOM     42  H   LIG d   1       4.029  -3.499  -2.630  0.00  0.00     0.062 H 
ATOM     43  H   LIG d   1       3.808  -2.472  -4.855  0.00  0.00     0.064 H 
BRANCH  35  44
ATOM     44  C   LIG d   1       4.420   1.818  -3.159  0.00  0.00    -0.038 C 
ATOM     45  H   LIG d   1       5.299   2.059  -3.756  0.00  0.00     0.028 H 
ATOM     46  H   LIG d   1       3.527   2.200  -3.655  0.00  0.00     0.028 H 
ATOM     47  H   LIG d   1       4.512   2.275  -2.174  0.00  0.00     0.028 H 
ENDBRANCH  35  44
ENDBRANCH   1  34
TORSDOF 2
ENDMDL
MODEL 2
REMARK VINA RESULT:      -7.4      5.383      8.393
REMARK  2 active torsions:
REMARK  status: ('A' for Active; 'I' for Inactive)
REMARK    1  A    between atoms: C_1  and  C_2 
REMARK    2  A    between atoms: C_7  and  N_8 
ROOT
ATOM      1  N   LIG d   1       9.791   3.858  -4.671  0.00  0.00    -0.293 NA
ATOM      2  C   LIG d   1       8.479   3.399  -4.192  0.00  0.00     0.047 C 
ATOM      3  C   LIG d   1       8.194   2.023  -4.740  0.00  0.00     0.054 A 
ATOM      4  C   LIG d   1       8.904   1.528  -5.820  0.00  0.00     0.131 A 
ATOM      5  C   LIG d   1       8.630   0.254  -6.319  0.00  0.00    -0.019 A 
ATOM      6  C   LIG d   1       7.662  -0.522  -5.752  0.00  0.00    -0.047 A 
ATOM      7  C   LIG d   1       6.935  -0.035  -4.659  0.00  0.00     0.022 A 
ATOM      8  C   LIG d   1       7.205   1.248  -4.152  0.00  0.00     0.147 A 
ATOM      9  O   LIG d   1       6.499   1.709  -3.098  0.00  0.00    -0.421 OA
ATOM     10  C   LIG d   1       5.545   0.967  -2.520  0.00  0.00     0.341 A 
ATOM     11  O   LIG d   1       4.936   1.427  -1.571  0.00  0.00    -0.245 OA
ATOM     12  C   LIG d   1       5.221  -0.335  -2.976  0.00  0.00     0.041 A 
ATOM     13  C   LIG d   1       5.888  -0.851  -4.032  0.00  0.00    -0.027 A 
ATOM     14  C   LIG d   1       5.601  -2.213  -4.599  0.00  0.00    -0.026 C 
ATOM     15  C   LIG d   1       4.824  -3.061  -3.595  0.00  0.00    -0.049 C 
ATOM     16  C   LIG d   1       3.623  -2.245  -3.103  0.00  0.00    -0.049 C 
ATOM     17  C   LIG d   1       4.143  -1.092  -2.247  0.00  0.00    -0.021 C 
ATOM     18  O   LIG d   1       9.879   2.270  -6.409  0.00  0.00    -0.473 OA
ATOM     19  C   LIG d   1       9.893   3.671  -6.128  0.00  0.00     0.157 C 
ATOM     20  H   LIG d   1       8.483   3.361  -3.103  0.00  0.00     0.052 H 
ATOM     21  H   LIG d   1       7.708   4.091  -4.529  0.00  0.00     0.052 H 
ATOM     22  H   LIG d   1       9.190  -0.122  -7.163  0.00  0.00     0.065 H 
ATOM     23  H   LIG d   1       7.456  -1.506  -6.145  0.00  0.00     0.063 H 
ATOM     24  H   LIG d   1       6.543  -2.709  -4.836  0.00  0.00     0.031 H 
ATOM     25  H   LIG d   1       5.012  -2.106  -5.511  0.00  0.00     0.031 H 
ATOM     26  H   LIG d   1       5.467  -3.314  -2.752  0.00  0.00     0.027 H 
ATOM     27  H   LIG d   1       4.475  -3.975  -4.077  0.00  0.00     0.027 H 
ATOM     28  H   LIG d   1       2.969  -2.879  -2.505  0.00  0.00     0.027 H 
ATOM     29  H   LIG d   1       3.073  -1.850  -3.957  0.00  0.00     0.027 H 
ATOM     30  H   LIG d   1       4.548  -1.489  -1.318  0.00  0.00     0.032 H 
ATOM     31  H   LIG d   1       3.320  -0.414  -2.021  0.00  0.00     0.032 H 
ATOM     32  H   LIG d   1       9.046   4.151  -6.617  0.00  0.00     0.091 H 
ATOM     33  H   LIG d   1      10.824   4.108  -6.489  0.00  0.00     0.091 H 
ENDROOT
BRANCH   1  34
ATOM     34  C   LIG d   1      10.013   5.192  -4.320  0.00  0.00     0.035 A 
ATOM     35  C   LIG d   1      10.730   5.499  -3.171  0.00  0.00    -0.029 A 
ATOM     36  C   LIG d   1      10.947   6.819  -2.828  0.00  0.00    -0.057 A 
ATOM     37  C   LIG d   1      10.458   7.834  -3.631  0.00  0.00    -0.061 A 
ATOM     38  H   LIG d   1      11.504   7.060  -1.934  0.00  0.00     0.062 H 
ATOM     39  C   LIG d   1       9.740   7.531  -4.772  0.00  0.00    -0.060 A 
ATOM     40  H   LIG d   1      10.635   8.865  -3.362  0.00  0.00     0.062 H 
ATOM     41  C   LIG d   1       9.518   6.213  -5.121  0.00  0.00    -0.040 A 
ATOM     42  H   LIG d   1       9.355   8.325  -5.394  0.00  0.00     0.062 H 
ATOM     43  H   LIG d   1       8.961   5.977  -6.016  0.00  0.00     0.064 H 
BRANCH  35  44
ATOM     44  C   LIG d   1      11.268   4.394  -2.299  0.00  0.00    -0.038 C 
ATOM     45  H   LIG d   1      11.767   4.826  -1.432  0.00  0.00     0.028 H 
ATOM     46  H   LIG d   1      10.445   3.761  -1.968  0.00  0.00     0.028 H 
ATOM     47  H   LIG d   1      11.981   3.797  -2.868  0.00  0.00     0.028 H 
ENDBRANCH  35  44
ENDBRANCH   1  34
TORSDOF 2
ENDMDL
MODEL 3
REMARK VINA RESULT:      -7.3      5.662      7.477
REMARK  2 active torsions:
REMARK  status: ('A' for Active; 'I' for Inactive)
REMARK    1  A    between atoms: C_1  and  C_2 
REMARK    2  A    between atoms: C_7  and  N_8 
ROOT
ATOM      1  N   LIG d   1       5.923   0.343  -4.939  0.00  0.00    -0.293 NA
ATOM      2  C   LIG d   1       7.247   0.664  -4.388  0.00  0.00     0.047 C 
ATOM      3  C   LIG d   1       8.045   1.437  -5.407  0.00  0.00     0.054 A 
ATOM      4  C   LIG d   1       7.676   1.443  -6.742  0.00  0.00     0.131 A 
ATOM      5  C   LIG d   1       8.423   2.162  -7.676  0.00  0.00    -0.019 A 
ATOM      6  C   LIG d   1       9.525   2.868  -7.291  0.00  0.00    -0.047 A 
ATOM      7  C   LIG d   1       9.910   2.872  -5.945  0.00  0.00     0.022 A 
ATOM      8  C   LIG d   1       9.163   2.150  -4.999  0.00  0.00     0.147 A 
ATOM      9  O   LIG d   1       9.542   2.159  -3.703  0.00  0.00    -0.421 OA
ATOM     10  C   LIG d   1      10.618   2.847  -3.297  0.00  0.00     0.341 A 
ATOM     11  O   LIG d   1      10.919   2.826  -2.117  0.00  0.00    -0.245 OA
ATOM     12  C   LIG d   1      11.416   3.599  -4.195  0.00  0.00     0.041 A 
ATOM     13  C   LIG d   1      11.092   3.625  -5.506  0.00  0.00    -0.027 A 
ATOM     14  C   LIG d   1      11.888   4.376  -6.536  0.00  0.00    -0.026 C 
ATOM     15  C   LIG d   1      12.786   5.416  -5.867  0.00  0.00    -0.049 C 
ATOM     16  C   LIG d   1      13.572   4.725  -4.747  0.00  0.00    -0.049 C 
ATOM     17  C   LIG d   1      12.595   4.350  -3.634  0.00  0.00    -0.021 C 
ATOM     18  O   LIG d   1       6.583   0.754  -7.162  0.00  0.00    -0.473 OA
ATOM     19  C   LIG d   1       6.061  -0.243  -6.282  0.00  0.00     0.157 C 
ATOM     20  H   LIG d   1       7.130   1.266  -3.487  0.00  0.00     0.052 H 
ATOM     21  H   LIG d   1       7.771  -0.260  -4.142  0.00  0.00     0.052 H 
ATOM     22  H   LIG d   1       8.127   2.158  -8.715  0.00  0.00     0.065 H 
ATOM     23  H   LIG d   1      10.097   3.421  -8.021  0.00  0.00     0.063 H 
ATOM     24  H   LIG d   1      11.206   4.878  -7.222  0.00  0.00     0.031 H 
ATOM     25  H   LIG d   1      12.508   3.674  -7.094  0.00  0.00     0.031 H 
ATOM     26  H   LIG d   1      12.173   6.215  -5.448  0.00  0.00     0.027 H 
ATOM     27  H   LIG d   1      13.478   5.831  -6.600  0.00  0.00     0.027 H 
ATOM     28  H   LIG d   1      14.328   5.405  -4.356  0.00  0.00     0.027 H 
ATOM     29  H   LIG d   1      14.050   3.826  -5.135  0.00  0.00     0.027 H 
ATOM     30  H   LIG d   1      12.243   5.256  -3.144  0.00  0.00     0.032 H 
ATOM     31  H   LIG d   1      13.106   3.721  -2.905  0.00  0.00     0.032 H 
ATOM     32  H   LIG d   1       6.745  -1.091  -6.242  0.00  0.00     0.091 H 
ATOM     33  H   LIG d   1       5.085  -0.573  -6.639  0.00  0.00     0.091 H 
ENDROOT
BRANCH   1  34
ATOM     34  C   LIG d   1       5.221  -0.514  -4.088  0.00  0.00     0.035 A 
ATOM     35  C   LIG d   1       4.510   0.001  -3.012  0.00  0.00    -0.029 A 
ATOM     36  C   LIG d   1       3.818  -0.850  -2.173  0.00  0.00    -0.057 A 
ATOM     37  C   LIG d   1       3.826  -2.213  -2.407  0.00  0.00    -0.061 A 
ATOM     38  H   LIG d   1       3.265  -0.450  -1.336  0.00  0.00     0.062 H 
ATOM     39  C   LIG d   1       4.538  -2.729  -3.474  0.00  0.00    -0.060 A 
ATOM     40  H   LIG d   1       3.279  -2.875  -1.752  0.00  0.00     0.062 H 
ATOM     41  C   LIG d   1       5.232  -1.884  -4.317  0.00  0.00    -0.040 A 
ATOM     42  H   LIG d   1       4.546  -3.795  -3.652  0.00  0.00     0.062 H 
ATOM     43  H   LIG d   1       5.784  -2.289  -5.154  0.00  0.00     0.064 H 
BRANCH  35  44
ATOM     44  C   LIG d   1       4.495   1.487  -2.760  0.00  0.00    -0.038 C 
ATOM     45  H   LIG d   1       3.596   1.752  -2.205  0.00  0.00     0.028 H 
ATOM     46  H   LIG d   1       5.375   1.765  -2.179  0.00  0.00     0.028 H 
ATOM     47  H   LIG d   1       4.506   2.018  -3.712  0.00  0.00     0.028 H 
ENDBRANCH  35  44
ENDBRANCH   1  34
TORSDOF 2
ENDMDL
MODEL 4
REMARK VINA RESULT:      -7.0      2.241      3.504
REMARK  2 active torsions:
REMARK  status: ('A' for Active; 'I' for Inactive)
REMARK    1  A    between atoms: C_1  and  C_2 
REMARK    2  A    between atoms: C_7  and  N_8 
ROOT
ATOM      1  N   LIG d   1       4.319  -1.690  -4.982  0.00  0.00    -0.293 NA
ATOM      2  C   LIG d   1       4.373  -1.208  -6.370  0.00  0.00     0.047 C 
ATOM      3  C   LIG d   1       4.150  -2.361  -7.315  0.00  0.00     0.054 A 
ATOM      4  C   LIG d   1       4.289  -3.669  -6.883  0.00  0.00     0.131 A 
ATOM      5  C   LIG d   1       4.082  -4.729  -7.768  0.00  0.00    -0.019 A 
ATOM      6  C   LIG d   1       3.739  -4.493  -9.067  0.00  0.00    -0.047 A 
ATOM      7  C   LIG d   1       3.595  -3.176  -9.518  0.00  0.00     0.022 A 
ATOM      8  C   LIG d   1       3.803  -2.105  -8.634  0.00  0.00     0.147 A 
ATOM      9  O   LIG d   1       3.662  -0.838  -9.077  0.00  0.00    -0.421 OA
ATOM     10  C   LIG d   1       3.323  -0.578 -10.347  0.00  0.00     0.341 A 
ATOM     11  O   LIG d   1       3.207   0.582 -10.700  0.00  0.00    -0.245 OA
ATOM     12  C   LIG d   1       3.095  -1.608 -11.293  0.00  0.00     0.041 A 
ATOM     13  C   LIG d   1       3.227  -2.898 -10.912  0.00  0.00    -0.027 A 
ATOM     14  C   LIG d   1       3.025  -4.056 -11.848  0.00  0.00    -0.026 C 
ATOM     15  C   LIG d   1       2.249  -3.618 -13.088  0.00  0.00    -0.049 C 
ATOM     16  C   LIG d   1       2.926  -2.368 -13.663  0.00  0.00    -0.049 C 
ATOM     17  C   LIG d   1       2.703  -1.210 -12.691  0.00  0.00    -0.021 C 
ATOM     18  O   LIG d   1       4.626  -3.943  -5.596  0.00  0.00    -0.473 OA
ATOM     19  C   LIG d   1       5.178  -2.875  -4.824  0.00  0.00     0.157 C 
ATOM     20  H   LIG d   1       3.598  -0.458  -6.525  0.00  0.00     0.052 H 
ATOM     21  H   LIG d   1       5.350  -0.765  -6.562  0.00  0.00     0.052 H 
ATOM     22  H   LIG d   1       4.194  -5.746  -7.420  0.00  0.00     0.065 H 
ATOM     23  H   LIG d   1       3.581  -5.319  -9.745  0.00  0.00     0.063 H 
ATOM     24  H   LIG d   1       2.469  -4.841 -11.334  0.00  0.00     0.031 H 
ATOM     25  H   LIG d   1       3.998  -4.446 -12.152  0.00  0.00     0.031 H 
ATOM     26  H   LIG d   1       1.219  -3.385 -12.814  0.00  0.00     0.027 H 
ATOM     27  H   LIG d   1       2.259  -4.416 -13.831  0.00  0.00     0.027 H 
ATOM     28  H   LIG d   1       2.486  -2.124 -14.630  0.00  0.00     0.027 H 
ATOM     29  H   LIG d   1       3.994  -2.549 -13.779  0.00  0.00     0.027 H 
ATOM     30  H   LIG d   1       1.651  -0.929 -12.703  0.00  0.00     0.032 H 
ATOM     31  H   LIG d   1       3.307  -0.359 -13.004  0.00  0.00     0.032 H 
ATOM     32  H   LIG d   1       6.183  -2.648  -5.178  0.00  0.00     0.091 H 
ATOM     33  H   LIG d   1       5.214  -3.163  -3.773  0.00  0.00     0.091 H 
ENDROOT
BRANCH   1  34
ATOM     34  C   LIG d   1       4.687  -0.682  -4.088  0.00  0.00     0.035 A 
ATOM     35  C   LIG d   1       3.782  -0.234  -3.133  0.00  0.00    -0.029 A 
ATOM     36  C   LIG d   1       4.149   0.762  -2.251  0.00  0.00    -0.057 A 
ATOM     37  C   LIG d   1       5.418   1.310  -2.312  0.00  0.00    -0.061 A 
ATOM     38  H   LIG d   1       3.447   1.111  -1.508  0.00  0.00     0.062 H 
ATOM     39  C   LIG d   1       6.318   0.871  -3.265  0.00  0.00    -0.060 A 
ATOM     40  H   LIG d   1       5.703   2.086  -1.617  0.00  0.00     0.062 H 
ATOM     41  C   LIG d   1       5.958  -0.125  -4.151  0.00  0.00    -0.040 A 
ATOM     42  H   LIG d   1       7.307   1.304  -3.313  0.00  0.00     0.062 H 
ATOM     43  H   LIG d   1       6.664  -0.471  -4.892  0.00  0.00     0.064 H 
BRANCH  35  44
ATOM     44  C   LIG d   1       2.402  -0.835  -3.062  0.00  0.00    -0.038 C 
ATOM     45  H   LIG d   1       2.482  -1.915  -2.937  0.00  0.00     0.028 H 
ATOM     46  H   LIG d   1       1.865  -0.410  -2.214  0.00  0.00     0.028 H 
ATOM     47  H   LIG d   1       1.861  -0.615  -3.982  0.00  0.00     0.028 H 
ENDBRANCH  35  44
ENDBRANCH   1  34
TORSDOF 2
ENDMDL
MODEL 5
REMARK VINA RESULT:      -6.9      1.924      7.579
REMARK  2 active torsions:
REMARK  status: ('A' for Active; 'I' for Inactive)
REMARK    1  A    between atoms: C_1  and  C_2 
REMARK    2  A    between atoms: C_7  and  N_8 
ROOT
ATOM      1  N   LIG d   1       4.171  -0.802 -11.158  0.00  0.00    -0.293 NA
ATOM      2  C   LIG d   1       4.713  -1.215  -9.855  0.00  0.00     0.047 C 
ATOM      3  C   LIG d   1       4.062  -0.410  -8.759  0.00  0.00     0.054 A 
ATOM      4  C   LIG d   1       3.391   0.767  -9.046  0.00  0.00     0.131 A 
ATOM      5  C   LIG d   1       2.793   1.504  -8.022  0.00  0.00    -0.019 A 
ATOM      6  C   LIG d   1       2.860   1.078  -6.728  0.00  0.00    -0.047 A 
ATOM      7  C   LIG d   1       3.535  -0.109  -6.423  0.00  0.00     0.022 A 
ATOM      8  C   LIG d   1       4.140  -0.856  -7.448  0.00  0.00     0.147 A 
ATOM      9  O   LIG d   1       4.789  -2.000  -7.144  0.00  0.00    -0.421 OA
ATOM     10  C   LIG d   1       4.867  -2.444  -5.883  0.00  0.00     0.341 A 
ATOM     11  O   LIG d   1       5.462  -3.482  -5.659  0.00  0.00    -0.245 OA
ATOM     12  C   LIG d   1       4.278  -1.744  -4.800  0.00  0.00     0.041 A 
ATOM     13  C   LIG d   1       3.620  -0.588  -5.038  0.00  0.00    -0.027 A 
ATOM     14  C   LIG d   1       2.982   0.233  -3.952  0.00  0.00    -0.026 C 
ATOM     15  C   LIG d   1       2.793  -0.601  -2.687  0.00  0.00    -0.049 C 
ATOM     16  C   LIG d   1       4.127  -1.280  -2.354  0.00  0.00    -0.049 C 
ATOM     17  C   LIG d   1       4.410  -2.335  -3.421  0.00  0.00    -0.021 C 
ATOM     18  O   LIG d   1       3.300   1.221 -10.323  0.00  0.00    -0.473 OA
ATOM     19  C   LIG d   1       4.204   0.665 -11.280  0.00  0.00     0.157 C 
ATOM     20  H   LIG d   1       4.511  -2.273  -9.697  0.00  0.00     0.052 H 
ATOM     21  H   LIG d   1       5.790  -1.044  -9.840  0.00  0.00     0.052 H 
ATOM     22  H   LIG d   1       2.273   2.421  -8.257  0.00  0.00     0.065 H 
ATOM     23  H   LIG d   1       2.395   1.655  -5.942  0.00  0.00     0.063 H 
ATOM     24  H   LIG d   1       2.011   0.590  -4.296  0.00  0.00     0.031 H 
ATOM     25  H   LIG d   1       3.620   1.088  -3.727  0.00  0.00     0.031 H 
ATOM     26  H   LIG d   1       2.028  -1.359  -2.857  0.00  0.00     0.027 H 
ATOM     27  H   LIG d   1       2.493   0.045  -1.861  0.00  0.00     0.027 H 
ATOM     28  H   LIG d   1       4.062  -1.756  -1.375  0.00  0.00     0.027 H 
ATOM     29  H   LIG d   1       4.926  -0.538  -2.350  0.00  0.00     0.027 H 
ATOM     30  H   LIG d   1       3.701  -3.155  -3.313  0.00  0.00     0.032 H 
ATOM     31  H   LIG d   1       5.423  -2.716  -3.289  0.00  0.00     0.032 H 
ATOM     32  H   LIG d   1       5.214   1.025 -11.082  0.00  0.00     0.091 H 
ATOM     33  H   LIG d   1       3.900   0.956 -12.285  0.00  0.00     0.091 H 
ENDROOT
BRANCH   1  34
ATOM     34  C   LIG d   1       4.871  -1.407 -12.205  0.00  0.00     0.035 A 
ATOM     35  C   LIG d   1       4.179  -2.009 -13.248  0.00  0.00    -0.029 A 
ATOM     36  C   LIG d   1       4.874  -2.606 -14.281  0.00  0.00    -0.057 A 
ATOM     37  C   LIG d   1       6.257  -2.599 -14.282  0.00  0.00    -0.061 A 
ATOM     38  H   LIG d   1       4.337  -3.075 -15.093  0.00  0.00     0.062 H 
ATOM     39  C   LIG d   1       6.948  -2.006 -13.242  0.00  0.00    -0.060 A 
ATOM     40  H   LIG d   1       6.797  -3.063 -15.094  0.00  0.00     0.062 H 
ATOM     41  C   LIG d   1       6.260  -1.407 -12.206  0.00  0.00    -0.040 A 
ATOM     42  H   LIG d   1       8.028  -2.006 -13.243  0.00  0.00     0.062 H 
ATOM     43  H   LIG d   1       6.802  -0.939 -11.396  0.00  0.00     0.064 H 
BRANCH  35  44
ATOM     44  C   LIG d   1       2.672  -2.012 -13.251  0.00  0.00    -0.038 C 
ATOM     45  H   LIG d   1       2.311  -2.713 -14.004  0.00  0.00     0.028 H 
ATOM     46  H   LIG d   1       2.308  -2.315 -12.269  0.00  0.00     0.028 H 
ATOM     47  H   LIG d   1       2.307  -1.011 -13.482  0.00  0.00     0.028 H 
ENDBRANCH  35  44
ENDBRANCH   1  34
TORSDOF 2
ENDMDL
MODEL 6
REMARK VINA RESULT:      -6.8      2.050      3.308
REMARK  2 active torsions:
REMARK  status: ('A' for Active; 'I' for Inactive)
REMARK    1  A    between atoms: C_1  and  C_2 
REMARK    2  A    between atoms: C_7  and  N_8 
ROOT
ATOM      1  N   LIG d   1       6.231  -0.903  -5.150  0.00  0.00    -0.293 NA
ATOM      2  C   LIG d   1       5.434  -0.471  -6.307  0.00  0.00     0.047 C 
ATOM      3  C   LIG d   1       6.214  -0.709  -7.575  0.00  0.00     0.054 A 
ATOM      4  C   LIG d   1       7.582  -0.914  -7.538  0.00  0.00     0.131 A 
ATOM      5  C   LIG d   1       8.294  -1.132  -8.719  0.00  0.00    -0.019 A 
ATOM      6  C   LIG d   1       7.654  -1.146  -9.924  0.00  0.00    -0.047 A 
ATOM      7  C   LIG d   1       6.271  -0.940  -9.977  0.00  0.00     0.022 A 
ATOM      8  C   LIG d   1       5.549  -0.719  -8.792  0.00  0.00     0.147 A 
ATOM      9  O   LIG d   1       4.215  -0.521  -8.853  0.00  0.00    -0.421 OA
ATOM     10  C   LIG d   1       3.561  -0.533 -10.023  0.00  0.00     0.341 A 
ATOM     11  O   LIG d   1       2.357  -0.351 -10.026  0.00  0.00    -0.245 OA
ATOM     12  C   LIG d   1       4.224  -0.752 -11.255  0.00  0.00     0.041 A 
ATOM     13  C   LIG d   1       5.561  -0.951 -11.262  0.00  0.00    -0.027 A 
ATOM     14  C   LIG d   1       6.353  -1.170 -12.520  0.00  0.00    -0.026 C 
ATOM     15  C   LIG d   1       5.435  -1.574 -13.671  0.00  0.00    -0.049 C 
ATOM     16  C   LIG d   1       4.280  -0.567 -13.742  0.00  0.00    -0.049 C 
ATOM     17  C   LIG d   1       3.395  -0.762 -12.512  0.00  0.00    -0.021 C 
ATOM     18  O   LIG d   1       8.253  -0.910  -6.357  0.00  0.00    -0.473 OA
ATOM     19  C   LIG d   1       7.588  -0.338  -5.230  0.00  0.00     0.157 C 
ATOM     20  H   LIG d   1       4.505  -1.040  -6.341  0.00  0.00     0.052 H 
ATOM     21  H   LIG d   1       5.206   0.591  -6.214  0.00  0.00     0.052 H 
ATOM     22  H   LIG d   1       9.362  -1.289  -8.679  0.00  0.00     0.065 H 
ATOM     23  H   LIG d   1       8.213  -1.314 -10.833  0.00  0.00     0.063 H 
ATOM     24  H   LIG d   1       7.085  -1.960 -12.350  0.00  0.00     0.031 H 
ATOM     25  H   LIG d   1       6.874  -0.249 -12.782  0.00  0.00     0.031 H 
ATOM     26  H   LIG d   1       5.039  -2.575 -13.492  0.00  0.00     0.027 H 
ATOM     27  H   LIG d   1       5.991  -1.563 -14.609  0.00  0.00     0.027 H 
ATOM     28  H   LIG d   1       3.696  -0.742 -14.646  0.00  0.00     0.027 H 
ATOM     29  H   LIG d   1       4.678   0.447 -13.751  0.00  0.00     0.027 H 
ATOM     30  H   LIG d   1       2.875  -1.715 -12.592  0.00  0.00     0.032 H 
ATOM     31  H   LIG d   1       2.664   0.045 -12.466  0.00  0.00     0.032 H 
ATOM     32  H   LIG d   1       7.526   0.744  -5.351  0.00  0.00     0.091 H 
ATOM     33  H   LIG d   1       8.137  -0.576  -4.319  0.00  0.00     0.091 H 
ENDROOT
BRANCH   1  34
ATOM     34  C   LIG d   1       5.608  -0.544  -3.951  0.00  0.00     0.035 A 
ATOM     35  C   LIG d   1       4.853  -1.476  -3.252  0.00  0.00    -0.029 A 
ATOM     36  C   LIG d   1       4.240  -1.118  -2.068  0.00  0.00    -0.057 A 
ATOM     37  C   LIG d   1       4.382   0.167  -1.575  0.00  0.00    -0.061 A 
ATOM     38  H   LIG d   1       3.652  -1.842  -1.524  0.00  0.00     0.062 H 
ATOM     39  C   LIG d   1       5.128   1.099  -2.272  0.00  0.00    -0.060 A 
ATOM     40  H   LIG d   1       3.905   0.443  -0.646  0.00  0.00     0.062 H 
ATOM     41  C   LIG d   1       5.745   0.747  -3.456  0.00  0.00    -0.040 A 
ATOM     42  H   LIG d   1       5.234   2.103  -1.886  0.00  0.00     0.062 H 
ATOM     43  H   LIG d   1       6.332   1.476  -3.998  0.00  0.00     0.064 H 
BRANCH  35  44
ATOM     44  C   LIG d   1       4.703  -2.878  -3.786  0.00  0.00    -0.038 C 
ATOM     45  H   LIG d   1       4.092  -2.859  -4.688  0.00  0.00     0.028 H 
ATOM     46  H   LIG d   1       5.687  -3.283  -4.022  0.00  0.00     0.028 H 
ATOM     47  H   LIG d   1       4.222  -3.504  -3.034  0.00  0.00     0.028 H 
ENDBRANCH  35  44
ENDBRANCH   1  34
TORSDOF 2
ENDMDL
MODEL 7
REMARK VINA RESULT:      -6.7      2.312      3.017
REMARK  2 active torsions:
REMARK  status: ('A' for Active; 'I' for Inactive)
REMARK    1  A    between atoms: C_1  and  C_2 
REMARK    2  A    between atoms: C_7  and  N_8 
ROOT
ATOM      1  N   LIG d   1       4.648  -1.022  -6.396  0.00  0.00    -0.293 NA
ATOM      2  C   LIG d   1       3.547  -1.302  -7.329  0.00  0.00     0.047 C 
ATOM      3  C   LIG d   1       3.963  -0.927  -8.729  0.00  0.00     0.054 A 
ATOM      4  C   LIG d   1       5.046  -0.093  -8.948  0.00  0.00     0.131 A 
ATOM      5  C   LIG d   1       5.420   0.249 -10.249  0.00  0.00    -0.019 A 
ATOM      6  C   LIG d   1       4.727  -0.233 -11.321  0.00  0.00    -0.047 A 
ATOM      7  C   LIG d   1       3.630  -1.077 -11.115  0.00  0.00     0.022 A 
ATOM      8  C   LIG d   1       3.247  -1.424  -9.808  0.00  0.00     0.147 A 
ATOM      9  O   LIG d   1       2.187  -2.239  -9.619  0.00  0.00    -0.421 OA
ATOM     10  C   LIG d   1       1.491  -2.728 -10.654  0.00  0.00     0.341 A 
ATOM     11  O   LIG d   1       0.543  -3.460 -10.432  0.00  0.00    -0.245 OA
ATOM     12  C   LIG d   1       1.821  -2.423 -11.997  0.00  0.00     0.041 A 
ATOM     13  C   LIG d   1       2.868  -1.607 -12.253  0.00  0.00    -0.027 A 
ATOM     14  C   LIG d   1       3.282  -1.210 -13.642  0.00  0.00    -0.026 C 
ATOM     15  C   LIG d   1       2.683  -2.163 -14.675  0.00  0.00    -0.049 C 
ATOM     16  C   LIG d   1       1.178  -2.283 -14.403  0.00  0.00    -0.049 C 
ATOM     17  C   LIG d   1       0.985  -3.036 -13.089  0.00  0.00    -0.021 C 
ATOM     18  O   LIG d   1       5.762   0.403  -7.906  0.00  0.00    -0.473 OA
ATOM     19  C   LIG d   1       5.160   0.342  -6.611  0.00  0.00     0.157 C 
ATOM     20  H   LIG d   1       3.305  -2.364  -7.295  0.00  0.00     0.052 H 
ATOM     21  H   LIG d   1       2.672  -0.721  -7.041  0.00  0.00     0.052 H 
ATOM     22  H   LIG d   1       6.266   0.901 -10.408  0.00  0.00     0.065 H 
ATOM     23  H   LIG d   1       5.023   0.037 -12.323  0.00  0.00     0.063 H 
ATOM     24  H   LIG d   1       4.369  -1.238 -13.715  0.00  0.00     0.031 H 
ATOM     25  H   LIG d   1       2.934  -0.197 -13.845  0.00  0.00     0.031 H 
ATOM     26  H   LIG d   1       3.152  -3.144 -14.585  0.00  0.00     0.027 H 
ATOM     27  H   LIG d   1       2.845  -1.769 -15.678  0.00  0.00     0.027 H 
ATOM     28  H   LIG d   1       0.702  -2.834 -15.214  0.00  0.00     0.027 H 
ATOM     29  H   LIG d   1       0.739  -1.289 -14.325  0.00  0.00     0.027 H 
ATOM     30  H   LIG d   1       1.278  -4.076 -13.224  0.00  0.00     0.032 H 
ATOM     31  H   LIG d   1      -0.066  -2.993 -12.802  0.00  0.00     0.032 H 
ATOM     32  H   LIG d   1       4.336   1.054  -6.557  0.00  0.00     0.091 H 
ATOM     33  H   LIG d   1       5.902   0.579  -5.849  0.00  0.00     0.091 H 
ENDROOT
BRANCH   1  34
ATOM     34  C   LIG d   1       4.240  -1.200  -5.072  0.00  0.00     0.035 A 
ATOM     35  C   LIG d   1       4.699  -2.289  -4.343  0.00  0.00    -0.029 A 
ATOM     36  C   LIG d   1       4.293  -2.463  -3.034  0.00  0.00    -0.057 A 
ATOM     37  C   LIG d   1       3.437  -1.549  -2.447  0.00  0.00    -0.061 A 
ATOM     38  H   LIG d   1       4.649  -3.310  -2.466  0.00  0.00     0.062 H 
ATOM     39  C   LIG d   1       2.974  -0.466  -3.172  0.00  0.00    -0.060 A 
ATOM     40  H   LIG d   1       3.125  -1.684  -1.422  0.00  0.00     0.062 H 
ATOM     41  C   LIG d   1       3.375  -0.287  -4.481  0.00  0.00    -0.040 A 
ATOM     42  H   LIG d   1       2.301   0.243  -2.713  0.00  0.00     0.062 H 
ATOM     43  H   LIG d   1       3.017   0.562  -5.045  0.00  0.00     0.064 H 
BRANCH  35  44
ATOM     44  C   LIG d   1       5.637  -3.282  -4.980  0.00  0.00    -0.038 C 
ATOM     45  H   LIG d   1       6.383  -2.750  -5.569  0.00  0.00     0.028 H 
ATOM     46  H   LIG d   1       6.134  -3.862  -4.202  0.00  0.00     0.028 H 
ATOM     47  H   LIG d   1       5.072  -3.953  -5.628  0.00  0.00     0.028 H 
ENDBRANCH  35  44
ENDBRANCH   1  34
TORSDOF 2
ENDMDL
MODEL 8
REMARK VINA RESULT:      -6.6      4.047      6.874
REMARK  2 active torsions:
REMARK  status: ('A' for Active; 'I' for Inactive)
REMARK    1  A    between atoms: C_1  and  C_2 
REMARK    2  A    between atoms: C_7  and  N_8 
ROOT
ATOM      1  N   LIG d   1       3.272  -1.450  -9.752  0.00  0.00    -0.293 NA
ATOM      2  C   LIG d   1       3.628  -2.214  -8.547  0.00  0.00     0.047 C 
ATOM      3  C   LIG d   1       3.439  -3.687  -8.807  0.00  0.00     0.054 A 
ATOM      4  C   LIG d   1       2.674  -4.127  -9.874  0.00  0.00     0.131 A 
ATOM      5  C   LIG d   1       2.505  -5.493 -10.103  0.00  0.00    -0.019 A 
ATOM      6  C   LIG d   1       3.089  -6.413  -9.284  0.00  0.00    -0.047 A 
ATOM      7  C   LIG d   1       3.865  -5.984  -8.201  0.00  0.00     0.022 A 
ATOM      8  C   LIG d   1       4.039  -4.610  -7.963  0.00  0.00     0.147 A 
ATOM      9  O   LIG d   1       4.789  -4.205  -6.916  0.00  0.00    -0.421 OA
ATOM     10  C   LIG d   1       5.377  -5.087  -6.098  0.00  0.00     0.341 A 
ATOM     11  O   LIG d   1       6.045  -4.673  -5.168  0.00  0.00    -0.245 OA
ATOM     12  C   LIG d   1       5.248  -6.487  -6.279  0.00  0.00     0.041 A 
ATOM     13  C   LIG d   1       4.505  -6.956  -7.305  0.00  0.00    -0.027 A 
ATOM     14  C   LIG d   1       4.293  -8.421  -7.565  0.00  0.00    -0.026 C 
ATOM     15  C   LIG d   1       5.344  -9.254  -6.834  0.00  0.00    -0.049 C 
ATOM     16  C   LIG d   1       5.380  -8.805  -5.368  0.00  0.00    -0.049 C 
ATOM     17  C   LIG d   1       5.962  -7.394  -5.312  0.00  0.00    -0.021 C 
ATOM     18  O   LIG d   1       2.079  -3.240 -10.714  0.00  0.00    -0.473 OA
ATOM     19  C   LIG d   1       1.962  -1.889 -10.262  0.00  0.00     0.157 C 
ATOM     20  H   LIG d   1       4.669  -2.022  -8.289  0.00  0.00     0.052 H 
ATOM     21  H   LIG d   1       2.987  -1.905  -7.721  0.00  0.00     0.052 H 
ATOM     22  H   LIG d   1       1.905  -5.824 -10.938  0.00  0.00     0.065 H 
ATOM     23  H   LIG d   1       2.953  -7.468  -9.469  0.00  0.00     0.063 H 
ATOM     24  H   LIG d   1       4.366  -8.610  -8.636  0.00  0.00     0.031 H 
ATOM     25  H   LIG d   1       3.300  -8.708  -7.216  0.00  0.00     0.031 H 
ATOM     26  H   LIG d   1       6.321  -9.096  -7.291  0.00  0.00     0.027 H 
ATOM     27  H   LIG d   1       5.080 -10.311  -6.888  0.00  0.00     0.027 H 
ATOM     28  H   LIG d   1       6.009  -9.484  -4.792  0.00  0.00     0.027 H 
ATOM     29  H   LIG d   1       4.370  -8.803  -4.960  0.00  0.00     0.027 H 
ATOM     30  H   LIG d   1       7.020  -7.431  -5.568  0.00  0.00     0.032 H 
ATOM     31  H   LIG d   1       5.850  -7.000  -4.302  0.00  0.00     0.032 H 
ATOM     32  H   LIG d   1       1.222  -1.832  -9.463  0.00  0.00     0.091 H 
ATOM     33  H   LIG d   1       1.659  -1.249 -11.091  0.00  0.00     0.091 H 
ENDROOT
BRANCH   1  34
ATOM     34  C   LIG d   1       3.275  -0.077  -9.494  0.00  0.00     0.035 A 
ATOM     35  C   LIG d   1       3.764   0.808 -10.445  0.00  0.00    -0.029 A 
ATOM     36  C   LIG d   1       3.765   2.165 -10.187  0.00  0.00    -0.057 A 
ATOM     37  C   LIG d   1       3.275   2.642  -8.985  0.00  0.00    -0.061 A 
ATOM     38  H   LIG d   1       4.145   2.855 -10.926  0.00  0.00     0.062 H 
ATOM     39  C   LIG d   1       2.793   1.762  -8.034  0.00  0.00    -0.060 A 
ATOM     40  H   LIG d   1       3.272   3.704  -8.788  0.00  0.00     0.062 H 
ATOM     41  C   LIG d   1       2.789   0.405  -8.286  0.00  0.00    -0.040 A 
ATOM     42  H   LIG d   1       2.415   2.138  -7.094  0.00  0.00     0.062 H 
ATOM     43  H   LIG d   1       2.407  -0.282  -7.543  0.00  0.00     0.064 H 
BRANCH  35  44
ATOM     44  C   LIG d   1       4.293   0.290 -11.758  0.00  0.00    -0.038 C 
ATOM     45  H   LIG d   1       4.110   1.026 -12.540  0.00  0.00     0.028 H 
ATOM     46  H   LIG d   1       5.365   0.110 -11.671  0.00  0.00     0.028 H 
ATOM     47  H   LIG d   1       3.788  -0.642 -12.011  0.00  0.00     0.028 H 
ENDBRANCH  35  44
ENDBRANCH   1  34
TORSDOF 2
ENDMDL
MODEL 9
REMARK VINA RESULT:      -6.5      9.092     11.072
REMARK  2 active torsions:
REMARK  status: ('A' for Active; 'I' for Inactive)
REMARK    1  A    between atoms: C_1  and  C_2 
REMARK    2  A    between atoms: C_7  and  N_8 
ROOT
ATOM      1  N   LIG d   1      10.203   7.469  -1.440  0.00  0.00    -0.293 NA
ATOM      2  C   LIG d   1      10.534   7.845  -2.822  0.00  0.00     0.047 C 
ATOM      3  C   LIG d   1      10.185   6.710  -3.752  0.00  0.00     0.054 A 
ATOM      4  C   LIG d   1       9.982   5.430  -3.264  0.00  0.00     0.131 A 
ATOM      5  C   LIG d   1       9.661   4.388  -4.135  0.00  0.00    -0.019 A 
ATOM      6  C   LIG d   1       9.543   4.612  -5.475  0.00  0.00    -0.047 A 
ATOM      7  C   LIG d   1       9.746   5.901  -5.983  0.00  0.00     0.022 A 
ATOM      8  C   LIG d   1      10.070   6.955  -5.112  0.00  0.00     0.147 A 
ATOM      9  O   LIG d   1      10.264   8.195  -5.611  0.00  0.00    -0.421 OA
ATOM     10  C   LIG d   1      10.151   8.444  -6.922  0.00  0.00     0.341 A 
ATOM     11  O   LIG d   1      10.334   9.579  -7.324  0.00  0.00    -0.245 OA
ATOM     12  C   LIG d   1       9.824   7.430  -7.857  0.00  0.00     0.041 A 
ATOM     13  C   LIG d   1       9.624   6.167  -7.421  0.00  0.00    -0.027 A 
ATOM     14  C   LIG d   1       9.295   5.023  -8.339  0.00  0.00    -0.026 C 
ATOM     15  C   LIG d   1       8.793   5.541  -9.686  0.00  0.00    -0.049 C 
ATOM     16  C   LIG d   1       9.792   6.583 -10.203  0.00  0.00    -0.049 C 
ATOM     17  C   LIG d   1       9.706   7.818  -9.307  0.00  0.00    -0.021 C 
ATOM     18  O   LIG d   1      10.088   5.169  -1.935  0.00  0.00    -0.473 OA
ATOM     19  C   LIG d   1      10.757   6.141  -1.129  0.00  0.00     0.157 C 
ATOM     20  H   LIG d   1       9.965   8.731  -3.103  0.00  0.00     0.052 H 
ATOM     21  H   LIG d   1      11.600   8.059  -2.894  0.00  0.00     0.052 H 
ATOM     22  H   LIG d   1       9.506   3.393  -3.743  0.00  0.00     0.065 H 
ATOM     23  H   LIG d   1       9.295   3.800  -6.141  0.00  0.00     0.063 H 
ATOM     24  H   LIG d   1       8.522   4.406  -7.880  0.00  0.00     0.031 H 
ATOM     25  H   LIG d   1      10.189   4.420  -8.497  0.00  0.00     0.031 H 
ATOM     26  H   LIG d   1       7.813   6.002  -9.560  0.00  0.00     0.027 H 
ATOM     27  H   LIG d   1       8.722   4.716 -10.395  0.00  0.00     0.027 H 
ATOM     28  H   LIG d   1       9.540   6.856 -11.228  0.00  0.00     0.027 H 
ATOM     29  H   LIG d   1      10.801   6.173 -10.168  0.00  0.00     0.027 H 
ATOM     30  H   LIG d   1       8.750   8.314  -9.470  0.00  0.00     0.032 H 
ATOM     31  H   LIG d   1      10.515   8.502  -9.563  0.00  0.00     0.032 H 
ATOM     32  H   LIG d   1      11.824   6.129  -1.352  0.00  0.00     0.091 H 
ATOM     33  H   LIG d   1      10.599   5.916  -0.075  0.00  0.00     0.091 H 
ENDROOT
BRANCH   1  34
ATOM     34  C   LIG d   1      10.666   8.429  -0.536  0.00  0.00     0.035 A 
ATOM     35  C   LIG d   1       9.868   9.516  -0.206  0.00  0.00    -0.029 A 
ATOM     36  C   LIG d   1      10.329  10.463   0.688  0.00  0.00    -0.057 A 
ATOM     37  C   LIG d   1      11.581  10.324   1.260  0.00  0.00    -0.061 A 
ATOM     38  H   LIG d   1       9.710  11.309   0.945  0.00  0.00     0.062 H 
ATOM     39  C   LIG d   1      12.380   9.246   0.928  0.00  0.00    -0.060 A 
ATOM     40  H   LIG d   1      11.937  11.063   1.962  0.00  0.00     0.062 H 
ATOM     41  C   LIG d   1      11.925   8.296   0.035  0.00  0.00    -0.040 A 
ATOM     42  H   LIG d   1      13.360   9.143   1.373  0.00  0.00     0.062 H 
ATOM     43  H   LIG d   1      12.549   7.451  -0.219  0.00  0.00     0.064 H 
BRANCH  35  44
ATOM     44  C   LIG d   1       8.501   9.664  -0.823  0.00  0.00    -0.038 C 
ATOM     45  H   LIG d   1       7.790   9.977  -0.060  0.00  0.00     0.028 H 
ATOM     46  H   LIG d   1       8.540  10.414  -1.613  0.00  0.00     0.028 H 
ATOM     47  H   LIG d   1       8.187   8.709  -1.244  0.00  0.00     0.028 H 
ENDBRANCH  35  44
ENDBRANCH   1  34
TORSDOF 2
ENDMDL
MODEL 10
REMARK VINA RESULT:      -6.4      2.442      8.169
REMARK  2 active torsions:
REMARK  status: ('A' for Active; 'I' for Inactive)
REMARK    1  A    between atoms: C_1  and  C_2 
REMARK    2  A    between atoms: C_7  and  N_8 
ROOT
ATOM      1  N   LIG d   1       5.196  -4.093  -9.580  0.00  0.00    -0.293 NA
ATOM      2  C   LIG d   1       4.454  -3.082  -8.813  0.00  0.00     0.047 C 
ATOM      3  C   LIG d   1       4.675  -3.303  -7.338  0.00  0.00     0.054 A 
ATOM      4  C   LIG d   1       5.165  -4.509  -6.867  0.00  0.00     0.131 A 
ATOM      5  C   LIG d   1       5.364  -4.702  -5.499  0.00  0.00    -0.019 A 
ATOM      6  C   LIG d   1       5.080  -3.709  -4.608  0.00  0.00    -0.047 A 
ATOM      7  C   LIG d   1       4.583  -2.485  -5.069  0.00  0.00     0.022 A 
ATOM      8  C   LIG d   1       4.380  -2.283  -6.445  0.00  0.00     0.147 A 
ATOM      9  O   LIG d   1       3.900  -1.099  -6.881  0.00  0.00    -0.421 OA
ATOM     10  C   LIG d   1       3.616  -0.106  -6.028  0.00  0.00     0.341 A 
ATOM     11  O   LIG d   1       3.186   0.945  -6.470  0.00  0.00    -0.245 OA
ATOM     12  C   LIG d   1       3.799  -0.237  -4.629  0.00  0.00     0.041 A 
ATOM     13  C   LIG d   1       4.270  -1.401  -4.129  0.00  0.00    -0.027 A 
ATOM     14  C   LIG d   1       4.478  -1.641  -2.660  0.00  0.00    -0.026 C 
ATOM     15  C   LIG d   1       4.520  -0.317  -1.899  0.00  0.00    -0.049 C 
ATOM     16  C   LIG d   1       3.293   0.510  -2.304  0.00  0.00    -0.049 C 
ATOM     17  C   LIG d   1       3.464   0.944  -3.758  0.00  0.00    -0.021 C 
ATOM     18  O   LIG d   1       5.463  -5.520  -7.724  0.00  0.00    -0.473 OA
ATOM     19  C   LIG d   1       4.923  -5.437  -9.044  0.00  0.00     0.157 C 
ATOM     20  H   LIG d   1       4.805  -2.088  -9.087  0.00  0.00     0.052 H 
ATOM     21  H   LIG d   1       3.391  -3.166  -9.038  0.00  0.00     0.052 H 
ATOM     22  H   LIG d   1       5.746  -5.647  -5.142  0.00  0.00     0.065 H 
ATOM     23  H   LIG d   1       5.236  -3.867  -3.551  0.00  0.00     0.063 H 
ATOM     24  H   LIG d   1       5.419  -2.171  -2.512  0.00  0.00     0.031 H 
ATOM     25  H   LIG d   1       3.658  -2.250  -2.276  0.00  0.00     0.031 H 
ATOM     26  H   LIG d   1       5.430   0.226  -2.156  0.00  0.00     0.027 H 
ATOM     27  H   LIG d   1       4.497  -0.508  -0.826  0.00  0.00     0.027 H 
ATOM     28  H   LIG d   1       3.217   1.390  -1.665  0.00  0.00     0.027 H 
ATOM     29  H   LIG d   1       2.393  -0.096  -2.204  0.00  0.00     0.027 H 
ATOM     30  H   LIG d   1       4.267   1.677  -3.822  0.00  0.00     0.032 H 
ATOM     31  H   LIG d   1       2.536   1.396  -4.108  0.00  0.00     0.032 H 
ATOM     32  H   LIG d   1       3.846  -5.604  -9.011  0.00  0.00     0.091 H 
ATOM     33  H   LIG d   1       5.392  -6.187  -9.681  0.00  0.00     0.091 H 
ENDROOT
BRANCH   1  34
ATOM     34  C   LIG d   1       4.881  -4.022 -10.939  0.00  0.00     0.035 A 
ATOM     35  C   LIG d   1       5.843  -3.618 -11.856  0.00  0.00    -0.029 A 
ATOM     36  C   LIG d   1       5.528  -3.548 -13.198  0.00  0.00    -0.057 A 
ATOM     37  C   LIG d   1       4.259  -3.887 -13.631  0.00  0.00    -0.061 A 
ATOM     38  H   LIG d   1       6.275  -3.234 -13.913  0.00  0.00     0.062 H 
ATOM     39  C   LIG d   1       3.298  -4.284 -12.720  0.00  0.00    -0.060 A 
ATOM     40  H   LIG d   1       4.017  -3.837 -14.683  0.00  0.00     0.062 H 
ATOM     41  C   LIG d   1       3.606  -4.356 -11.376  0.00  0.00    -0.040 A 
ATOM     42  H   LIG d   1       2.306  -4.543 -13.060  0.00  0.00     0.062 H 
ATOM     43  H   LIG d   1       2.855  -4.671 -10.665  0.00  0.00     0.064 H 
BRANCH  35  44
ATOM     44  C   LIG d   1       7.228  -3.254 -11.386  0.00  0.00    -0.038 C 
ATOM     45  H   LIG d   1       7.535  -3.939 -10.595  0.00  0.00     0.028 H 
ATOM     46  H   LIG d   1       7.925  -3.327 -12.221  0.00  0.00     0.028 H 
ATOM     47  H   LIG d   1       7.226  -2.234 -11.002  0.00  0.00     0.028 H 
ENDBRANCH  35  44
ENDBRANCH   1  34
TORSDOF 2
ENDMDL
