MODEL 1
REMARK VINA RESULT:      -6.0      0.000      0.000
REMARK  13 active torsions:
REMARK  status: ('A' for Active; 'I' for Inactive)
REMARK    1  A    between atoms: C_1  and  C_2 
REMARK    2  A    between atoms: C_2  and  C_3 
REMARK    3  A    between atoms: C_3  and  C_4 
REMARK    4  A    between atoms: C_4  and  C_5 
REMARK    5  A    between atoms: C_5  and  N_6 
REMARK    6  A    between atoms: N_6  and  C_7 
REMARK       I    between atoms: N_6  and  C_12 
REMARK    7  A    between atoms: C_7  and  C_8 
REMARK    8  A    between atoms: C_8  and  C_9 
REMARK    9  A    between atoms: C_9  and  C_10 
REMARK   10  A    between atoms: C_10  and  C_11 
REMARK   11  A    between atoms: C_12  and  C_14 
REMARK   12  A    between atoms: C_14  and  C_15 
REMARK   13  A    between atoms: C_14  and  C_19 
ROOT
ATOM      1  N   LIG d   1       4.906  -0.485  -5.700  0.00  0.00    -0.299 N 
ATOM      2  C   LIG d   1       4.237   0.064  -4.668  0.00  0.00     0.255 C 
ATOM      3  O   LIG d   1       3.157   0.585  -4.854  0.00  0.00    -0.273 OA
ENDROOT
BRANCH   1   4
ATOM      4  C   LIG d   1       4.173  -0.997  -6.860  0.00  0.00     0.015 C 
ATOM      5  H   LIG d   1       3.126  -1.145  -6.593  0.00  0.00     0.046 H 
ATOM      6  H   LIG d   1       4.605  -1.947  -7.173  0.00  0.00     0.046 H 
BRANCH   4   7
ATOM      7  C   LIG d   1       4.268   0.009  -8.009  0.00  0.00    -0.037 C 
ATOM      8  H   LIG d   1       4.720  -0.472  -8.877  0.00  0.00     0.028 H 
ATOM      9  H   LIG d   1       4.883   0.855  -7.701  0.00  0.00     0.028 H 
BRANCH   7  10
ATOM     10  C   LIG d   1       2.866   0.502  -8.373  0.00  0.00    -0.052 C 
ATOM     11  H   LIG d   1       2.150   0.142  -7.633  0.00  0.00     0.027 H 
ATOM     12  H   LIG d   1       2.591   0.123  -9.357  0.00  0.00     0.027 H 
BRANCH  10  13
ATOM     13  C   LIG d   1       2.853   2.032  -8.393  0.00  0.00    -0.056 C 
ATOM     14  H   LIG d   1       3.006   2.409  -7.382  0.00  0.00     0.026 H 
ATOM     15  H   LIG d   1       1.891   2.382  -8.770  0.00  0.00     0.026 H 
BRANCH  13  16
ATOM     16  C   LIG d   1       3.973   2.540  -9.303  0.00  0.00    -0.065 C 
ATOM     17  H   LIG d   1       3.555   2.828 -10.268  0.00  0.00     0.023 H 
ATOM     18  H   LIG d   1       4.452   3.405  -8.843  0.00  0.00     0.023 H 
ATOM     19  H   LIG d   1       4.710   1.750  -9.447  0.00  0.00     0.023 H 
ENDBRANCH  13  16
ENDBRANCH  10  13
ENDBRANCH   7  10
ENDBRANCH   4   7
ENDBRANCH   1   4
BRANCH   1  20
ATOM     20  C   LIG d   1       6.368  -0.572  -5.661  0.00  0.00     0.015 C 
ATOM     21  H   LIG d   1       6.797   0.233  -6.258  0.00  0.00     0.046 H 
ATOM     22  H   LIG d   1       6.711  -0.481  -4.630  0.00  0.00     0.046 H 
BRANCH  20  23
ATOM     23  C   LIG d   1       6.814  -1.921  -6.230  0.00  0.00    -0.037 C 
ATOM     24  H   LIG d   1       5.953  -2.585  -6.307  0.00  0.00     0.028 H 
ATOM     25  H   LIG d   1       7.249  -1.772  -7.218  0.00  0.00     0.028 H 
BRANCH  23  26
ATOM     26  C   LIG d   1       7.858  -2.545  -5.303  0.00  0.00    -0.052 C 
ATOM     27  H   LIG d   1       8.834  -2.527  -5.789  0.00  0.00     0.027 H 
ATOM     28  H   LIG d   1       7.906  -1.977  -4.373  0.00  0.00     0.027 H 
BRANCH  26  29
ATOM     29  C   LIG d   1       7.469  -3.992  -4.997  0.00  0.00    -0.056 C 
ATOM     30  H   LIG d   1       8.070  -4.667  -5.605  0.00  0.00     0.026 H 
ATOM     31  H   LIG d   1       7.644  -4.201  -3.941  0.00  0.00     0.026 H 
BRANCH  29  32
ATOM     32  C   LIG d   1       5.986  -4.200  -5.319  0.00  0.00    -0.065 C 
ATOM     33  H   LIG d   1       5.761  -3.760  -6.289  0.00  0.00     0.023 H 
ATOM     34  H   LIG d   1       5.767  -5.268  -5.343  0.00  0.00     0.023 H 
ATOM     35  H   LIG d   1       5.378  -3.722  -4.552  0.00  0.00     0.023 H 
ENDBRANCH  29  32
ENDBRANCH  26  29
ENDBRANCH  23  26
ENDBRANCH  20  23
ENDBRANCH   1  20
BRANCH   2  36
ATOM     36  C   LIG d   1       4.827   0.030  -3.282  0.00  0.00     0.308 C 
ATOM     37 CL   LIG d   1       6.549   0.560  -3.347  0.00  0.00    -0.090 Cl
BRANCH  36  38
ATOM     38  C   LIG d   1       4.039   0.971  -2.369  0.00  0.00     0.425 C 
ATOM     39  F   LIG d   1       4.686   1.073  -1.133  0.00  0.00    -0.168 F 
ATOM     40  F   LIG d   1       3.961   2.238  -2.959  0.00  0.00    -0.168 F 
ATOM     41  F   LIG d   1       2.749   0.465  -2.180  0.00  0.00    -0.168 F 
ENDBRANCH  36  38
BRANCH  36  42
ATOM     42  C   LIG d   1       4.752  -1.395  -2.730  0.00  0.00     0.425 C 
ATOM     43  F   LIG d   1       3.837  -2.138  -3.483  0.00  0.00    -0.168 F 
ATOM     44  F   LIG d   1       6.014  -1.993  -2.809  0.00  0.00    -0.168 F 
ATOM     45  F   LIG d   1       4.335  -1.358  -1.395  0.00  0.00    -0.168 F 
ENDBRANCH  36  42
ENDBRANCH   2  36
TORSDOF 13
ENDMDL
MODEL 2
REMARK VINA RESULT:      -5.9      2.032      3.053
REMARK  13 active torsions:
REMARK  status: ('A' for Active; 'I' for Inactive)
REMARK    1  A    between atoms: C_1  and  C_2 
REMARK    2  A    between atoms: C_2  and  C_3 
REMARK    3  A    between atoms: C_3  and  C_4 
REMARK    4  A    between atoms: C_4  and  C_5 
REMARK    5  A    between atoms: C_5  and  N_6 
REMARK    6  A    between atoms: N_6  and  C_7 
REMARK       I    between atoms: N_6  and  C_12 
REMARK    7  A    between atoms: C_7  and  C_8 
REMARK    8  A    between atoms: C_8  and  C_9 
REMARK    9  A    between atoms: C_9  and  C_10 
REMARK   10  A    between atoms: C_10  and  C_11 
REMARK   11  A    between atoms: C_12  and  C_14 
REMARK   12  A    between atoms: C_14  and  C_15 
REMARK   13  A    between atoms: C_14  and  C_19 
ROOT
ATOM      1  N   LIG d   1       3.797  -0.350  -5.959  0.00  0.00    -0.299 N 
ATOM      2  C   LIG d   1       3.980  -0.173  -4.636  0.00  0.00     0.255 C 
ATOM      3  O   LIG d   1       3.682   0.884  -4.119  0.00  0.00    -0.273 OA
ENDROOT
BRANCH   1   4
ATOM      4  C   LIG d   1       2.754   0.401  -6.662  0.00  0.00     0.015 C 
ATOM      5  H   LIG d   1       3.093   1.424  -6.831  0.00  0.00     0.046 H 
ATOM      6  H   LIG d   1       1.847   0.414  -6.058  0.00  0.00     0.046 H 
BRANCH   4   7
ATOM      7  C   LIG d   1       2.462  -0.267  -8.007  0.00  0.00    -0.037 C 
ATOM      8  H   LIG d   1       1.469  -0.716  -7.981  0.00  0.00     0.028 H 
ATOM      9  H   LIG d   1       3.206  -1.041  -8.198  0.00  0.00     0.028 H 
BRANCH   7  10
ATOM     10  C   LIG d   1       2.519   0.780  -9.120  0.00  0.00    -0.052 C 
ATOM     11  H   LIG d   1       1.537   0.868  -9.587  0.00  0.00     0.027 H 
ATOM     12  H   LIG d   1       3.250   0.476  -9.870  0.00  0.00     0.027 H 
BRANCH  10  13
ATOM     13  C   LIG d   1       2.926   2.132  -8.530  0.00  0.00    -0.056 C 
ATOM     14  H   LIG d   1       3.226   1.998  -7.491  0.00  0.00     0.026 H 
ATOM     15  H   LIG d   1       2.081   2.819  -8.579  0.00  0.00     0.026 H 
BRANCH  13  16
ATOM     16  C   LIG d   1       4.097   2.706  -9.330  0.00  0.00    -0.065 C 
ATOM     17  H   LIG d   1       3.760   2.962 -10.335  0.00  0.00     0.023 H 
ATOM     18  H   LIG d   1       4.473   3.601  -8.834  0.00  0.00     0.023 H 
ATOM     19  H   LIG d   1       4.893   1.964  -9.392  0.00  0.00     0.023 H 
ENDBRANCH  13  16
ENDBRANCH  10  13
ENDBRANCH   7  10
ENDBRANCH   4   7
ENDBRANCH   1   4
BRANCH   1  20
ATOM     20  C   LIG d   1       4.641  -1.295  -6.694  0.00  0.00     0.015 C 
ATOM     21  H   LIG d   1       5.088  -2.003  -5.996  0.00  0.00     0.046 H 
ATOM     22  H   LIG d   1       4.033  -1.836  -7.421  0.00  0.00     0.046 H 
BRANCH  20  23
ATOM     23  C   LIG d   1       5.748  -0.531  -7.424  0.00  0.00    -0.037 C 
ATOM     24  H   LIG d   1       5.424   0.496  -7.601  0.00  0.00     0.028 H 
ATOM     25  H   LIG d   1       6.650  -0.527  -6.812  0.00  0.00     0.028 H 
BRANCH  23  26
ATOM     26  C   LIG d   1       6.041  -1.211  -8.762  0.00  0.00    -0.052 C 
ATOM     27  H   LIG d   1       6.871  -1.908  -8.641  0.00  0.00     0.027 H 
ATOM     28  H   LIG d   1       5.157  -1.754  -9.096  0.00  0.00     0.027 H 
BRANCH  26  29
ATOM     29  C   LIG d   1       6.412  -0.152  -9.801  0.00  0.00    -0.056 C 
ATOM     30  H   LIG d   1       6.265   0.841  -9.377  0.00  0.00     0.026 H 
ATOM     31  H   LIG d   1       7.457  -0.274 -10.088  0.00  0.00     0.026 H 
BRANCH  29  32
ATOM     32  C   LIG d   1       5.522  -0.316 -11.036  0.00  0.00    -0.065 C 
ATOM     33  H   LIG d   1       4.498  -0.043 -10.784  0.00  0.00     0.023 H 
ATOM     34  H   LIG d   1       5.885   0.333 -11.834  0.00  0.00     0.023 H 
ATOM     35  H   LIG d   1       5.551  -1.352 -11.370  0.00  0.00     0.023 H 
ENDBRANCH  29  32
ENDBRANCH  26  29
ENDBRANCH  23  26
ENDBRANCH  20  23
ENDBRANCH   1  20
BRANCH   2  36
ATOM     36  C   LIG d   1       4.554  -1.285  -3.798  0.00  0.00     0.308 C 
ATOM     37 CL   LIG d   1       4.592  -2.808  -4.761  0.00  0.00    -0.090 Cl
BRANCH  36  38
ATOM     38  C   LIG d   1       5.976  -0.918  -3.369  0.00  0.00     0.425 C 
ATOM     39  F   LIG d   1       5.945   0.250  -2.600  0.00  0.00    -0.168 F 
ATOM     40  F   LIG d   1       6.519  -1.961  -2.609  0.00  0.00    -0.168 F 
ATOM     41  F   LIG d   1       6.766  -0.708  -4.503  0.00  0.00    -0.168 F 
ENDBRANCH  36  38
BRANCH  36  42
ATOM     42  C   LIG d   1       3.684  -1.489  -2.555  0.00  0.00     0.425 C 
ATOM     43  F   LIG d   1       2.367  -1.114  -2.843  0.00  0.00    -0.168 F 
ATOM     44  F   LIG d   1       3.714  -2.835  -2.180  0.00  0.00    -0.168 F 
ATOM     45  F   LIG d   1       4.174  -0.701  -1.508  0.00  0.00    -0.168 F 
ENDBRANCH  36  42
ENDBRANCH   2  36
TORSDOF 13
ENDMDL
MODEL 3
REMARK VINA RESULT:      -5.8      1.012      2.072
REMARK  13 active torsions:
REMARK  status: ('A' for Active; 'I' for Inactive)
REMARK    1  A    between atoms: C_1  and  C_2 
REMARK    2  A    between atoms: C_2  and  C_3 
REMARK    3  A    between atoms: C_3  and  C_4 
REMARK    4  A    between atoms: C_4  and  C_5 
REMARK    5  A    between atoms: C_5  and  N_6 
REMARK    6  A    between atoms: N_6  and  C_7 
REMARK       I    between atoms: N_6  and  C_12 
REMARK    7  A    between atoms: C_7  and  C_8 
REMARK    8  A    between atoms: C_8  and  C_9 
REMARK    9  A    between atoms: C_9  and  C_10 
REMARK   10  A    between atoms: C_10  and  C_11 
REMARK   11  A    between atoms: C_12  and  C_14 
REMARK   12  A    between atoms: C_14  and  C_15 
REMARK   13  A    between atoms: C_14  and  C_19 
ROOT
ATOM      1  N   LIG d   1       4.859  -0.429  -5.736  0.00  0.00    -0.299 N 
ATOM      2  C   LIG d   1       4.159   0.060  -4.694  0.00  0.00     0.255 C 
ATOM      3  O   LIG d   1       3.058   0.537  -4.873  0.00  0.00    -0.273 OA
ENDROOT
BRANCH   1   4
ATOM      4  C   LIG d   1       4.157  -0.941  -6.915  0.00  0.00     0.015 C 
ATOM      5  H   LIG d   1       3.108  -1.107  -6.670  0.00  0.00     0.046 H 
ATOM      6  H   LIG d   1       4.610  -1.882  -7.227  0.00  0.00     0.046 H 
BRANCH   4   7
ATOM      7  C   LIG d   1       4.260   0.076  -8.053  0.00  0.00    -0.037 C 
ATOM      8  H   LIG d   1       4.701  -0.402  -8.928  0.00  0.00     0.028 H 
ATOM      9  H   LIG d   1       4.887   0.911  -7.739  0.00  0.00     0.028 H 
BRANCH   7  10
ATOM     10  C   LIG d   1       2.863   0.592  -8.405  0.00  0.00    -0.052 C 
ATOM     11  H   LIG d   1       2.149   0.250  -7.654  0.00  0.00     0.027 H 
ATOM     12  H   LIG d   1       2.570   0.210  -9.383  0.00  0.00     0.027 H 
BRANCH  10  13
ATOM     13  C   LIG d   1       2.877   2.121  -8.436  0.00  0.00    -0.056 C 
ATOM     14  H   LIG d   1       2.980   2.504  -7.421  0.00  0.00     0.026 H 
ATOM     15  H   LIG d   1       1.944   2.484  -8.869  0.00  0.00     0.026 H 
BRANCH  13  16
ATOM     16  C   LIG d   1       4.055   2.604  -9.285  0.00  0.00    -0.065 C 
ATOM     17  H   LIG d   1       3.683   3.217 -10.107  0.00  0.00     0.023 H 
ATOM     18  H   LIG d   1       4.730   3.195  -8.668  0.00  0.00     0.023 H 
ATOM     19  H   LIG d   1       4.589   1.743  -9.687  0.00  0.00     0.023 H 
ENDBRANCH  13  16
ENDBRANCH  10  13
ENDBRANCH   7  10
ENDBRANCH   4   7
ENDBRANCH   1   4
BRANCH   1  20
ATOM     20  C   LIG d   1       6.324  -0.449  -5.690  0.00  0.00     0.015 C 
ATOM     21  H   LIG d   1       6.719   0.360  -6.304  0.00  0.00     0.046 H 
ATOM     22  H   LIG d   1       6.656  -0.319  -4.659  0.00  0.00     0.046 H 
BRANCH  20  23
ATOM     23  C   LIG d   1       6.832  -1.790  -6.224  0.00  0.00    -0.037 C 
ATOM     24  H   LIG d   1       7.387  -2.306  -5.440  0.00  0.00     0.028 H 
ATOM     25  H   LIG d   1       5.985  -2.402  -6.534  0.00  0.00     0.028 H 
BRANCH  23  26
ATOM     26  C   LIG d   1       7.750  -1.546  -7.423  0.00  0.00    -0.052 C 
ATOM     27  H   LIG d   1       8.697  -2.066  -7.267  0.00  0.00     0.027 H 
ATOM     28  H   LIG d   1       7.275  -1.923  -8.328  0.00  0.00     0.027 H 
BRANCH  26  29
ATOM     29  C   LIG d   1       8.010  -0.046  -7.569  0.00  0.00    -0.056 C 
ATOM     30  H   LIG d   1       7.286   0.508  -6.973  0.00  0.00     0.026 H 
ATOM     31  H   LIG d   1       9.018   0.184  -7.223  0.00  0.00     0.026 H 
BRANCH  29  32
ATOM     32  C   LIG d   1       7.872   0.354  -9.041  0.00  0.00    -0.065 C 
ATOM     33  H   LIG d   1       7.306   1.281  -9.112  0.00  0.00     0.023 H 
ATOM     34  H   LIG d   1       8.863   0.498  -9.472  0.00  0.00     0.023 H 
ATOM     35  H   LIG d   1       7.351  -0.434  -9.584  0.00  0.00     0.023 H 
ENDBRANCH  29  32
ENDBRANCH  26  29
ENDBRANCH  23  26
ENDBRANCH  20  23
ENDBRANCH   1  20
BRANCH   2  36
ATOM     36  C   LIG d   1       4.743   0.015  -3.306  0.00  0.00     0.308 C 
ATOM     37 CL   LIG d   1       6.461   0.558  -3.356  0.00  0.00    -0.090 Cl
BRANCH  36  38
ATOM     38  C   LIG d   1       3.943   0.941  -2.386  0.00  0.00     0.425 C 
ATOM     39  F   LIG d   1       2.668   0.403  -2.178  0.00  0.00    -0.168 F 
ATOM     40  F   LIG d   1       4.603   1.064  -1.159  0.00  0.00    -0.168 F 
ATOM     41  F   LIG d   1       3.826   2.201  -2.981  0.00  0.00    -0.168 F 
ENDBRANCH  36  38
BRANCH  36  42
ATOM     42  C   LIG d   1       4.675  -1.416  -2.770  0.00  0.00     0.425 C 
ATOM     43  F   LIG d   1       4.463  -1.386  -1.387  0.00  0.00    -0.168 F 
ATOM     44  F   LIG d   1       3.621  -2.097  -3.388  0.00  0.00    -0.168 F 
ATOM     45  F   LIG d   1       5.879  -2.075  -3.042  0.00  0.00    -0.168 F 
ENDBRANCH  36  42
ENDBRANCH   2  36
TORSDOF 13
ENDMDL
MODEL 4
REMARK VINA RESULT:      -5.8      1.736      2.227
REMARK  13 active torsions:
REMARK  status: ('A' for Active; 'I' for Inactive)
REMARK    1  A    between atoms: C_1  and  C_2 
REMARK    2  A    between atoms: C_2  and  C_3 
REMARK    3  A    between atoms: C_3  and  C_4 
REMARK    4  A    between atoms: C_4  and  C_5 
REMARK    5  A    between atoms: C_5  and  N_6 
REMARK    6  A    between atoms: N_6  and  C_7 
REMARK       I    between atoms: N_6  and  C_12 
REMARK    7  A    between atoms: C_7  and  C_8 
REMARK    8  A    between atoms: C_8  and  C_9 
REMARK    9  A    between atoms: C_9  and  C_10 
REMARK   10  A    between atoms: C_10  and  C_11 
REMARK   11  A    between atoms: C_12  and  C_14 
REMARK   12  A    between atoms: C_14  and  C_15 
REMARK   13  A    between atoms: C_14  and  C_19 
ROOT
ATOM      1  N   LIG d   1       3.745  -0.035  -5.931  0.00  0.00    -0.299 N 
ATOM      2  C   LIG d   1       3.542   0.477  -4.701  0.00  0.00     0.255 C 
ATOM      3  O   LIG d   1       2.784   1.412  -4.551  0.00  0.00    -0.273 OA
ENDROOT
BRANCH   1   4
ATOM      4  C   LIG d   1       2.701   0.073  -6.952  0.00  0.00     0.015 C 
ATOM      5  H   LIG d   1       1.734   0.219  -6.469  0.00  0.00     0.046 H 
ATOM      6  H   LIG d   1       2.676  -0.841  -7.545  0.00  0.00     0.046 H 
BRANCH   4   7
ATOM      7  C   LIG d   1       2.999   1.265  -7.864  0.00  0.00    -0.037 C 
ATOM      8  H   LIG d   1       4.052   1.533  -7.778  0.00  0.00     0.028 H 
ATOM      9  H   LIG d   1       2.382   2.113  -7.568  0.00  0.00     0.028 H 
BRANCH   7  10
ATOM     10  C   LIG d   1       2.686   0.888  -9.314  0.00  0.00    -0.052 C 
ATOM     11  H   LIG d   1       1.715   1.297  -9.594  0.00  0.00     0.027 H 
ATOM     12  H   LIG d   1       2.664  -0.197  -9.411  0.00  0.00     0.027 H 
BRANCH  10  13
ATOM     13  C   LIG d   1       3.765   1.462 -10.234  0.00  0.00    -0.056 C 
ATOM     14  H   LIG d   1       3.375   2.341 -10.747  0.00  0.00     0.026 H 
ATOM     15  H   LIG d   1       4.053   0.710 -10.969  0.00  0.00     0.026 H 
BRANCH  13  16
ATOM     16  C   LIG d   1       4.988   1.856  -9.403  0.00  0.00    -0.065 C 
ATOM     17  H   LIG d   1       5.352   0.986  -8.856  0.00  0.00     0.023 H 
ATOM     18  H   LIG d   1       5.774   2.224 -10.063  0.00  0.00     0.023 H 
ATOM     19  H   LIG d   1       4.710   2.639  -8.697  0.00  0.00     0.023 H 
ENDBRANCH  13  16
ENDBRANCH  10  13
ENDBRANCH   7  10
ENDBRANCH   4   7
ENDBRANCH   1   4
BRANCH   1  20
ATOM     20  C   LIG d   1       5.011  -0.701  -6.246  0.00  0.00     0.015 C 
ATOM     21  H   LIG d   1       5.658  -0.015  -6.792  0.00  0.00     0.046 H 
ATOM     22  H   LIG d   1       5.502  -1.006  -5.321  0.00  0.00     0.046 H 
BRANCH  20  23
ATOM     23  C   LIG d   1       4.737  -1.936  -7.108  0.00  0.00    -0.037 C 
ATOM     24  H   LIG d   1       4.977  -2.835  -6.541  0.00  0.00     0.028 H 
ATOM     25  H   LIG d   1       3.684  -1.954  -7.391  0.00  0.00     0.028 H 
BRANCH  23  26
ATOM     26  C   LIG d   1       5.602  -1.882  -8.368  0.00  0.00    -0.052 C 
ATOM     27  H   LIG d   1       6.027  -0.883  -8.474  0.00  0.00     0.027 H 
ATOM     28  H   LIG d   1       6.409  -2.611  -8.287  0.00  0.00     0.027 H 
BRANCH  26  29
ATOM     29  C   LIG d   1       4.743  -2.203  -9.591  0.00  0.00    -0.056 C 
ATOM     30  H   LIG d   1       4.561  -1.291 -10.158  0.00  0.00     0.026 H 
ATOM     31  H   LIG d   1       5.264  -2.925 -10.222  0.00  0.00     0.026 H 
BRANCH  29  32
ATOM     32  C   LIG d   1       3.407  -2.795  -9.135  0.00  0.00    -0.065 C 
ATOM     33  H   LIG d   1       3.334  -3.828  -9.473  0.00  0.00     0.023 H 
ATOM     34  H   LIG d   1       3.348  -2.763  -8.047  0.00  0.00     0.023 H 
ATOM     35  H   LIG d   1       2.589  -2.215  -9.560  0.00  0.00     0.023 H 
ENDBRANCH  29  32
ENDBRANCH  26  29
ENDBRANCH  23  26
ENDBRANCH  20  23
ENDBRANCH   1  20
BRANCH   2  36
ATOM     36  C   LIG d   1       4.255  -0.112  -3.512  0.00  0.00     0.308 C 
ATOM     37 CL   LIG d   1       5.924  -0.598  -3.989  0.00  0.00    -0.090 Cl
BRANCH  36  38
ATOM     38  C   LIG d   1       4.329   0.931  -2.394  0.00  0.00     0.425 C 
ATOM     39  F   LIG d   1       4.965   0.376  -1.279  0.00  0.00    -0.168 F 
ATOM     40  F   LIG d   1       5.055   2.042  -2.839  0.00  0.00    -0.168 F 
ATOM     41  F   LIG d   1       3.036   1.330  -2.043  0.00  0.00    -0.168 F 
ENDBRANCH  36  38
BRANCH  36  42
ATOM     42  C   LIG d   1       3.489  -1.338  -3.013  0.00  0.00     0.425 C 
ATOM     43  F   LIG d   1       3.689  -2.404  -3.898  0.00  0.00    -0.168 F 
ATOM     44  F   LIG d   1       3.954  -1.694  -1.743  0.00  0.00    -0.168 F 
ATOM     45  F   LIG d   1       2.123  -1.040  -2.944  0.00  0.00    -0.168 F 
ENDBRANCH  36  42
ENDBRANCH   2  36
TORSDOF 13
ENDMDL
MODEL 5
REMARK VINA RESULT:      -5.7      1.682      2.742
REMARK  13 active torsions:
REMARK  status: ('A' for Active; 'I' for Inactive)
REMARK    1  A    between atoms: C_1  and  C_2 
REMARK    2  A    between atoms: C_2  and  C_3 
REMARK    3  A    between atoms: C_3  and  C_4 
REMARK    4  A    between atoms: C_4  and  C_5 
REMARK    5  A    between atoms: C_5  and  N_6 
REMARK    6  A    between atoms: N_6  and  C_7 
REMARK       I    between atoms: N_6  and  C_12 
REMARK    7  A    between atoms: C_7  and  C_8 
REMARK    8  A    between atoms: C_8  and  C_9 
REMARK    9  A    between atoms: C_9  and  C_10 
REMARK   10  A    between atoms: C_10  and  C_11 
REMARK   11  A    between atoms: C_12  and  C_14 
REMARK   12  A    between atoms: C_14  and  C_15 
REMARK   13  A    between atoms: C_14  and  C_19 
ROOT
ATOM      1  N   LIG d   1       5.327  -0.470  -5.721  0.00  0.00    -0.299 N 
ATOM      2  C   LIG d   1       4.462  -0.099  -4.757  0.00  0.00     0.255 C 
ATOM      3  O   LIG d   1       3.375   0.350  -5.058  0.00  0.00    -0.273 OA
ENDROOT
BRANCH   1   4
ATOM      4  C   LIG d   1       4.827  -0.904  -7.027  0.00  0.00     0.015 C 
ATOM      5  H   LIG d   1       3.837  -1.346  -6.910  0.00  0.00     0.046 H 
ATOM      6  H   LIG d   1       5.507  -1.645  -7.448  0.00  0.00     0.046 H 
BRANCH   4   7
ATOM      7  C   LIG d   1       4.739   0.300  -7.967  0.00  0.00    -0.037 C 
ATOM      8  H   LIG d   1       5.406   0.147  -8.816  0.00  0.00     0.028 H 
ATOM      9  H   LIG d   1       5.034   1.202  -7.431  0.00  0.00     0.028 H 
BRANCH   7  10
ATOM     10  C   LIG d   1       3.302   0.452  -8.469  0.00  0.00    -0.052 C 
ATOM     11  H   LIG d   1       2.622  -0.060  -7.787  0.00  0.00     0.027 H 
ATOM     12  H   LIG d   1       3.216   0.012  -9.463  0.00  0.00     0.027 H 
BRANCH  10  13
ATOM     13  C   LIG d   1       2.938   1.936  -8.534  0.00  0.00    -0.056 C 
ATOM     14  H   LIG d   1       2.848   2.332  -7.523  0.00  0.00     0.026 H 
ATOM     15  H   LIG d   1       1.989   2.055  -9.057  0.00  0.00     0.026 H 
BRANCH  13  16
ATOM     16  C   LIG d   1       4.033   2.697  -9.285  0.00  0.00    -0.065 C 
ATOM     17  H   LIG d   1       4.749   1.988  -9.701  0.00  0.00     0.023 H 
ATOM     18  H   LIG d   1       3.586   3.277 -10.092  0.00  0.00     0.023 H 
ATOM     19  H   LIG d   1       4.546   3.368  -8.596  0.00  0.00     0.023 H 
ENDBRANCH  13  16
ENDBRANCH  10  13
ENDBRANCH   7  10
ENDBRANCH   4   7
ENDBRANCH   1   4
BRANCH   1  20
ATOM     20  C   LIG d   1       6.769  -0.440  -5.461  0.00  0.00     0.015 C 
ATOM     21  H   LIG d   1       6.945  -0.462  -4.386  0.00  0.00     0.046 H 
ATOM     22  H   LIG d   1       7.240  -1.307  -5.926  0.00  0.00     0.046 H 
BRANCH  20  23
ATOM     23  C   LIG d   1       7.366   0.841  -6.049  0.00  0.00    -0.037 C 
ATOM     24  H   LIG d   1       7.573   0.692  -7.109  0.00  0.00     0.028 H 
ATOM     25  H   LIG d   1       6.657   1.660  -5.928  0.00  0.00     0.028 H 
BRANCH  23  26
ATOM     26  C   LIG d   1       8.666   1.180  -5.319  0.00  0.00    -0.052 C 
ATOM     27  H   LIG d   1       8.750   0.566  -4.421  0.00  0.00     0.027 H 
ATOM     28  H   LIG d   1       9.514   0.981  -5.974  0.00  0.00     0.027 H 
BRANCH  26  29
ATOM     29  C   LIG d   1       8.660   2.658  -4.926  0.00  0.00    -0.056 C 
ATOM     30  H   LIG d   1       9.228   3.231  -5.659  0.00  0.00     0.026 H 
ATOM     31  H   LIG d   1       7.633   3.022  -4.897  0.00  0.00     0.026 H 
BRANCH  29  32
ATOM     32  C   LIG d   1       9.300   2.821  -3.545  0.00  0.00    -0.065 C 
ATOM     33  H   LIG d   1      10.346   2.523  -3.592  0.00  0.00     0.023 H 
ATOM     34  H   LIG d   1       9.232   3.865  -3.235  0.00  0.00     0.023 H 
ATOM     35  H   LIG d   1       8.774   2.195  -2.825  0.00  0.00     0.023 H 
ENDBRANCH  29  32
ENDBRANCH  26  29
ENDBRANCH  23  26
ENDBRANCH  20  23
ENDBRANCH   1  20
BRANCH   2  36
ATOM     36  C   LIG d   1       4.841  -0.242  -3.306  0.00  0.00     0.308 C 
ATOM     37 CL   LIG d   1       6.429  -1.085  -3.179  0.00  0.00    -0.090 Cl
BRANCH  36  38
ATOM     38  C   LIG d   1       4.948   1.144  -2.668  0.00  0.00     0.425 C 
ATOM     39  F   LIG d   1       3.893   1.947  -3.118  0.00  0.00    -0.168 F 
ATOM     40  F   LIG d   1       4.881   1.024  -1.276  0.00  0.00    -0.168 F 
ATOM     41  F   LIG d   1       6.166   1.730  -3.027  0.00  0.00    -0.168 F 
ENDBRANCH  36  38
BRANCH  36  42
ATOM     42  C   LIG d   1       3.771  -1.057  -2.577  0.00  0.00     0.425 C 
ATOM     43  F   LIG d   1       3.388  -2.142  -3.374  0.00  0.00    -0.168 F 
ATOM     44  F   LIG d   1       4.288  -1.529  -1.366  0.00  0.00    -0.168 F 
ATOM     45  F   LIG d   1       2.657  -0.248  -2.326  0.00  0.00    -0.168 F 
ENDBRANCH  36  42
ENDBRANCH   2  36
TORSDOF 13
ENDMDL
MODEL 6
REMARK VINA RESULT:      -5.7      1.656      2.840
REMARK  13 active torsions:
REMARK  status: ('A' for Active; 'I' for Inactive)
REMARK    1  A    between atoms: C_1  and  C_2 
REMARK    2  A    between atoms: C_2  and  C_3 
REMARK    3  A    between atoms: C_3  and  C_4 
REMARK    4  A    between atoms: C_4  and  C_5 
REMARK    5  A    between atoms: C_5  and  N_6 
REMARK    6  A    between atoms: N_6  and  C_7 
REMARK       I    between atoms: N_6  and  C_12 
REMARK    7  A    between atoms: C_7  and  C_8 
REMARK    8  A    between atoms: C_8  and  C_9 
REMARK    9  A    between atoms: C_9  and  C_10 
REMARK   10  A    between atoms: C_10  and  C_11 
REMARK   11  A    between atoms: C_12  and  C_14 
REMARK   12  A    between atoms: C_14  and  C_15 
REMARK   13  A    between atoms: C_14  and  C_19 
ROOT
ATOM      1  N   LIG d   1       4.779  -1.287  -5.457  0.00  0.00    -0.299 N 
ATOM      2  C   LIG d   1       4.913  -0.254  -4.602  0.00  0.00     0.255 C 
ATOM      3  O   LIG d   1       5.734   0.613  -4.822  0.00  0.00    -0.273 OA
ENDROOT
BRANCH   1   4
ATOM      4  C   LIG d   1       5.125  -1.118  -6.870  0.00  0.00     0.015 C 
ATOM      5  H   LIG d   1       5.866  -1.866  -7.155  0.00  0.00     0.046 H 
ATOM      6  H   LIG d   1       5.539  -0.122  -7.027  0.00  0.00     0.046 H 
BRANCH   4   7
ATOM      7  C   LIG d   1       3.870  -1.290  -7.728  0.00  0.00    -0.037 C 
ATOM      8  H   LIG d   1       3.381  -2.230  -7.471  0.00  0.00     0.028 H 
ATOM      9  H   LIG d   1       4.150  -1.302  -8.782  0.00  0.00     0.028 H 
BRANCH   7  10
ATOM     10  C   LIG d   1       2.911  -0.128  -7.467  0.00  0.00    -0.052 C 
ATOM     11  H   LIG d   1       3.353   0.553  -6.739  0.00  0.00     0.027 H 
ATOM     12  H   LIG d   1       1.969  -0.514  -7.076  0.00  0.00     0.027 H 
BRANCH  10  13
ATOM     13  C   LIG d   1       2.650   0.622  -8.775  0.00  0.00    -0.056 C 
ATOM     14  H   LIG d   1       1.613   0.476  -9.077  0.00  0.00     0.026 H 
ATOM     15  H   LIG d   1       3.313   0.240  -9.551  0.00  0.00     0.026 H 
BRANCH  13  16
ATOM     16  C   LIG d   1       2.915   2.115  -8.568  0.00  0.00    -0.065 C 
ATOM     17  H   LIG d   1       2.168   2.526  -7.887  0.00  0.00     0.023 H 
ATOM     18  H   LIG d   1       3.908   2.253  -8.142  0.00  0.00     0.023 H 
ATOM     19  H   LIG d   1       2.855   2.631  -9.526  0.00  0.00     0.023 H 
ENDBRANCH  13  16
ENDBRANCH  10  13
ENDBRANCH   7  10
ENDBRANCH   4   7
ENDBRANCH   1   4
BRANCH   1  20
ATOM     20  C   LIG d   1       4.285  -2.578  -4.973  0.00  0.00     0.015 C 
ATOM     21  H   LIG d   1       3.760  -2.436  -4.028  0.00  0.00     0.046 H 
ATOM     22  H   LIG d   1       3.601  -3.005  -5.708  0.00  0.00     0.046 H 
BRANCH  20  23
ATOM     23  C   LIG d   1       5.465  -3.530  -4.763  0.00  0.00    -0.037 C 
ATOM     24  H   LIG d   1       6.398  -2.967  -4.810  0.00  0.00     0.028 H 
ATOM     25  H   LIG d   1       5.377  -4.007  -3.788  0.00  0.00     0.028 H 
BRANCH  23  26
ATOM     26  C   LIG d   1       5.459  -4.599  -5.857  0.00  0.00    -0.052 C 
ATOM     27  H   LIG d   1       6.024  -4.241  -6.718  0.00  0.00     0.027 H 
ATOM     28  H   LIG d   1       5.919  -5.511  -5.476  0.00  0.00     0.027 H 
BRANCH  26  29
ATOM     29  C   LIG d   1       4.018  -4.890  -6.277  0.00  0.00    -0.056 C 
ATOM     30  H   LIG d   1       3.679  -5.810  -5.801  0.00  0.00     0.026 H 
ATOM     31  H   LIG d   1       3.376  -4.064  -5.971  0.00  0.00     0.026 H 
BRANCH  29  32
ATOM     32  C   LIG d   1       3.953  -5.050  -7.798  0.00  0.00    -0.065 C 
ATOM     33  H   LIG d   1       3.733  -4.086  -8.255  0.00  0.00     0.023 H 
ATOM     34  H   LIG d   1       4.911  -5.417  -8.167  0.00  0.00     0.023 H 
ATOM     35  H   LIG d   1       3.169  -5.761  -8.055  0.00  0.00     0.023 H 
ENDBRANCH  29  32
ENDBRANCH  26  29
ENDBRANCH  23  26
ENDBRANCH  20  23
ENDBRANCH   1  20
BRANCH   2  36
ATOM     36  C   LIG d   1       4.044  -0.173  -3.374  0.00  0.00     0.308 C 
ATOM     37 CL   LIG d   1       2.463  -0.975  -3.700  0.00  0.00    -0.090 Cl
BRANCH  36  38
ATOM     38  C   LIG d   1       4.742  -0.878  -2.209  0.00  0.00     0.425 C 
ATOM     39  F   LIG d   1       4.718  -0.051  -1.081  0.00  0.00    -0.168 F 
ATOM     40  F   LIG d   1       4.077  -2.076  -1.922  0.00  0.00    -0.168 F 
ATOM     41  F   LIG d   1       6.068  -1.154  -2.557  0.00  0.00    -0.168 F 
ENDBRANCH  36  38
BRANCH  36  42
ATOM     42  C   LIG d   1       3.807   1.294  -3.012  0.00  0.00     0.425 C 
ATOM     43  F   LIG d   1       3.118   1.925  -4.054  0.00  0.00    -0.168 F 
ATOM     44  F   LIG d   1       3.050   1.369  -1.839  0.00  0.00    -0.168 F 
ATOM     45  F   LIG d   1       5.037   1.932  -2.815  0.00  0.00    -0.168 F 
ENDBRANCH  36  42
ENDBRANCH   2  36
TORSDOF 13
ENDMDL
MODEL 7
REMARK VINA RESULT:      -5.6      1.989      3.745
REMARK  13 active torsions:
REMARK  status: ('A' for Active; 'I' for Inactive)
REMARK    1  A    between atoms: C_1  and  C_2 
REMARK    2  A    between atoms: C_2  and  C_3 
REMARK    3  A    between atoms: C_3  and  C_4 
REMARK    4  A    between atoms: C_4  and  C_5 
REMARK    5  A    between atoms: C_5  and  N_6 
REMARK    6  A    between atoms: N_6  and  C_7 
REMARK       I    between atoms: N_6  and  C_12 
REMARK    7  A    between atoms: C_7  and  C_8 
REMARK    8  A    between atoms: C_8  and  C_9 
REMARK    9  A    between atoms: C_9  and  C_10 
REMARK   10  A    between atoms: C_10  and  C_11 
REMARK   11  A    between atoms: C_12  and  C_14 
REMARK   12  A    between atoms: C_14  and  C_15 
REMARK   13  A    between atoms: C_14  and  C_19 
ROOT
ATOM      1  N   LIG d   1       5.560  -0.655  -5.427  0.00  0.00    -0.299 N 
ATOM      2  C   LIG d   1       5.472  -0.579  -4.084  0.00  0.00     0.255 C 
ATOM      3  O   LIG d   1       6.422  -0.889  -3.396  0.00  0.00    -0.273 OA
ENDROOT
BRANCH   1   4
ATOM      4  C   LIG d   1       6.861  -0.517  -6.085  0.00  0.00     0.015 C 
ATOM      5  H   LIG d   1       6.855  -1.071  -7.024  0.00  0.00     0.046 H 
ATOM      6  H   LIG d   1       7.641  -0.914  -5.435  0.00  0.00     0.046 H 
BRANCH   4   7
ATOM      7  C   LIG d   1       7.137   0.961  -6.367  0.00  0.00    -0.037 C 
ATOM      8  H   LIG d   1       7.998   1.288  -5.784  0.00  0.00     0.028 H 
ATOM      9  H   LIG d   1       6.264   1.553  -6.089  0.00  0.00     0.028 H 
BRANCH   7  10
ATOM     10  C   LIG d   1       7.429   1.151  -7.856  0.00  0.00    -0.052 C 
ATOM     11  H   LIG d   1       7.890   0.247  -8.255  0.00  0.00     0.027 H 
ATOM     12  H   LIG d   1       8.108   1.993  -7.990  0.00  0.00     0.027 H 
BRANCH  10  13
ATOM     13  C   LIG d   1       6.121   1.428  -8.601  0.00  0.00    -0.056 C 
ATOM     14  H   LIG d   1       6.049   2.492  -8.825  0.00  0.00     0.026 H 
ATOM     15  H   LIG d   1       5.278   1.129  -7.978  0.00  0.00     0.026 H 
BRANCH  13  16
ATOM     16  C   LIG d   1       6.099   0.629  -9.906  0.00  0.00    -0.065 C 
ATOM     17  H   LIG d   1       6.543  -0.353  -9.739  0.00  0.00     0.023 H 
ATOM     18  H   LIG d   1       5.069   0.509 -10.242  0.00  0.00     0.023 H 
ATOM     19  H   LIG d   1       6.670   1.161 -10.667  0.00  0.00     0.023 H 
ENDBRANCH  13  16
ENDBRANCH  10  13
ENDBRANCH   7  10
ENDBRANCH   4   7
ENDBRANCH   1   4
BRANCH   1  20
ATOM     20  C   LIG d   1       4.353  -0.874  -6.228  0.00  0.00     0.015 C 
ATOM     21  H   LIG d   1       3.556  -1.251  -5.589  0.00  0.00     0.046 H 
ATOM     22  H   LIG d   1       4.041   0.068  -6.681  0.00  0.00     0.046 H 
BRANCH  20  23
ATOM     23  C   LIG d   1       4.651  -1.894  -7.330  0.00  0.00    -0.037 C 
ATOM     24  H   LIG d   1       5.650  -1.718  -7.727  0.00  0.00     0.028 H 
ATOM     25  H   LIG d   1       4.595  -2.901  -6.916  0.00  0.00     0.028 H 
BRANCH  23  26
ATOM     26  C   LIG d   1       3.622  -1.747  -8.452  0.00  0.00    -0.052 C 
ATOM     27  H   LIG d   1       4.139  -1.626  -9.405  0.00  0.00     0.027 H 
ATOM     28  H   LIG d   1       2.996  -2.639  -8.491  0.00  0.00     0.027 H 
BRANCH  26  29
ATOM     29  C   LIG d   1       2.748  -0.521  -8.186  0.00  0.00    -0.056 C 
ATOM     30  H   LIG d   1       1.846  -0.825  -7.656  0.00  0.00     0.026 H 
ATOM     31  H   LIG d   1       3.302   0.196  -7.579  0.00  0.00     0.026 H 
BRANCH  29  32
ATOM     32  C   LIG d   1       2.362   0.129  -9.517  0.00  0.00    -0.065 C 
ATOM     33  H   LIG d   1       2.858  -0.394 -10.334  0.00  0.00     0.023 H 
ATOM     34  H   LIG d   1       1.282   0.071  -9.650  0.00  0.00     0.023 H 
ATOM     35  H   LIG d   1       2.672   1.174  -9.514  0.00  0.00     0.023 H 
ENDBRANCH  29  32
ENDBRANCH  26  29
ENDBRANCH  23  26
ENDBRANCH  20  23
ENDBRANCH   1  20
BRANCH   2  36
ATOM     36  C   LIG d   1       4.195  -0.111  -3.437  0.00  0.00     0.308 C 
ATOM     37 CL   LIG d   1       3.058   0.480  -4.705  0.00  0.00    -0.090 Cl
BRANCH  36  38
ATOM     38  C   LIG d   1       3.552  -1.273  -2.678  0.00  0.00     0.425 C 
ATOM     39  F   LIG d   1       2.198  -0.995  -2.459  0.00  0.00    -0.168 F 
ATOM     40  F   LIG d   1       3.670  -2.446  -3.432  0.00  0.00    -0.168 F 
ATOM     41  F   LIG d   1       4.198  -1.442  -1.450  0.00  0.00    -0.168 F 
ENDBRANCH  36  38
BRANCH  36  42
ATOM     42  C   LIG d   1       4.505   1.025  -2.460  0.00  0.00     0.425 C 
ATOM     43  F   LIG d   1       5.535   1.818  -2.979  0.00  0.00    -0.168 F 
ATOM     44  F   LIG d   1       3.361   1.809  -2.277  0.00  0.00    -0.168 F 
ATOM     45  F   LIG d   1       4.905   0.488  -1.231  0.00  0.00    -0.168 F 
ENDBRANCH  36  42
ENDBRANCH   2  36
TORSDOF 13
ENDMDL
MODEL 8
REMARK VINA RESULT:      -5.6      2.283      4.498
REMARK  13 active torsions:
REMARK  status: ('A' for Active; 'I' for Inactive)
REMARK    1  A    between atoms: C_1  and  C_2 
REMARK    2  A    between atoms: C_2  and  C_3 
REMARK    3  A    between atoms: C_3  and  C_4 
REMARK    4  A    between atoms: C_4  and  C_5 
REMARK    5  A    between atoms: C_5  and  N_6 
REMARK    6  A    between atoms: N_6  and  C_7 
REMARK       I    between atoms: N_6  and  C_12 
REMARK    7  A    between atoms: C_7  and  C_8 
REMARK    8  A    between atoms: C_8  and  C_9 
REMARK    9  A    between atoms: C_9  and  C_10 
REMARK   10  A    between atoms: C_10  and  C_11 
REMARK   11  A    between atoms: C_12  and  C_14 
REMARK   12  A    between atoms: C_14  and  C_15 
REMARK   13  A    between atoms: C_14  and  C_19 
ROOT
ATOM      1  N   LIG d   1       6.062  -0.314  -5.107  0.00  0.00    -0.299 N 
ATOM      2  C   LIG d   1       5.742  -0.510  -3.813  0.00  0.00     0.255 C 
ATOM      3  O   LIG d   1       6.577  -0.929  -3.039  0.00  0.00    -0.273 OA
ENDROOT
BRANCH   1   4
ATOM      4  C   LIG d   1       7.446  -0.017  -5.483  0.00  0.00     0.015 C 
ATOM      5  H   LIG d   1       7.576  -0.180  -6.553  0.00  0.00     0.046 H 
ATOM      6  H   LIG d   1       8.120  -0.672  -4.932  0.00  0.00     0.046 H 
BRANCH   4   7
ATOM      7  C   LIG d   1       7.765   1.441  -5.148  0.00  0.00    -0.037 C 
ATOM      8  H   LIG d   1       6.859   1.943  -4.809  0.00  0.00     0.028 H 
ATOM      9  H   LIG d   1       8.148   1.943  -6.037  0.00  0.00     0.028 H 
BRANCH   7  10
ATOM     10  C   LIG d   1       8.819   1.492  -4.040  0.00  0.00    -0.052 C 
ATOM     11  H   LIG d   1       9.745   1.041  -4.398  0.00  0.00     0.027 H 
ATOM     12  H   LIG d   1       8.460   0.940  -3.171  0.00  0.00     0.027 H 
BRANCH  10  13
ATOM     13  C   LIG d   1       9.079   2.948  -3.649  0.00  0.00    -0.056 C 
ATOM     14  H   LIG d   1       9.996   3.008  -3.063  0.00  0.00     0.026 H 
ATOM     15  H   LIG d   1       8.244   3.320  -3.056  0.00  0.00     0.026 H 
BRANCH  13  16
ATOM     16  C   LIG d   1       9.225   3.798  -4.913  0.00  0.00    -0.065 C 
ATOM     17  H   LIG d   1       8.337   4.418  -5.038  0.00  0.00     0.023 H 
ATOM     18  H   LIG d   1      10.103   4.436  -4.824  0.00  0.00     0.023 H 
ATOM     19  H   LIG d   1       9.336   3.144  -5.779  0.00  0.00     0.023 H 
ENDBRANCH  13  16
ENDBRANCH  10  13
ENDBRANCH   7  10
ENDBRANCH   4   7
ENDBRANCH   1   4
BRANCH   1  20
ATOM     20  C   LIG d   1       5.024  -0.395  -6.138  0.00  0.00     0.015 C 
ATOM     21  H   LIG d   1       4.467  -1.324  -6.020  0.00  0.00     0.046 H 
ATOM     22  H   LIG d   1       4.345   0.452  -6.038  0.00  0.00     0.046 H 
BRANCH  20  23
ATOM     23  C   LIG d   1       5.677  -0.364  -7.522  0.00  0.00    -0.037 C 
ATOM     24  H   LIG d   1       6.747  -0.187  -7.414  0.00  0.00     0.028 H 
ATOM     25  H   LIG d   1       5.514  -1.319  -8.021  0.00  0.00     0.028 H 
BRANCH  23  26
ATOM     26  C   LIG d   1       5.055   0.759  -8.354  0.00  0.00    -0.052 C 
ATOM     27  H   LIG d   1       5.363   1.724  -7.949  0.00  0.00     0.027 H 
ATOM     28  H   LIG d   1       5.393   0.676  -9.387  0.00  0.00     0.027 H 
BRANCH  26  29
ATOM     29  C   LIG d   1       3.531   0.647  -8.304  0.00  0.00    -0.056 C 
ATOM     30  H   LIG d   1       3.190  -0.026  -9.090  0.00  0.00     0.026 H 
ATOM     31  H   LIG d   1       3.227   0.255  -7.332  0.00  0.00     0.026 H 
BRANCH  29  32
ATOM     32  C   LIG d   1       2.911   2.031  -8.512  0.00  0.00    -0.065 C 
ATOM     33  H   LIG d   1       2.689   2.479  -7.544  0.00  0.00     0.023 H 
ATOM     34  H   LIG d   1       3.612   2.666  -9.054  0.00  0.00     0.023 H 
ATOM     35  H   LIG d   1       1.991   1.933  -9.087  0.00  0.00     0.023 H 
ENDBRANCH  29  32
ENDBRANCH  26  29
ENDBRANCH  23  26
ENDBRANCH  20  23
ENDBRANCH   1  20
BRANCH   2  36
ATOM     36  C   LIG d   1       4.348  -0.210  -3.326  0.00  0.00     0.308 C 
ATOM     37 CL   LIG d   1       3.306   0.244  -4.725  0.00  0.00    -0.090 Cl
BRANCH  36  38
ATOM     38  C   LIG d   1       3.769  -1.450  -2.641  0.00  0.00     0.425 C 
ATOM     39  F   LIG d   1       4.370  -1.613  -1.388  0.00  0.00    -0.168 F 
ATOM     40  F   LIG d   1       2.389  -1.292  -2.478  0.00  0.00    -0.168 F 
ATOM     41  F   LIG d   1       4.020  -2.577  -3.429  0.00  0.00    -0.168 F 
ENDBRANCH  36  38
BRANCH  36  42
ATOM     42  C   LIG d   1       4.395   0.948  -2.327  0.00  0.00     0.425 C 
ATOM     43  F   LIG d   1       4.729   0.457  -1.060  0.00  0.00    -0.168 F 
ATOM     44  F   LIG d   1       5.357   1.878  -2.735  0.00  0.00    -0.168 F 
ATOM     45  F   LIG d   1       3.142   1.568  -2.271  0.00  0.00    -0.168 F 
ENDBRANCH  36  42
ENDBRANCH   2  36
TORSDOF 13
ENDMDL
MODEL 9
REMARK VINA RESULT:      -5.6      1.777      3.661
REMARK  13 active torsions:
REMARK  status: ('A' for Active; 'I' for Inactive)
REMARK    1  A    between atoms: C_1  and  C_2 
REMARK    2  A    between atoms: C_2  and  C_3 
REMARK    3  A    between atoms: C_3  and  C_4 
REMARK    4  A    between atoms: C_4  and  C_5 
REMARK    5  A    between atoms: C_5  and  N_6 
REMARK    6  A    between atoms: N_6  and  C_7 
REMARK       I    between atoms: N_6  and  C_12 
REMARK    7  A    between atoms: C_7  and  C_8 
REMARK    8  A    between atoms: C_8  and  C_9 
REMARK    9  A    between atoms: C_9  and  C_10 
REMARK   10  A    between atoms: C_10  and  C_11 
REMARK   11  A    between atoms: C_12  and  C_14 
REMARK   12  A    between atoms: C_14  and  C_15 
REMARK   13  A    between atoms: C_14  and  C_19 
ROOT
ATOM      1  N   LIG d   1       5.515  -0.503  -5.620  0.00  0.00    -0.299 N 
ATOM      2  C   LIG d   1       4.545  -0.370  -4.694  0.00  0.00     0.255 C 
ATOM      3  O   LIG d   1       3.388  -0.252  -5.041  0.00  0.00    -0.273 OA
ENDROOT
BRANCH   1   4
ATOM      4  C   LIG d   1       5.206  -1.091  -6.925  0.00  0.00     0.015 C 
ATOM      5  H   LIG d   1       5.656  -0.486  -7.713  0.00  0.00     0.046 H 
ATOM      6  H   LIG d   1       4.125  -1.121  -7.064  0.00  0.00     0.046 H 
BRANCH   4   7
ATOM      7  C   LIG d   1       5.767  -2.513  -6.991  0.00  0.00    -0.037 C 
ATOM      8  H   LIG d   1       6.636  -2.591  -6.338  0.00  0.00     0.028 H 
ATOM      9  H   LIG d   1       6.062  -2.740  -8.016  0.00  0.00     0.028 H 
BRANCH   7  10
ATOM     10  C   LIG d   1       4.696  -3.506  -6.537  0.00  0.00    -0.052 C 
ATOM     11  H   LIG d   1       4.486  -4.210  -7.343  0.00  0.00     0.027 H 
ATOM     12  H   LIG d   1       3.785  -2.967  -6.280  0.00  0.00     0.027 H 
BRANCH  10  13
ATOM     13  C   LIG d   1       5.198  -4.272  -5.311  0.00  0.00    -0.056 C 
ATOM     14  H   LIG d   1       5.051  -5.341  -5.465  0.00  0.00     0.026 H 
ATOM     15  H   LIG d   1       4.642  -3.951  -4.429  0.00  0.00     0.026 H 
BRANCH  13  16
ATOM     16  C   LIG d   1       6.687  -3.987  -5.105  0.00  0.00    -0.065 C 
ATOM     17  H   LIG d   1       7.249  -4.354  -5.965  0.00  0.00     0.023 H 
ATOM     18  H   LIG d   1       6.842  -2.913  -5.003  0.00  0.00     0.023 H 
ATOM     19  H   LIG d   1       7.033  -4.492  -4.203  0.00  0.00     0.023 H 
ENDBRANCH  13  16
ENDBRANCH  10  13
ENDBRANCH   7  10
ENDBRANCH   4   7
ENDBRANCH   1   4
BRANCH   1  20
ATOM     20  C   LIG d   1       6.879  -0.062  -5.320  0.00  0.00     0.015 C 
ATOM     21  H   LIG d   1       6.886   0.482  -4.376  0.00  0.00     0.046 H 
ATOM     22  H   LIG d   1       7.534  -0.931  -5.243  0.00  0.00     0.046 H 
BRANCH  20  23
ATOM     23  C   LIG d   1       7.377   0.854  -6.440  0.00  0.00    -0.037 C 
ATOM     24  H   LIG d   1       7.745   0.248  -7.268  0.00  0.00     0.028 H 
ATOM     25  H   LIG d   1       6.557   1.483  -6.786  0.00  0.00     0.028 H 
BRANCH  23  26
ATOM     26  C   LIG d   1       8.509   1.737  -5.912  0.00  0.00    -0.052 C 
ATOM     27  H   LIG d   1       9.357   1.688  -6.595  0.00  0.00     0.027 H 
ATOM     28  H   LIG d   1       8.161   2.768  -5.838  0.00  0.00     0.027 H 
BRANCH  26  29
ATOM     29  C   LIG d   1       8.938   1.243  -4.530  0.00  0.00    -0.056 C 
ATOM     30  H   LIG d   1       8.155   0.614  -4.109  0.00  0.00     0.026 H 
ATOM     31  H   LIG d   1       9.859   0.666  -4.620  0.00  0.00     0.026 H 
BRANCH  29  32
ATOM     32  C   LIG d   1       9.177   2.444  -3.610  0.00  0.00    -0.065 C 
ATOM     33  H   LIG d   1       8.601   2.318  -2.694  0.00  0.00     0.023 H 
ATOM     34  H   LIG d   1      10.237   2.510  -3.367  0.00  0.00     0.023 H 
ATOM     35  H   LIG d   1       8.862   3.356  -4.115  0.00  0.00     0.023 H 
ENDBRANCH  29  32
ENDBRANCH  26  29
ENDBRANCH  23  26
ENDBRANCH  20  23
ENDBRANCH   1  20
BRANCH   2  36
ATOM     36  C   LIG d   1       4.895  -0.366  -3.229  0.00  0.00     0.308 C 
ATOM     37 CL   LIG d   1       6.564  -1.010  -3.007  0.00  0.00    -0.090 Cl
BRANCH  36  38
ATOM     38  C   LIG d   1       4.826   1.065  -2.692  0.00  0.00     0.425 C 
ATOM     39  F   LIG d   1       4.740   1.035  -1.295  0.00  0.00    -0.168 F 
ATOM     40  F   LIG d   1       5.978   1.763  -3.072  0.00  0.00    -0.168 F 
ATOM     41  F   LIG d   1       3.699   1.705  -3.215  0.00  0.00    -0.168 F 
ENDBRANCH  36  38
BRANCH  36  42
ATOM     42  C   LIG d   1       3.903  -1.245  -2.465  0.00  0.00     0.425 C 
ATOM     43  F   LIG d   1       4.406  -1.513  -1.187  0.00  0.00    -0.168 F 
ATOM     44  F   LIG d   1       2.679  -0.579  -2.354  0.00  0.00    -0.168 F 
ATOM     45  F   LIG d   1       3.718  -2.449  -3.154  0.00  0.00    -0.168 F 
ENDBRANCH  36  42
ENDBRANCH   2  36
TORSDOF 13
ENDMDL
MODEL 10
REMARK VINA RESULT:      -5.6      1.423      4.676
REMARK  13 active torsions:
REMARK  status: ('A' for Active; 'I' for Inactive)
REMARK    1  A    between atoms: C_1  and  C_2 
REMARK    2  A    between atoms: C_2  and  C_3 
REMARK    3  A    between atoms: C_3  and  C_4 
REMARK    4  A    between atoms: C_4  and  C_5 
REMARK    5  A    between atoms: C_5  and  N_6 
REMARK    6  A    between atoms: N_6  and  C_7 
REMARK       I    between atoms: N_6  and  C_12 
REMARK    7  A    between atoms: C_7  and  C_8 
REMARK    8  A    between atoms: C_8  and  C_9 
REMARK    9  A    between atoms: C_9  and  C_10 
REMARK   10  A    between atoms: C_10  and  C_11 
REMARK   11  A    between atoms: C_12  and  C_14 
REMARK   12  A    between atoms: C_14  and  C_15 
REMARK   13  A    between atoms: C_14  and  C_19 
ROOT
ATOM      1  N   LIG d   1       5.371  -0.328  -5.509  0.00  0.00    -0.299 N 
ATOM      2  C   LIG d   1       5.314  -0.351  -4.162  0.00  0.00     0.255 C 
ATOM      3  O   LIG d   1       6.295  -0.663  -3.520  0.00  0.00    -0.273 OA
ENDROOT
BRANCH   1   4
ATOM      4  C   LIG d   1       6.647  -0.082  -6.184  0.00  0.00     0.015 C 
ATOM      5  H   LIG d   1       7.405   0.182  -5.446  0.00  0.00     0.046 H 
ATOM      6  H   LIG d   1       6.530   0.738  -6.893  0.00  0.00     0.046 H 
BRANCH   4   7
ATOM      7  C   LIG d   1       7.081  -1.344  -6.931  0.00  0.00    -0.037 C 
ATOM      8  H   LIG d   1       7.666  -1.065  -7.807  0.00  0.00     0.028 H 
ATOM      9  H   LIG d   1       6.199  -1.902  -7.246  0.00  0.00     0.028 H 
BRANCH   7  10
ATOM     10  C   LIG d   1       7.933  -2.217  -6.007  0.00  0.00    -0.052 C 
ATOM     11  H   LIG d   1       7.857  -1.846  -4.984  0.00  0.00     0.027 H 
ATOM     12  H   LIG d   1       8.974  -2.179  -6.330  0.00  0.00     0.027 H 
BRANCH  10  13
ATOM     13  C   LIG d   1       7.433  -3.661  -6.064  0.00  0.00    -0.056 C 
ATOM     14  H   LIG d   1       8.246  -4.338  -5.804  0.00  0.00     0.026 H 
ATOM     15  H   LIG d   1       7.082  -3.885  -7.072  0.00  0.00     0.026 H 
BRANCH  13  16
ATOM     16  C   LIG d   1       6.282  -3.842  -5.072  0.00  0.00    -0.065 C 
ATOM     17  H   LIG d   1       5.835  -4.827  -5.209  0.00  0.00     0.023 H 
ATOM     18  H   LIG d   1       6.662  -3.755  -4.054  0.00  0.00     0.023 H 
ATOM     19  H   LIG d   1       5.528  -3.074  -5.246  0.00  0.00     0.023 H 
ENDBRANCH  13  16
ENDBRANCH  10  13
ENDBRANCH   7  10
ENDBRANCH   4   7
ENDBRANCH   1   4
BRANCH   1  20
ATOM     20  C   LIG d   1       4.155  -0.546  -6.296  0.00  0.00     0.015 C 
ATOM     21  H   LIG d   1       4.009  -1.614  -6.451  0.00  0.00     0.046 H 
ATOM     22  H   LIG d   1       3.297  -0.135  -5.762  0.00  0.00     0.046 H 
BRANCH  20  23
ATOM     23  C   LIG d   1       4.293   0.152  -7.651  0.00  0.00    -0.037 C 
ATOM     24  H   LIG d   1       4.892   1.056  -7.535  0.00  0.00     0.028 H 
ATOM     25  H   LIG d   1       4.783  -0.520  -8.357  0.00  0.00     0.028 H 
BRANCH  23  26
ATOM     26  C   LIG d   1       2.906   0.522  -8.178  0.00  0.00    -0.052 C 
ATOM     27  H   LIG d   1       2.736   0.027  -9.135  0.00  0.00     0.027 H 
ATOM     28  H   LIG d   1       2.148   0.201  -7.464  0.00  0.00     0.027 H 
BRANCH  26  29
ATOM     29  C   LIG d   1       2.820   2.038  -8.367  0.00  0.00    -0.056 C 
ATOM     30  H   LIG d   1       1.867   2.293  -8.828  0.00  0.00     0.026 H 
ATOM     31  H   LIG d   1       2.898   2.530  -7.396  0.00  0.00     0.026 H 
BRANCH  29  32
ATOM     32  C   LIG d   1       3.965   2.506  -9.269  0.00  0.00    -0.065 C 
ATOM     33  H   LIG d   1       3.976   1.910 -10.180  0.00  0.00     0.023 H 
ATOM     34  H   LIG d   1       3.822   3.556  -9.522  0.00  0.00     0.023 H 
ATOM     35  H   LIG d   1       4.913   2.385  -8.744  0.00  0.00     0.023 H 
ENDBRANCH  29  32
ENDBRANCH  26  29
ENDBRANCH  23  26
ENDBRANCH  20  23
ENDBRANCH   1  20
BRANCH   2  36
ATOM     36  C   LIG d   1       4.034   0.009  -3.454  0.00  0.00     0.308 C 
ATOM     37 CL   LIG d   1       2.857   0.681  -4.643  0.00  0.00    -0.090 Cl
BRANCH  36  38
ATOM     38  C   LIG d   1       3.442  -1.242  -2.802  0.00  0.00     0.425 C 
ATOM     39  F   LIG d   1       2.088  -1.027  -2.525  0.00  0.00    -0.168 F 
ATOM     40  F   LIG d   1       3.573  -2.329  -3.673  0.00  0.00    -0.168 F 
ATOM     41  F   LIG d   1       4.124  -1.514  -1.612  0.00  0.00    -0.168 F 
ENDBRANCH  36  38
BRANCH  36  42
ATOM     42  C   LIG d   1       4.325   1.056  -2.377  0.00  0.00     0.425 C 
ATOM     43  F   LIG d   1       5.312   1.935  -2.836  0.00  0.00    -0.168 F 
ATOM     44  F   LIG d   1       3.158   1.773  -2.095  0.00  0.00    -0.168 F 
ATOM     45  F   LIG d   1       4.773   0.418  -1.215  0.00  0.00    -0.168 F 
ENDBRANCH  36  42
ENDBRANCH   2  36
TORSDOF 13
ENDMDL
